data_PCOD9110015
_publ_section_title
;
Structure prediction by ZEFSAII (Michael W. Deem and Ramdas Pophale) SiO2 
 PCOD9110015
Probable space group: P -1
;
_chemical_formula_sum "Si O2"
_cell_formula_units_Z 16
_cell_length_a 17.537663
_cell_length_b 8.944176
_cell_length_c 12.667530
_cell_angle_alpha 83.421165
_cell_angle_beta 23.436994
_cell_angle_gamma 94.543554
_cell_volume 694.441513
_symmetry_space_group_name_H-M "P -1"
_symmetry_group_IT_number 2
_symmetry_cell_setting 'triclinic'
loop_
_space_group_symop_operation_xyz
x,y,z
-x,-y,-z
loop_
_atom_site_type_symbol
_atom_site_label
_atom_site_fract_x
_atom_site_fract_y
_atom_site_fract_z
Si Si1 0.787638 0.595521 0.422984
Si Si2 0.200505 0.380851 0.342728
Si Si3 0.502094 0.753371 0.125992
Si Si4 0.567472 0.043048 0.291639
Si Si5 0.107289 0.989825 0.246244
Si Si6 0.773033 0.063499 0.546886
Si Si7 0.078716 0.863009 0.869206
Si Si8 0.564369 0.284220 0.110824
O O1 0.844150 0.617715 0.475261
O O2 0.666544 0.395600 0.572715
O O3 0.606563 0.656757 0.635114
O O4 0.970816 0.705052 0.098452
O O5 0.404616 0.341226 0.064001
O O6 0.258067 0.555259 0.193634
O O7 0.003882 0.207738 0.561142
O O8 0.357616 0.836931 0.259581
O O9 0.705575 0.886735 0.923593
O O10 0.640490 0.222069 0.123467
O O11 0.500000 0.000000 0.500000
O O12 0.335987 0.931360 0.541426
O O13 0.759768 0.998831 0.028880
O O14 0.917568 0.035843 0.454190
O O15 0.944487 0.156583 0.226113
O O16 0.585860 0.880684 0.756758
O O17 0.000000 0.000000 0.000000
#
# Coordination Sequence:
#
# PCOD9110015 Si02
#       8
#     2   2   2   2   2   2   2   2
#     4  11  22  43  74 103 135 188 231 287 349 415
#     4  11  24  45  73 100 141 186 234 285 348 417
#     4  11  25  46  66 105 144 178 234 291 348 414
#     4  11  22  38  67 105 137 176 235 286 339 412
#     4  12  24  44  68 105 139 183 234 285 354 410
#     4  11  23  43  71  99 138 188 229 283 360 404
#     4  11  19  41  73  97 133 180 233 283 342 416
#     4  10  20  41  69 100 131 182 233 280 337 415
#
# _framework density 23.040096999999999
#
# number of rings (size 3 to 8) (size 9 to 14) (size 15 to 20)
#    0.000    1.000    6.250    3.375    0.000    1.500 
#    0.000    5.625    0.000    0.750    0.000    0.000 
#    0.000    0.000    0.000    0.000    0.000    0.000 
#
# Total GULP energy -89281.929325 kJ/mol
# GULP energy per Si atom -5580.120583 kJ/mol
# Density = 2.298766 g / cm^3
# Si number density = 23.040097 Si / 1000 Ang^3
#
#
#
# Elastic Constant Matrix: (Units=GPa)
#
#
# Indices 1 2 3 4 5 6 
#
# 1 115.2257 50.5842 66.5630 -15.3823 22.0732 -23.4247
# 2 50.5842 113.9180 75.7030 -8.8346 2.3761 -23.1574
# 3 66.5630 75.7030 140.1112 -28.3951 26.7825 -8.1295
# 4 -15.3823 -8.8346 -28.3951 53.6154 -9.6060 1.0950
# 5 22.0732 2.3761 26.7825 -9.6060 58.7257 -2.8230
# 6 -23.4247 -23.1574 -8.1295 1.0950 -2.8230 33.1628
#
#
#
# Elastic Compliance Matrix: (Units=1/GPa)
#
#
# Indices 1 2 3 4 5 6 
#
# 1 0.014300 -0.001370 -0.004991 0.000616 -0.002573 0.007681
# 2 -0.001370 0.017194 -0.009296 -0.001921 0.004186 0.009179
# 3 -0.004991 -0.009296 0.015997 0.004825 -0.004574 -0.006643
# 4 0.000616 -0.001921 0.004825 0.021272 0.001109 -0.000331
# 5 -0.002573 0.004186 -0.004574 0.001109 0.020174 0.001665
# 6 0.007681 0.009179 -0.006643 -0.000331 0.001665 0.040514
#
#
# Mechanical properties :
#
#
# Convention : Reuss Voigt Hill
#
# Bulk Modulus (GPa) = 61.81395 83.88394 72.84894
# Shear Modulus (GPa) = 30.09202 40.86110 35.47656
#
# Velocity S-wave (km/s) = 3.61788 4.21584 3.92825
# Velocity P-wave (km/s) = 6.65877 7.75787 7.22924
#
# Compressibility (1/GPa) = 0.01617758
#
# Stress axis : x y z
#
# Youngs Moduli (GPa) = 69.93056 58.16038 62.51050
#
# Poissons Ratio (x) = 0.07970 0.31197
# Poissons Ratio (y) = 0.09583 0.58108
# Poissons Ratio (z) = 0.34900 0.54064
#
# Static dielectric constant tensor:
#      x y z
#    x 2.160980 -0.050950 0.031290 
#    y -0.050950 1.940540 -0.036910 
#    z 0.031290 -0.036910 1.895300 
# 
# From -- ./inp_files/540229.got.cif
#   From: 2010.05.17/outbox.cif.g08.bks.cpg/sg2_271_cif.got.tgz:540229.got - 2010.06.03 11:33:40.
