data_PCOD9110726
_publ_section_title
;
Structure prediction by ZEFSAII (Michael W. Deem and Ramdas Pophale) SiO2 
 PCOD9110726
Probable space group: P -1
;
_chemical_formula_sum "Si O2"
_cell_formula_units_Z 16
_cell_length_a 10.510204
_cell_length_b 9.622210
_cell_length_c 12.041846
_cell_angle_alpha 131.368864
_cell_angle_beta 69.936323
_cell_angle_gamma 130.622748
_cell_volume 685.501109
_symmetry_space_group_name_H-M "P -1"
_symmetry_group_IT_number 2
_symmetry_cell_setting 'triclinic'
loop_
_space_group_symop_operation_xyz
x,y,z
-x,-y,-z
loop_
_atom_site_type_symbol
_atom_site_label
_atom_site_fract_x
_atom_site_fract_y
_atom_site_fract_z
Si Si1 0.066114 0.707120 0.915354
Si Si2 0.362577 0.778242 0.994954
Si Si3 0.651495 0.357522 0.610242
Si Si4 0.752919 0.852435 0.623669
Si Si5 0.849012 0.279962 0.354251
Si Si6 0.290901 0.779300 0.249685
Si Si7 0.425956 0.496030 0.682356
Si Si8 0.044077 0.094484 0.209485
O O1 0.185969 0.730838 0.989989
O O2 0.133249 0.686037 0.765564
O O3 0.877544 0.477383 0.860042
O O4 0.057539 0.923355 0.039259
O O5 0.365373 0.574113 0.840344
O O6 0.408878 0.828215 0.135977
O O7 0.500000 0.000000 0.000000
O O8 0.690228 0.256499 0.440850
O O9 0.645952 0.230021 0.654352
O O10 0.491167 0.352961 0.631909
O O11 0.806349 0.635063 0.723345
O O12 0.588282 0.715544 0.683336
O O13 0.717992 0.657916 0.446513
O O14 0.912437 0.942650 0.700193
O O15 0.758119 0.047317 0.659072
O O16 0.000000 0.500000 0.500000
O O17 0.875716 0.081267 0.256491
#
# Coordination Sequence:
#
# PCOD9110726 Si02
#       8
#     2   2   2   2   2   2   2   2
#     4  12  24  42  72 102 138 175 226 285 337 396
#     4  12  25  45  70 100 133 189 224 270 345 410
#     4  10  23  43  68  97 141 174 226 281 331 404
#     4  10  22  41  69  91 138 170 228 279 324 399
#     4  10  21  39  67  97 131 179 219 264 351 401
#     4  12  24  44  68 103 141 167 228 300 327 385
#     4  10  23  44  68  95 129 193 223 262 340 415
#     4  10  20  42  65  98 132 183 215 273 338 413
#
# _framework density 23.340589999999999
#
# number of rings (size 3 to 8) (size 9 to 14) (size 15 to 20)
#    0.000    1.250    5.000    1.500    7.000    1.000 
#    2.250    1.250    0.000    0.000    0.000    0.000 
#    0.000    0.000    0.000    0.000    0.000    0.000 
#
# Total GULP energy -89510.395813 kJ/mol
# GULP energy per Si atom -5594.399738 kJ/mol
# Density = 2.328747 g / cm^3
# Si number density = 23.340590 Si / 1000 Ang^3
#
#
#
# Elastic Constant Matrix: (Units=GPa)
#
#
# Indices 1 2 3 4 5 6 
#
# 1 72.1970 21.0376 24.8435 1.5952 -17.3742 -31.4538
# 2 21.0376 87.6938 35.9334 -7.5024 -0.7135 -29.8127
# 3 24.8435 35.9334 130.6261 -11.8922 -22.9959 -15.3981
# 4 1.5952 -7.5024 -11.8922 30.1303 -2.7864 7.6391
# 5 -17.3742 -0.7135 -22.9959 -2.7864 43.4841 3.4140
# 6 -31.4538 -29.8127 -15.3981 7.6391 3.4140 36.4536
#
#
#
# Elastic Compliance Matrix: (Units=1/GPa)
#
#
# Indices 1 2 3 4 5 6 
#
# 1 0.026612 0.002408 -0.002213 -0.007334 0.007079 0.024870
# 2 0.002408 0.017483 -0.003980 -0.001393 -0.002138 0.015186
# 3 -0.002213 -0.003980 0.010142 0.004136 0.004852 -0.002202
# 4 -0.007334 -0.001393 0.004136 0.038697 0.002821 -0.014094
# 5 0.007079 -0.002138 0.004852 0.002821 0.028288 0.003169
# 6 0.024870 0.015186 -0.002202 -0.014094 0.003169 0.063037
#
#
# Mechanical properties :
#
#
# Convention : Reuss Voigt Hill
#
# Bulk Modulus (GPa) = 21.42910 50.46065 35.94488
# Shear Modulus (GPa) = 24.10964 35.92709 30.01836
#
# Velocity S-wave (km/s) = 3.21744 3.92759 3.59012
# Velocity P-wave (km/s) = 4.79620 6.49878 5.71129
#
# Compressibility (1/GPa) = 0.04666551
#
# Stress axis : x y z
#
# Youngs Moduli (GPa) = 37.57763 57.19888 98.59557
#
# Poissons Ratio (x) = -0.13773 0.21823
# Poissons Ratio (y) = -0.09048 0.39243
# Poissons Ratio (z) = 0.08317 0.22766
#
# Static dielectric constant tensor:
#      x y z
#    x 1.897530 0.033000 0.003630 
#    y 0.033000 1.900220 0.007720 
#    z 0.003630 0.007720 1.873300 
# 
# From -- ./inp_files/392440.got.cif
#   From: 2010.05.17/outbox.cif.g08.bks.cpg/sg2_197_cif.got.tgz:392440.got - 2010.06.03 11:33:40.
