data_PCOD9110598
_publ_section_title
;
Structure prediction by ZEFSAII (Michael W. Deem and Ramdas Pophale) SiO2 
 PCOD9110598
Probable space group: P -1
;
_chemical_formula_sum "Si O2"
_cell_formula_units_Z 16
_cell_length_a 6.407602
_cell_length_b 14.897935
_cell_length_c 10.231694
_cell_angle_alpha 50.270627
_cell_angle_beta 108.322446
_cell_angle_gamma 124.360773
_cell_volume 618.431016
_symmetry_space_group_name_H-M "P -1"
_symmetry_group_IT_number 2
_symmetry_cell_setting 'triclinic'
loop_
_space_group_symop_operation_xyz
x,y,z
-x,-y,-z
loop_
_atom_site_type_symbol
_atom_site_label
_atom_site_fract_x
_atom_site_fract_y
_atom_site_fract_z
Si Si1 0.164654 0.513435 0.895910
Si Si2 0.680796 0.457217 0.695438
Si Si3 0.244677 0.312772 0.946453
Si Si4 0.756690 0.002587 0.378006
Si Si5 0.001000 0.742679 0.460374
Si Si6 0.849903 0.342323 0.661417
Si Si7 0.655180 0.201662 0.308515
Si Si8 0.993600 0.009241 0.150312
O O1 0.231828 0.398071 0.986551
O O2 0.381560 0.668220 0.813415
O O3 0.963190 0.489995 0.764072
O O4 0.000000 0.500000 0.000000
O O5 0.493431 0.411261 0.821414
O O6 0.742067 0.601128 0.515010
O O7 0.615862 0.331331 0.705968
O O8 0.014445 0.293901 0.822046
O O9 0.203993 0.162954 0.087680
O O10 0.697598 0.127837 0.262666
O O11 0.779372 0.987216 0.239878
O O12 0.538749 0.899587 0.529193
O O13 0.000000 0.000000 0.500000
O O14 0.204026 0.735917 0.410903
O O15 0.067049 0.739938 0.625341
O O16 0.026167 0.884179 0.310474
O O17 0.000000 0.500000 0.500000
O O18 0.000000 0.000000 0.000000
#
# Coordination Sequence:
#
# PCOD9110598 Si02
#       8
#     2   2   2   2   2   2   2   2
#     4  10  22  41  65  94 131 162 221 284 328 382
#     4   9  22  39  64  92 123 172 220 265 325 398
#     4  11  23  40  62  94 130 169 215 272 337 382
#     4  11  24  44  70  96 136 176 224 273 326 405
#     4  10  20  42  64  92 134 169 222 268 326 399
#     4   9  19  39  60  88 129 165 212 267 319 392
#     4  10  23  43  70 100 122 184 229 265 329 400
#     4  12  25  43  64 101 140 176 216 279 337 391
#
# _framework density 25.871924
#
# number of rings (size 3 to 8) (size 9 to 14) (size 15 to 20)
#    0.000    1.750    2.500    1.500    1.750    4.500 
#    4.500    1.250    0.000    0.000    0.000    0.000 
#    0.000    0.000    0.000    0.000    0.000    0.000 
#
# Total GULP energy -89078.281869 kJ/mol
# GULP energy per Si atom -5567.392617 kJ/mol
# Density = 2.581304 g / cm^3
# Si number density = 25.871924 Si / 1000 Ang^3
#
#
#
# Elastic Constant Matrix: (Units=GPa)
#
#
# Indices 1 2 3 4 5 6 
#
# 1 115.2710 68.2765 39.2367 -8.6226 -0.6703 -42.7921
# 2 68.2765 152.4883 48.5692 -14.8584 -12.4615 -67.3480
# 3 39.2367 48.5692 105.0596 -18.2327 -11.8744 -35.0251
# 4 -8.6226 -14.8584 -18.2327 56.5845 -13.0359 0.4190
# 5 -0.6703 -12.4615 -11.8744 -13.0359 48.9132 5.2366
# 6 -42.7921 -67.3480 -35.0251 0.4190 5.2366 59.9250
#
#
#
# Elastic Compliance Matrix: (Units=1/GPa)
#
#
# Indices 1 2 3 4 5 6 
#
# 1 0.012989 -0.003301 -0.001978 0.000070 -0.001612 0.004549
# 2 -0.003301 0.014936 0.000164 0.004146 0.003385 0.014200
# 3 -0.001978 0.000164 0.013613 0.004996 0.003972 0.006347
# 4 0.000070 0.004146 0.004996 0.022039 0.007413 0.006828
# 5 -0.001612 0.003385 0.003972 0.007413 0.023921 0.002832
# 6 0.004549 0.014200 0.006347 0.006828 0.002832 0.039309
#
#
# Mechanical properties :
#
#
# Convention : Reuss Voigt Hill
#
# Bulk Modulus (GPa) = 31.94192 76.10930 54.02561
# Shear Modulus (GPa) = 33.90462 47.53364 40.71913
#
# Velocity S-wave (km/s) = 3.62398 4.29099 3.97151
# Velocity P-wave (km/s) = 5.46662 7.35062 6.47748
#
# Compressibility (1/GPa) = 0.03130682
#
# Stress axis : x y z
#
# Youngs Moduli (GPa) = 76.99100 66.95321 73.45902
#
# Poissons Ratio (x) = 0.22104 0.14531
# Poissons Ratio (y) = 0.25418 -0.01206
# Poissons Ratio (z) = 0.15229 -0.01099
#
# Static dielectric constant tensor:
#      x y z
#    x 2.102160 0.047800 0.082110 
#    y 0.047800 2.490460 -0.059540 
#    z 0.082110 -0.059540 2.154510 
# 
# From -- ./inp_files/367509.got.cif
#   From: 2010.05.17/outbox.cif.g08.bks.cpg/sg2_184_cif.got.tgz:367509.got - 2010.06.03 11:33:40.
