data_PCOD9110186
_publ_section_title
;
Structure prediction by ZEFSAII (Michael W. Deem and Ramdas Pophale) SiO2 
 PCOD9110186
Probable space group: P -1
;
_chemical_formula_sum "Si O2"
_cell_formula_units_Z 16
_cell_length_a 11.572150
_cell_length_b 6.731331
_cell_length_c 14.080830
_cell_angle_alpha 88.732223
_cell_angle_beta 126.798928
_cell_angle_gamma 122.644074
_cell_volume 661.772365
_symmetry_space_group_name_H-M "P -1"
_symmetry_group_IT_number 2
_symmetry_cell_setting 'triclinic'
loop_
_space_group_symop_operation_xyz
x,y,z
-x,-y,-z
loop_
_atom_site_type_symbol
_atom_site_label
_atom_site_fract_x
_atom_site_fract_y
_atom_site_fract_z
Si Si1 0.475802 0.730085 0.788664
Si Si2 0.729594 0.845689 0.069553
Si Si3 0.714027 0.113561 0.232078
Si Si4 0.634797 0.602569 0.711846
Si Si5 0.056421 0.364129 0.777228
Si Si6 0.075071 0.276788 0.496330
Si Si7 0.035467 0.415233 0.115025
Si Si8 0.246351 0.170569 0.441592
O O1 0.472718 0.962728 0.809002
O O2 0.609575 0.755047 0.773870
O O3 0.260165 0.500717 0.646032
O O4 0.536863 0.670702 0.914733
O O5 0.840204 0.737443 0.129395
O O6 0.694674 0.907218 0.156038
O O7 0.863992 0.120583 0.073290
O O8 0.786818 0.352788 0.195286
O O9 0.886955 0.235761 0.389304
O O10 0.788808 0.576098 0.811959
O O11 0.428521 0.312014 0.597270
O O12 0.689228 0.746623 0.635825
O O13 0.943202 0.394748 0.796846
O O14 0.906134 0.143771 0.628671
O O15 0.150905 0.291179 0.427167
O O16 0.000000 0.000000 0.500000
O O17 0.000000 0.500000 0.000000
#
# Coordination Sequence:
#
# PCOD9110186 Si02
#       8
#     2   2   2   2   2   2   2   2
#     4  11  25  41  69 105 135 181 221 279 341 396
#     4  11  24  46  69  98 142 176 225 287 330 399
#     4  11  24  46  70 100 132 177 234 269 341 414
#     4  10  22  42  65 100 141 169 229 279 326 407
#     4  11  22  42  75  91 129 189 219 274 346 391
#     4  11  23  47  72  99 137 175 224 287 337 399
#     4  11  24  41  64  99 135 178 228 268 334 407
#     4  10  20  41  70  96 130 179 217 278 339 388
#
# _framework density 24.177499999999998
#
# number of rings (size 3 to 8) (size 9 to 14) (size 15 to 20)
#    0.000    1.250    2.500    3.000    1.750    2.000 
#   11.250    0.000    0.000    0.000    0.000    0.000 
#    0.000    0.000    0.000    0.000    0.000    0.000 
#
# Total GULP energy -89534.336703 kJ/mol
# GULP energy per Si atom -5595.896044 kJ/mol
# Density = 2.412247 g / cm^3
# Si number density = 24.177500 Si / 1000 Ang^3
#
#
#
# Elastic Constant Matrix: (Units=GPa)
#
#
# Indices 1 2 3 4 5 6 
#
# 1 164.8240 26.0325 58.4355 -9.5646 14.5086 -46.8443
# 2 26.0325 92.6663 24.6988 -9.0818 14.5013 -14.3859
# 3 58.4355 24.6988 112.9753 -12.6178 4.5720 -19.5103
# 4 -9.5646 -9.0818 -12.6178 28.6560 -9.0781 8.7905
# 5 14.5086 14.5013 4.5720 -9.0781 36.7626 -3.4176
# 6 -46.8443 -14.3859 -19.5103 8.7905 -3.4176 30.4055
#
#
#
# Elastic Compliance Matrix: (Units=1/GPa)
#
#
# Indices 1 2 3 4 5 6 
#
# 1 0.012510 0.000488 -0.003797 -0.004070 -0.004008 0.017795
# 2 0.000488 0.012659 -0.001953 0.000432 -0.004384 0.004871
# 3 -0.003797 -0.001953 0.011553 0.003841 0.001755 -0.000274
# 4 -0.004070 0.000432 0.003841 0.043191 0.010235 -0.014938
# 5 -0.004008 -0.004384 0.001755 0.010235 0.032221 -0.006461
# 6 0.017795 0.004871 -0.000274 -0.014938 -0.006461 0.066026
#
#
# Mechanical properties :
#
#
# Convention : Reuss Voigt Hill
#
# Bulk Modulus (GPa) = 38.16934 65.42213 51.79573
# Shear Modulus (GPa) = 25.32712 36.58476 30.95594
#
# Velocity S-wave (km/s) = 3.24010 3.89417 3.58210
# Velocity P-wave (km/s) = 5.46068 6.88021 6.21113
#
# Compressibility (1/GPa) = 0.02619904
#
# Stress axis : x y z
#
# Youngs Moduli (GPa) = 79.93592 78.99263 86.55699
#
# Poissons Ratio (x) = -0.03859 0.32864
# Poissons Ratio (y) = -0.03905 0.16908
# Poissons Ratio (z) = 0.30350 0.15430
#
# Static dielectric constant tensor:
#      x y z
#    x 2.025510 0.033090 -0.017830 
#    y 0.033090 1.929210 0.042360 
#    z -0.017830 0.042360 1.930100 
# 
# From -- ./inp_files/367468.got.cif
#   From: 2010.05.17/outbox.cif.g08.bks.cpg/sg2_184_cif.got.tgz:367468.got - 2010.06.03 11:33:40.
