data_PCOD9110786
_publ_section_title
;
Structure prediction by ZEFSAII (Michael W. Deem and Ramdas Pophale) SiO2 
 PCOD9110786
Probable space group: P -1
;
_chemical_formula_sum "Si O2"
_cell_formula_units_Z 14
_cell_length_a 20.830520
_cell_length_b 8.762147
_cell_length_c 12.139715
_cell_angle_alpha 144.200833
_cell_angle_beta 30.126101
_cell_angle_gamma 141.744307
_cell_volume 623.490027
_symmetry_space_group_name_H-M "P -1"
_symmetry_group_IT_number 2
_symmetry_cell_setting 'triclinic'
loop_
_space_group_symop_operation_xyz
x,y,z
-x,-y,-z
loop_
_atom_site_type_symbol
_atom_site_label
_atom_site_fract_x
_atom_site_fract_y
_atom_site_fract_z
Si Si1 0.367098 0.191628 0.468047
Si Si2 0.910576 0.083759 0.352483
Si Si3 0.944835 0.384887 0.690185
Si Si4 0.672136 0.943929 0.300214
Si Si5 0.958253 0.366301 0.100463
Si Si6 0.652697 0.246050 0.138784
Si Si7 0.448355 0.244913 0.846777
O O1 0.332379 0.179063 0.643222
O O2 0.515157 0.159802 0.221669
O O3 0.364318 0.493590 0.615012
O O4 0.247541 0.966377 0.457106
O O5 0.954877 0.158547 0.455457
O O6 0.993950 0.329206 0.296851
O O7 0.940343 0.804291 0.114564
O O8 0.028571 0.411387 0.693432
O O9 0.789393 0.324941 0.915658
O O10 0.622513 0.730497 0.149520
O O11 0.816541 0.143731 0.178445
O O12 0.573468 0.134233 0.565781
O O13 0.000000 0.500000 0.000000
O O14 0.649107 0.999935 0.082274
O O15 0.500000 0.500000 0.000000
#
# Coordination Sequence:
#
# PCOD9110786 Si02
#       7
#     2   2   2   2   2   2   2
#     4  10  20  42  66  92 126 168 210 259 316 367
#     4  11  24  42  66  92 132 170 208 261 316 376
#     4  11  23  42  66  97 126 166 215 260 314 373
#     4  10  22  41  65  90 125 170 207 255 318 374
#     4  12  24  40  67  92 127 169 210 261 315 378
#     4  10  21  40  66  94 124 161 217 258 309 370
#     4  10  23  44  63  92 128 166 207 260 317 376
#
# _framework density 22.454249000000001
#
# number of rings (size 3 to 8) (size 9 to 14) (size 15 to 20)
#    0.000    1.429    2.857    2.143    0.000    3.429 
#   15.429    0.000    0.000    0.000    0.000    0.000 
#    0.000    0.000    0.000    0.000    0.000    0.000 
#
# Total GULP energy -78249.047419 kJ/mol
# GULP energy per Si atom -5589.217673 kJ/mol
# Density = 2.240314 g / cm^3
# Si number density = 22.454249 Si / 1000 Ang^3
#
#
#
# Elastic Constant Matrix: (Units=GPa)
#
#
# Indices 1 2 3 4 5 6 
#
# 1 103.4544 37.9260 10.1749 7.6980 39.0707 27.8863
# 2 37.9260 95.8351 18.3663 -22.1467 7.5763 10.3115
# 3 10.1749 18.3663 38.0254 -11.7238 10.1518 16.4204
# 4 7.6980 -22.1467 -11.7238 37.0623 14.1400 -6.3391
# 5 39.0707 7.5763 10.1518 14.1400 36.3142 1.5993
# 6 27.8863 10.3115 16.4204 -6.3391 1.5993 33.2285
#
#
#
# Elastic Compliance Matrix: (Units=1/GPa)
#
#
# Indices 1 2 3 4 5 6 
#
# 1 0.039514 -0.011632 0.026010 0.004414 -0.047347 -0.039284
# 2 -0.011632 0.017032 -0.008883 0.008599 0.007650 0.010139
# 3 0.026010 -0.008883 0.061782 0.020256 -0.049380 -0.043362
# 4 0.004414 0.008599 0.020256 0.048391 -0.030799 -0.005669
# 5 -0.047347 0.007650 -0.049380 -0.030799 0.100431 0.051053
# 6 -0.039284 0.010139 -0.043362 -0.005669 0.051053 0.077806
#
#
# Mechanical properties :
#
#
# Convention : Reuss Voigt Hill
#
# Bulk Modulus (GPa) = 7.73291 41.13878 24.43585
# Shear Modulus (GPa) = 13.26010 32.71083 22.98547
#
# Velocity S-wave (km/s) = 2.43274 3.82092 3.20294
# Velocity P-wave (km/s) = 3.36783 6.15035 4.95828
#
# Compressibility (1/GPa) = 0.12931741
#
# Stress axis : x y z
#
# Youngs Moduli (GPa) = 25.30767 58.71390 16.18590
#
# Poissons Ratio (x) = 0.68296 -0.42100
# Poissons Ratio (y) = 0.29438 0.14379
# Poissons Ratio (z) = -0.65826 0.52158
#
# Static dielectric constant tensor:
#      x y z
#    x 1.877740 0.014790 -0.007700 
#    y 0.014790 1.820060 -0.013330 
#    z -0.007700 -0.013330 1.810210 
# 
# From -- ./inp_files/256579.got.cif
#   From: 2010.05.17/outbox.cif.g08.bks.cpg/sg2_129_cif.got.tgz:256579.got - 2010.06.03 11:33:40.
