data_PCOD9110979
_publ_section_title
;
Structure prediction by ZEFSAII (Michael W. Deem and Ramdas Pophale) SiO2 
 PCOD9110979
Probable space group: P -1
;
_chemical_formula_sum "Si O2"
_cell_formula_units_Z 13
_cell_length_a 19.771756
_cell_length_b 11.775361
_cell_length_c 7.529873
_cell_angle_alpha 52.391461
_cell_angle_beta 39.318193
_cell_angle_gamma 28.176941
_cell_volume 509.239397
_symmetry_space_group_name_H-M "P -1"
_symmetry_group_IT_number 2
_symmetry_cell_setting 'triclinic'
loop_
_space_group_symop_operation_xyz
x,y,z
-x,-y,-z
loop_
_atom_site_type_symbol
_atom_site_label
_atom_site_fract_x
_atom_site_fract_y
_atom_site_fract_z
Si Si1 0.725919 0.561362 0.557842
Si Si2 0.675524 0.038206 0.903924
Si Si3 0.124277 0.452669 0.160615
Si Si4 0.828953 0.143775 0.334300
Si Si5 0.000000 0.000000 0.500000
Si Si6 0.778008 0.843774 0.267028
Si Si7 0.594298 0.652764 0.329095
O O1 0.886869 0.272142 0.541903
O O2 0.769946 0.680925 0.400407
O O3 0.653896 0.630354 0.432796
O O4 0.543862 0.709526 0.893096
O O5 0.776339 0.036569 0.569389
O O6 0.732053 0.817093 0.951648
O O7 0.741700 0.976055 0.035493
O O8 0.000000 0.500000 0.500000
O O9 0.976689 0.666613 0.110494
O O10 0.249864 0.433657 0.015121
O O11 0.886767 0.131666 0.422691
O O12 0.640730 0.438260 0.399909
O O13 0.000000 0.000000 0.000000
O O14 0.614852 0.066227 0.521543
#
# Coordination Sequence:
#
# PCOD9110979 Si02
#       7
#     2   2   2   2   1   2   2
#     4  10  20  42  68 101 132 169 232 288 329 417
#     4  11  22  43  69  95 131 181 226 278 348 398
#     4  12  24  39  65  99 135 177 226 275 343 409
#     4  11  25  45  65  98 144 177 228 292 333 410
#     4  10  24  40  70  94 136 184 224 270 364 392
#     4  11  22  41  72  96 133 175 229 288 332 402
#     4  10  22  42  63  99 135 170 230 283 335 405
#
# _framework density 25.528268000000001
#
# number of rings (size 3 to 8) (size 9 to 14) (size 15 to 20)
#    0.000    1.231    3.077    3.231    4.308    6.154 
#    2.769    0.769    0.000    0.000    0.000    0.000 
#    0.000    0.000    0.000    0.000    0.000    0.000 
#
# Total GULP energy -72519.941273 kJ/mol
# GULP energy per Si atom -5578.457021 kJ/mol
# Density = 2.547016 g / cm^3
# Si number density = 25.528268 Si / 1000 Ang^3
#
#
#
# Elastic Constant Matrix: (Units=GPa)
#
#
# Indices 1 2 3 4 5 6 
#
# 1 77.9980 31.7546 16.8073 1.8605 -9.2615 -11.6727
# 2 31.7546 199.6417 60.7688 20.5815 -21.9054 19.2508
# 3 16.8073 60.7688 117.7442 -5.7400 -29.2135 2.1972
# 4 1.8605 20.5815 -5.7400 34.4600 -2.0582 -1.9881
# 5 -9.2615 -21.9054 -29.2135 -2.0582 18.8504 1.2373
# 6 -11.6727 19.2508 2.1972 -1.9881 1.2373 25.1357
#
#
#
# Elastic Compliance Matrix: (Units=1/GPa)
#
#
# Indices 1 2 3 4 5 6 
#
# 1 0.016052 -0.003395 0.000399 0.002050 0.004128 0.009979
# 2 -0.003395 0.008175 -0.003128 -0.005516 0.002917 -0.008144
# 3 0.000399 -0.003128 0.015617 0.005759 0.021352 0.000620
# 4 0.002050 -0.005516 0.005759 0.033972 0.006770 0.007027
# 5 0.004128 0.002917 0.021352 0.006770 0.092705 -0.006211
# 6 0.009979 -0.008144 0.000620 0.007027 -0.006211 0.051463
#
#
# Mechanical properties :
#
#
# Convention : Reuss Voigt Hill
#
# Bulk Modulus (GPa) = 36.23716 68.22725 52.23221
# Shear Modulus (GPa) = 20.88291 34.75942 27.82117
#
# Velocity S-wave (km/s) = 2.86323 3.69400 3.30482
# Velocity P-wave (km/s) = 5.01562 6.70659 5.92177
#
# Compressibility (1/GPa) = 0.02759598
#
# Stress axis : x y z
#
# Youngs Moduli (GPa) = 62.29857 122.32283 64.03193
#
# Poissons Ratio (x) = 0.41530 -0.02555
# Poissons Ratio (y) = 0.21151 0.20028
# Poissons Ratio (z) = -0.02485 0.38260
#
# Static dielectric constant tensor:
#      x y z
#    x 2.028920 0.005330 0.049320 
#    y 0.005330 1.945520 -0.033460 
#    z 0.049320 -0.033460 2.135750 
# 
# From -- ./inp_files/357314.got.cif
#   From: 2010.05.17/outbox.cif.g08.bks.cpg/sg2_179_cif.got.tgz:357314.got - 2010.06.03 11:33:40.
