data_PCOD9110441
_publ_section_title
;
Structure prediction by ZEFSAII (Michael W. Deem and Ramdas Pophale) SiO2 
 PCOD9110441
Probable space group: P -1
;
_chemical_formula_sum "Si O2"
_cell_formula_units_Z 15
_cell_length_a 12.309532
_cell_length_b 12.693182
_cell_length_c 11.141640
_cell_angle_alpha 145.809061
_cell_angle_beta 115.183765
_cell_angle_gamma 43.594794
_cell_volume 603.140303
_symmetry_space_group_name_H-M "P -1"
_symmetry_group_IT_number 2
_symmetry_cell_setting 'triclinic'
loop_
_space_group_symop_operation_xyz
x,y,z
-x,-y,-z
loop_
_atom_site_type_symbol
_atom_site_label
_atom_site_fract_x
_atom_site_fract_y
_atom_site_fract_z
Si Si1 0.711283 0.904568 0.901057
Si Si2 0.563664 0.469424 0.364874
Si Si3 0.054427 0.828074 0.479064
Si Si4 0.301485 0.962483 0.521751
Si Si5 0.321226 0.211274 0.974136
Si Si6 0.120552 0.610511 0.634990
Si Si7 0.889408 0.170317 0.931800
Si Si8 0.500000 0.500000 0.000000
O O1 0.744330 0.850741 0.008625
O O2 0.851906 0.626246 0.629133
O O3 0.662802 0.167797 0.085430
O O4 0.527810 0.004760 0.889785
O O5 0.500000 0.500000 0.500000
O O6 0.397841 0.713164 0.431176
O O7 0.710028 0.463073 0.404886
O O8 0.230541 0.511819 0.245616
O O9 0.896089 0.858911 0.444203
O O10 0.038820 0.995241 0.735711
O O11 0.000000 0.000000 0.500000
O O12 0.427015 0.780228 0.296329
O O13 0.289136 0.168068 0.785862
O O14 0.118156 0.646260 0.809947
O O15 0.949854 0.917183 0.796542
O O16 0.700926 0.351219 0.955517
#
# Coordination Sequence:
#
# PCOD9110441 Si02
#       8
#     2   2   2   2   2   2   2   1
#     4  11  21  36  66  94 128 160 208 268 319 375
#     4  12  22  37  67  98 126 163 215 267 316 374
#     4  11  24  38  62  94 126 167 218 258 319 385
#     4  11  22  39  63  88 126 173 208 262 320 382
#     4  11  20  39  58  93 131 162 206 268 320 372
#     4  11  22  43  64  96 127 168 210 265 323 371
#     4  10  22  40  67  84 131 171 208 263 321 377
#     4  10  20  42  62  88 116 184 210 242 332 384
#
# _framework density 24.869834999999998
#
# number of rings (size 3 to 8) (size 9 to 14) (size 15 to 20)
#    0.000    1.067    5.333    2.000    1.867    0.000 
#    0.000    4.000    2.933    4.800    0.000    0.000 
#    0.000    0.000    0.000    0.000    0.000    0.000 
#
# Total GULP energy -83600.203475 kJ/mol
# GULP energy per Si atom -5573.346898 kJ/mol
# Density = 2.481323 g / cm^3
# Si number density = 24.869835 Si / 1000 Ang^3
#
#
#
# Elastic Constant Matrix: (Units=GPa)
#
#
# Indices 1 2 3 4 5 6 
#
# 1 44.3677 0.2831 47.7866 -1.6369 -4.5873 -9.6108
# 2 0.2831 32.2139 9.6496 -5.0053 -5.7778 -4.0324
# 3 47.7866 9.6496 208.5317 -4.5530 -18.6458 -5.7742
# 4 -1.6369 -5.0053 -4.5530 45.6424 1.9836 3.4709
# 5 -4.5873 -5.7778 -18.6458 1.9836 36.9386 1.6259
# 6 -9.6108 -4.0324 -5.7742 3.4709 1.6259 23.6077
#
#
#
# Elastic Compliance Matrix: (Units=1/GPa)
#
#
# Indices 1 2 3 4 5 6 
#
# 1 0.033177 0.003516 -0.007392 -0.000114 0.000404 0.012288
# 2 0.003516 0.033531 -0.001734 0.002984 0.004382 0.005994
# 3 -0.007392 -0.001734 0.006727 0.000258 0.002274 -0.001855
# 4 -0.000114 0.002984 0.000258 0.022489 -0.000504 -0.002745
# 5 0.000404 0.004382 0.002274 -0.000504 0.029003 -0.000454
# 6 0.012288 0.005994 -0.001855 -0.002745 -0.000454 0.048367
#
#
# Mechanical properties :
#
#
# Convention : Reuss Voigt Hill
#
# Bulk Modulus (GPa) = 16.07342 44.50577 30.28960
# Shear Modulus (GPa) = 24.36027 36.39733 30.37880
#
# Velocity S-wave (km/s) = 3.13311 3.82974 3.49881
# Velocity P-wave (km/s) = 4.42330 6.12292 5.34115
#
# Compressibility (1/GPa) = 0.06221450
#
# Stress axis : x y z
#
# Youngs Moduli (GPa) = 30.14133 29.82320 148.65130
#
# Poissons Ratio (x) = -0.10484 1.09876
# Poissons Ratio (y) = -0.10596 0.25780
# Poissons Ratio (z) = 0.22279 0.05172
#
# Static dielectric constant tensor:
#      x y z
#    x 2.049850 -0.005250 -0.013970 
#    y -0.005250 2.053770 -0.090350 
#    z -0.013970 -0.090350 1.992770 
# 
# From -- ./inp_files/456050.got.cif
#   From: 2010.05.17/outbox.cif.g08.bks.cpg/sg2_229_cif.got.tgz:456050.got - 2010.06.03 11:33:40.
