data_PCOD9110913
_publ_section_title
;
Structure prediction by ZEFSAII (Michael W. Deem and Ramdas Pophale) SiO2 
 PCOD9110913
Probable space group: P -1
;
_chemical_formula_sum "Si O2"
_cell_formula_units_Z 16
_cell_length_a 9.347342
_cell_length_b 10.225813
_cell_length_c 16.319412
_cell_angle_alpha 43.182077
_cell_angle_beta 91.117006
_cell_angle_gamma 117.425200
_cell_volume 808.828580
_symmetry_space_group_name_H-M "P -1"
_symmetry_group_IT_number 2
_symmetry_cell_setting 'triclinic'
loop_
_space_group_symop_operation_xyz
x,y,z
-x,-y,-z
loop_
_atom_site_type_symbol
_atom_site_label
_atom_site_fract_x
_atom_site_fract_y
_atom_site_fract_z
Si Si1 0.972493 0.997808 0.097166
Si Si2 0.434683 0.157462 0.408642
Si Si3 0.301663 0.276486 0.508376
Si Si4 0.601589 0.515777 0.105917
Si Si5 0.635138 0.874095 0.248805
Si Si6 0.061546 0.800947 0.459976
Si Si7 0.492368 0.804020 0.908266
Si Si8 0.916543 0.266550 0.702865
O O1 0.945689 0.765171 0.240857
O O2 0.177225 0.249153 0.017691
O O3 0.793805 0.959517 0.144438
O O4 0.000000 0.000000 0.000000
O O5 0.378701 0.211083 0.467206
O O6 0.586897 0.410654 0.243102
O O7 0.500000 0.000000 0.500000
O O8 0.254454 0.001902 0.417382
O O9 0.438263 0.583698 0.369599
O O10 0.303567 0.156873 0.647534
O O11 0.089573 0.164850 0.543748
O O12 0.528272 0.304867 0.132655
O O13 0.471848 0.594706 0.060142
O O14 0.614080 0.085567 0.146452
O O15 0.082557 0.777875 0.373752
O O16 0.976161 0.525986 0.613008
O O17 0.702111 0.047316 0.824885
#
# Coordination Sequence:
#
# PCOD9110913 Si02
#       8
#     2   2   2   2   2   2   2   2
#     4  11  24  42  64  92 136 168 218 271 319 394
#     4  12  26  42  67  99 133 168 219 274 329 381
#     4  11  24  40  65  98 138 166 219 275 319 385
#     4  10  23  42  64  93 129 174 215 261 331 384
#     4  11  23  42  67  99 129 173 222 266 324 379
#     4  11  22  40  67  93 133 173 212 270 324 389
#     4  10  20  42  67  91 126 172 218 266 312 396
#     4  10  21  40  66  94 125 174 217 256 335 384
#
# _framework density 19.781694000000002
#
# number of rings (size 3 to 8) (size 9 to 14) (size 15 to 20)
#    0.000    1.250    3.750    1.875    3.500    0.500 
#    2.250    3.125    0.000    0.000    0.000    0.000 
#    0.000    0.000    0.000    0.000    0.000    0.000 
#
# Total GULP energy -89220.090811 kJ/mol
# GULP energy per Si atom -5576.255676 kJ/mol
# Density = 1.973667 g / cm^3
# Si number density = 19.781694 Si / 1000 Ang^3
#
#
#
# Elastic Constant Matrix: (Units=GPa)
#
#
# Indices 1 2 3 4 5 6 
#
# 1 143.7615 19.1174 43.0533 -7.3268 23.2206 -22.7655
# 2 19.1174 49.8516 17.8423 -0.4127 8.7844 -10.0488
# 3 43.0533 17.8423 72.7000 4.6610 13.1376 -12.5430
# 4 -7.3268 -0.4127 4.6610 22.3022 -3.0881 -1.7157
# 5 23.2206 8.7844 13.1376 -3.0881 29.0253 -10.5379
# 6 -22.7655 -10.0488 -12.5430 -1.7157 -10.5379 32.1358
#
#
#
# Elastic Compliance Matrix: (Units=1/GPa)
#
#
# Indices 1 2 3 4 5 6 
#
# 1 0.009845 -0.000648 -0.004562 0.003962 -0.003751 0.003973
# 2 -0.000648 0.023165 -0.004089 0.000984 -0.002990 0.004261
# 3 -0.004562 -0.004089 0.018737 -0.005916 -0.003769 0.001251
# 4 0.003962 0.000984 -0.005916 0.048703 0.006389 0.005501
# 5 -0.003751 -0.002990 -0.003769 0.006389 0.044304 0.009806
# 6 0.003973 0.004261 0.001251 0.005501 0.009806 0.039262
#
#
# Mechanical properties :
#
#
# Convention : Reuss Voigt Hill
#
# Bulk Modulus (GPa) = 30.16723 47.37101 38.76912
# Shear Modulus (GPa) = 23.40114 29.11268 26.25691
#
# Velocity S-wave (km/s) = 3.44316 3.84043 3.64721
# Velocity P-wave (km/s) = 5.57587 6.60788 6.11369
#
# Compressibility (1/GPa) = 0.03314855
#
# Stress axis : x y z
#
# Youngs Moduli (GPa) = 101.57065 43.16766 53.37159
#
# Poissons Ratio (x) = 0.02798 0.24349
# Poissons Ratio (y) = 0.06583 0.21825
# Poissons Ratio (z) = 0.46337 0.17652
#
# Static dielectric constant tensor:
#      x y z
#    x 1.710840 0.006480 0.013550 
#    y 0.006480 1.681230 -0.015830 
#    z 0.013550 -0.015830 1.751120 
# 
# From -- ./inp_files/242871.got.cif
#   From: 2010.05.17/outbox.cif.g08.bks.cpg/sg2_122_cif.got.tgz:242871.got - 2010.06.03 11:33:40.
