data_PCOD9110173
_publ_section_title
;
Structure prediction by ZEFSAII (Michael W. Deem and Ramdas Pophale) SiO2 
 PCOD9110173
Probable space group: P -1
;
_chemical_formula_sum "Si O2"
_cell_formula_units_Z 15
_cell_length_a 8.064203
_cell_length_b 10.032015
_cell_length_c 9.466724
_cell_angle_alpha 66.973609
_cell_angle_beta 61.526488
_cell_angle_gamma 76.667170
_cell_volume 618.658541
_symmetry_space_group_name_H-M "P -1"
_symmetry_group_IT_number 2
_symmetry_cell_setting 'triclinic'
loop_
_space_group_symop_operation_xyz
x,y,z
-x,-y,-z
loop_
_atom_site_type_symbol
_atom_site_label
_atom_site_fract_x
_atom_site_fract_y
_atom_site_fract_z
Si Si1 0.647022 0.911428 0.632113
Si Si2 0.528084 0.386779 0.230730
Si Si3 0.606742 0.200359 0.700708
Si Si4 0.031650 0.742769 0.652122
Si Si5 0.500000 0.500000 0.500000
Si Si6 0.848516 0.055194 0.243042
Si Si7 0.185147 0.852324 0.099088
Si Si8 0.179960 0.538590 0.156242
O O1 0.514104 0.778086 0.722628
O O2 0.842951 0.841633 0.648980
O O3 0.575912 0.049316 0.697247
O O4 0.705063 0.968931 0.431051
O O5 0.559138 0.409449 0.372210
O O6 0.331156 0.475930 0.235995
O O7 0.692804 0.441027 0.042462
O O8 0.474194 0.341369 0.661291
O O9 0.628289 0.174270 0.870778
O O10 0.812733 0.242684 0.539221
O O11 0.974266 0.578027 0.752966
O O12 0.110735 0.802759 0.741510
O O13 0.798467 0.082070 0.089837
O O14 0.043652 0.958651 0.198150
O O15 0.101443 0.695187 0.174222
#
# Coordination Sequence:
#
# PCOD9110173 Si02
#       8
#     2   2   2   2   1   2   2   2
#     4  10  20  43  71  91 128 168 215 272 323 383
#     4  10  24  45  63  92 126 175 219 259 323 391
#     4  11  22  42  66  98 132 170 216 265 320 384
#     4  10  20  41  70  95 126 170 214 271 327 378
#     4  12  26  44  64  94 132 174 222 258 318 392
#     4  10  21  38  64 103 126 160 214 271 334 375
#     4  11  21  39  62  96 137 160 210 273 321 385
#     4  10  23  43  64  90 134 172 208 268 330 378
#
# _framework density 24.246008
#
# number of rings (size 3 to 8) (size 9 to 14) (size 15 to 20)
#    0.000    1.600    4.000    0.800    3.733    2.667 
#    4.800    0.667    0.000    0.000    0.000    0.000 
#    0.000    0.000    0.000    0.000    0.000    0.000 
#
# Total GULP energy -83786.480014 kJ/mol
# GULP energy per Si atom -5585.765334 kJ/mol
# Density = 2.419082 g / cm^3
# Si number density = 24.246008 Si / 1000 Ang^3
#
#
#
# Elastic Constant Matrix: (Units=GPa)
#
#
# Indices 1 2 3 4 5 6 
#
# 1 51.9236 20.1259 32.6818 -3.0865 0.4627 12.6443
# 2 20.1259 84.9109 21.9882 -14.5088 -9.0917 16.0203
# 3 32.6818 21.9882 94.0102 -9.6139 28.6255 24.9285
# 4 -3.0865 -14.5088 -9.6139 43.9681 2.9187 3.0803
# 5 0.4627 -9.0917 28.6255 2.9187 41.2158 -11.0429
# 6 12.6443 16.0203 24.9285 3.0803 -11.0429 38.9044
#
#
#
# Elastic Compliance Matrix: (Units=1/GPa)
#
#
# Indices 1 2 3 4 5 6 
#
# 1 0.027434 -0.003402 -0.012499 -0.002727 0.008664 0.003169
# 2 -0.003402 0.014815 -0.002345 0.004066 0.003924 -0.002700
# 3 -0.012499 -0.002345 0.032209 0.009128 -0.030056 -0.024864
# 4 -0.002727 0.004066 0.009128 0.027414 -0.010513 -0.011792
# 5 0.008664 0.003924 -0.030056 -0.010513 0.055030 0.031279
# 6 0.003169 -0.002700 -0.024864 -0.011792 0.031279 0.051530
#
#
# Mechanical properties :
#
#
# Convention : Reuss Voigt Hill
#
# Bulk Modulus (GPa) = 26.33937 42.27073 34.30505
# Shear Modulus (GPa) = 19.41146 35.22092 27.31619
#
# Velocity S-wave (km/s) = 2.83256 3.81550 3.36017
# Velocity P-wave (km/s) = 4.64595 6.07311 5.40682
#
# Compressibility (1/GPa) = 0.03796597
#
# Stress axis : x y z
#
# Youngs Moduli (GPa) = 36.45155 67.49884 31.04701
#
# Poissons Ratio (x) = 0.22962 0.38805
# Poissons Ratio (y) = 0.12400 0.07282
# Poissons Ratio (z) = 0.45560 0.15832
#
# Static dielectric constant tensor:
#      x y z
#    x 2.147700 -0.119000 0.037320 
#    y -0.119000 1.930280 -0.038610 
#    z 0.037320 -0.038610 1.879520 
# 
# From -- ./inp_files/157216.got.cif
#   From: 2010.05.17/outbox.cif.g08.bks.cpg/sg2_79_cif.got.tgz:157216.got - 2010.06.03 11:33:40.
