data_PCOD9110760
_publ_section_title
;
Structure prediction by ZEFSAII (Michael W. Deem and Ramdas Pophale) SiO2 
 PCOD9110760
Probable space group: P -1
;
_chemical_formula_sum "Si O2"
_cell_formula_units_Z 14
_cell_length_a 11.019992
_cell_length_b 9.947001
_cell_length_c 17.149002
_cell_angle_alpha 49.903053
_cell_angle_beta 148.062369
_cell_angle_gamma 143.356076
_cell_volume 589.452896
_symmetry_space_group_name_H-M "P -1"
_symmetry_group_IT_number 2
_symmetry_cell_setting 'triclinic'
loop_
_space_group_symop_operation_xyz
x,y,z
-x,-y,-z
loop_
_atom_site_type_symbol
_atom_site_label
_atom_site_fract_x
_atom_site_fract_y
_atom_site_fract_z
Si Si1 0.352588 0.637785 0.780000
Si Si2 0.185186 0.788388 0.767251
Si Si3 0.829135 0.053866 0.975151
Si Si4 0.349805 0.266957 0.553604
Si Si5 0.959101 0.134499 0.731512
Si Si6 0.107627 0.539258 0.132236
Si Si7 0.622612 0.031481 0.437347
O O1 0.159870 0.615199 0.756379
O O2 0.686083 0.851865 0.908693
O O3 0.292866 0.736210 0.637374
O O4 0.258411 0.393531 0.805869
O O5 0.535638 0.982405 0.886928
O O6 0.993780 0.847841 0.599863
O O7 0.069097 0.684307 0.827498
O O8 0.962284 0.301638 0.927910
O O9 0.014434 0.033976 0.145186
O O10 0.500000 0.500000 0.500000
O O11 0.548182 0.350390 0.708430
O O12 0.408143 0.115659 0.595780
O O13 0.866104 0.076589 0.612834
O O14 0.687133 0.104446 0.635437
O O15 0.000000 0.500000 0.000000
#
# Coordination Sequence:
#
# PCOD9110760 Si02
#       7
#     2   2   2   2   2   2   2
#     4  10  22  43  65  92 124 168 213 253 318 373
#     4   9  23  42  66  92 130 163 207 261 314 376
#     4  10  24  41  63  94 126 168 204 261 320 361
#     4  10  20  42  66  89 127 166 206 255 316 374
#     4  11  24  42  64  95 130 162 217 263 301 376
#     4  11  23  41  63  95 128 164 210 253 317 378
#     4  11  24  42  67  92 126 172 211 258 314 369
#
# _framework density 23.750838000000002
#
# number of rings (size 3 to 8) (size 9 to 14) (size 15 to 20)
#    0.857    0.857    1.429    2.571    4.000    4.571 
#    2.571    0.000    0.000    0.000    0.000    0.000 
#    0.000    0.000    0.000    0.000    0.000    0.000 
#
# Total GULP energy -78181.285882 kJ/mol
# GULP energy per Si atom -5584.377563 kJ/mol
# Density = 2.369678 g / cm^3
# Si number density = 23.750838 Si / 1000 Ang^3
#
#
#
# Elastic Constant Matrix: (Units=GPa)
#
#
# Indices 1 2 3 4 5 6 
#
# 1 50.3323 3.3925 27.3247 17.0242 -15.1888 5.5297
# 2 3.3925 56.4336 12.8842 -9.4678 -3.7597 2.7000
# 3 27.3247 12.8842 169.2537 1.8002 -27.7035 -1.1965
# 4 17.0242 -9.4678 1.8002 34.2738 5.2692 -5.2224
# 5 -15.1888 -3.7597 -27.7035 5.2692 44.5090 -3.2659
# 6 5.5297 2.7000 -1.1965 -5.2224 -3.2659 20.0389
#
#
#
# Elastic Compliance Matrix: (Units=1/GPa)
#
#
# Indices 1 2 3 4 5 6 
#
# 1 0.033656 -0.003490 -0.003281 -0.021101 0.010710 -0.012767
# 2 -0.003490 0.019349 -0.001176 0.007319 -0.001155 0.000005
# 3 -0.003281 -0.001176 0.007067 0.000771 0.003251 0.002217
# 4 -0.021101 0.007319 0.000771 0.045530 -0.010388 0.015055
# 5 0.010710 -0.001155 0.003251 -0.010388 0.029238 -0.000548
# 6 -0.012767 0.000005 0.002217 0.015055 -0.000548 0.057392
#
#
# Mechanical properties :
#
#
# Convention : Reuss Voigt Hill
#
# Bulk Modulus (GPa) = 22.63578 40.35804 31.49691
# Shear Modulus (GPa) = 22.43652 35.25890 28.84771
#
# Velocity S-wave (km/s) = 3.07687 3.85714 3.48889
# Velocity P-wave (km/s) = 4.70893 6.07173 5.43323
#
# Compressibility (1/GPa) = 0.04417785
#
# Stress axis : x y z
#
# Youngs Moduli (GPa) = 29.71269 51.68242 141.50099
#
# Poissons Ratio (x) = 0.18037 0.46422
# Poissons Ratio (y) = 0.10370 0.16645
# Poissons Ratio (z) = 0.09748 0.06079
#
# Static dielectric constant tensor:
#      x y z
#    x 1.927830 0.036300 0.029630 
#    y 0.036300 1.921560 0.030030 
#    z 0.029630 0.030030 1.908180 
# 
# From -- ./inp_files/540570.got.cif
#   From: 2010.05.17/outbox.cif.g08.bks.cpg/sg2_271_cif.got.tgz:540570.got - 2010.06.03 11:33:40.
