data_PCOD9110499
_publ_section_title
;
Structure prediction by ZEFSAII (Michael W. Deem and Ramdas Pophale) SiO2 
 PCOD9110499
Probable space group: P -1
;
_chemical_formula_sum "Si O2"
_cell_formula_units_Z 16
_cell_length_a 9.848074
_cell_length_b 8.664513
_cell_length_c 13.607971
_cell_angle_alpha 80.627041
_cell_angle_beta 36.847858
_cell_angle_gamma 94.853798
_cell_volume 640.102208
_symmetry_space_group_name_H-M "P -1"
_symmetry_group_IT_number 2
_symmetry_cell_setting 'triclinic'
loop_
_space_group_symop_operation_xyz
x,y,z
-x,-y,-z
loop_
_atom_site_type_symbol
_atom_site_label
_atom_site_fract_x
_atom_site_fract_y
_atom_site_fract_z
Si Si1 0.156234 0.710492 0.723173
Si Si2 0.356003 0.413478 0.228954
Si Si3 0.143745 0.373914 0.690270
Si Si4 0.316618 0.236687 0.070162
Si Si5 0.483052 0.296016 0.638179
Si Si6 0.488862 0.068137 0.834615
Si Si7 0.536902 0.210987 0.266176
Si Si8 0.985618 0.793600 0.410108
O O1 0.064617 0.509348 0.778516
O O2 0.352247 0.779795 0.514541
O O3 0.300817 0.760753 0.734897
O O4 0.930944 0.765329 0.834683
O O5 0.454372 0.596362 0.108892
O O6 0.559592 0.384998 0.182506
O O7 0.122083 0.365466 0.437760
O O8 0.295826 0.271974 0.193500
O O9 0.236795 0.269203 0.724322
O O10 0.374333 0.502002 0.478914
O O11 0.976033 0.264450 0.714553
O O12 0.365799 0.084671 0.006407
O O13 0.467675 0.217540 0.761699
O O14 0.766172 0.094422 0.695999
O O15 0.392171 0.903102 0.841346
O O16 0.243612 0.142257 0.467535
#
# Coordination Sequence:
#
# PCOD9110499 Si02
#       8
#     2   2   2   2   2   2   2   2
#     4  10  21  40  64  86 131 152 198 248 306 355
#     4   9  23  42  61  88 123 153 207 250 303 343
#     4   9  18  36  63  92 116 151 198 255 304 332
#     4  11  24  39  60  96 117 162 202 246 302 359
#     4   9  18  37  59  92 116 152 196 251 296 347
#     4  12  25  36  65  90 125 160 203 240 302 365
#     4  10  23  44  60  88 123 165 199 246 298 360
#     4  10  20  42  63  89 120 158 201 254 298 351
#
# _framework density 24.996009000000001
#
# number of rings (size 3 to 8) (size 9 to 14) (size 15 to 20)
#    1.500    0.500    1.250    1.875    5.250    3.000 
#    0.000    0.000    0.000    0.000    0.000    0.000 
#    0.000    0.000    0.000    0.000    0.000    0.000 
#
# Total GULP energy -89405.389090 kJ/mol
# GULP energy per Si atom -5587.836818 kJ/mol
# Density = 2.493912 g / cm^3
# Si number density = 24.996009 Si / 1000 Ang^3
#
#
#
# Elastic Constant Matrix: (Units=GPa)
#
#
# Indices 1 2 3 4 5 6 
#
# 1 147.8576 41.4025 42.8157 8.3583 8.0708 14.9517
# 2 41.4025 253.4568 7.2277 6.3258 -88.9816 47.3365
# 3 42.8157 7.2277 76.9648 23.6265 6.1162 -3.0675
# 4 8.3583 6.3258 23.6265 39.3536 5.4766 6.6954
# 5 8.0708 -88.9816 6.1162 5.4766 78.6371 -10.2670
# 6 14.9517 47.3365 -3.0675 6.6954 -10.2670 53.5076
#
#
#
# Elastic Compliance Matrix: (Units=1/GPa)
#
#
# Indices 1 2 3 4 5 6 
#
# 1 0.009241 -0.002325 -0.005483 0.002512 -0.003568 -0.001839
# 2 -0.002325 0.008594 -0.000056 -0.001315 0.009408 -0.004987
# 3 -0.005483 -0.000056 0.019693 -0.011407 0.000310 0.004198
# 4 0.002512 -0.001315 -0.011407 0.033340 -0.003846 -0.005103
# 5 -0.003568 0.009408 0.000310 -0.003846 0.023674 -0.002284
# 6 -0.001839 -0.004987 0.004198 -0.005103 -0.002284 0.024055
#
#
# Mechanical properties :
#
#
# Convention : Reuss Voigt Hill
#
# Bulk Modulus (GPa) = 45.87608 73.46343 59.66976
# Shear Modulus (GPa) = 35.31286 60.08854 47.70070
#
# Velocity S-wave (km/s) = 3.76272 4.90830 4.37319
# Velocity P-wave (km/s) = 6.10497 7.84702 7.03016
#
# Compressibility (1/GPa) = 0.02179785
#
# Stress axis : x y z
#
# Youngs Moduli (GPa) = 108.21590 116.36365 50.77971
#
# Poissons Ratio (x) = 0.27055 0.27844
# Poissons Ratio (y) = 0.25160 0.00287
# Poissons Ratio (z) = 0.59338 0.00657
#
# Static dielectric constant tensor:
#      x y z
#    x 1.931940 -0.021320 0.037130 
#    y -0.021320 2.041060 -0.031380 
#    z 0.037130 -0.031380 1.995910 
# 
# From -- ./inp_files/495027.got.cif
#   From: 2010.05.17/outbox.cif.g08.bks.cpg/sg2_248_cif.got.tgz:495027.got - 2010.06.03 11:33:40.
