data_PCOD9110315
_publ_section_title
;
Structure prediction by ZEFSAII (Michael W. Deem and Ramdas Pophale) SiO2 
 PCOD9110315
Probable space group: P -1
;
_chemical_formula_sum "Si O2"
_cell_formula_units_Z 14
_cell_length_a 7.484455
_cell_length_b 14.236677
_cell_length_c 5.165356
_cell_angle_alpha 98.992311
_cell_angle_beta 111.194154
_cell_angle_gamma 89.761664
_cell_volume 506.033634
_symmetry_space_group_name_H-M "P -1"
_symmetry_group_IT_number 2
_symmetry_cell_setting 'triclinic'
loop_
_space_group_symop_operation_xyz
x,y,z
-x,-y,-z
loop_
_atom_site_type_symbol
_atom_site_label
_atom_site_fract_x
_atom_site_fract_y
_atom_site_fract_z
Si Si1 0.871613 0.251999 0.765345
Si Si2 0.818839 0.848940 0.335460
Si Si3 0.127417 0.951230 0.828468
Si Si4 0.822749 0.542833 0.265834
Si Si5 0.705619 0.340008 0.232710
Si Si6 0.641263 0.595678 0.678316
Si Si7 0.565539 0.105343 0.670740
O O1 0.840667 0.326366 0.549374
O O2 0.725915 0.158978 0.599791
O O3 0.087430 0.217722 0.854346
O O4 0.792907 0.287408 0.011954
O O5 0.612642 0.830878 0.343281
O O6 0.989379 0.861699 0.635874
O O7 0.819748 0.958916 0.287314
O O8 0.322748 0.913555 0.016583
O O9 0.000000 0.000000 0.000000
O O10 0.690837 0.444966 0.152345
O O11 0.739149 0.616155 0.459894
O O12 0.000000 0.500000 0.500000
O O13 0.803288 0.575076 0.971433
O O14 0.493900 0.325403 0.242423
O O15 0.500000 0.500000 0.500000
O O16 0.500000 0.000000 0.500000
#
# Coordination Sequence:
#
# PCOD9110315 Si02
#       7
#     2   2   2   2   2   2   2
#     4  12  26  45  66 103 148 187 226 302 366 423
#     4  11  24  42  66  98 134 180 236 296 364 421
#     4  11  20  42  70  94 128 172 240 311 348 410
#     4  11  22  42  75 108 138 181 242 289 336 425
#     4  11  24  46  68  98 147 182 226 282 364 418
#     4  10  20  41  73 101 134 187 233 277 340 426
#     4  12  24  44  73  98 130 189 253 292 352 427
#
# _framework density 27.666142000000001
#
# number of rings (size 3 to 8) (size 9 to 14) (size 15 to 20)
#    0.000    0.857    2.857    6.857    0.000    1.143 
#    7.714    0.000    0.000    0.000    0.000    0.000 
#    0.000    0.000    0.000    0.000    0.000    0.000 
#
# Total GULP energy -78285.476676 kJ/mol
# GULP energy per Si atom -5591.819763 kJ/mol
# Density = 2.760317 g / cm^3
# Si number density = 27.666142 Si / 1000 Ang^3
#
#
#
# Elastic Constant Matrix: (Units=GPa)
#
#
# Indices 1 2 3 4 5 6 
#
# 1 151.9853 27.7793 32.0068 14.2094 -2.4590 -49.0518
# 2 27.7793 113.1097 26.4217 -2.8045 -7.7333 -20.5108
# 3 32.0068 26.4217 158.4387 -0.6681 -1.1881 -23.9281
# 4 14.2094 -2.8045 -0.6681 43.3062 -15.1688 -9.8100
# 5 -2.4590 -7.7333 -1.1881 -15.1688 53.5695 1.7255
# 6 -49.0518 -20.5108 -23.9281 -9.8100 1.7255 57.6849
#
#
#
# Elastic Compliance Matrix: (Units=1/GPa)
#
#
# Indices 1 2 3 4 5 6 
#
# 1 0.009312 -0.000924 -0.000675 -0.001680 -0.000423 0.007037
# 2 -0.000924 0.009979 -0.001055 0.002202 0.001913 0.002642
# 3 -0.000675 -0.001055 0.006939 0.000769 0.000122 0.002057
# 4 -0.001680 0.002202 0.000769 0.027500 0.007912 0.004113
# 5 -0.000423 0.001913 0.000122 0.007912 0.021132 0.001084
# 6 0.007037 0.002642 0.002057 0.004113 0.001084 0.025779
#
#
# Mechanical properties :
#
#
# Convention : Reuss Voigt Hill
#
# Bulk Modulus (GPa) = 47.79537 66.21660 57.00598
# Shear Modulus (GPa) = 44.27869 53.40053 48.83961
#
# Velocity S-wave (km/s) = 4.00492 4.39814 4.20613
# Velocity P-wave (km/s) = 6.22086 7.05533 6.65120
#
# Compressibility (1/GPa) = 0.02092253
#
# Stress axis : x y z
#
# Youngs Moduli (GPa) = 107.39084 100.21271 144.12327
#
# Poissons Ratio (x) = 0.09259 0.09722
# Poissons Ratio (y) = 0.09922 0.15202
# Poissons Ratio (z) = 0.07244 0.10570
#
# Static dielectric constant tensor:
#      x y z
#    x 2.227910 0.077900 0.060500 
#    y 0.077900 2.191370 0.064200 
#    z 0.060500 0.064200 2.213470 
# 
# From -- ./inp_files/35917.got.cif
#   From: 2010.05.17/outbox.cif.g08.bks.cpg/sg2_18_cif.got.tgz:35917.got - 2010.06.03 11:33:40.
