data_PCOD9110823
_publ_section_title
;
Structure prediction by ZEFSAII (Michael W. Deem and Ramdas Pophale) SiO2 
 PCOD9110823
Probable space group: P -1
;
_chemical_formula_sum "Si O2"
_cell_formula_units_Z 15
_cell_length_a 11.133038
_cell_length_b 8.824054
_cell_length_c 9.354442
_cell_angle_alpha 52.289441
_cell_angle_beta 125.507172
_cell_angle_gamma 111.726440
_cell_volume 591.654046
_symmetry_space_group_name_H-M "P -1"
_symmetry_group_IT_number 2
_symmetry_cell_setting 'triclinic'
loop_
_space_group_symop_operation_xyz
x,y,z
-x,-y,-z
loop_
_atom_site_type_symbol
_atom_site_label
_atom_site_fract_x
_atom_site_fract_y
_atom_site_fract_z
Si Si1 0.946994 0.333047 0.253221
Si Si2 0.632746 0.427780 0.536588
Si Si3 0.000000 0.500000 0.500000
Si Si4 0.236174 0.278742 0.373464
Si Si5 0.659525 0.102227 0.264803
Si Si6 0.181031 0.272977 0.046390
Si Si7 0.400978 0.363378 0.908009
Si Si8 0.787348 0.152574 0.644236
O O1 0.787524 0.224548 0.202333
O O2 0.000758 0.355149 0.441810
O O3 0.063916 0.219437 0.305163
O O4 0.917647 0.554631 0.068496
O O5 0.500000 0.500000 0.500000
O O6 0.762217 0.515574 0.672833
O O7 0.624383 0.536172 0.316947
O O8 0.665703 0.210956 0.644450
O O9 0.096206 0.671069 0.382924
O O10 0.299124 0.282310 0.254380
O O11 0.702904 0.136195 0.442843
O O12 0.677067 0.876721 0.386543
O O13 0.499426 0.177147 0.073264
O O14 0.141788 0.049576 0.152459
O O15 0.245756 0.332715 0.902039
O O16 0.500000 0.500000 0.000000
#
# Coordination Sequence:
#
# PCOD9110823 Si02
#       8
#     2   2   1   2   2   2   2   2
#     4  11  21  42  68  96 136 176 227 276 339 393
#     4  12  26  44  66  99 138 176 223 286 342 388
#     4  10  20  42  66  94 136 174 222 272 334 396
#     4  11  25  43  65 100 136 173 223 289 333 393
#     4  10  23  41  71  96 129 186 225 270 337 413
#     4  11  25  41  70 100 133 181 232 270 338 413
#     4  12  22  45  71  96 135 182 227 275 334 410
#     4  10  22  43  67  98 134 182 221 275 336 408
#
# _framework density 25.352653
#
# number of rings (size 3 to 8) (size 9 to 14) (size 15 to 20)
#    0.000    1.067    4.000    2.400    1.867    2.133 
#    0.000    0.000    0.000    0.000    0.000    0.000 
#    0.000    0.000    0.000    0.000    0.000    0.000 
#
# Total GULP energy -83561.659606 kJ/mol
# GULP energy per Si atom -5570.777307 kJ/mol
# Density = 2.529495 g / cm^3
# Si number density = 25.352653 Si / 1000 Ang^3
#
#
#
# Elastic Constant Matrix: (Units=GPa)
#
#
# Indices 1 2 3 4 5 6 
#
# 1 104.6204 14.9847 11.7622 -13.1887 -4.0789 -15.7818
# 2 14.9847 78.2644 14.0965 -11.8290 -9.0350 -7.2638
# 3 11.7622 14.0965 66.1945 -16.8140 -13.6060 -5.6107
# 4 -13.1887 -11.8290 -16.8140 48.6411 -12.1234 7.4048
# 5 -4.0789 -9.0350 -13.6060 -12.1234 41.0000 -0.2500
# 6 -15.7818 -7.2638 -5.6107 7.4048 -0.2500 28.3703
#
#
#
# Elastic Compliance Matrix: (Units=1/GPa)
#
#
# Indices 1 2 3 4 5 6 
#
# 1 0.010851 -0.001048 -0.000466 0.002077 0.001339 0.005146
# 2 -0.001048 0.014306 -0.001043 0.003461 0.003738 0.002003
# 3 -0.000466 -0.001043 0.019391 0.008284 0.008616 0.001222
# 4 0.002077 0.003461 0.008284 0.028393 0.012092 -0.003624
# 5 0.001339 0.003738 0.008616 0.012092 0.031785 0.000530
# 6 0.005146 0.002003 0.001222 -0.003624 0.000530 0.039816
#
#
# Mechanical properties :
#
#
# Convention : Reuss Voigt Hill
#
# Bulk Modulus (GPa) = 25.35854 36.75176 31.05515
# Shear Modulus (GPa) = 30.71256 37.48466 34.09861
#
# Velocity S-wave (km/s) = 3.48431 3.84934 3.67136
# Velocity P-wave (km/s) = 5.11970 5.85527 5.49980
#
# Compressibility (1/GPa) = 0.03943445
#
# Stress axis : x y z
#
# Youngs Moduli (GPa) = 92.15709 69.89966 51.57110
#
# Poissons Ratio (x) = 0.07322 0.02403
# Poissons Ratio (y) = 0.09654 0.05380
# Poissons Ratio (z) = 0.04295 0.07292
#
# Static dielectric constant tensor:
#      x y z
#    x 2.177420 0.089840 0.055910 
#    y 0.089840 2.054980 -0.003510 
#    z 0.055910 -0.003510 2.146860 
# 
# From -- ./inp_files/237310.got.cif
#   From: 2010.05.17/outbox.cif.g08.bks.cpg/sg2_119_cif.got.tgz:237310.got - 2010.06.03 11:33:40.
