data_PCOD9110040
_publ_section_title
;
Structure prediction by ZEFSAII (Michael W. Deem and Ramdas Pophale) SiO2 
 PCOD9110040
Probable space group: P -1
;
_chemical_formula_sum "Si O2"
_cell_formula_units_Z 14
_cell_length_a 13.393547
_cell_length_b 5.097795
_cell_length_c 7.949286
_cell_angle_alpha 95.263076
_cell_angle_beta 75.307174
_cell_angle_gamma 77.133328
_cell_volume 505.465970
_symmetry_space_group_name_H-M "P -1"
_symmetry_group_IT_number 2
_symmetry_cell_setting 'triclinic'
loop_
_space_group_symop_operation_xyz
x,y,z
-x,-y,-z
loop_
_atom_site_type_symbol
_atom_site_label
_atom_site_fract_x
_atom_site_fract_y
_atom_site_fract_z
Si Si1 0.000698 0.144876 0.285249
Si Si2 0.892370 0.326163 0.005282
Si Si3 0.183835 0.886242 0.396220
Si Si4 0.463225 0.439457 0.740384
Si Si5 0.358717 0.382907 0.140569
Si Si6 0.258169 0.087349 0.950102
Si Si7 0.365141 0.889810 0.566338
O O1 0.957309 0.316659 0.149318
O O2 0.907323 0.202785 0.463393
O O3 0.113323 0.129847 0.326109
O O4 0.028108 0.835507 0.180823
O O5 0.827195 0.625595 0.009614
O O6 0.807062 0.140637 0.052089
O O7 0.260473 0.975051 0.501960
O O8 0.258057 0.625821 0.253902
O O9 0.404180 0.441638 0.942627
O O10 0.387877 0.594991 0.633141
O O11 0.537527 0.165284 0.610603
O O12 0.549756 0.613486 0.763816
O O13 0.324845 0.104965 0.093619
O O14 0.336393 0.071652 0.755723
#
# Coordination Sequence:
#
# PCOD9110040 Si02
#       7
#     2   2   2   2   2   2   2
#     4  10  22  42  71 102 142 185 241 284 354 421
#     4  11  25  45  73 105 143 189 239 287 350 421
#     4  10  20  41  69 105 143 184 234 296 350 418
#     4   9  21  42  72 104 136 189 237 292 354 424
#     4  10  21  40  71 100 145 180 240 291 356 416
#     4  12  24  45  74 106 140 192 228 297 352 420
#     4  10  21  40  71 100 145 180 240 291 356 416
#
# _framework density 27.697215
#
# number of rings (size 3 to 8) (size 9 to 14) (size 15 to 20)
#    0.000    1.714    2.857    0.857    0.000    3.429 
#    0.000    2.857    0.000    0.000    0.000    0.000 
#    0.000    0.000    0.000    0.000    0.000    0.000 
#
# Total GULP energy -78408.722008 kJ/mol
# GULP energy per Si atom -5600.623001 kJ/mol
# Density = 2.763417 g / cm^3
# Si number density = 27.697215 Si / 1000 Ang^3
#
#
#
# Elastic Constant Matrix: (Units=GPa)
#
#
# Indices 1 2 3 4 5 6 
#
# 1 134.0273 34.8872 58.9977 7.1740 -1.6878 -2.6185
# 2 34.8872 96.2766 31.6663 4.3030 0.0280 -1.6812
# 3 58.9977 31.6663 195.7151 14.0604 -8.3089 -4.9192
# 4 7.1740 4.3030 14.0604 42.2937 -10.6818 6.4759
# 5 -1.6878 0.0280 -8.3089 -10.6818 71.4781 -2.3128
# 6 -2.6185 -1.6812 -4.9192 6.4759 -2.3128 39.6389
#
#
#
# Elastic Compliance Matrix: (Units=1/GPa)
#
#
# Indices 1 2 3 4 5 6 
#
# 1 0.009174 -0.002532 -0.002310 -0.000611 -0.000132 0.000304
# 2 -0.002532 0.011692 -0.001097 -0.000500 -0.000258 0.000259
# 3 -0.002310 -0.001097 0.006135 -0.001550 0.000455 0.000842
# 4 -0.000611 -0.000500 -0.001550 0.025860 0.003532 -0.004273
# 5 -0.000132 -0.000258 0.000455 0.003532 0.014578 0.000310
# 6 0.000304 0.000259 0.000842 -0.004273 0.000310 0.026079
#
#
# Mechanical properties :
#
#
# Convention : Reuss Voigt Hill
#
# Bulk Modulus (GPa) = 66.12277 75.23572 70.67924
# Shear Modulus (GPa) = 45.27438 50.71332 47.99385
#
# Velocity S-wave (km/s) = 4.04743 4.28365 4.16721
# Velocity P-wave (km/s) = 6.76517 7.18949 6.98056
#
# Compressibility (1/GPa) = 0.01512338
#
# Stress axis : x y z
#
# Youngs Moduli (GPa) = 109.00379 85.52850 162.99604
#
# Poissons Ratio (x) = 0.21655 0.37651
# Poissons Ratio (y) = 0.27599 0.17881
# Poissons Ratio (z) = 0.25179 0.09383
#
# Static dielectric constant tensor:
#      x y z
#    x 2.256150 0.089120 -0.007600 
#    y 0.089120 2.130730 -0.011940 
#    z -0.007600 -0.011940 2.142080 
# 
# From -- ./inp_files/231198.got.cif
#   From: 2010.05.17/outbox.cif.g08.bks.cpg/sg2_116_cif.got.tgz:231198.got - 2010.06.03 11:33:40.
