data_PCOD9110591
_publ_section_title
;
Structure prediction by ZEFSAII (Michael W. Deem and Ramdas Pophale) SiO2 
 PCOD9110591
Probable space group: P -1
;
_chemical_formula_sum "Si O2"
_cell_formula_units_Z 16
_cell_length_a 9.253616
_cell_length_b 22.627757
_cell_length_c 22.016938
_cell_angle_alpha 161.479400
_cell_angle_beta 147.793958
_cell_angle_gamma 44.279708
_cell_volume 671.237677
_symmetry_space_group_name_H-M "P -1"
_symmetry_group_IT_number 2
_symmetry_cell_setting 'triclinic'
loop_
_space_group_symop_operation_xyz
x,y,z
-x,-y,-z
loop_
_atom_site_type_symbol
_atom_site_label
_atom_site_fract_x
_atom_site_fract_y
_atom_site_fract_z
Si Si1 0.414438 0.320915 0.937123
Si Si2 0.849649 0.418979 0.934623
Si Si3 0.961614 0.900820 0.306206
Si Si4 0.836290 0.001313 0.227117
Si Si5 0.955250 0.894471 0.952007
Si Si6 0.149794 0.747605 0.772247
Si Si7 0.959183 0.225977 0.004147
Si Si8 0.754924 0.389054 0.613241
O O1 0.431632 0.530447 0.118444
O O2 0.347801 0.286074 0.951568
O O3 0.084958 0.127305 0.604067
O O4 0.673228 0.265865 0.955360
O O5 0.079075 0.532395 0.185092
O O6 0.785357 0.177449 0.677897
O O7 0.000000 0.500000 0.000000
O O8 0.919146 0.939322 0.260131
O O9 0.861931 0.231302 0.467809
O O10 0.461354 0.824963 0.918042
O O11 0.048057 0.977217 0.228893
O O12 0.623547 0.747945 0.656294
O O13 0.209940 0.874134 0.981753
O O14 0.914997 0.784556 0.895119
O O15 0.017185 0.139137 0.213857
O O16 0.000000 0.500000 0.500000
O O17 0.153506 0.413103 0.206537
#
# Coordination Sequence:
#
# PCOD9110591 Si02
#       8
#     2   2   2   2   2   2   2   2
#     4  10  23  40  66  93 129 167 227 280 329 385
#     4  10  21  41  67  96 122 172 224 278 332 385
#     4  10  20  42  64  92 122 172 220 280 331 383
#     4  11  23  40  66  95 135 178 214 269 339 388
#     4  10  24  44  66  99 134 175 221 273 328 391
#     4  10  22  42  69  97 125 171 227 277 323 387
#     4  12  25  42  63  99 138 180 220 264 331 405
#     4  11  23  42  67  94 139 174 220 277 330 397
#
# _framework density 23.836562000000001
#
# number of rings (size 3 to 8) (size 9 to 14) (size 15 to 20)
#    0.000    1.500    2.500    1.875    0.000    5.000 
#    0.000    0.000    0.000    0.000    0.000    0.000 
#    0.000    0.000    0.000    0.000    0.000    0.000 
#
# Total GULP energy -89204.473015 kJ/mol
# GULP energy per Si atom -5575.279563 kJ/mol
# Density = 2.378231 g / cm^3
# Si number density = 23.836562 Si / 1000 Ang^3
#
#
#
# Elastic Constant Matrix: (Units=GPa)
#
#
# Indices 1 2 3 4 5 6 
#
# 1 111.6168 47.3681 20.1334 -7.7837 -12.9139 -8.8253
# 2 47.3681 148.2849 42.2245 31.2306 -8.2903 8.2607
# 3 20.1334 42.2245 81.8902 35.5754 -4.6126 1.7018
# 4 -7.7837 31.2306 35.5754 34.3979 -6.7682 -10.2592
# 5 -12.9139 -8.2903 -4.6126 -6.7682 25.7491 6.7288
# 6 -8.8253 8.2607 1.7018 -10.2592 6.7288 54.1544
#
#
#
# Elastic Compliance Matrix: (Units=1/GPa)
#
#
# Indices 1 2 3 4 5 6 
#
# 1 0.019078 -0.008777 -0.013090 0.030596 0.009979 0.009416
# 2 -0.008777 0.012930 0.004778 -0.021438 -0.003130 -0.007225
# 3 -0.013090 0.004778 0.032929 -0.046468 -0.008293 -0.011670
# 4 0.030596 -0.021438 -0.046468 0.116722 0.023236 0.028942
# 5 0.009979 -0.003130 -0.008293 0.023236 0.047221 0.000899
# 6 0.009416 -0.007225 -0.011670 0.028942 0.000899 0.026840
#
#
# Mechanical properties :
#
#
# Convention : Reuss Voigt Hill
#
# Bulk Modulus (GPa) = 32.51218 62.36043 47.43631
# Shear Modulus (GPa) = 16.65833 38.33133 27.49483
#
# Velocity S-wave (km/s) = 2.64646 4.01445 3.39997
# Velocity P-wave (km/s) = 4.79662 6.90697 5.94617
#
# Compressibility (1/GPa) = 0.03075770
#
# Stress axis : x y z
#
# Youngs Moduli (GPa) = 52.41605 77.34188 30.36878
#
# Poissons Ratio (x) = 0.67886 0.39753
# Poissons Ratio (y) = 0.46008 -0.14511
# Poissons Ratio (z) = 0.68613 -0.36956
#
# Static dielectric constant tensor:
#      x y z
#    x 1.957280 -0.062370 0.010220 
#    y -0.062370 1.946270 -0.023320 
#    z 0.010220 -0.023320 1.947560 
# 
# From -- ./inp_files/591750.got.cif
#   From: 2010.05.17/outbox.cif.g08.bks.cpg/sg2_296_cif.got.tgz:591750.got - 2010.06.03 11:33:40.
