data_PCOD9110646
_publ_section_title
;
Structure prediction by ZEFSAII (Michael W. Deem and Ramdas Pophale) SiO2 
 PCOD9110646
Probable space group: P -1
;
_chemical_formula_sum "Si O2"
_cell_formula_units_Z 13
_cell_length_a 7.963750
_cell_length_b 11.258575
_cell_length_c 7.292907
_cell_angle_alpha 77.685213
_cell_angle_beta 124.463478
_cell_angle_gamma 120.207549
_cell_volume 463.565077
_symmetry_space_group_name_H-M "P -1"
_symmetry_group_IT_number 2
_symmetry_cell_setting 'triclinic'
loop_
_space_group_symop_operation_xyz
x,y,z
-x,-y,-z
loop_
_atom_site_type_symbol
_atom_site_label
_atom_site_fract_x
_atom_site_fract_y
_atom_site_fract_z
Si Si1 0.696417 0.139221 0.339321
Si Si2 0.202077 0.009005 0.873562
Si Si3 0.500000 0.500000 0.000000
Si Si4 0.823210 0.728953 0.881650
Si Si5 0.373454 0.729717 0.429326
Si Si6 0.400553 0.288045 0.782180
Si Si7 0.892549 0.587345 0.627020
O O1 0.670334 0.153887 0.537862
O O2 0.877143 0.298159 0.358863
O O3 0.793828 0.058000 0.298772
O O4 0.444673 0.079210 0.109406
O O5 0.187770 0.146514 0.767179
O O6 0.017296 0.886635 0.924044
O O7 0.742938 0.637643 0.042766
O O8 0.581741 0.392481 0.002610
O O9 0.590116 0.729262 0.667739
O O10 0.889225 0.641008 0.810512
O O11 0.463744 0.755863 0.267573
O O12 0.174440 0.571603 0.368858
O O13 0.316356 0.394086 0.608880
#
# Coordination Sequence:
#
# PCOD9110646 Si02
#       7
#     2   2   1   2   2   2   2
#     4  10  23  41  67  85 146 171 206 247 346 375
#     4  10  24  45  62 100 127 178 204 271 308 396
#     4  12  20  38  66  98 118 164 210 286 296 372
#     4  10  21  39  69  91 131 161 224 259 321 364
#     4  11  20  40  65  99 127 173 207 275 311 387
#     4  11  23  39  69  96 127 161 234 254 323 365
#     4  10  20  42  65 100 126 173 207 274 312 389
#
# _framework density 28.043527999999998
#
# number of rings (size 3 to 8) (size 9 to 14) (size 15 to 20)
#    0.000    1.538    3.077    2.308    0.000    8.615 
#    0.000    5.385    0.000    0.000    0.000    0.000 
#    0.000    0.000    0.000    0.000    0.000    0.000 
#
# Total GULP energy -72482.120548 kJ/mol
# GULP energy per Si atom -5575.547734 kJ/mol
# Density = 2.797970 g / cm^3
# Si number density = 28.043528 Si / 1000 Ang^3
#
#
#
# Elastic Constant Matrix: (Units=GPa)
#
#
# Indices 1 2 3 4 5 6 
#
# 1 94.3598 70.6453 28.0748 14.0270 -36.9180 -4.8436
# 2 70.6453 266.3068 79.5043 56.1719 -23.2609 39.7278
# 3 28.0748 79.5043 134.9452 31.2899 -5.9183 21.4249
# 4 14.0270 56.1719 31.2899 43.4338 -1.7214 10.3656
# 5 -36.9180 -23.2609 -5.9183 -1.7214 70.2663 14.5846
# 6 -4.8436 39.7278 21.4249 10.3656 14.5846 52.7241
#
#
#
# Elastic Compliance Matrix: (Units=1/GPa)
#
#
# Indices 1 2 3 4 5 6 
#
# 1 0.016734 -0.003957 -0.001419 0.000238 0.006706 0.003193
# 2 -0.003957 0.007187 -0.001286 -0.006019 0.000944 -0.004334
# 3 -0.001419 -0.001286 0.009857 -0.004429 0.000029 -0.002304
# 4 0.000238 -0.006019 -0.004429 0.033841 -0.001432 0.000100
# 5 0.006706 0.000944 0.000029 -0.001432 0.019095 -0.005108
# 6 0.003193 -0.004334 -0.002304 0.000100 -0.005108 0.024856
#
#
# Mechanical properties :
#
#
# Convention : Reuss Voigt Hill
#
# Bulk Modulus (GPa) = 48.88475 94.67341 71.77908
# Shear Modulus (GPa) = 37.96181 54.44401 46.20291
#
# Velocity S-wave (km/s) = 3.68322 4.41092 4.06340
# Velocity P-wave (km/s) = 5.96303 7.73139 6.90406
#
# Compressibility (1/GPa) = 0.02045628
#
# Stress axis : x y z
#
# Youngs Moduli (GPa) = 59.75794 139.13412 101.44814
#
# Poissons Ratio (x) = 0.55050 0.14391
# Poissons Ratio (y) = 0.23644 0.13047
# Poissons Ratio (z) = 0.08477 0.17894
#
# Static dielectric constant tensor:
#      x y z
#    x 2.044700 0.056120 0.977770 
#    y 0.056120 2.057010 -0.295770 
#    z 0.977770 -0.295770 -2.558380 
# 
# From -- ./inp_files/151405.got.cif
#   From: 2010.05.17/outbox.cif.g08.bks.cpg/sg2_76_cif.got.tgz:151405.got - 2010.06.03 11:33:40.
