data_PCOD9110815
_publ_section_title
;
Structure prediction by ZEFSAII (Michael W. Deem and Ramdas Pophale) SiO2 
 PCOD9110815
Probable space group: P -1
;
_chemical_formula_sum "Si O2"
_cell_formula_units_Z 14
_cell_length_a 6.506535
_cell_length_b 7.750680
_cell_length_c 13.458023
_cell_angle_alpha 122.772640
_cell_angle_beta 100.398820
_cell_angle_gamma 94.873332
_cell_volume 547.424614
_symmetry_space_group_name_H-M "P -1"
_symmetry_group_IT_number 2
_symmetry_cell_setting 'triclinic'
loop_
_space_group_symop_operation_xyz
x,y,z
-x,-y,-z
loop_
_atom_site_type_symbol
_atom_site_label
_atom_site_fract_x
_atom_site_fract_y
_atom_site_fract_z
Si Si1 0.797156 0.514333 0.679354
Si Si2 0.133633 0.800254 0.069077
Si Si3 0.121680 0.918594 0.784295
Si Si4 0.456830 0.805917 0.281970
Si Si5 0.350728 0.515799 0.898697
Si Si6 0.446224 0.187385 0.167938
Si Si7 0.863563 0.121880 0.454050
O O1 0.698669 0.347311 0.704042
O O2 0.612939 0.651878 0.705117
O O3 0.872465 0.363974 0.559002
O O4 0.998787 0.711760 0.769044
O O5 0.296363 0.824263 0.184218
O O6 0.244577 0.997745 0.071848
O O7 0.143152 0.587199 0.946322
O O8 0.923469 0.864874 0.110363
O O9 0.366618 0.914197 0.808221
O O10 0.050647 0.888072 0.653817
O O11 0.648478 0.694058 0.227209
O O12 0.607188 0.016234 0.403422
O O13 0.473740 0.690990 0.887643
O O14 0.500000 0.500000 0.000000
O O15 0.000000 0.000000 0.500000
#
# Coordination Sequence:
#
# PCOD9110815 Si02
#       7
#     2   2   2   2   2   2   2
#     4  10  24  41  65  92 128 170 208 261 319 367
#     4  10  20  42  66  94 128 169 207 261 319 374
#     4  11  24  42  64  99 127 166 216 263 306 385
#     4  10  21  44  64  93 130 168 209 266 313 375
#     4   9  20  38  68  93 126 170 207 255 321 377
#     4  10  21  41  67  91 134 162 214 260 314 375
#     4  12  25  42  67  93 128 170 216 260 316 376
#
# _framework density 25.574297000000001
#
# number of rings (size 3 to 8) (size 9 to 14) (size 15 to 20)
#    0.000    1.714    1.429    2.143    4.000    1.143 
#    0.000    0.714    0.000    0.000    0.000    0.000 
#    0.000    0.000    0.000    0.000    0.000    0.000 
#
# Total GULP energy -78252.769851 kJ/mol
# GULP energy per Si atom -5589.483561 kJ/mol
# Density = 2.551609 g / cm^3
# Si number density = 25.574297 Si / 1000 Ang^3
#
#
#
# Elastic Constant Matrix: (Units=GPa)
#
#
# Indices 1 2 3 4 5 6 
#
# 1 103.7713 33.5397 29.5716 4.4765 -12.6235 -13.8660
# 2 33.5397 105.3407 39.2415 11.8473 -3.3709 -13.8531
# 3 29.5716 39.2415 81.9260 15.9628 -20.9687 -32.4923
# 4 4.4765 11.8473 15.9628 55.5546 -11.8847 -8.3852
# 5 -12.6235 -3.3709 -20.9687 -11.8847 47.8925 12.8373
# 6 -13.8660 -13.8531 -32.4923 -8.3852 12.8373 51.0513
#
#
#
# Elastic Compliance Matrix: (Units=1/GPa)
#
#
# Indices 1 2 3 4 5 6 
#
# 1 0.011442 -0.002757 -0.002253 0.000803 0.001878 0.000585
# 2 -0.002757 0.012445 -0.005517 -0.001455 -0.002495 -0.000495
# 3 -0.002253 -0.005517 0.021291 -0.002175 0.005178 0.009783
# 4 0.000803 -0.001455 -0.002175 0.019809 0.003881 0.000717
# 5 0.001878 -0.002495 0.005178 0.003881 0.025113 -0.002549
# 6 0.000585 -0.000495 0.009783 0.000717 -0.002549 0.026598
#
#
# Mechanical properties :
#
#
# Convention : Reuss Voigt Hill
#
# Bulk Modulus (GPa) = 41.45432 55.08262 48.26847
# Shear Modulus (GPa) = 34.29538 43.47869 38.88703
#
# Velocity S-wave (km/s) = 3.66595 4.12769 3.90366
# Velocity P-wave (km/s) = 5.84496 6.65599 6.26361
#
# Compressibility (1/GPa) = 0.02412294
#
# Stress axis : x y z
#
# Youngs Moduli (GPa) = 87.39964 80.35548 46.96836
#
# Poissons Ratio (x) = 0.22153 0.10583
# Poissons Ratio (y) = 0.24095 0.25913
# Poissons Ratio (z) = 0.19693 0.44333
#
# Static dielectric constant tensor:
#      x y z
#    x 2.000890 -0.004120 -0.056400 
#    y -0.004120 2.018790 -0.011450 
#    z -0.056400 -0.011450 2.050190 
# 
# From -- ./inp_files/132336.got.cif
#   From: 2010.05.17/outbox.cif.g08.bks.cpg/sg2_67_cif.got.tgz:132336.got - 2010.06.03 11:33:40.
