data_PCOD9110164
_publ_section_title
;
Structure prediction by ZEFSAII (Michael W. Deem and Ramdas Pophale) SiO2 
 PCOD9110164
Probable space group: P -1
;
_chemical_formula_sum "Si O2"
_cell_formula_units_Z 16
_cell_length_a 6.646398
_cell_length_b 8.007497
_cell_length_c 18.895787
_cell_angle_alpha 74.729991
_cell_angle_beta 125.840978
_cell_angle_gamma 121.199478
_cell_volume 696.162118
_symmetry_space_group_name_H-M "P -1"
_symmetry_group_IT_number 2
_symmetry_cell_setting 'triclinic'
loop_
_space_group_symop_operation_xyz
x,y,z
-x,-y,-z
loop_
_atom_site_type_symbol
_atom_site_label
_atom_site_fract_x
_atom_site_fract_y
_atom_site_fract_z
Si Si1 0.538727 0.475021 0.093761
Si Si2 0.769803 0.050367 0.500747
Si Si3 0.624077 0.347727 0.366987
Si Si4 0.998825 0.939915 0.686197
Si Si5 0.923450 0.429586 0.278064
Si Si6 0.938228 0.135257 0.027035
Si Si7 0.460308 0.366286 0.576049
Si Si8 0.630146 0.874750 0.126708
O O1 0.773512 0.414241 0.173559
O O2 0.643271 0.682141 0.128135
O O3 0.500000 0.500000 0.000000
O O4 0.233824 0.324452 0.076087
O O5 0.703240 0.857801 0.461190
O O6 0.500000 0.000000 0.500000
O O7 0.805099 0.241580 0.444414
O O8 0.013599 0.931822 0.395260
O O9 0.724453 0.427852 0.300526
O O10 0.639261 0.521957 0.399933
O O11 0.303471 0.174715 0.324369
O O12 0.051001 0.767208 0.685707
O O13 0.237120 0.058655 0.777437
O O14 0.237277 0.601494 0.335580
O O15 0.691182 0.168916 0.938479
O O16 0.810976 0.034414 0.086887
O O17 0.000000 0.000000 0.000000
O O18 0.500000 0.500000 0.500000
#
# Coordination Sequence:
#
# PCOD9110164 Si02
#       8
#     2   2   2   2   2   2   2   2
#     4  12  26  47  73 105 138 185 239 294 359 429
#     4  10  20  41  70  93 141 185 223 283 346 413
#     4  10  23  43  69  97 138 185 229 289 347 416
#     4  10  22  43  65  99 137 178 229 281 353 418
#     4  11  25  44  69  98 138 177 230 291 351 413
#     4  11  23  47  73  98 137 180 234 296 363 418
#     4  11  21  45  65 101 139 184 229 286 341 416
#     4  11  25  43  75 101 138 186 229 298 357 429
#
# _framework density 22.983153999999999
#
# number of rings (size 3 to 8) (size 9 to 14) (size 15 to 20)
#    0.000    1.250    5.000    1.875    5.250    1.000 
#    6.750    0.000    0.000    0.000    0.000    0.000 
#    0.000    0.000    0.000    0.000    0.000    0.000 
#
# Total GULP energy -89507.608166 kJ/mol
# GULP energy per Si atom -5594.225510 kJ/mol
# Density = 2.293084 g / cm^3
# Si number density = 22.983154 Si / 1000 Ang^3
#
#
#
# Elastic Constant Matrix: (Units=GPa)
#
#
# Indices 1 2 3 4 5 6 
#
# 1 53.3421 3.1942 19.1613 -6.2242 -0.3088 -10.3498
# 2 3.1942 87.9070 30.3152 12.8447 9.7442 6.0444
# 3 19.1613 30.3152 152.9353 3.6502 14.7301 9.7966
# 4 -6.2242 12.8447 3.6502 38.2302 -4.7981 6.6667
# 5 -0.3088 9.7442 14.7301 -4.7981 38.2448 8.6704
# 6 -10.3498 6.0444 9.7966 6.6667 8.6704 28.4602
#
#
#
# Elastic Compliance Matrix: (Units=1/GPa)
#
#
# Indices 1 2 3 4 5 6 
#
# 1 0.021921 -0.000649 -0.003228 0.002585 -0.000046 0.008629
# 2 -0.000649 0.013166 -0.002103 -0.004665 -0.003071 -0.000280
# 3 -0.003228 -0.002103 0.007724 -0.000315 -0.001884 -0.002738
# 4 0.002585 -0.004665 -0.000315 0.030260 0.006737 -0.007102
# 5 -0.000046 -0.003071 -0.001884 0.006737 0.030687 -0.009643
# 6 0.008629 -0.000280 -0.002738 -0.007102 -0.009643 0.043878
#
#
# Mechanical properties :
#
#
# Convention : Reuss Voigt Hill
#
# Bulk Modulus (GPa) = 32.41431 44.39176 38.40304
# Shear Modulus (GPa) = 29.43256 37.08794 33.26025
#
# Velocity S-wave (km/s) = 3.58245 4.02145 3.80828
# Velocity P-wave (km/s) = 5.58982 6.39684 6.00690
#
# Compressibility (1/GPa) = 0.03085057
#
# Stress axis : x y z
#
# Youngs Moduli (GPa) = 45.61850 75.95350 129.45919
#
# Poissons Ratio (x) = 0.04931 0.41787
# Poissons Ratio (y) = 0.02962 0.27230
# Poissons Ratio (z) = 0.14725 0.15976
#
# Static dielectric constant tensor:
#      x y z
#    x 1.766800 0.069300 -0.179080 
#    y 0.069300 1.865180 0.055880 
#    z -0.179080 0.055880 1.432390 
# 
# From -- ./inp_files/548057.got.cif
#   From: 2010.05.17/outbox.cif.g08.bks.cpg/sg2_275_cif.got.tgz:548057.got - 2010.06.03 11:33:40.
