data_PCOD9110024
_publ_section_title
;
Structure prediction by ZEFSAII (Michael W. Deem and Ramdas Pophale) SiO2 
 PCOD9110024
Probable space group: P -1
;
_chemical_formula_sum "Si O2"
_cell_formula_units_Z 16
_cell_length_a 26.396011
_cell_length_b 8.453737
_cell_length_c 5.322051
_cell_angle_alpha 52.026837
_cell_angle_beta 63.331594
_cell_angle_gamma 43.547072
_cell_volume 644.969140
_symmetry_space_group_name_H-M "P -1"
_symmetry_group_IT_number 2
_symmetry_cell_setting 'triclinic'
loop_
_space_group_symop_operation_xyz
x,y,z
-x,-y,-z
loop_
_atom_site_type_symbol
_atom_site_label
_atom_site_fract_x
_atom_site_fract_y
_atom_site_fract_z
Si Si1 0.304921 0.123263 0.590439
Si Si2 0.048890 0.349790 0.294971
Si Si3 0.825391 0.621324 0.046958
Si Si4 0.418620 0.099965 0.116763
Si Si5 0.322377 0.693470 0.624561
Si Si6 0.450314 0.646973 0.210359
Si Si7 0.199699 0.671053 0.000104
Si Si8 0.082631 0.892586 0.417479
O O1 0.386426 0.035746 0.479056
O O2 0.257187 0.417405 0.297979
O O3 0.304720 0.925065 0.611465
O O4 0.258647 0.159626 0.900671
O O5 0.122293 0.315219 0.194415
O O6 0.000000 0.500000 0.500000
O O7 0.077996 0.059100 0.491048
O O8 0.000000 0.500000 0.000000
O O9 0.824903 0.448474 0.013384
O O10 0.870703 0.415246 0.371653
O O11 0.414691 0.946767 0.047905
O O12 0.371126 0.408735 0.920151
O O13 0.500000 0.000000 0.000000
O O14 0.382062 0.646111 0.342290
O O15 0.246903 0.741962 0.693397
O O16 0.500000 0.500000 0.500000
O O17 0.500000 0.500000 0.000000
O O18 0.128755 0.903999 0.087798
O O19 0.000000 0.000000 0.500000
#
# Coordination Sequence:
#
# PCOD9110024 Si02
#       8
#     2   2   2   2   2   2   2   2
#     4   9  22  41  62  94 137 177 231 277 346 401
#     4  12  27  43  69 104 137 178 227 283 344 408
#     4  11  24  43  69  97 134 181 225 287 336 415
#     4  10  20  41  69 101 134 179 229 282 342 408
#     4  10  21  45  65  96 138 179 227 286 339 409
#     4  11  24  44  69 103 139 181 227 285 342 404
#     4  10  23  41  65  97 135 179 232 276 346 408
#     4  11  23  43  69  98 136 175 226 284 342 408
#
# _framework density 24.807386000000001
#
# number of rings (size 3 to 8) (size 9 to 14) (size 15 to 20)
#    0.000    1.500    2.500    1.500    3.500    3.500 
#   15.750    0.000    0.000    0.000    0.000    0.000 
#    0.000    0.000    0.000    0.000    0.000    0.000 
#
# Total GULP energy -89191.775875 kJ/mol
# GULP energy per Si atom -5574.485992 kJ/mol
# Density = 2.475092 g / cm^3
# Si number density = 24.807386 Si / 1000 Ang^3
#
#
#
# Elastic Constant Matrix: (Units=GPa)
#
#
# Indices 1 2 3 4 5 6 
#
# 1 139.7464 47.2080 79.5194 24.2496 -58.9635 -13.9882
# 2 47.2080 153.0692 70.3923 37.2549 -17.4154 -3.8039
# 3 79.5194 70.3923 102.7902 34.6831 -37.8531 -6.6276
# 4 24.2496 37.2549 34.6831 49.4930 -6.6374 -1.0924
# 5 -58.9635 -17.4154 -37.8531 -6.6374 69.8101 0.9060
# 6 -13.9882 -3.8039 -6.6276 -1.0924 0.9060 50.2684
#
#
#
# Elastic Compliance Matrix: (Units=1/GPa)
#
#
# Indices 1 2 3 4 5 6 
#
# 1 0.016535 0.000476 -0.009451 -0.000577 0.008863 0.003219
# 2 0.000476 0.010084 -0.006453 -0.003423 -0.000907 -0.000013
# 3 -0.009451 -0.006453 0.025355 -0.007822 0.003412 -0.000007
# 4 -0.000577 -0.003423 -0.007822 0.028140 -0.002897 -0.000787
# 5 0.008863 -0.000907 0.003412 -0.002897 0.023128 0.002368
# 6 0.003219 -0.000013 -0.000007 -0.000787 0.002368 0.020727
#
#
# Mechanical properties :
#
#
# Convention : Reuss Voigt Hill
#
# Bulk Modulus (GPa) = 47.35898 87.76058 67.55978
# Shear Modulus (GPa) = 30.88989 47.14671 39.01830
#
# Velocity S-wave (km/s) = 3.53255 4.36421 3.97022
# Velocity P-wave (km/s) = 5.98086 7.80056 6.95052
#
# Compressibility (1/GPa) = 0.02111532
#
# Stress axis : x y z
#
# Youngs Moduli (GPa) = 60.47681 99.17154 39.44029
#
# Poissons Ratio (x) = -0.04716 0.37277
# Poissons Ratio (y) = -0.02876 0.25452
# Poissons Ratio (z) = 0.57159 0.63998
#
# Static dielectric constant tensor:
#      x y z
#    x 2.111340 -0.128130 0.091120 
#    y -0.128130 1.980930 -0.046240 
#    z 0.091120 -0.046240 2.212820 
# 
# From -- ./inp_files/128197.got.cif
#   From: 2010.05.17/outbox.cif.g08.bks.cpg/sg2_65_cif.got.tgz:128197.got - 2010.06.03 11:33:40.
