data_PCOD9110997
_publ_section_title
;
Structure prediction by ZEFSAII (Michael W. Deem and Ramdas Pophale) SiO2 
 PCOD9110997
Probable space group: P -1
;
_chemical_formula_sum "Si O2"
_cell_formula_units_Z 16
_cell_length_a 7.561221
_cell_length_b 6.660531
_cell_length_c 16.077055
_cell_angle_alpha 97.426746
_cell_angle_beta 135.547086
_cell_angle_gamma 82.121521
_cell_volume 561.101104
_symmetry_space_group_name_H-M "P -1"
_symmetry_group_IT_number 2
_symmetry_cell_setting 'triclinic'
loop_
_space_group_symop_operation_xyz
x,y,z
-x,-y,-z
loop_
_atom_site_type_symbol
_atom_site_label
_atom_site_fract_x
_atom_site_fract_y
_atom_site_fract_z
Si Si1 0.760755 0.094691 0.972833
Si Si2 0.538164 0.359019 0.227936
Si Si3 0.810152 0.530691 0.733080
Si Si4 0.696453 0.177294 0.567065
Si Si5 0.947125 0.964500 0.774479
Si Si6 0.548162 0.843961 0.276810
Si Si7 0.937686 0.266317 0.479424
Si Si8 0.719960 0.552164 0.014605
O O1 0.803398 0.334512 0.992788
O O2 0.518385 0.067086 0.832386
O O3 0.811117 0.037230 0.083056
O O4 0.000000 0.000000 0.000000
O O5 0.341826 0.360284 0.237472
O O6 0.580191 0.601763 0.253782
O O7 0.782499 0.236770 0.341129
O O8 0.402059 0.313829 0.093179
O O9 0.648320 0.384382 0.615728
O O10 0.913380 0.724374 0.731803
O O11 0.040249 0.397588 0.847632
O O12 0.941967 0.076125 0.691020
O O13 0.761366 0.245216 0.500196
O O14 0.696251 0.070240 0.745255
O O15 0.500000 0.000000 0.500000
O O16 0.800843 0.862185 0.417670
O O17 0.000000 0.500000 0.500000
O O18 0.500000 0.500000 0.000000
#
# Coordination Sequence:
#
# PCOD9110997 Si02
#       8
#     2   2   2   2   2   2   2   2
#     4   8  17  36  69 101 150 205 255 314 389 480
#     4  10  20  42  68 107 152 208 258 315 391 485
#     4  11  24  44  78 109 153 210 262 318 399 480
#     4  12  27  48  77 113 158 201 268 325 387 473
#     4  10  21  44  70 109 148 201 259 318 386 465
#     4   9  18  41  71 102 151 200 260 313 384 469
#     4  10  24  44  77 110 151 212 263 318 401 458
#     4  10  22  39  73 118 153 195 264 339 397 455
#
# _framework density 28.515359
#
# number of rings (size 3 to 8) (size 9 to 14) (size 15 to 20)
#    0.000    2.000    1.250    1.125    5.250    2.000 
#    2.250    5.625    0.000    0.000    0.000    0.000 
#    0.000    0.000    0.000    0.000    0.000    0.000 
#
# Total GULP energy -89537.005690 kJ/mol
# GULP energy per Si atom -5596.062856 kJ/mol
# Density = 2.845046 g / cm^3
# Si number density = 28.515359 Si / 1000 Ang^3
#
#
#
# Elastic Constant Matrix: (Units=GPa)
#
#
# Indices 1 2 3 4 5 6 
#
# 1 105.5863 36.8766 61.2048 -0.7525 -0.9507 -2.2111
# 2 36.8766 151.3918 91.1062 -5.0236 -5.8926 0.2995
# 3 61.2048 91.1062 273.6279 -28.0778 14.7330 7.9210
# 4 -0.7525 -5.0236 -28.0778 84.1975 13.0173 -2.7525
# 5 -0.9507 -5.8926 14.7330 13.0173 51.2731 -8.7602
# 6 -2.2111 0.2995 7.9210 -2.7525 -8.7602 33.8587
#
#
#
# Elastic Compliance Matrix: (Units=1/GPa)
#
#
# Indices 1 2 3 4 5 6 
#
# 1 0.011301 -0.001374 -0.002267 -0.000870 0.001183 0.001516
# 2 -0.001374 0.008683 -0.002801 -0.000725 0.002129 0.000981
# 3 -0.002267 -0.002801 0.005509 0.002018 -0.002796 -0.001971
# 4 -0.000870 -0.000725 0.002018 0.013115 -0.004097 -0.000516
# 5 0.001183 0.002129 -0.002796 -0.004097 0.022681 0.006248
# 6 0.001516 0.000981 -0.001971 -0.000516 0.006248 0.031660
#
#
# Mechanical properties :
#
#
# Convention : Reuss Voigt Hill
#
# Bulk Modulus (GPa) = 79.31484 100.99789 90.15637
# Shear Modulus (GPa) = 45.43924 56.62708 51.03316
#
# Velocity S-wave (km/s) = 3.99620 4.46112 4.23504
# Velocity P-wave (km/s) = 7.01199 7.87598 7.45651
#
# Compressibility (1/GPa) = 0.01260798
#
# Stress axis : x y z
#
# Youngs Moduli (GPa) = 88.48535 115.17315 181.52247
#
# Poissons Ratio (x) = 0.15828 0.41154
# Poissons Ratio (y) = 0.12160 0.50844
# Poissons Ratio (z) = 0.20061 0.32260
#
# Static dielectric constant tensor:
#      x y z
#    x 2.251480 0.140460 0.041630 
#    y 0.140460 2.358020 0.036720 
#    z 0.041630 0.036720 2.256610 
# 
# From -- ./inp_files/418165.got.cif
#   From: 2010.05.17/outbox.cif.g08.bks.cpg/sg2_210_cif.got.tgz:418165.got - 2010.06.03 11:33:40.
