data_PCOD9110689
_publ_section_title
;
Structure prediction by ZEFSAII (Michael W. Deem and Ramdas Pophale) SiO2 
 PCOD9110689
Probable space group: P -1
;
_chemical_formula_sum "Si O2"
_cell_formula_units_Z 16
_cell_length_a 18.100851
_cell_length_b 12.418430
_cell_length_c 9.323503
_cell_angle_alpha 69.777046
_cell_angle_beta 126.350402
_cell_angle_gamma 149.350616
_cell_volume 788.640014
_symmetry_space_group_name_H-M "P -1"
_symmetry_group_IT_number 2
_symmetry_cell_setting 'triclinic'
loop_
_space_group_symop_operation_xyz
x,y,z
-x,-y,-z
loop_
_atom_site_type_symbol
_atom_site_label
_atom_site_fract_x
_atom_site_fract_y
_atom_site_fract_z
Si Si1 0.402521 0.610962 0.490799
Si Si2 0.650729 0.095772 0.540181
Si Si3 0.503608 0.482550 0.180027
Si Si4 0.925558 0.394319 0.148901
Si Si5 0.619756 0.782970 0.410345
Si Si6 0.056402 0.366049 0.097496
Si Si7 0.356527 0.924664 0.784022
Si Si8 0.129912 0.028539 0.130849
O O1 0.397292 0.529117 0.662681
O O2 0.445525 0.581238 0.412241
O O3 0.215273 0.474618 0.316810
O O4 0.577773 0.886472 0.567931
O O5 0.858312 0.341128 0.714831
O O6 0.651997 0.133832 0.358644
O O7 0.500000 0.000000 0.500000
O O8 0.603368 0.687156 0.295793
O O9 0.302407 0.249385 0.126790
O O10 0.500000 0.500000 0.000000
O O11 0.914641 0.271308 0.090247
O O12 0.829932 0.277971 0.244417
O O13 0.846235 0.421596 0.968997
O O14 0.791162 0.930626 0.642464
O O15 0.606798 0.900238 0.284513
O O16 0.971682 0.186801 0.967900
O O17 0.500000 0.000000 0.000000
O O18 0.000000 0.000000 0.000000
#
# Coordination Sequence:
#
# PCOD9110689 Si02
#       8
#     2   2   2   2   2   2   2   2
#     4  10  20  42  65  91 128 173 215 260 323 398
#     4  11  22  41  64  94 127 176 213 260 326 393
#     4  11  24  41  65  94 124 165 215 276 323 379
#     4  11  23  39  64  99 138 165 220 272 324 394
#     4  10  22  43  65  90 130 169 218 261 328 391
#     4  11  22  38  68  98 129 172 219 266 331 393
#     4  11  25  41  65  96 135 171 215 272 325 390
#     4  11  23  44  70  91 124 175 220 268 325 391
#
# _framework density 20.288091999999999
#
# number of rings (size 3 to 8) (size 9 to 14) (size 15 to 20)
#    0.000    1.250    1.250    7.125    3.500    1.000 
#    2.250    1.250    0.000    0.000    0.000    0.000 
#    0.000    0.000    0.000    0.000    0.000    0.000 
#
# Total GULP energy -89303.967907 kJ/mol
# GULP energy per Si atom -5581.497994 kJ/mol
# Density = 2.024191 g / cm^3
# Si number density = 20.288092 Si / 1000 Ang^3
#
#
#
# Elastic Constant Matrix: (Units=GPa)
#
#
# Indices 1 2 3 4 5 6 
#
# 1 126.9584 42.1201 72.3703 -7.3578 -8.9572 -8.0918
# 2 42.1201 66.1047 54.6779 -6.1548 -7.4160 -2.8618
# 3 72.3703 54.6779 183.8882 -23.0024 0.6139 -9.0020
# 4 -7.3578 -6.1548 -23.0024 33.1264 2.4038 -6.3116
# 5 -8.9572 -7.4160 0.6139 2.4038 46.3138 -3.6565
# 6 -8.0918 -2.8618 -9.0020 -6.3116 -3.6565 33.8356
#
#
#
# Elastic Compliance Matrix: (Units=1/GPa)
#
#
# Indices 1 2 3 4 5 6 
#
# 1 0.011314 -0.004412 -0.003100 -0.000268 0.001666 0.001638
# 2 -0.004412 0.022317 -0.004994 -0.000560 0.002792 -0.000299
# 3 -0.003100 -0.004994 0.008874 0.005037 -0.001623 0.001962
# 4 -0.000268 -0.000560 0.005037 0.035077 -0.001427 0.007618
# 5 0.001666 0.002792 -0.001623 -0.001427 0.022645 0.002384
# 6 0.001638 -0.000299 0.001962 0.007618 0.002384 0.032122
#
#
# Mechanical properties :
#
#
# Convention : Reuss Voigt Hill
#
# Bulk Modulus (GPa) = 57.15980 79.47641 68.31811
# Shear Modulus (GPa) = 30.63910 36.50736 33.57323
#
# Velocity S-wave (km/s) = 3.89035 4.24659 4.07237
# Velocity P-wave (km/s) = 6.95809 7.95636 7.47391
#
# Compressibility (1/GPa) = 0.01749481
#
# Stress axis : x y z
#
# Youngs Moduli (GPa) = 88.38929 44.80841 112.68508
#
# Poissons Ratio (x) = 0.19770 0.34927
# Poissons Ratio (y) = 0.38998 0.56270
# Poissons Ratio (z) = 0.27396 0.22375
#
# Static dielectric constant tensor:
#      x y z
#    x 1.791500 -0.056160 0.013200 
#    y -0.056160 1.734430 0.013690 
#    z 0.013200 0.013690 1.765430 
# 
# From -- ./inp_files/333052.got.cif
#   From: 2010.05.17/outbox.cif.g08.bks.cpg/sg2_167_cif.got.tgz:333052.got - 2010.06.03 11:33:40.
