data_PCOD9110127
_publ_section_title
;
Structure prediction by ZEFSAII (Michael W. Deem and Ramdas Pophale) SiO2 
 PCOD9110127
Probable space group: P -1
;
_chemical_formula_sum "Si O2"
_cell_formula_units_Z 16
_cell_length_a 17.141622
_cell_length_b 6.175126
_cell_length_c 8.176496
_cell_angle_alpha 88.436419
_cell_angle_beta 99.736819
_cell_angle_gamma 48.722469
_cell_volume 629.704487
_symmetry_space_group_name_H-M "P -1"
_symmetry_group_IT_number 2
_symmetry_cell_setting 'triclinic'
loop_
_space_group_symop_operation_xyz
x,y,z
-x,-y,-z
loop_
_atom_site_type_symbol
_atom_site_label
_atom_site_fract_x
_atom_site_fract_y
_atom_site_fract_z
Si Si1 0.661330 0.633441 0.268591
Si Si2 0.116845 0.944256 0.144025
Si Si3 0.689871 0.257112 0.559767
Si Si4 0.020128 0.062330 0.682785
Si Si5 0.724416 0.670872 0.954861
Si Si6 0.173150 0.364017 0.519681
Si Si7 0.456340 0.181774 0.315275
Si Si8 0.848195 0.830413 0.147641
O O1 0.645864 0.444454 0.371401
O O2 0.762831 0.545682 0.400172
O O3 0.560024 0.983254 0.242266
O O4 0.682462 0.590262 0.085626
O O5 0.200831 0.851525 0.317665
O O6 0.009944 0.060087 0.191157
O O7 0.174299 0.634646 0.083365
O O8 0.102083 0.167990 0.006064
O O9 0.601907 0.485984 0.661395
O O10 0.733449 0.945739 0.526828
O O11 0.924508 0.417767 0.643167
O O12 0.131299 0.977497 0.753348
O O13 0.000000 0.000000 0.500000
O O14 0.630995 0.824362 0.786383
O O15 0.754075 0.850186 0.037790
O O16 0.127322 0.355412 0.675414
O O17 0.500000 0.000000 0.500000
#
# Coordination Sequence:
#
# PCOD9110127 Si02
#       8
#     2   2   2   2   2   2   2   2
#     4  10  20  41  69  99 142 181 221 281 341 397
#     4  11  24  43  68  97 140 177 222 286 338 397
#     4  10  21  40  67 100 137 180 226 276 338 406
#     4  12  27  48  70  98 135 182 233 281 343 407
#     4  10  23  42  67 102 139 178 225 279 340 403
#     4  11  24  44  69  98 136 182 229 279 339 408
#     4   9  20  39  70 103 139 182 221 282 338 403
#     4  11  26  43  68 101 136 178 226 285 339 400
#
# _framework density 25.408743000000001
#
# number of rings (size 3 to 8) (size 9 to 14) (size 15 to 20)
#    0.000    1.500    1.250    2.625    5.250    1.000 
#    0.000    3.750    0.000   13.500    0.000    0.000 
#    0.000    0.000    0.000    0.000    0.000    0.000 
#
# Total GULP energy -89169.247804 kJ/mol
# GULP energy per Si atom -5573.077988 kJ/mol
# Density = 2.535091 g / cm^3
# Si number density = 25.408743 Si / 1000 Ang^3
#
#
#
# Elastic Constant Matrix: (Units=GPa)
#
#
# Indices 1 2 3 4 5 6 
#
# 1 60.4923 10.4991 47.5279 -4.6862 -3.6522 -6.8279
# 2 10.4991 100.6502 27.1985 9.3680 3.8613 -17.1786
# 3 47.5279 27.1985 155.6878 -2.0748 8.1243 5.6990
# 4 -4.6862 9.3680 -2.0748 42.6174 2.6659 0.0657
# 5 -3.6522 3.8613 8.1243 2.6659 56.9549 -2.7571
# 6 -6.8279 -17.1786 5.6990 0.0657 -2.7571 19.0954
#
#
#
# Elastic Compliance Matrix: (Units=1/GPa)
#
#
# Indices 1 2 3 4 5 6 
#
# 1 0.024743 0.001714 -0.008490 0.001707 0.003250 0.013387
# 2 0.001714 0.013259 -0.003404 -0.002944 0.000495 0.013639
# 3 -0.008490 -0.003404 0.010077 0.000459 -0.002229 -0.009429
# 4 0.001707 -0.002944 0.000459 0.024389 -0.001015 -0.002405
# 5 0.003250 0.000495 -0.002229 -0.001015 0.018336 0.004923
# 6 0.013387 0.013639 -0.009429 -0.002405 0.004923 0.072958
#
#
# Mechanical properties :
#
#
# Convention : Reuss Voigt Hill
#
# Bulk Modulus (GPa) = 36.07414 54.14237 45.10825
# Shear Modulus (GPa) = 25.85820 39.17387 32.51604
#
# Velocity S-wave (km/s) = 3.19359 3.93077 3.58120
# Velocity P-wave (km/s) = 5.27513 6.47735 5.90691
#
# Compressibility (1/GPa) = 0.02772069
#
# Stress axis : x y z
#
# Youngs Moduli (GPa) = 40.41500 75.41897 99.23424
#
# Poissons Ratio (x) = -0.12930 0.84249
# Poissons Ratio (y) = -0.06929 0.33780
# Poissons Ratio (z) = 0.34312 0.25673
#
# Static dielectric constant tensor:
#      x y z
#    x 2.027250 0.018680 -0.050150 
#    y 0.018680 2.145610 0.018460 
#    z -0.050150 0.018460 2.016810 
# 
# From -- ./inp_files/323718.got.cif
#   From: 2010.05.17/outbox.cif.g08.bks.cpg/sg2_162_cif.got.tgz:323718.got - 2010.06.03 11:33:40.
