data_PCOD9110600
_publ_section_title
;
Structure prediction by ZEFSAII (Michael W. Deem and Ramdas Pophale) SiO2 
 PCOD9110600
Probable space group: P -1
;
_chemical_formula_sum "Si O2"
_cell_formula_units_Z 16
_cell_length_a 22.717363
_cell_length_b 6.080428
_cell_length_c 6.457592
_cell_angle_alpha 107.997394
_cell_angle_beta 121.751198
_cell_angle_gamma 56.189942
_cell_volume 630.063302
_symmetry_space_group_name_H-M "P -1"
_symmetry_group_IT_number 2
_symmetry_cell_setting 'triclinic'
loop_
_space_group_symop_operation_xyz
x,y,z
-x,-y,-z
loop_
_atom_site_type_symbol
_atom_site_label
_atom_site_fract_x
_atom_site_fract_y
_atom_site_fract_z
Si Si1 0.062008 0.224159 0.640606
Si Si2 0.408527 0.325601 0.854889
Si Si3 0.177464 0.608508 0.140277
Si Si4 0.330620 0.054230 0.357460
Si Si5 0.284577 0.834511 0.545833
Si Si6 0.444892 0.998386 0.212471
Si Si7 0.177220 0.354800 0.686509
Si Si8 0.050988 0.748884 0.256633
O O1 0.144496 0.214829 0.745845
O O2 0.000000 0.500000 0.500000
O O3 0.054941 0.996842 0.436677
O O4 0.033199 0.222372 0.822542
O O5 0.345041 0.613399 0.745730
O O6 0.496309 0.233329 0.900836
O O7 0.380180 0.139840 0.627672
O O8 0.412274 0.257883 0.083279
O O9 0.208933 0.794273 0.350929
O O10 0.088583 0.701852 0.084916
O O11 0.244708 0.313981 0.247455
O O12 0.180940 0.583420 0.891766
O O13 0.323106 0.823837 0.391873
O O14 0.375710 0.980605 0.201526
O O15 0.255463 0.124826 0.666605
O O16 0.500000 0.000000 0.500000
O O17 0.115617 0.495902 0.429931
#
# Coordination Sequence:
#
# PCOD9110600 Si02
#       8
#     2   2   2   2   2   2   2   2
#     4   9  20  40  68  92 128 176 218 280 331 388
#     4   9  21  42  67  94 133 175 219 281 330 390
#     4  11  24  40  64  98 133 176 219 274 332 400
#     4  10  22  40  63  96 136 172 217 277 331 397
#     4  11  23  43  65 100 137 175 225 278 333 400
#     4   9  19  42  67  95 135 171 222 279 327 393
#     4  11  23  41  65  95 132 177 222 274 338 394
#     4  10  20  42  64  92 136 168 224 283 325 394
#
# _framework density 25.394275
#
# number of rings (size 3 to 8) (size 9 to 14) (size 15 to 20)
#    0.000    2.000    2.500    0.000    1.750    2.000 
#    6.750   11.250    0.000    0.000    0.000    0.000 
#    0.000    0.000    0.000    0.000    0.000    0.000 
#
# Total GULP energy -89523.433651 kJ/mol
# GULP energy per Si atom -5595.214603 kJ/mol
# Density = 2.533648 g / cm^3
# Si number density = 25.394275 Si / 1000 Ang^3
#
#
#
# Elastic Constant Matrix: (Units=GPa)
#
#
# Indices 1 2 3 4 5 6 
#
# 1 154.9454 37.2033 31.1583 -0.9520 -36.6127 -1.6452
# 2 37.2033 67.4991 19.7913 -7.7447 -8.8756 2.5417
# 3 31.1583 19.7913 92.5649 -6.7655 -19.9941 3.6216
# 4 -0.9520 -7.7447 -6.7655 34.5877 6.1579 -6.3458
# 5 -36.6127 -8.8756 -19.9941 6.1579 31.6562 -0.5163
# 6 -1.6452 2.5417 3.6216 -6.3458 -0.5163 26.1364
#
#
#
# Elastic Compliance Matrix: (Units=1/GPa)
#
#
# Indices 1 2 3 4 5 6 
#
# 1 0.010107 -0.004372 -0.000361 -0.002555 0.010744 0.000703
# 2 -0.004372 0.018136 -0.002612 0.003697 -0.002353 -0.000826
# 3 -0.000361 -0.002612 0.013082 0.000474 0.006999 -0.001328
# 4 -0.002555 0.003697 0.000474 0.032464 -0.007818 0.007142
# 5 0.010744 -0.002353 0.006999 -0.007818 0.049281 -0.000989
# 6 0.000703 -0.000826 -0.001328 0.007142 -0.000989 0.040284
#
#
# Mechanical properties :
#
#
# Convention : Reuss Voigt Hill
#
# Bulk Modulus (GPa) = 37.54391 54.59056 46.06724
# Shear Modulus (GPa) = 26.74937 33.59984 30.17461
#
# Velocity S-wave (km/s) = 3.24908 3.64143 3.45083
# Velocity P-wave (km/s) = 5.37511 6.26289 5.83591
#
# Compressibility (1/GPa) = 0.02663548
#
# Stress axis : x y z
#
# Youngs Moduli (GPa) = 98.94560 55.13852 76.44365
#
# Poissons Ratio (x) = 0.24104 0.02759
# Poissons Ratio (y) = 0.43254 0.19967
# Poissons Ratio (z) = 0.03571 0.14402
#
# Static dielectric constant tensor:
#      x y z
#    x 2.058880 0.004660 -0.033740 
#    y 0.004660 1.960910 0.018190 
#    z -0.033740 0.018190 2.010300 
# 
# From -- ./inp_files/125926.got.cif
#   From: 2010.05.17/outbox.cif.g08.bks.cpg/sg2_63_cif.got.tgz:125926.got - 2010.06.03 11:33:40.
