data_PCOD9110009
_publ_section_title
;
Structure prediction by ZEFSAII (Michael W. Deem and Ramdas Pophale) SiO2 
 PCOD9110009
Probable space group: P -1
;
_chemical_formula_sum "Si O2"
_cell_formula_units_Z 14
_cell_length_a 19.677341
_cell_length_b 10.593331
_cell_length_c 18.587398
_cell_angle_alpha 21.832536
_cell_angle_beta 156.724436
_cell_angle_gamma 145.117846
_cell_volume 555.373992
_symmetry_space_group_name_H-M "P -1"
_symmetry_group_IT_number 2
_symmetry_cell_setting 'triclinic'
loop_
_space_group_symop_operation_xyz
x,y,z
-x,-y,-z
loop_
_atom_site_type_symbol
_atom_site_label
_atom_site_fract_x
_atom_site_fract_y
_atom_site_fract_z
Si Si1 0.551489 0.809216 0.727024
Si Si2 0.011757 0.851957 0.868143
Si Si3 0.612129 0.111856 0.327345
Si Si4 0.920630 0.654727 0.674814
Si Si5 0.841780 0.910331 0.242682
Si Si6 0.044664 0.319988 0.832116
Si Si7 0.457807 0.997123 0.842431
O O1 0.452422 0.005024 0.596939
O O2 0.500000 0.000000 0.500000
O O3 0.760011 0.759855 0.965598
O O4 0.519671 0.416686 0.903504
O O5 0.150588 0.023502 0.870143
O O6 0.056551 0.707867 0.067421
O O7 0.818662 0.093164 0.545706
O O8 0.000000 0.500000 0.000000
O O9 0.588120 0.920482 0.330490
O O10 0.500000 0.500000 0.000000
O O11 0.023957 0.593594 0.733374
O O12 0.711842 0.804296 0.383938
O O13 0.010170 0.907911 0.675905
O O14 0.904555 0.508511 0.537808
O O15 0.649597 0.071137 0.001851
O O16 0.000000 0.000000 0.000000
#
# Coordination Sequence:
#
# PCOD9110009 Si02
#       7
#     2   2   2   2   2   2   2
#     4  11  23  43  68 103 145 183 234 293 348 418
#     4  10  20  42  69  99 138 178 227 289 346 407
#     4  10  20  41  68  99 141 180 225 291 350 403
#     4  11  24  48  70 100 146 179 234 300 347 418
#     4  11  23  43  73 103 135 182 235 286 357 417
#     4  12  26  47  67 100 142 188 234 288 358 426
#     4  11  23  43  72 103 135 187 236 287 354 419
#
# _framework density 25.208237
#
# number of rings (size 3 to 8) (size 9 to 14) (size 15 to 20)
#    0.000    1.143    4.286    3.000    0.000    3.429 
#    7.714    4.286    0.000    0.000    0.000    0.000 
#    0.000    0.000    0.000    0.000    0.000    0.000 
#
# Total GULP energy -78396.625502 kJ/mol
# GULP energy per Si atom -5599.758964 kJ/mol
# Density = 2.515086 g / cm^3
# Si number density = 25.208237 Si / 1000 Ang^3
#
#
#
# Elastic Constant Matrix: (Units=GPa)
#
#
# Indices 1 2 3 4 5 6 
#
# 1 91.8416 36.8485 -29.5658 -3.0652 -27.3645 0.1362
# 2 36.8485 47.4962 54.3803 7.5180 6.9834 29.0914
# 3 -29.5658 54.3803 81.1650 13.0298 -13.1619 7.2890
# 4 -3.0652 7.5180 13.0298 39.7353 21.7036 6.9317
# 5 -27.3645 6.9834 -13.1619 21.7036 54.9320 -0.9489
# 6 0.1362 29.0914 7.2890 6.9317 -0.9489 35.4934
#
#
#
# Elastic Compliance Matrix: (Units=1/GPa)
#
#
# Indices 1 2 3 4 5 6 
#
# 1 0.002708 0.011999 -0.007475 0.004024 -0.003716 -0.009195
# 2 0.011999 -0.008662 0.013812 -0.011343 0.014988 0.006833
# 3 -0.007475 0.013812 -0.000094 0.002609 -0.006740 -0.011963
# 4 0.004024 -0.011343 0.002609 0.030703 -0.008016 0.002535
# 5 -0.003716 0.014988 -0.006740 -0.008016 0.015846 -0.008897
# 6 -0.009195 0.006833 -0.011963 0.002535 -0.008897 0.024332
#
#
# Mechanical properties :
#
#
# Convention : Reuss Voigt Hill
#
# Bulk Modulus (GPa) = 32.65459 38.20319 35.42889
# Shear Modulus (GPa) = 130.30799 36.62148 83.46473
#
# Velocity S-wave (km/s) = 7.19756 3.81564 5.76038
# Velocity P-wave (km/s) = 9.05843 5.88219 7.63725
#
# Compressibility (1/GPa) = 0.03062357
#
# Stress axis : x y z
#
# Youngs Moduli (GPa) = 369.20939 -115.44268 -10632.71502
#
# Poissons Ratio (x) = 1.38517 -79.48280
# Poissons Ratio (y) = -4.43007 146.86132
# Poissons Ratio (z) = 2.75995 1.59452
#
# Static dielectric constant tensor:
#      x y z
#    x 2.131510 0.037840 -0.078590 
#    y 0.037840 2.076000 -0.107310 
#    z -0.078590 -0.107310 1.994630 
# 
# From -- ./inp_files/601404.got.cif
#   From: 2010.05.17/outbox.cif.g08.bks.cpg/sg2_301_cif.got.tgz:601404.got - 2010.06.03 11:33:40.
