data_PCOD9110351
_publ_section_title
;
Structure prediction by ZEFSAII (Michael W. Deem and Ramdas Pophale) SiO2 
 PCOD9110351
Probable space group: P -1
;
_chemical_formula_sum "Si O2"
_cell_formula_units_Z 14
_cell_length_a 8.756752
_cell_length_b 10.637934
_cell_length_c 8.993777
_cell_angle_alpha 59.145945
_cell_angle_beta 111.219265
_cell_angle_gamma 121.468473
_cell_volume 608.356087
_symmetry_space_group_name_H-M "P -1"
_symmetry_group_IT_number 2
_symmetry_cell_setting 'triclinic'
loop_
_space_group_symop_operation_xyz
x,y,z
-x,-y,-z
loop_
_atom_site_type_symbol
_atom_site_label
_atom_site_fract_x
_atom_site_fract_y
_atom_site_fract_z
Si Si1 0.890093 0.802956 0.970443
Si Si2 0.134807 0.016108 0.672285
Si Si3 0.443882 0.087828 0.559285
Si Si4 0.913558 0.608313 0.549542
Si Si5 0.162645 0.746564 0.305858
Si Si6 0.696603 0.632366 0.735193
Si Si7 0.655728 0.687538 0.226163
O O1 0.789958 0.651559 0.916749
O O2 0.730086 0.782089 0.041231
O O3 0.993445 0.937430 0.802999
O O4 0.054698 0.821125 0.124658
O O5 0.278486 0.962742 0.675767
O O6 0.281339 0.179972 0.701956
O O7 0.000000 0.000000 0.500000
O O8 0.623631 0.168270 0.673189
O O9 0.383651 0.230426 0.394076
O O10 0.500000 0.000000 0.500000
O O11 0.908679 0.434276 0.671978
O O12 0.845154 0.657756 0.644824
O O13 0.771617 0.589025 0.377575
O O14 0.096940 0.731547 0.463420
O O15 0.544269 0.451223 0.768104
#
# Coordination Sequence:
#
# PCOD9110351 Si02
#       7
#     2   2   2   2   2   2   2
#     4  11  26  42  71 107 149 183 234 288 362 419
#     4  12  25  47  74 104 137 196 240 283 357 436
#     4  12  27  42  72 103 141 181 246 294 345 422
#     4  10  20  41  76  96 141 183 235 281 353 423
#     4  10  24  44  66 110 139 183 228 303 352 402
#     4  12  23  46  74 107 134 198 240 285 351 430
#     4  11  22  42  75 105 140 180 242 294 341 421
#
# _framework density 23.012840000000001
#
# number of rings (size 3 to 8) (size 9 to 14) (size 15 to 20)
#    0.000    0.857    4.286    2.143    6.000    2.286 
#    0.000    2.857    0.000    0.000    0.000    0.000 
#    0.000    0.000    0.000    0.000    0.000    0.000 
#
# Total GULP energy -78011.595223 kJ/mol
# GULP energy per Si atom -5572.256802 kJ/mol
# Density = 2.296046 g / cm^3
# Si number density = 23.012840 Si / 1000 Ang^3
#
#
#
# Elastic Constant Matrix: (Units=GPa)
#
#
# Indices 1 2 3 4 5 6 
#
# 1 128.3461 43.8001 35.9853 10.5509 -23.9029 3.6080
# 2 43.8001 116.1819 28.6335 15.6834 -13.3823 8.3137
# 3 35.9853 28.6335 76.6709 14.0660 -31.7280 -7.0666
# 4 10.5509 15.6834 14.0660 34.4586 -0.0125 -0.1898
# 5 -23.9029 -13.3823 -31.7280 -0.0125 31.7119 11.5455
# 6 3.6080 8.3137 -7.0666 -0.1898 11.5455 51.8692
#
#
#
# Elastic Compliance Matrix: (Units=1/GPa)
#
#
# Indices 1 2 3 4 5 6 
#
# 1 0.010328 -0.002543 -0.001258 -0.001499 0.006127 -0.001851
# 2 -0.002543 0.010807 -0.001681 -0.003465 0.001757 -0.002188
# 3 -0.001258 -0.001681 0.026343 -0.009603 0.025323 -0.001726
# 4 -0.001499 -0.003465 -0.009603 0.034985 -0.013055 0.002385
# 5 0.006127 0.001757 0.025323 -0.013055 0.066644 -0.012140
# 6 -0.001851 -0.002188 -0.001726 0.002385 -0.012140 0.022235
#
#
# Mechanical properties :
#
#
# Convention : Reuss Voigt Hill
#
# Bulk Modulus (GPa) = 27.38730 59.78186 43.58458
# Shear Modulus (GPa) = 25.70980 37.79326 31.75153
#
# Velocity S-wave (km/s) = 3.34607 4.05689 3.71850
# Velocity P-wave (km/s) = 5.18218 6.92665 6.11692
#
# Compressibility (1/GPa) = 0.03651327
#
# Stress axis : x y z
#
# Youngs Moduli (GPa) = 96.82077 92.53284 37.96044
#
# Poissons Ratio (x) = 0.23532 0.04776
# Poissons Ratio (y) = 0.24623 0.06383
# Poissons Ratio (z) = 0.12181 0.15559
#
# Static dielectric constant tensor:
#      x y z
#    x 1.919180 -0.026260 -0.006560 
#    y -0.026260 1.939230 -0.088840 
#    z -0.006560 -0.088840 1.892850 
# 
# From -- ./inp_files/185243.got.cif
#   From: 2010.05.17/outbox.cif.g08.bks.cpg/sg2_93_cif.got.tgz:185243.got - 2010.06.03 11:33:40.
