data_PCOD9110777
_publ_section_title
;
Structure prediction by ZEFSAII (Michael W. Deem and Ramdas Pophale) SiO2 
 PCOD9110777
Probable space group: P -1
;
_chemical_formula_sum "Si O2"
_cell_formula_units_Z 14
_cell_length_a 14.669441
_cell_length_b 22.591589
_cell_length_c 16.654848
_cell_angle_alpha 160.341940
_cell_angle_beta 26.474596
_cell_angle_gamma 160.576740
_cell_volume 616.253676
_symmetry_space_group_name_H-M "P -1"
_symmetry_group_IT_number 2
_symmetry_cell_setting 'triclinic'
loop_
_space_group_symop_operation_xyz
x,y,z
-x,-y,-z
loop_
_atom_site_type_symbol
_atom_site_label
_atom_site_fract_x
_atom_site_fract_y
_atom_site_fract_z
Si Si1 0.716745 0.274209 0.160200
Si Si2 0.294166 0.725727 0.023597
Si Si3 0.196554 0.017928 0.547096
Si Si4 0.585603 0.884561 0.338677
Si Si5 0.316641 0.453116 0.204741
Si Si6 0.973360 0.525685 0.673183
Si Si7 0.424727 0.441790 0.578626
O O1 0.949606 0.373719 0.168964
O O2 0.612690 0.411049 0.435153
O O3 0.742294 0.289121 0.062789
O O4 0.500000 0.000000 0.000000
O O5 0.363131 0.956838 0.294631
O O6 0.468138 0.670820 0.858026
O O7 0.000000 0.500000 0.000000
O O8 0.173799 0.960919 0.587308
O O9 0.381301 0.295502 0.737129
O O10 0.885432 0.817668 0.502866
O O11 0.327080 0.725239 0.399006
O O12 0.500000 0.000000 0.500000
O O13 0.639601 0.730936 0.053935
O O14 0.184815 0.504985 0.442844
O O15 0.091983 0.353564 0.182796
O O16 0.500000 0.500000 0.500000
#
# Coordination Sequence:
#
# PCOD9110777 Si02
#       7
#     2   2   2   2   2   2   2
#     4  11  23  37  63 102 127 171 223 273 324 399
#     4   9  20  40  62  88 133 174 208 264 335 396
#     4  10  20  42  66  91 128 172 219 260 336 395
#     4  11  26  41  70  98 128 175 223 284 323 395
#     4  10  23  46  69  94 130 182 216 279 338 388
#     4  10  23  44  66  96 136 166 230 272 331 398
#     4   9  21  38  60  94 131 176 205 263 337 390
#
# _framework density 22.717918000000001
#
# number of rings (size 3 to 8) (size 9 to 14) (size 15 to 20)
#    0.000    2.000    0.000    2.571   10.000    1.714 
#    7.714    3.571    0.000    0.000    0.000    0.000 
#    0.000    0.000    0.000    0.000    0.000    0.000 
#
# Total GULP energy -77937.588641 kJ/mol
# GULP energy per Si atom -5566.970617 kJ/mol
# Density = 2.266621 g / cm^3
# Si number density = 22.717918 Si / 1000 Ang^3
#
#
#
# Elastic Constant Matrix: (Units=GPa)
#
#
# Indices 1 2 3 4 5 6 
#
# 1 102.2302 14.9860 51.0058 5.5941 -13.5076 -0.6970
# 2 14.9860 59.9053 11.6086 -9.3309 -6.8817 -7.3267
# 3 51.0058 11.6086 126.6174 -15.7027 -22.9565 4.4355
# 4 5.5941 -9.3309 -15.7027 24.0248 7.4042 4.8615
# 5 -13.5076 -6.8817 -22.9565 7.4042 37.4976 4.8865
# 6 -0.6970 -7.3267 4.4355 4.8615 4.8865 25.2036
#
#
#
# Elastic Compliance Matrix: (Units=1/GPa)
#
#
# Indices 1 2 3 4 5 6 
#
# 1 0.014297 -0.003381 -0.006318 -0.009899 0.002358 0.001976
# 2 -0.003381 0.019158 0.000530 0.007615 0.000625 0.003792
# 3 -0.006318 0.000530 0.012517 0.009541 0.004237 -0.004885
# 4 -0.009899 0.007615 0.009541 0.057000 -0.006344 -0.009504
# 5 0.002358 0.000625 0.004237 -0.006344 0.032198 -0.005518
# 6 0.001976 0.003792 -0.004885 -0.009504 -0.005518 0.044597
#
#
# Mechanical properties :
#
#
# Convention : Reuss Voigt Hill
#
# Bulk Modulus (GPa) = 36.18870 49.32820 42.75845
# Shear Modulus (GPa) = 24.11775 31.42205 27.76990
#
# Velocity S-wave (km/s) = 3.26178 3.72309 3.50005
# Velocity P-wave (km/s) = 5.49088 6.34369 5.93263
#
# Compressibility (1/GPa) = 0.02763294
#
# Stress axis : x y z
#
# Youngs Moduli (GPa) = 69.94617 52.19820 79.89090
#
# Poissons Ratio (x) = 0.17650 0.50479
# Poissons Ratio (y) = 0.23651 -0.04238
# Poissons Ratio (z) = 0.44195 -0.02769
#
# Static dielectric constant tensor:
#      x y z
#    x 2.253630 0.289360 0.076990 
#    y 0.289360 2.092120 -0.012420 
#    z 0.076990 -0.012420 2.007000 
# 
# From -- ./inp_files/574415.got.cif
#   From: 2010.05.17/outbox.cif.g08.bks.cpg/sg2_288_cif.got.tgz:574415.got - 2010.06.03 11:33:40.
