data_PCOD9110503
_publ_section_title
;
Structure prediction by ZEFSAII (Michael W. Deem and Ramdas Pophale) SiO2 
 PCOD9110503
Probable space group: P -1
;
_chemical_formula_sum "Si O2"
_cell_formula_units_Z 14
_cell_length_a 13.858583
_cell_length_b 9.843649
_cell_length_c 6.862718
_cell_angle_alpha 120.084581
_cell_angle_beta 123.574264
_cell_angle_gamma 81.162612
_cell_volume 664.947987
_symmetry_space_group_name_H-M "P -1"
_symmetry_group_IT_number 2
_symmetry_cell_setting 'triclinic'
loop_
_space_group_symop_operation_xyz
x,y,z
-x,-y,-z
loop_
_atom_site_type_symbol
_atom_site_label
_atom_site_fract_x
_atom_site_fract_y
_atom_site_fract_z
Si Si1 0.736573 0.537594 0.007267
Si Si2 0.888433 0.021483 0.519929
Si Si3 0.514805 0.995234 0.785182
Si Si4 0.340123 0.796491 0.189919
Si Si5 0.853811 0.759509 0.623971
Si Si6 0.902888 0.308152 0.014324
Si Si7 0.715971 0.813719 0.895468
O O1 0.763314 0.636504 0.306786
O O2 0.647366 0.374824 0.831271
O O3 0.858218 0.474119 0.043505
O O4 0.702258 0.650354 0.883418
O O5 0.892744 0.199204 0.731483
O O6 0.888607 0.912229 0.633734
O O7 0.000000 0.000000 0.500000
O O8 0.777460 0.950020 0.211744
O O9 0.392153 0.937275 0.497979
O O10 0.594424 0.862246 0.731350
O O11 0.587524 0.156231 0.890731
O O12 0.500000 0.000000 0.000000
O O13 0.198787 0.778357 0.011984
O O14 0.797095 0.803956 0.792716
O O15 0.969257 0.684942 0.749742
#
# Coordination Sequence:
#
# PCOD9110503 Si02
#       7
#     2   2   2   2   2   2   2
#     4   9  24  42  60  98 129 167 204 255 317 377
#     4  11  22  36  59  96 124 165 214 255 299 366
#     4  11  23  43  68  92 120 164 214 265 312 365
#     4   9  23  42  62  94 120 162 214 255 306 373
#     4  11  22  40  62  95 132 169 203 254 316 376
#     4  10  20  42  63  89 133 165 209 251 312 372
#     4  11  24  41  64  95 130 163 209 260 316 369
#
# _framework density 21.054278
#
# number of rings (size 3 to 8) (size 9 to 14) (size 15 to 20)
#    0.857    0.857    1.429    2.571    2.000    5.714 
#    2.571    1.429    0.000    0.000    0.000    0.000 
#    0.000    0.000    0.000    0.000    0.000    0.000 
#
# Total GULP energy -78163.019803 kJ/mol
# GULP energy per Si atom -5583.072843 kJ/mol
# Density = 2.100636 g / cm^3
# Si number density = 21.054278 Si / 1000 Ang^3
#
#
#
# Elastic Constant Matrix: (Units=GPa)
#
#
# Indices 1 2 3 4 5 6 
#
# 1 54.2231 17.2485 8.8146 -10.0954 1.5768 24.0005
# 2 17.2485 85.5545 21.1689 -11.0206 -9.6408 11.1319
# 3 8.8146 21.1689 45.0795 -5.7739 -17.9037 17.2456
# 4 -10.0954 -11.0206 -5.7739 21.7408 0.0490 -2.9258
# 5 1.5768 -9.6408 -17.9037 0.0490 32.9931 -7.9670
# 6 24.0005 11.1319 17.2456 -2.9258 -7.9670 36.7880
#
#
#
# Elastic Compliance Matrix: (Units=1/GPa)
#
#
# Indices 1 2 3 4 5 6 
#
# 1 0.030192 -0.003399 0.002341 0.010204 -0.006076 -0.020270
# 2 -0.003399 0.014287 -0.005176 0.004428 0.001777 0.001058
# 3 0.002341 -0.005176 0.035745 0.006165 0.014609 -0.013064
# 4 0.010204 0.004428 0.006165 0.053798 0.002613 -0.006043
# 5 -0.006076 0.001777 0.014609 0.002613 0.040378 0.005530
# 6 -0.020270 0.001058 -0.013064 -0.006043 0.005530 0.046928
#
#
# Mechanical properties :
#
#
# Convention : Reuss Voigt Hill
#
# Bulk Modulus (GPa) = 14.75878 31.03569 22.89724
# Shear Modulus (GPa) = 19.50216 27.47939 23.49078
#
# Velocity S-wave (km/s) = 3.04679 3.61663 3.34387
# Velocity P-wave (km/s) = 4.40481 5.67563 5.08012
#
# Compressibility (1/GPa) = 0.06775627
#
# Stress axis : x y z
#
# Youngs Moduli (GPa) = 33.12183 69.99127 27.97559
#
# Poissons Ratio (x) = 0.23789 -0.06549
# Poissons Ratio (y) = 0.11258 0.14481
# Poissons Ratio (z) = -0.07754 0.36230
#
# Static dielectric constant tensor:
#      x y z
#    x 1.766800 -0.006820 0.026320 
#    y -0.006820 1.765310 0.007730 
#    z 0.026320 0.007730 1.758820 
# 
# From -- ./inp_files/91071.got.cif
#   From: 2010.05.17/outbox.cif.g08.bks.cpg/sg2_46_cif.got.tgz:91071.got - 2010.06.03 11:33:40.
