data_PCOD9110210
_publ_section_title
;
Structure prediction by ZEFSAII (Michael W. Deem and Ramdas Pophale) SiO2 
 PCOD9110210
Probable space group: P -1
;
_chemical_formula_sum "Si O2"
_cell_formula_units_Z 14
_cell_length_a 13.651677
_cell_length_b 8.128281
_cell_length_c 8.818026
_cell_angle_alpha 127.753837
_cell_angle_beta 63.897539
_cell_angle_gamma 128.406751
_cell_volume 603.428378
_symmetry_space_group_name_H-M "P -1"
_symmetry_group_IT_number 2
_symmetry_cell_setting 'triclinic'
loop_
_space_group_symop_operation_xyz
x,y,z
-x,-y,-z
loop_
_atom_site_type_symbol
_atom_site_label
_atom_site_fract_x
_atom_site_fract_y
_atom_site_fract_z
Si Si1 0.771745 0.178461 0.269540
Si Si2 0.877153 0.980599 0.503864
Si Si3 0.390030 0.873016 0.378541
Si Si4 0.444399 0.096442 0.961543
Si Si5 0.951259 0.485442 0.854155
Si Si6 0.617453 0.731709 0.614395
Si Si7 0.130649 0.144642 0.904897
O O1 0.729305 0.245372 0.494306
O O2 0.916859 0.367333 0.243228
O O3 0.671307 0.123921 0.172794
O O4 0.768075 0.919846 0.134071
O O5 0.750685 0.747166 0.509799
O O6 0.887621 0.966223 0.311020
O O7 0.000000 0.000000 0.500000
O O8 0.877286 0.215107 0.696282
O O9 0.446899 0.759969 0.156480
O O10 0.500000 0.000000 0.500000
O O11 0.376533 0.062399 0.386548
O O12 0.397877 0.238384 0.179979
O O13 0.500000 0.000000 0.000000
O O14 0.000000 0.500000 0.000000
O O15 0.859063 0.597034 0.967679
O O16 0.500000 0.500000 0.500000
O O17 0.000000 0.000000 0.000000
#
# Coordination Sequence:
#
# PCOD9110210 Si02
#       7
#     2   2   2   2   2   2   2
#     4  10  20  41  70  99 144 176 228 297 350 411
#     4  12  25  44  71 107 141 180 243 287 344 427
#     4   9  19  41  65  93 130 171 228 285 336 410
#     4   9  20  39  68  94 127 180 236 276 339 418
#     4  11  23  42  71 103 139 186 228 285 357 419
#     4  11  24  45  65  96 139 183 230 284 343 414
#     4  10  23  43  66 103 146 179 226 288 356 422
#
# _framework density 23.200763999999999
#
# number of rings (size 3 to 8) (size 9 to 14) (size 15 to 20)
#    0.000    1.714    2.857    0.857    2.000    5.714 
#    7.714    4.286    0.000    0.000    0.000    0.000 
#    0.000    0.000    0.000    0.000    0.000    0.000 
#
# Total GULP energy -78126.979222 kJ/mol
# GULP energy per Si atom -5580.498516 kJ/mol
# Density = 2.314796 g / cm^3
# Si number density = 23.200764 Si / 1000 Ang^3
#
#
#
# Elastic Constant Matrix: (Units=GPa)
#
#
# Indices 1 2 3 4 5 6 
#
# 1 111.3467 24.5391 14.8929 -5.5176 5.0600 14.1551
# 2 24.5391 66.2529 44.6679 -14.4634 7.5045 20.5972
# 3 14.8929 44.6679 142.6962 -41.2316 16.5738 13.1921
# 4 -5.5176 -14.4634 -41.2316 53.0102 3.1336 -6.8845
# 5 5.0600 7.5045 16.5738 3.1336 26.4482 0.7141
# 6 14.1551 20.5972 13.1921 -6.8845 0.7141 36.3185
#
#
#
# Elastic Compliance Matrix: (Units=1/GPa)
#
#
# Indices 1 2 3 4 5 6 
#
# 1 0.009953 -0.003027 0.000327 0.000249 -0.001220 -0.002210
# 2 -0.003027 0.023534 -0.005718 0.000503 -0.002306 -0.009949
# 3 0.000327 -0.005718 0.011881 0.008184 -0.006868 0.000486
# 4 0.000249 0.000503 0.008184 0.026123 -0.008462 0.001763
# 5 -0.001220 -0.002306 -0.006868 -0.008462 0.043955 0.001810
# 6 -0.002210 -0.009949 0.000486 0.001763 0.001810 0.034160
#
#
# Mechanical properties :
#
#
# Convention : Reuss Voigt Hill
#
# Bulk Modulus (GPa) = 35.04844 54.27732 44.66288
# Shear Modulus (GPa) = 28.41656 38.90176 33.65916
#
# Velocity S-wave (km/s) = 3.50353 4.09925 3.81304
# Velocity P-wave (km/s) = 5.61299 6.77130 6.21917
#
# Compressibility (1/GPa) = 0.02853194
#
# Stress axis : x y z
#
# Youngs Moduli (GPa) = 100.47098 42.49151 84.16555
#
# Poissons Ratio (x) = 0.12863 -0.02751
# Poissons Ratio (y) = 0.30415 0.48126
# Poissons Ratio (z) = -0.03284 0.24297
#
# Static dielectric constant tensor:
#      x y z
#    x 1.926710 0.026560 -0.090830 
#    y 0.026560 1.942890 -0.057310 
#    z -0.090830 -0.057310 1.870980 
# 
# From -- ./inp_files/221759.got.cif
#   From: 2010.05.17/outbox.cif.g08.bks.cpg/sg2_111_cif.got.tgz:221759.got - 2010.06.03 11:33:40.
