data_PCOD9110648
_publ_section_title
;
Structure prediction by ZEFSAII (Michael W. Deem and Ramdas Pophale) SiO2 
 PCOD9110648
Probable space group: P -1
;
_chemical_formula_sum "Si O2"
_cell_formula_units_Z 16
_cell_length_a 20.617531
_cell_length_b 9.178126
_cell_length_c 9.744418
_cell_angle_alpha 75.993610
_cell_angle_beta 132.339032
_cell_angle_gamma 65.647449
_cell_volume 789.518948
_symmetry_space_group_name_H-M "P -1"
_symmetry_group_IT_number 2
_symmetry_cell_setting 'triclinic'
loop_
_space_group_symop_operation_xyz
x,y,z
-x,-y,-z
loop_
_atom_site_type_symbol
_atom_site_label
_atom_site_fract_x
_atom_site_fract_y
_atom_site_fract_z
Si Si1 0.420255 0.832187 0.205305
Si Si2 0.611316 0.214475 0.365022
Si Si3 0.400962 0.502989 0.233053
Si Si4 0.066309 0.320370 0.007988
Si Si5 0.101675 0.747680 0.291827
Si Si6 0.878377 0.251015 0.357967
Si Si7 0.863422 0.622313 0.191669
Si Si8 0.559607 0.641288 0.163770
O O1 0.377246 0.713474 0.172317
O O2 0.571848 0.620625 0.557838
O O3 0.461023 0.824960 0.110993
O O4 0.288164 0.106638 0.021039
O O5 0.551704 0.266988 0.419998
O O6 0.576540 0.437635 0.244972
O O7 0.783586 0.958737 0.660591
O O8 0.527105 0.224794 0.133646
O O9 0.274189 0.617217 0.929379
O O10 0.110679 0.361762 0.931677
O O11 0.000000 0.500000 0.000000
O O12 0.958123 0.337410 0.800022
O O13 0.087319 0.806125 0.419077
O O14 0.275959 0.519784 0.560654
O O15 0.000000 0.000000 0.000000
O O16 0.867599 0.438366 0.255978
O O17 0.000000 0.000000 0.500000
O O18 0.000000 0.500000 0.500000
#
# Coordination Sequence:
#
# PCOD9110648 Si02
#       8
#     2   2   2   2   2   2   2   2
#     4  10  23  40  72  99 137 183 226 282 346 414
#     4  10  20  42  65 100 137 180 231 278 343 413
#     4  10  21  42  68 100 135 181 235 277 340 413
#     4  12  28  46  70 102 143 191 226 290 355 413
#     4  12  26  46  70 105 144 179 240 288 342 417
#     4  12  28  44  72 102 139 186 236 289 347 416
#     4  12  26  47  67 100 143 181 232 287 353 416
#     4  10  22  39  71 101 137 181 228 286 338 411
#
# _framework density 20.265502999999999
#
# number of rings (size 3 to 8) (size 9 to 14) (size 15 to 20)
#    0.000    1.000    5.000    0.750    5.250    0.500 
#    2.250    1.250    0.000    0.000    0.000    0.000 
#    0.000    0.000    0.000    0.000    0.000    0.000 
#
# Total GULP energy -89396.426742 kJ/mol
# GULP energy per Si atom -5587.276671 kJ/mol
# Density = 2.021938 g / cm^3
# Si number density = 20.265503 Si / 1000 Ang^3
#
#
#
# Elastic Constant Matrix: (Units=GPa)
#
#
# Indices 1 2 3 4 5 6 
#
# 1 82.9740 57.9559 26.8729 -0.2688 -1.6563 -17.9044
# 2 57.9559 145.2257 54.5700 -2.6855 1.5901 -26.2619
# 3 26.8729 54.5700 87.8021 18.1942 10.1005 -3.2899
# 4 -0.2688 -2.6855 18.1942 35.8219 -4.5861 4.2720
# 5 -1.6563 1.5901 10.1005 -4.5861 38.7644 2.9703
# 6 -17.9044 -26.2619 -3.2899 4.2720 2.9703 34.2968
#
#
#
# Elastic Compliance Matrix: (Units=1/GPa)
#
#
# Indices 1 2 3 4 5 6 
#
# 1 0.017506 -0.005374 -0.002055 0.000367 0.001189 0.004678
# 2 -0.005374 0.012759 -0.007014 0.003940 0.001104 0.005705
# 3 -0.002055 -0.007014 0.019162 -0.010692 -0.005846 -0.002768
# 4 0.000367 0.003940 -0.010692 0.034868 0.006977 -0.002765
# 5 0.001189 0.001104 -0.005846 0.006977 0.028336 -0.002418
# 6 0.004678 0.005705 -0.002768 -0.002765 -0.002418 0.036256
#
#
# Mechanical properties :
#
#
# Convention : Reuss Voigt Hill
#
# Bulk Modulus (GPa) = 48.68782 66.08883 57.38833
# Shear Modulus (GPa) = 27.08258 33.55013 30.31635
#
# Velocity S-wave (km/s) = 3.65963 4.07323 3.87196
# Velocity P-wave (km/s) = 6.47567 7.40297 6.95479
#
# Compressibility (1/GPa) = 0.02053902
#
# Stress axis : x y z
#
# Youngs Moduli (GPa) = 57.12452 78.37793 52.18585
#
# Poissons Ratio (x) = 0.42121 0.10725
# Poissons Ratio (y) = 0.30699 0.36606
# Poissons Ratio (z) = 0.11740 0.54978
#
# Static dielectric constant tensor:
#      x y z
#    x 1.767200 -0.054310 0.004850 
#    y -0.054310 1.799530 0.011050 
#    z 0.004850 0.011050 1.731000 
# 
# From -- ./inp_files/223218.got.cif
#   From: 2010.05.17/outbox.cif.g08.bks.cpg/sg2_112_cif.got.tgz:223218.got - 2010.06.03 11:33:40.
