data_PCOD9110700
_publ_section_title
;
Structure prediction by ZEFSAII (Michael W. Deem and Ramdas Pophale) SiO2 
 PCOD9110700
Probable space group: P -1
;
_chemical_formula_sum "Si O2"
_cell_formula_units_Z 16
_cell_length_a 6.869461
_cell_length_b 24.632530
_cell_length_c 16.741526
_cell_angle_alpha 26.312744
_cell_angle_beta 46.656257
_cell_angle_gamma 65.038533
_cell_volume 730.947555
_symmetry_space_group_name_H-M "P -1"
_symmetry_group_IT_number 2
_symmetry_cell_setting 'triclinic'
loop_
_space_group_symop_operation_xyz
x,y,z
-x,-y,-z
loop_
_atom_site_type_symbol
_atom_site_label
_atom_site_fract_x
_atom_site_fract_y
_atom_site_fract_z
Si Si1 0.580227 0.226393 0.971938
Si Si2 0.738409 0.161052 0.177081
Si Si3 0.723993 0.690355 0.398392
Si Si4 0.650009 0.567397 0.281046
Si Si5 0.426621 0.836765 0.230568
Si Si6 0.812649 0.937198 0.844398
Si Si7 0.628630 0.445026 0.156918
Si Si8 0.784673 0.720371 0.654459
O O1 0.516664 0.352083 0.808878
O O2 0.933001 0.277618 0.768930
O O3 0.573861 0.192621 0.111408
O O4 0.290266 0.079812 0.196154
O O5 0.500000 0.000000 0.500000
O O6 0.005552 0.141386 0.088935
O O7 0.954566 0.302864 0.989224
O O8 0.443904 0.560900 0.586981
O O9 0.705325 0.831151 0.203240
O O10 0.609322 0.633384 0.595868
O O11 0.500000 0.500000 0.500000
O O12 0.076492 0.723875 0.521588
O O13 0.500000 0.000000 0.000000
O O14 0.472389 0.829670 0.132956
O O15 0.043887 0.111521 0.579274
O O16 0.482427 0.330299 0.273443
O O17 0.646009 0.590999 0.930943
O O18 0.000000 0.500000 0.000000
#
# Coordination Sequence:
#
# PCOD9110700 Si02
#       8
#     2   2   2   2   2   2   2   2
#     4  11  23  43  68  99 130 169 232 279 329 415
#     4  11  25  43  64 100 137 173 221 285 342 404
#     4  12  22  41  71  97 129 181 222 274 340 391
#     4  11  24  44  70 100 136 172 231 284 336 404
#     4  10  20  42  65  93 129 170 217 274 325 389
#     4  10  22  42  66  91 130 176 214 269 343 393
#     4  11  24  41  61  95 132 173 226 267 325 402
#     4  10  23  43  61  90 137 169 215 281 320 388
#
# _framework density 21.889392999999998
#
# number of rings (size 3 to 8) (size 9 to 14) (size 15 to 20)
#    0.000    1.250    3.750    1.875    0.000    6.000 
#    0.000    2.500    0.000    0.000    0.000    0.000 
#    0.000    0.000    0.000    0.000    0.000    0.000 
#
# Total GULP energy -89389.847088 kJ/mol
# GULP energy per Si atom -5586.865443 kJ/mol
# Density = 2.183957 g / cm^3
# Si number density = 21.889393 Si / 1000 Ang^3
#
#
#
# Elastic Constant Matrix: (Units=GPa)
#
#
# Indices 1 2 3 4 5 6 
#
# 1 131.8553 30.4017 38.4083 -7.5691 20.2582 22.7272
# 2 30.4017 54.3193 15.5253 -16.6480 9.6995 7.8096
# 3 38.4083 15.5253 89.9030 -8.2631 17.7123 16.6096
# 4 -7.5691 -16.6480 -8.2631 39.1286 8.2556 -5.4956
# 5 20.2582 9.6995 17.7123 8.2556 39.1798 1.1467
# 6 22.7272 7.8096 16.6096 -5.4956 1.1467 30.3136
#
#
#
# Elastic Compliance Matrix: (Units=1/GPa)
#
#
# Indices 1 2 3 4 5 6 
#
# 1 0.010602 -0.003969 -0.002164 -0.000189 -0.003316 -0.005649
# 2 -0.003969 0.025456 -0.000162 0.011232 -0.006508 -0.001211
# 3 -0.002164 -0.000162 0.014538 0.003050 -0.005894 -0.005525
# 4 -0.000189 0.011232 0.003050 0.033601 -0.011203 0.002092
# 5 -0.003316 -0.006508 -0.005894 -0.011203 0.033755 0.004084
# 6 -0.005649 -0.001211 -0.005525 0.002092 0.004084 0.040788
#
#
# Mechanical properties :
#
#
# Convention : Reuss Voigt Hill
#
# Bulk Modulus (GPa) = 26.31215 49.41645 37.86430
# Shear Modulus (GPa) = 27.17422 34.50723 30.84072
#
# Velocity S-wave (km/s) = 3.52722 3.97474 3.75765
# Velocity P-wave (km/s) = 5.35117 6.60979 6.01350
#
# Compressibility (1/GPa) = 0.03800525
#
# Stress axis : x y z
#
# Youngs Moduli (GPa) = 94.32288 39.28385 68.78455
#
# Poissons Ratio (x) = 0.15590 0.14888
# Poissons Ratio (y) = 0.37434 0.01116
# Poissons Ratio (z) = 0.20415 0.00637
#
# Static dielectric constant tensor:
#      x y z
#    x 1.809090 0.002230 -0.026360 
#    y 0.002230 1.880530 0.076070 
#    z -0.026360 0.076070 1.902790 
# 
# From -- ./inp_files/485959.got.cif
#   From: 2010.05.17/outbox.cif.g08.bks.cpg/sg2_243_cif.got.tgz:485959.got - 2010.06.03 11:33:40.
