data_PCOD9110818
_publ_section_title
;
Structure prediction by ZEFSAII (Michael W. Deem and Ramdas Pophale) SiO2 
 PCOD9110818
Probable space group: P -1
;
_chemical_formula_sum "Si O2"
_cell_formula_units_Z 14
_cell_length_a 13.809897
_cell_length_b 9.214063
_cell_length_c 23.586712
_cell_angle_alpha 152.915381
_cell_angle_beta 23.434574
_cell_angle_gamma 144.823441
_cell_volume 543.460662
_symmetry_space_group_name_H-M "P -1"
_symmetry_group_IT_number 2
_symmetry_cell_setting 'triclinic'
loop_
_space_group_symop_operation_xyz
x,y,z
-x,-y,-z
loop_
_atom_site_type_symbol
_atom_site_label
_atom_site_fract_x
_atom_site_fract_y
_atom_site_fract_z
Si Si1 0.444454 0.055648 0.846544
Si Si2 0.263954 0.391627 0.723325
Si Si3 0.117685 0.346468 0.044888
Si Si4 0.171471 0.526185 0.360672
Si Si5 0.563574 0.792533 0.313918
Si Si6 0.977452 0.753232 0.771250
Si Si7 0.986466 0.174863 0.636288
O O1 0.705710 0.100790 0.748595
O O2 0.400098 0.691313 0.725884
O O3 0.387514 0.285113 0.903154
O O4 0.246564 0.150402 0.034145
O O5 0.354689 0.053209 0.533446
O O6 0.980815 0.491288 0.903105
O O7 0.358107 0.400431 0.739938
O O8 0.997805 0.592893 0.238214
O O9 0.000000 0.000000 0.000000
O O10 0.100684 0.267572 0.260190
O O11 0.000000 0.500000 0.500000
O O12 0.443184 0.559177 0.251551
O O13 0.123913 0.860617 0.470920
O O14 0.799026 0.012982 0.253084
O O15 0.062511 0.400089 0.621905
#
# Coordination Sequence:
#
# PCOD9110818 Si02
#       7
#     2   2   2   2   2   2   2
#     4  10  22  43  68  97 136 179 224 280 346 398
#     4  10  20  42  66  94 131 179 225 278 335 407
#     4   9  18  35  63  95 122 170 220 267 329 398
#     4  12  25  45  71 101 135 185 230 273 343 406
#     4  11  23  42  67  99 135 178 230 280 336 400
#     4  11  25  43  65 103 139 172 230 284 336 405
#     4  11  22  45  67  96 138 179 226 280 337 404
#
# _framework density 25.760833999999999
#
# number of rings (size 3 to 8) (size 9 to 14) (size 15 to 20)
#    0.000    1.429    1.429    5.571    0.000    1.143 
#   20.571    2.857    0.000    0.000    0.000    0.000 
#    0.000    0.000    0.000    0.000    0.000    0.000 
#
# Total GULP energy -78264.707265 kJ/mol
# GULP energy per Si atom -5590.336233 kJ/mol
# Density = 2.570220 g / cm^3
# Si number density = 25.760834 Si / 1000 Ang^3
#
#
#
# Elastic Constant Matrix: (Units=GPa)
#
#
# Indices 1 2 3 4 5 6 
#
# 1 167.3132 29.7872 54.7435 -14.4987 -26.1851 11.3880
# 2 29.7872 82.3150 36.7949 -13.7197 -4.0669 27.9617
# 3 54.7435 36.7949 110.5572 -13.7599 -19.7372 -5.6008
# 4 -14.4987 -13.7197 -13.7599 43.2361 1.6638 -15.0341
# 5 -26.1851 -4.0669 -19.7372 1.6638 53.7139 3.7806
# 6 11.3880 27.9617 -5.6008 -15.0341 3.7806 36.8618
#
#
#
# Elastic Compliance Matrix: (Units=1/GPa)
#
#
# Indices 1 2 3 4 5 6 
#
# 1 0.007780 -0.000044 -0.003465 0.000330 0.002720 -0.003041
# 2 -0.000044 0.022047 -0.008585 -0.002340 -0.000100 -0.018959
# 3 -0.003465 -0.008585 0.015231 0.004933 0.002283 0.011675
# 4 0.000330 -0.002340 0.004933 0.029035 -0.000108 0.014275
# 5 0.002720 -0.000100 0.002283 -0.000108 0.020961 -0.002611
# 6 -0.003041 -0.018959 0.011675 0.014275 -0.002611 0.050313
#
#
# Mechanical properties :
#
#
# Convention : Reuss Voigt Hill
#
# Bulk Modulus (GPa) = 47.91708 66.98186 57.44947
# Shear Modulus (GPa) = 28.32664 42.68633 35.50649
#
# Velocity S-wave (km/s) = 3.31962 4.07507 3.71659
# Velocity P-wave (km/s) = 5.77359 6.94259 6.38490
#
# Compressibility (1/GPa) = 0.02086939
#
# Stress axis : x y z
#
# Youngs Moduli (GPa) = 128.54190 45.35697 65.65548
#
# Poissons Ratio (x) = 0.00200 0.22749
# Poissons Ratio (y) = 0.00566 0.56367
# Poissons Ratio (z) = 0.44538 0.38940
#
# Static dielectric constant tensor:
#      x y z
#    x 2.119650 -0.003990 0.054540 
#    y -0.003990 2.108480 -0.073600 
#    z 0.054540 -0.073600 2.072160 
# 
# From -- ./inp_files/282457.got.cif
#   From: 2010.05.17/outbox.cif.g08.bks.cpg/sg2_142_cif.got.tgz:282457.got - 2010.06.03 11:33:40.
