data_PCOD9110472
_publ_section_title
;
Structure prediction by ZEFSAII (Michael W. Deem and Ramdas Pophale) SiO2 
 PCOD9110472
Probable space group: P -1
;
_chemical_formula_sum "Si O2"
_cell_formula_units_Z 12
_cell_length_a 11.508062
_cell_length_b 11.427805
_cell_length_c 15.515543
_cell_angle_alpha 144.322957
_cell_angle_beta 154.417361
_cell_angle_gamma 51.053274
_cell_volume 467.933125
_symmetry_space_group_name_H-M "P -1"
_symmetry_group_IT_number 2
_symmetry_cell_setting 'triclinic'
loop_
_space_group_symop_operation_xyz
x,y,z
-x,-y,-z
loop_
_atom_site_type_symbol
_atom_site_label
_atom_site_fract_x
_atom_site_fract_y
_atom_site_fract_z
Si Si1 0.882659 0.082097 0.329714
Si Si2 0.355257 0.628343 0.423710
Si Si3 0.592930 0.888398 0.399795
Si Si4 0.220464 0.569211 0.845093
Si Si5 0.418470 0.927258 0.055726
Si Si6 0.672376 0.365347 0.786867
O O1 0.710567 0.937335 0.207865
O O2 0.191454 0.073375 0.513439
O O3 0.943404 0.338741 0.535992
O O4 0.734143 0.020580 0.099309
O O5 0.500000 0.500000 0.500000
O O6 0.505213 0.876569 0.707779
O O7 0.412211 0.593182 0.340196
O O8 0.996691 0.539949 0.134536
O O9 0.587319 0.708921 0.360159
O O10 0.691359 0.128772 0.647965
O O11 0.269027 0.753379 0.061274
O O12 0.500000 0.500000 0.000000
O O13 0.244131 0.696249 0.847840
#
# Coordination Sequence:
#
# PCOD9110472 Si02
#       6
#     2   2   2   2   2   2
#     4  10  23  40  65  94 129 166 214 264 326 378
#     4  11  23  43  66  97 125 171 217 259 324 382
#     4  10  20  42  62  93 124 168 210 262 325 379
#     4  10  21  39  62  92 123 166 212 256 324 383
#     4  11  22  43  63  93 131 165 213 273 312 381
#     4  10  22  42  66  91 132 165 213 269 313 382
#
# _framework density 25.644690000000001
#
# number of rings (size 3 to 8) (size 9 to 14) (size 15 to 20)
#    0.000    1.667    1.667    2.500    0.000    2.667 
#   30.000    2.500    0.000    0.000    0.000    0.000 
#    0.000    0.000    0.000    0.000    0.000    0.000 
#
# Total GULP energy -67003.252980 kJ/mol
# GULP energy per Si atom -5583.604415 kJ/mol
# Density = 2.558632 g / cm^3
# Si number density = 25.644690 Si / 1000 Ang^3
#
#
#
# Elastic Constant Matrix: (Units=GPa)
#
#
# Indices 1 2 3 4 5 6 
#
# 1 72.2958 20.2780 -10.0843 -1.1626 -1.5141 33.3612
# 2 20.2780 94.4240 19.3365 -7.6983 -7.1043 27.0543
# 3 -10.0843 19.3365 110.2301 11.8250 -32.0262 1.1544
# 4 -1.1626 -7.6983 11.8250 37.1859 5.4216 -6.9578
# 5 -1.5141 -7.1043 -32.0262 5.4216 36.1524 6.2397
# 6 33.3612 27.0543 1.1544 -6.9578 6.2397 46.0395
#
#
#
# Elastic Compliance Matrix: (Units=1/GPa)
#
#
# Indices 1 2 3 4 5 6 
#
# 1 0.024185 -0.000533 0.006454 -0.006743 0.011070 -0.019893
# 2 -0.000533 0.013552 -0.001969 0.001724 0.001938 -0.007531
# 3 0.006454 -0.001969 0.015895 -0.009097 0.016631 -0.007547
# 4 -0.006743 0.001724 -0.009097 0.034250 -0.015093 0.011323
# 5 0.011070 0.001938 0.016631 -0.015093 0.048686 -0.018457
# 6 -0.019893 -0.007531 -0.007547 0.011323 -0.018457 0.044962
#
#
# Mechanical properties :
#
#
# Convention : Reuss Voigt Hill
#
# Bulk Modulus (GPa) = 16.25068 37.33448 26.79258
# Shear Modulus (GPa) = 25.75496 40.37021 33.06258
#
# Velocity S-wave (km/s) = 3.17251 3.97194 3.59452
# Velocity P-wave (km/s) = 4.44639 5.96867 5.26286
#
# Compressibility (1/GPa) = 0.06153590
#
# Stress axis : x y z
#
# Youngs Moduli (GPa) = 41.34834 73.78944 62.91472
#
# Poissons Ratio (x) = 0.03930 -0.40604
# Poissons Ratio (y) = 0.02202 0.12388
# Poissons Ratio (z) = -0.26686 0.14530
#
# Static dielectric constant tensor:
#      x y z
#    x 2.226740 -0.057560 -0.003580 
#    y -0.057560 2.049080 -0.055220 
#    z -0.003580 -0.055220 2.166120 
# 
# From -- ./inp_files/404006.got.cif
#   From: 2010.05.17/outbox.cif.g08.bks.cpg/sg2_203_cif.got.tgz:404006.got - 2010.06.03 11:33:40.
