data_PCOD9110581
_publ_section_title
;
Structure prediction by ZEFSAII (Michael W. Deem and Ramdas Pophale) SiO2 
 PCOD9110581
Probable space group: P -1
;
_chemical_formula_sum "Si O2"
_cell_formula_units_Z 16
_cell_length_a 5.023965
_cell_length_b 8.934275
_cell_length_c 18.284890
_cell_angle_alpha 63.421383
_cell_angle_beta 69.789899
_cell_angle_gamma 91.129516
_cell_volume 673.787156
_symmetry_space_group_name_H-M "P -1"
_symmetry_group_IT_number 2
_symmetry_cell_setting 'triclinic'
loop_
_space_group_symop_operation_xyz
x,y,z
-x,-y,-z
loop_
_atom_site_type_symbol
_atom_site_label
_atom_site_fract_x
_atom_site_fract_y
_atom_site_fract_z
Si Si1 0.675736 0.711403 0.672340
Si Si2 0.144018 0.368581 0.170544
Si Si3 0.833468 0.846865 0.997874
Si Si4 0.160844 0.280137 0.690223
Si Si5 0.450709 0.819905 0.899342
Si Si6 0.805074 0.623268 0.174691
Si Si7 0.794114 0.490928 0.590779
Si Si8 0.370733 0.943717 0.731696
O O1 0.853753 0.679279 0.733609
O O2 0.406578 0.549361 0.740132
O O3 0.821385 0.670567 0.592330
O O4 0.572350 0.886582 0.662132
O O5 0.431089 0.340992 0.108959
O O6 0.072859 0.553299 0.131644
O O7 0.885157 0.221991 0.197899
O O8 0.671309 0.713841 0.102496
O O9 0.627500 0.879420 0.944213
O O10 0.109630 0.783841 0.952631
O O11 0.000000 0.000000 0.000000
O O12 0.118245 0.262895 0.785637
O O13 0.459952 0.418951 0.617696
O O14 0.900664 0.354980 0.664356
O O15 0.232515 0.104717 0.692351
O O16 0.519720 0.956666 0.795270
O O17 0.000000 0.500000 0.500000
#
# Coordination Sequence:
#
# PCOD9110581 Si02
#       8
#     2   2   2   2   2   2   2   2
#     4   9  21  42  66  96 126 176 212 264 321 396
#     4  10  20  42  64  90 125 172 218 268 316 384
#     4  12  26  41  59  90 132 170 214 284 331 364
#     4  11  24  42  71  99 125 172 218 262 314 391
#     4  11  24  41  60  88 125 171 216 269 328 363
#     4  10  23  39  64  91 125 171 226 260 323 390
#     4  11  24  45  70 101 136 166 207 261 324 389
#     4  10  22  42  69  95 131 171 225 266 317 381
#
# _framework density 23.746369999999999
#
# number of rings (size 3 to 8) (size 9 to 14) (size 15 to 20)
#    0.000    1.500    2.500    1.500    5.250    1.000 
#    0.000    1.250    0.000    0.000    0.000    0.000 
#    0.000    0.000    0.000    0.000    0.000    0.000 
#
# Total GULP energy -89391.712525 kJ/mol
# GULP energy per Si atom -5586.982033 kJ/mol
# Density = 2.369232 g / cm^3
# Si number density = 23.746370 Si / 1000 Ang^3
#
#
#
# Elastic Constant Matrix: (Units=GPa)
#
#
# Indices 1 2 3 4 5 6 
#
# 1 77.7716 0.4027 0.8205 0.2384 14.3201 -3.5022
# 2 0.4027 96.4267 18.7488 20.6501 11.0476 -8.0379
# 3 0.8205 18.7488 55.2319 33.0660 -0.3715 4.6307
# 4 0.2384 20.6501 33.0660 26.6892 1.1800 0.8994
# 5 14.3201 11.0476 -0.3715 1.1800 21.6096 1.7788
# 6 -3.5022 -8.0379 4.6307 0.8994 1.7788 22.8686
#
#
#
# Elastic Compliance Matrix: (Units=1/GPa)
#
#
# Indices 1 2 3 4 5 6 
#
# 1 0.015148 0.001651 -0.002255 0.001742 -0.011359 0.004172
# 2 0.001651 0.014422 0.004423 -0.016494 -0.007960 0.005694
# 3 -0.002255 0.004423 0.075841 -0.097296 0.006742 -0.010846
# 4 0.001742 -0.016494 -0.097296 0.170687 -0.004357 0.007798
# 5 -0.011359 -0.007960 0.006742 -0.004357 0.059076 -0.010326
# 6 0.004172 0.005694 -0.010846 0.007798 -0.010326 0.049061
#
#
# Mechanical properties :
#
#
# Convention : Reuss Voigt Hill
#
# Bulk Modulus (GPa) = 8.84560 29.93046 19.38803
# Shear Modulus (GPa) = 12.06913 28.19736 20.13325
#
# Velocity S-wave (km/s) = 2.25689 3.44966 2.91494
# Velocity P-wave (km/s) = 3.24415 5.33840 4.41718
#
# Compressibility (1/GPa) = 0.11305056
#
# Stress axis : x y z
#
# Youngs Moduli (GPa) = 66.01737 69.33653 13.18545
#
# Poissons Ratio (x) = -0.11449 0.02973
# Poissons Ratio (y) = -0.10901 -0.05832
# Poissons Ratio (z) = 0.14884 -0.30668
#
# Static dielectric constant tensor:
#      x y z
#    x 1.966610 0.013630 -0.020070 
#    y 0.013630 1.966100 0.045070 
#    z -0.020070 0.045070 1.916940 
# 
# From -- ./inp_files/110733.got.cif
#   From: 2010.05.17/outbox.cif.g08.bks.cpg/sg2_56_cif.got.tgz:110733.got - 2010.06.03 11:33:40.
