data_PCOD9110633
_publ_section_title
;
Structure prediction by ZEFSAII (Michael W. Deem and Ramdas Pophale) SiO2 
 PCOD9110633
Probable space group: P -1
;
_chemical_formula_sum "Si O2"
_cell_formula_units_Z 14
_cell_length_a 8.619663
_cell_length_b 9.362472
_cell_length_c 11.467815
_cell_angle_alpha 73.958481
_cell_angle_beta 119.850766
_cell_angle_gamma 135.207375
_cell_volume 561.028138
_symmetry_space_group_name_H-M "P -1"
_symmetry_group_IT_number 2
_symmetry_cell_setting 'triclinic'
loop_
_space_group_symop_operation_xyz
x,y,z
-x,-y,-z
loop_
_atom_site_type_symbol
_atom_site_label
_atom_site_fract_x
_atom_site_fract_y
_atom_site_fract_z
Si Si1 0.243419 0.237431 0.027067
Si Si2 0.712385 0.088604 0.653384
Si Si3 0.191194 0.144366 0.374679
Si Si4 0.337592 0.782514 0.153981
Si Si5 0.732518 0.550578 0.234199
Si Si6 0.027968 0.319769 0.123018
Si Si7 0.693208 0.742414 0.362342
O O1 0.514040 0.331575 0.142580
O O2 0.181320 0.343345 0.063768
O O3 0.257806 0.304977 0.885331
O O4 0.000000 0.000000 0.000000
O O5 0.643159 0.101537 0.753336
O O6 0.977584 0.321293 0.675457
O O7 0.500000 0.000000 0.500000
O O8 0.734047 0.922945 0.685413
O O9 0.078175 0.230406 0.262811
O O10 0.368442 0.277051 0.520400
O O11 0.981747 0.923510 0.407101
O O12 0.124515 0.535681 0.149010
O O13 0.570915 0.808870 0.233007
O O14 0.245425 0.817488 0.998449
O O15 0.633759 0.552840 0.321469
#
# Coordination Sequence:
#
# PCOD9110633 Si02
#       7
#     2   2   2   2   2   2   2
#     4  11  21  39  67 101 129 177 237 282 334 418
#     4  11  21  41  69 100 134 187 225 281 350 412
#     4  10  23  40  70  96 133 178 235 274 338 427
#     4  11  23  41  66  97 140 176 222 288 355 394
#     4  10  22  40  67  96 137 185 225 279 352 411
#     4  11  24  41  65 101 132 179 229 284 347 413
#     4  10  20  42  64  97 132 182 223 278 348 414
#
# _framework density 24.954183
#
# number of rings (size 3 to 8) (size 9 to 14) (size 15 to 20)
#    0.000    1.429    4.286    1.714    0.000    1.143 
#    0.000    1.429    0.000   11.143    0.000    0.000 
#    0.000    0.000    0.000    0.000    0.000    0.000 
#
# Total GULP energy -78166.270721 kJ/mol
# GULP energy per Si atom -5583.305051 kJ/mol
# Density = 2.489739 g / cm^3
# Si number density = 24.954183 Si / 1000 Ang^3
#
#
#
# Elastic Constant Matrix: (Units=GPa)
#
#
# Indices 1 2 3 4 5 6 
#
# 1 47.1665 16.8772 6.9810 18.6521 -0.4579 1.4318
# 2 16.8772 101.4167 33.6601 18.7127 4.7302 6.5244
# 3 6.9810 33.6601 133.4947 25.8669 14.0555 1.8060
# 4 18.6521 18.7127 25.8669 41.2905 5.4333 6.2132
# 5 -0.4579 4.7302 14.0555 5.4333 48.2769 10.7911
# 6 1.4318 6.5244 1.8060 6.2132 10.7911 38.9029
#
#
#
# Elastic Compliance Matrix: (Units=1/GPa)
#
#
# Indices 1 2 3 4 5 6 
#
# 1 0.026744 -0.002851 0.001513 -0.012049 0.001223 0.001009
# 2 -0.002851 0.011619 -0.002320 -0.002327 0.000082 -0.001387
# 3 0.001513 -0.002320 0.009240 -0.005341 -0.002150 0.001354
# 4 -0.012049 -0.002327 -0.005341 0.034857 -0.001334 -0.004115
# 5 0.001223 0.000082 -0.002150 -0.001334 0.022854 -0.006085
# 6 0.001009 -0.001387 0.001354 -0.004115 -0.006085 0.028183
#
#
# Mechanical properties :
#
#
# Convention : Reuss Voigt Hill
#
# Bulk Modulus (GPa) = 24.82220 44.12384 34.47302
# Shear Modulus (GPa) = 32.41653 40.66471 36.54062
#
# Velocity S-wave (km/s) = 3.60813 4.04118 3.83078
# Velocity P-wave (km/s) = 5.22751 6.28452 5.78023
#
# Compressibility (1/GPa) = 0.04028652
#
# Stress axis : x y z
#
# Youngs Moduli (GPa) = 37.39147 86.06261 108.22834
#
# Poissons Ratio (x) = 0.24540 -0.16372
# Poissons Ratio (y) = 0.10662 0.25106
# Poissons Ratio (z) = -0.05656 0.19964
#
# Static dielectric constant tensor:
#      x y z
#    x 2.000860 0.014600 0.025610 
#    y 0.014600 2.013240 0.056080 
#    z 0.025610 0.056080 2.038860 
# 
# From -- ./inp_files/382086.got.cif
#   From: 2010.05.17/outbox.cif.g08.bks.cpg/sg2_192_cif.got.tgz:382086.got - 2010.06.03 11:33:40.
