data_PCOD9110462
_publ_section_title
;
Structure prediction by ZEFSAII (Michael W. Deem and Ramdas Pophale) SiO2 
 PCOD9110462
Probable space group: P -1
;
_chemical_formula_sum "Si O2"
_cell_formula_units_Z 16
_cell_length_a 8.960496
_cell_length_b 11.611489
_cell_length_c 12.745042
_cell_angle_alpha 101.492239
_cell_angle_beta 68.646002
_cell_angle_gamma 145.001182
_cell_volume 696.073781
_symmetry_space_group_name_H-M "P -1"
_symmetry_group_IT_number 2
_symmetry_cell_setting 'triclinic'
loop_
_space_group_symop_operation_xyz
x,y,z
-x,-y,-z
loop_
_atom_site_type_symbol
_atom_site_label
_atom_site_fract_x
_atom_site_fract_y
_atom_site_fract_z
Si Si1 0.872829 0.607137 0.773027
Si Si2 0.494784 0.995716 0.372412
Si Si3 0.195272 0.026392 0.512547
Si Si4 0.072992 0.938984 0.051590
Si Si5 0.697025 0.359446 0.589528
Si Si6 0.203075 0.201181 0.236564
Si Si7 0.194573 0.454254 0.872099
Si Si8 0.692819 0.301207 0.923501
O O1 0.735041 0.495258 0.675600
O O2 0.799776 0.697450 0.831708
O O3 0.753750 0.439989 0.850640
O O4 0.206501 0.794299 0.712636
O O5 0.269290 0.961923 0.406049
O O6 0.411602 0.812280 0.339477
O O7 0.500000 0.000000 0.500000
O O8 0.020027 0.892022 0.637593
O O9 0.487558 0.248495 0.525787
O O10 0.000000 0.000000 0.500000
O O11 0.872569 0.707758 0.079990
O O12 0.107940 0.025989 0.170905
O O13 0.373638 0.069607 0.962176
O O14 0.000000 0.000000 0.000000
O O15 0.000000 0.500000 0.500000
O O16 0.515129 0.381645 0.234605
O O17 0.917017 0.331452 0.862082
O O18 0.263773 0.601864 0.961255
#
# Coordination Sequence:
#
# PCOD9110462 Si02
#       8
#     2   2   2   2   2   2   2   2
#     4  12  22  39  68  95 125 167 228 261 320 386
#     4  10  20  42  62  90 128 169 213 267 313 380
#     4  11  24  43  64  92 136 172 209 274 327 375
#     4  11  23  42  67  96 127 166 216 261 323 388
#     4  11  21  40  67  90 123 174 221 266 313 387
#     4  11  24  40  64  95 129 168 210 268 317 383
#     4  10  23  44  63  90 137 164 209 264 327 390
#     4  10  24  41  65  94 125 171 206 270 324 381
#
# _framework density 22.986068
#
# number of rings (size 3 to 8) (size 9 to 14) (size 15 to 20)
#    0.000    1.250    5.000    1.875    5.250    3.000 
#    2.250    2.500    0.000    0.000    0.000    0.000 
#    0.000    0.000    0.000    0.000    0.000    0.000 
#
# Total GULP energy -89374.291624 kJ/mol
# GULP energy per Si atom -5585.893227 kJ/mol
# Density = 2.293375 g / cm^3
# Si number density = 22.986068 Si / 1000 Ang^3
#
#
#
# Elastic Constant Matrix: (Units=GPa)
#
#
# Indices 1 2 3 4 5 6 
#
# 1 100.8317 15.4997 -11.8618 3.6237 -17.5196 18.0530
# 2 15.4997 85.0676 14.4132 -17.8899 -17.0648 9.1695
# 3 -11.8618 14.4132 29.4579 -12.8529 -15.5408 10.6006
# 4 3.6237 -17.8899 -12.8529 30.3688 1.8273 -10.1910
# 5 -17.5196 -17.0648 -15.5408 1.8273 32.3774 -6.4623
# 6 18.0530 9.1695 10.6006 -10.1910 -6.4623 37.1739
#
#
#
# Elastic Compliance Matrix: (Units=1/GPa)
#
#
# Indices 1 2 3 4 5 6 
#
# 1 0.017381 -0.002116 0.020779 0.000879 0.016056 -0.010812
# 2 -0.002116 0.015275 -0.002080 0.008414 0.005661 0.001144
# 3 0.020779 -0.002080 0.084163 0.022648 0.045378 -0.019481
# 4 0.000879 0.008414 0.022648 0.048823 0.014408 0.006929
# 5 0.016056 0.005661 0.045378 0.014408 0.062049 -0.007397
# 6 -0.010812 0.001144 -0.019481 0.006929 -0.007397 0.038038
#
#
# Mechanical properties :
#
#
# Convention : Reuss Voigt Hill
#
# Bulk Modulus (GPa) = 6.66735 27.93994 17.30365
# Shear Modulus (GPa) = 17.69538 33.13773 25.41656
#
# Velocity S-wave (km/s) = 2.77759 3.80102 3.32887
# Velocity P-wave (km/s) = 3.63230 5.60760 4.72434
#
# Compressibility (1/GPa) = 0.14998459
#
# Stress axis : x y z
#
# Youngs Moduli (GPa) = 57.53338 65.46584 11.88167
#
# Poissons Ratio (x) = 0.13855 -0.24689
# Poissons Ratio (y) = 0.12176 0.02472
# Poissons Ratio (z) = -1.19550 0.13619
#
# Static dielectric constant tensor:
#      x y z
#    x 1.940990 0.004610 0.000080 
#    y 0.004610 1.929100 0.054500 
#    z 0.000080 0.054500 1.900690 
# 
# From -- ./inp_files/500464.got.cif
#   From: 2010.05.17/outbox.cif.g08.bks.cpg/sg2_251_cif.got.tgz:500464.got - 2010.06.03 11:33:40.
