data_PCOD9110959
_publ_section_title
;
Structure prediction by ZEFSAII (Michael W. Deem and Ramdas Pophale) SiO2 
 PCOD9110959
Probable space group: P -1
;
_chemical_formula_sum "Si O2"
_cell_formula_units_Z 16
_cell_length_a 8.236862
_cell_length_b 15.001794
_cell_length_c 8.761533
_cell_angle_alpha 79.740681
_cell_angle_beta 69.523753
_cell_angle_gamma 46.035379
_cell_volume 726.643716
_symmetry_space_group_name_H-M "P -1"
_symmetry_group_IT_number 2
_symmetry_cell_setting 'triclinic'
loop_
_space_group_symop_operation_xyz
x,y,z
-x,-y,-z
loop_
_atom_site_type_symbol
_atom_site_label
_atom_site_fract_x
_atom_site_fract_y
_atom_site_fract_z
Si Si1 0.849487 0.352027 0.045319
Si Si2 0.726872 0.861437 0.531476
Si Si3 0.463032 0.367578 0.996374
Si Si4 0.803447 0.204980 0.667528
Si Si5 0.419948 0.616740 0.584504
Si Si6 0.251291 0.120520 0.113116
Si Si7 0.036041 0.956864 0.824599
Si Si8 0.415531 0.280329 0.326685
O O1 0.748480 0.484675 0.988851
O O2 0.752476 0.365441 0.241188
O O3 0.131041 0.240975 0.009135
O O4 0.697832 0.333539 0.001823
O O5 0.731980 0.869921 0.713034
O O6 0.720557 0.755033 0.545344
O O7 0.964034 0.814213 0.386117
O O8 0.500000 0.000000 0.500000
O O9 0.571606 0.302084 0.819026
O O10 0.378381 0.317355 0.149179
O O11 0.715780 0.262464 0.512196
O O12 0.902411 0.071984 0.718967
O O13 0.500000 0.500000 0.500000
O O14 0.606204 0.614845 0.612788
O O15 0.075075 0.100711 0.144973
O O16 0.500000 0.000000 0.000000
O O17 0.312049 0.852276 0.725486
O O18 0.000000 0.000000 0.000000
#
# Coordination Sequence:
#
# PCOD9110959 Si02
#       8
#     2   2   2   2   2   2   2   2
#     4  10  20  42  67  98 127 177 233 279 339 413
#     4  12  27  42  63 103 149 179 226 290 357 403
#     4  10  21  39  75  94 126 183 236 273 331 424
#     4  12  23  38  71  99 132 179 231 286 348 401
#     4  11  22  42  69  96 132 175 237 289 344 409
#     4  12  26  43  69 100 144 181 223 293 353 414
#     4  12  22  41  69 102 135 181 238 279 345 427
#     4  11  23  44  66 100 140 184 229 288 344 415
#
# _framework density 22.019044999999998
#
# number of rings (size 3 to 8) (size 9 to 14) (size 15 to 20)
#    0.000    0.750    7.500    0.750    3.500    1.000 
#    0.000    1.250    2.750    0.000    0.000    0.000 
#    0.000    0.000    0.000    0.000    0.000    0.000 
#
# Total GULP energy -89311.742717 kJ/mol
# GULP energy per Si atom -5581.983920 kJ/mol
# Density = 2.196893 g / cm^3
# Si number density = 22.019045 Si / 1000 Ang^3
#
#
#
# Elastic Constant Matrix: (Units=GPa)
#
#
# Indices 1 2 3 4 5 6 
#
# 1 39.5120 22.6172 2.2200 2.6064 1.4214 1.3934
# 2 22.6172 92.2836 15.0409 -20.7987 4.4498 -5.6704
# 3 2.2200 15.0409 46.8569 -12.2596 9.8875 3.2620
# 4 2.6064 -20.7987 -12.2596 43.8382 0.0590 10.1021
# 5 1.4214 4.4498 9.8875 0.0590 32.5094 -5.9912
# 6 1.3934 -5.6704 3.2620 10.1021 -5.9912 34.3560
#
#
#
# Elastic Compliance Matrix: (Units=1/GPa)
#
#
# Indices 1 2 3 4 5 6 
#
# 1 0.030849 -0.008926 0.000025 -0.005814 -0.000322 -0.001073
# 2 -0.008926 0.015054 -0.002565 0.006729 -0.000721 0.000986
# 3 0.000025 -0.002565 0.026577 0.007795 -0.009002 -0.006810
# 4 -0.005814 0.006729 0.007795 0.030667 -0.004798 -0.009248
# 5 -0.000322 -0.000721 -0.009002 -0.004798 0.035147 0.008289
# 6 -0.001073 0.000986 -0.006810 -0.009248 0.008289 0.034124
#
#
# Mechanical properties :
#
#
# Convention : Reuss Voigt Hill
#
# Bulk Modulus (GPa) = 20.18227 28.71208 24.44718
# Shear Modulus (GPa) = 23.59977 31.39236 27.49606
#
# Velocity S-wave (km/s) = 3.27737 3.77993 3.53759
# Velocity P-wave (km/s) = 4.84843 5.66731 5.27379
#
# Compressibility (1/GPa) = 0.04954844
#
# Stress axis : x y z
#
# Youngs Moduli (GPa) = 32.41551 66.42898 37.62641
#
# Poissons Ratio (x) = 0.59291 -0.00094
# Poissons Ratio (y) = 0.28933 0.09652
# Poissons Ratio (z) = -0.00081 0.17041
#
# Static dielectric constant tensor:
#      x y z
#    x 1.867500 -0.040590 0.042690 
#    y -0.040590 1.886900 0.005090 
#    z 0.042690 0.005090 1.684190 
# 
# From -- ./inp_files/206837.got.cif
#   From: 2010.05.17/outbox.cif.g08.bks.cpg/sg2_104_cif.got.tgz:206837.got - 2010.06.03 11:33:40.
