data_PCOD9110546
_publ_section_title
;
Structure prediction by ZEFSAII (Michael W. Deem and Ramdas Pophale) SiO2 
 PCOD9110546
Probable space group: P -1
;
_chemical_formula_sum "Si O2"
_cell_formula_units_Z 16
_cell_length_a 24.985934
_cell_length_b 17.071911
_cell_length_c 16.537959
_cell_angle_alpha 162.416241
_cell_angle_beta 153.463394
_cell_angle_gamma 25.848774
_cell_volume 892.267442
_symmetry_space_group_name_H-M "P -1"
_symmetry_group_IT_number 2
_symmetry_cell_setting 'triclinic'
loop_
_space_group_symop_operation_xyz
x,y,z
-x,-y,-z
loop_
_atom_site_type_symbol
_atom_site_label
_atom_site_fract_x
_atom_site_fract_y
_atom_site_fract_z
Si Si1 0.644619 0.502965 0.690810
Si Si2 0.454142 0.276701 0.762462
Si Si3 0.840381 0.585637 0.461655
Si Si4 0.515954 0.292456 0.046978
Si Si5 0.307012 0.021548 0.668743
Si Si6 0.994598 0.972227 0.062236
Si Si7 0.217943 0.442096 0.832171
Si Si8 0.574708 0.733155 0.656122
O O1 0.500000 0.500000 0.500000
O O2 0.662930 0.565412 0.683357
O O3 0.726566 0.204523 0.545405
O O4 0.657718 0.758225 0.010221
O O5 0.301116 0.375009 0.661461
O O6 0.500000 0.000000 0.500000
O O7 0.500000 0.500000 0.000000
O O8 0.510319 0.237037 0.890141
O O9 0.892002 0.822463 0.793426
O O10 0.831611 0.599574 0.364915
O O11 0.937553 0.285591 0.323362
O O12 0.570980 0.529081 0.378257
O O13 0.367297 0.400322 0.982085
O O14 0.591882 0.009520 0.918215
O O15 0.212070 0.215078 0.665072
O O16 0.432876 0.850037 0.618938
O O17 0.131896 0.744767 0.044463
O O18 0.000000 0.000000 0.000000
#
# Coordination Sequence:
#
# PCOD9110546 Si02
#       8
#     2   2   2   2   2   2   2   2
#     4  10  17  26  38  57  86 123 158 187 220 257
#     4  11  22  37  53  70  94 122 155 203 248 282
#     4  10  21  33  48  68  90 125 164 191 232 278
#     4  10  20  30  47  68  88 123 162 190 227 275
#     4  10  18  25  39  61  87 124 159 186 217 259
#     4  10  19  31  47  67  93 125 158 195 226 265
#     4   9  18  29  44  65  94 123 158 189 214 265
#     4  10  17  29  42  60  89 121 159 195 217 265
#
# _framework density 17.931844000000002
#
# number of rings (size 3 to 8) (size 9 to 14) (size 15 to 20)
#    0.000    2.000    0.000    8.250    0.000   13.000 
#    0.000    0.000    0.000    0.000    0.000    0.000 
#    0.000    0.000    0.000   78.750    0.000   30.750 
#
# Total GULP energy -89248.247995 kJ/mol
# GULP energy per Si atom -5578.015500 kJ/mol
# Density = 1.789103 g / cm^3
# Si number density = 17.931844 Si / 1000 Ang^3
#
#
#
# Elastic Constant Matrix: (Units=GPa)
#
#
# Indices 1 2 3 4 5 6 
#
# 1 67.7836 40.5957 30.7979 5.6637 -2.9873 8.2873
# 2 40.5957 100.3841 31.5445 29.0604 0.7324 17.7884
# 3 30.7979 31.5445 113.9737 17.4813 -6.8125 4.3417
# 4 5.6637 29.0604 17.4813 28.7874 4.6513 6.0702
# 5 -2.9873 0.7324 -6.8125 4.6513 29.2755 2.4381
# 6 8.2873 17.7884 4.3417 6.0702 2.4381 18.6566
#
#
#
# Elastic Compliance Matrix: (Units=1/GPa)
#
#
# Indices 1 2 3 4 5 6 
#
# 1 0.022141 -0.009560 -0.004532 0.008521 0.000296 -0.002477
# 2 -0.009560 0.020527 0.000027 -0.017072 0.002066 -0.010047
# 3 -0.004532 0.000027 0.011152 -0.006650 0.003093 0.001152
# 4 0.008521 -0.017072 -0.006650 0.056446 -0.008956 -0.003154
# 5 0.000296 0.002066 0.003093 -0.008956 0.036671 -0.004700
# 6 -0.002477 -0.010047 0.001152 -0.003154 -0.004700 0.065652
#
#
# Mechanical properties :
#
#
# Convention : Reuss Voigt Hill
#
# Bulk Modulus (GPa) = 38.92527 54.22418 46.57472
# Shear Modulus (GPa) = 20.05754 27.29078 23.67416
#
# Velocity S-wave (km/s) = 3.34809 3.90541 3.63744
# Velocity P-wave (km/s) = 6.05811 7.11625 6.60839
#
# Compressibility (1/GPa) = 0.02569026
#
# Stress axis : x y z
#
# Youngs Moduli (GPa) = 45.16446 48.71652 89.66882
#
# Poissons Ratio (x) = 0.46573 0.40638
# Poissons Ratio (y) = 0.43177 -0.00241
# Poissons Ratio (z) = 0.20468 -0.00131
#
# Static dielectric constant tensor:
#      x y z
#    x 1.595920 0.031610 0.001560 
#    y 0.031610 1.675030 -0.010590 
#    z 0.001560 -0.010590 1.670470 
# 
# From -- ./inp_files/534884.got.cif
#   From: 2010.05.17/outbox.cif.g08.bks.cpg/sg2_268_cif.got.tgz:534884.got - 2010.06.03 11:33:40.
