data_PCOD9110917
_publ_section_title
;
Structure prediction by ZEFSAII (Michael W. Deem and Ramdas Pophale) SiO2 
 PCOD9110917
Probable space group: P -1
;
_chemical_formula_sum "Si O2"
_cell_formula_units_Z 16
_cell_length_a 11.493265
_cell_length_b 5.258104
_cell_length_c 13.617431
_cell_angle_alpha 109.799253
_cell_angle_beta 123.044833
_cell_angle_gamma 62.577098
_cell_volume 608.052153
_symmetry_space_group_name_H-M "P -1"
_symmetry_group_IT_number 2
_symmetry_cell_setting 'triclinic'
loop_
_space_group_symop_operation_xyz
x,y,z
-x,-y,-z
loop_
_atom_site_type_symbol
_atom_site_label
_atom_site_fract_x
_atom_site_fract_y
_atom_site_fract_z
Si Si1 0.083834 0.222242 0.568254
Si Si2 0.418583 0.718902 0.322915
Si Si3 0.672281 0.672264 0.082967
Si Si4 0.525206 0.808604 0.831662
Si Si5 0.810602 0.876975 0.872073
Si Si6 0.332261 0.019410 0.505401
Si Si7 0.133608 0.985604 0.878076
Si Si8 0.064631 0.341178 0.293307
O O1 0.239230 0.060155 0.567015
O O2 0.000000 0.500000 0.500000
O O3 0.057390 0.376013 0.681332
O O4 0.000000 0.000000 0.500000
O O5 0.517649 0.413280 0.284818
O O6 0.277943 0.849317 0.202396
O O7 0.518860 0.919659 0.394895
O O8 0.366996 0.737712 0.415117
O O9 0.749581 0.341024 0.101732
O O10 0.586579 0.869628 0.159468
O O11 0.781548 0.823641 0.106483
O O12 0.559959 0.689452 0.943242
O O13 0.676088 0.806970 0.850561
O O14 0.906032 0.645627 0.807090
O O15 0.903076 0.916355 0.012886
O O16 0.219366 0.260578 0.412049
O O17 0.997292 0.923605 0.755758
#
# Coordination Sequence:
#
# PCOD9110917 Si02
#       8
#     2   2   2   2   2   2   2   2
#     4  10  23  44  66  90 128 171 219 266 311 379
#     4  10  20  42  67  91 133 167 220 273 327 382
#     4  10  24  40  67  99 133 170 221 259 333 389
#     4  10  22  38  66  94 133 170 211 277 320 393
#     4  10  22  41  64  99 127 172 216 266 331 391
#     4   9  22  42  65  97 124 175 224 267 326 385
#     4  11  23  44  66 100 133 172 213 269 323 401
#     4  10  23  43  66  93 134 173 217 270 324 387
#
# _framework density 26.313533
#
# number of rings (size 3 to 8) (size 9 to 14) (size 15 to 20)
#    0.000    2.000    1.250    0.375    5.250    3.500 
#    9.000    3.750    0.000    0.000    0.000    0.000 
#    0.000    0.000    0.000    0.000    0.000    0.000 
#
# Total GULP energy -89566.666089 kJ/mol
# GULP energy per Si atom -5597.916631 kJ/mol
# Density = 2.625364 g / cm^3
# Si number density = 26.313533 Si / 1000 Ang^3
#
#
#
# Elastic Constant Matrix: (Units=GPa)
#
#
# Indices 1 2 3 4 5 6 
#
# 1 140.5005 24.3498 45.0893 25.5044 -28.2647 -14.7266
# 2 24.3498 93.6384 49.3980 1.2856 -20.0157 -1.2211
# 3 45.0893 49.3980 151.0721 30.0880 -34.9316 -16.1340
# 4 25.5044 1.2856 30.0880 47.4775 -23.1024 -5.6487
# 5 -28.2647 -20.0157 -34.9316 -23.1024 46.9678 17.4144
# 6 -14.7266 -1.2211 -16.1340 -5.6487 17.4144 30.8104
#
#
#
# Elastic Compliance Matrix: (Units=1/GPa)
#
#
# Indices 1 2 3 4 5 6 
#
# 1 0.008767 -0.001327 -0.000962 -0.002956 0.001764 0.002095
# 2 -0.001327 0.014788 -0.004578 0.005997 0.007018 -0.005313
# 3 -0.000962 -0.004578 0.009987 -0.004575 0.001590 0.002851
# 4 -0.002956 0.005997 -0.004575 0.032221 0.015632 -0.006500
# 5 0.001764 0.007018 0.001590 0.015632 0.041025 -0.018368
# 6 0.002095 -0.005313 0.002851 -0.006500 -0.018368 0.043931
#
#
# Mechanical properties :
#
#
# Convention : Reuss Voigt Hill
#
# Bulk Modulus (GPa) = 50.48841 69.20945 59.84893
# Shear Modulus (GPa) = 29.22983 42.80942 36.01962
#
# Velocity S-wave (km/s) = 3.33653 4.03786 3.70383
# Velocity P-wave (km/s) = 5.83713 6.93527 6.40976
#
# Compressibility (1/GPa) = 0.01980653
#
# Stress axis : x y z
#
# Youngs Moduli (GPa) = 114.05950 67.62102 100.13059
#
# Poissons Ratio (x) = 0.08975 0.09636
# Poissons Ratio (y) = 0.15139 0.45844
# Poissons Ratio (z) = 0.10976 0.30960
#
# Static dielectric constant tensor:
#      x y z
#    x 2.052390 -0.026030 -0.020100 
#    y -0.026030 2.070940 -0.017690 
#    z -0.020100 -0.017690 2.141940 
# 
# From -- ./inp_files/95554.got.cif
#   From: 2010.05.17/outbox.cif.g08.bks.cpg/sg2_48_cif.got.tgz:95554.got - 2010.06.03 11:33:40.
