data_PCOD9110049
_publ_section_title
;
Structure prediction by ZEFSAII (Michael W. Deem and Ramdas Pophale) SiO2 
 PCOD9110049
Probable space group: P -1
;
_chemical_formula_sum "Si O2"
_cell_formula_units_Z 10
_cell_length_a 7.195880
_cell_length_b 13.237542
_cell_length_c 11.243943
_cell_angle_alpha 32.100216
_cell_angle_beta 115.552597
_cell_angle_gamma 131.521850
_cell_volume 402.658983
_symmetry_space_group_name_H-M "P -1"
_symmetry_group_IT_number 2
_symmetry_cell_setting 'triclinic'
loop_
_space_group_symop_operation_xyz
x,y,z
-x,-y,-z
loop_
_atom_site_type_symbol
_atom_site_label
_atom_site_fract_x
_atom_site_fract_y
_atom_site_fract_z
Si Si1 0.468515 0.727623 0.384682
Si Si2 0.158676 0.229060 0.900501
Si Si3 0.172034 0.462164 0.894214
Si Si4 0.728125 0.739996 0.661188
Si Si5 0.398280 0.757147 0.060926
O O1 0.210887 0.459455 0.619045
O O2 0.684493 0.734243 0.512908
O O3 0.472465 0.729537 0.241802
O O4 0.502803 0.967158 0.192585
O O5 0.067558 0.238825 0.995635
O O6 0.426039 0.264822 0.956978
O O7 0.000000 0.000000 0.000000
O O8 0.454436 0.678979 0.698011
O O9 0.913204 0.443133 0.845491
O O10 0.234601 0.419368 0.083680
O O11 0.000000 0.000000 0.500000
#
# Coordination Sequence:
#
# PCOD9110049 Si02
#       5
#     2   2   2   2   2
#     4  10  22  41  67  95 132 171 213 275 323 382
#     4  11  24  40  65 102 135 167 218 276 330 386
#     4  10  23  42  66  97 130 173 220 268 327 389
#     4  10  20  41  69  87 136 180 205 272 333 376
#     4  11  22  41  69  98 130 171 223 268 328 390
#
# _framework density 24.834910000000001
#
# number of rings (size 3 to 8) (size 9 to 14) (size 15 to 20)
#    0.000    1.600    2.000    3.000    0.000    7.200 
#    0.000   10.000    0.000    0.000    0.000    0.000 
#    0.000    0.000    0.000    0.000    0.000    0.000 
#
# Total GULP energy -55773.572049 kJ/mol
# GULP energy per Si atom -5577.357205 kJ/mol
# Density = 2.477839 g / cm^3
# Si number density = 24.834910 Si / 1000 Ang^3
#
#
#
# Elastic Constant Matrix: (Units=GPa)
#
#
# Indices 1 2 3 4 5 6 
#
# 1 120.8218 12.9562 25.6176 11.2359 11.6079 26.4294
# 2 12.9562 162.2997 64.2839 27.1282 -4.1281 18.4359
# 3 25.6176 64.2839 126.5188 11.4043 -9.7407 -1.2620
# 4 11.2359 27.1282 11.4043 55.8460 5.1720 -6.9749
# 5 11.6079 -4.1281 -9.7407 5.1720 28.3091 -2.2300
# 6 26.4294 18.4359 -1.2620 -6.9749 -2.2300 49.0125
#
#
#
# Elastic Compliance Matrix: (Units=1/GPa)
#
#
# Indices 1 2 3 4 5 6 
#
# 1 0.011220 0.001578 -0.003330 -0.002747 -0.005596 -0.007375
# 2 0.001578 0.009192 -0.004682 -0.004414 -0.000511 -0.005080
# 3 -0.003330 -0.004682 0.011301 0.000715 0.004769 0.004167
# 4 -0.002747 -0.004414 0.000715 0.021469 -0.002714 0.006091
# 5 -0.005596 -0.000511 0.004769 -0.002714 0.040056 0.004769
# 6 -0.007375 -0.005080 0.004167 0.006091 0.004769 0.027482
#
#
# Mechanical properties :
#
#
# Convention : Reuss Voigt Hill
#
# Bulk Modulus (GPa) = 53.06683 68.37285 60.71984
# Shear Modulus (GPa) = 35.74736 47.08570 41.41653
#
# Velocity S-wave (km/s) = 3.79806 4.35897 4.08815
# Velocity P-wave (km/s) = 6.37557 7.27495 6.84006
#
# Compressibility (1/GPa) = 0.01884416
#
# Stress axis : x y z
#
# Youngs Moduli (GPa) = 89.12798 108.79376 88.48415
#
# Poissons Ratio (x) = -0.17167 0.29468
# Poissons Ratio (y) = -0.14064 0.41428
# Poissons Ratio (z) = 0.29682 0.50937
#
# Static dielectric constant tensor:
#      x y z
#    x 2.054510 0.003550 0.012940 
#    y 0.003550 2.128860 -0.155260 
#    z 0.012940 -0.155260 2.032690 
# 
# From -- ./inp_files/398325.got.cif
#   From: 2010.05.17/outbox.cif.g08.bks.cpg/sg2_200_cif.got.tgz:398325.got - 2010.06.03 11:33:40.
