data_PCOD9110455
_publ_section_title
;
Structure prediction by ZEFSAII (Michael W. Deem and Ramdas Pophale) SiO2 
 PCOD9110455
Probable space group: P -1
;
_chemical_formula_sum "Si O2"
_cell_formula_units_Z 16
_cell_length_a 8.860006
_cell_length_b 9.552775
_cell_length_c 14.636286
_cell_angle_alpha 66.207597
_cell_angle_beta 100.692038
_cell_angle_gamma 48.829930
_cell_volume 644.797301
_symmetry_space_group_name_H-M "P -1"
_symmetry_group_IT_number 2
_symmetry_cell_setting 'triclinic'
loop_
_space_group_symop_operation_xyz
x,y,z
-x,-y,-z
loop_
_atom_site_type_symbol
_atom_site_label
_atom_site_fract_x
_atom_site_fract_y
_atom_site_fract_z
Si Si1 0.259501 0.620100 0.886100
Si Si2 0.024124 0.216960 0.002290
Si Si3 0.080127 0.075437 0.714584
Si Si4 0.121094 0.374175 0.660867
Si Si5 0.061846 0.479231 0.837549
Si Si6 0.498605 0.929981 0.416540
Si Si7 0.229096 0.733544 0.190764
Si Si8 0.590913 0.584593 0.409928
O O1 0.256504 0.466948 0.869889
O O2 0.500000 0.500000 0.000000
O O3 0.063937 0.725851 0.918503
O O4 0.182774 0.827551 0.761295
O O5 0.139017 0.285813 0.969266
O O6 0.784953 0.380238 0.859857
O O7 0.199867 0.921880 0.088874
O O8 0.228150 0.117990 0.713096
O O9 0.009283 0.107559 0.805658
O O10 0.822718 0.318617 0.562042
O O11 0.086575 0.396975 0.759557
O O12 0.823733 0.654316 0.513777
O O13 0.311495 0.357004 0.659671
O O14 0.748692 0.779281 0.734209
O O15 0.425631 0.814549 0.407643
O O16 0.500000 0.000000 0.500000
O O17 0.462737 0.566038 0.333042
#
# Coordination Sequence:
#
# PCOD9110455 Si02
#       8
#     2   2   2   2   2   2   2   2
#     4  11  26  41  63  94 133 162 209 269 325 371
#     4  10  22  41  62  87 126 171 215 254 309 386
#     4  10  20  42  62  90 123 168 207 260 311 386
#     4  10  22  39  65  97 129 163 216 260 313 381
#     4  11  22  43  65  91 127 174 213 253 322 386
#     4   9  19  36  61  91 125 161 206 255 304 380
#     4  10  21  38  63  93 121 161 220 261 303 374
#     4  11  22  38  67  96 127 165 214 265 321 366
#
# _framework density 24.814001000000001
#
# number of rings (size 3 to 8) (size 9 to 14) (size 15 to 20)
#    0.000    1.750    1.250    3.750    1.750    4.000 
#    2.250    1.875    0.000    0.000    0.000    0.000 
#    0.000    0.000    0.000    0.000    0.000    0.000 
#
# Total GULP energy -89149.487052 kJ/mol
# GULP energy per Si atom -5571.842941 kJ/mol
# Density = 2.475752 g / cm^3
# Si number density = 24.814001 Si / 1000 Ang^3
#
#
#
# Elastic Constant Matrix: (Units=GPa)
#
#
# Indices 1 2 3 4 5 6 
#
# 1 107.3476 22.3543 36.9703 -15.5207 -19.5544 20.1621
# 2 22.3543 46.5942 12.3366 3.4266 2.0655 19.5930
# 3 36.9703 12.3366 100.6668 -5.3524 -18.7048 24.3066
# 4 -15.5207 3.4266 -5.3524 35.5170 18.6004 -7.6475
# 5 -19.5544 2.0655 -18.7048 18.6004 49.5959 1.4314
# 6 20.1621 19.5930 24.3066 -7.6475 1.4314 37.3870
#
#
#
# Elastic Compliance Matrix: (Units=1/GPa)
#
#
# Indices 1 2 3 4 5 6 
#
# 1 0.012742 -0.005050 -0.002958 0.003831 0.002728 -0.001622
# 2 -0.005050 0.031025 0.001837 -0.009218 0.001348 -0.016667
# 3 -0.002958 0.001837 0.014001 -0.004600 0.006041 -0.009642
# 4 0.003831 -0.009218 -0.004600 0.041520 -0.015841 0.014854
# 5 0.002728 0.001348 0.006041 -0.015841 0.029704 -0.010483
# 6 -0.001622 -0.016667 -0.009642 0.014854 -0.010483 0.046065
#
#
# Mechanical properties :
#
#
# Convention : Reuss Voigt Hill
#
# Bulk Modulus (GPa) = 22.01404 44.21457 33.11430
# Shear Modulus (GPa) = 24.68625 36.69646 30.69136
#
# Velocity S-wave (km/s) = 3.15755 3.84977 3.52071
# Velocity P-wave (km/s) = 4.71003 6.13335 5.46820
#
# Compressibility (1/GPa) = 0.04542557
#
# Stress axis : x y z
#
# Youngs Moduli (GPa) = 78.48288 32.23192 71.42293
#
# Poissons Ratio (x) = 0.16278 0.21128
# Poissons Ratio (y) = 0.39637 -0.13123
# Poissons Ratio (z) = 0.23216 -0.05922
#
# Static dielectric constant tensor:
#      x y z
#    x 2.065190 -0.028420 0.067240 
#    y -0.028420 2.060640 -0.019850 
#    z 0.067240 -0.019850 1.987520 
# 
# From -- ./inp_files/308041.got.cif
#   From: 2010.05.17/outbox.cif.g08.bks.cpg/sg2_155_cif.got.tgz:308041.got - 2010.06.03 11:33:40.
