data_PCOD9110874
_publ_section_title
;
Structure prediction by ZEFSAII (Michael W. Deem and Ramdas Pophale) SiO2 
 PCOD9110874
Probable space group: P -1
;
_chemical_formula_sum "Si O2"
_cell_formula_units_Z 16
_cell_length_a 16.018567
_cell_length_b 12.274597
_cell_length_c 21.937516
_cell_angle_alpha 25.568824
_cell_angle_beta 27.443380
_cell_angle_gamma 24.527286
_cell_volume 717.094638
_symmetry_space_group_name_H-M "P -1"
_symmetry_group_IT_number 2
_symmetry_cell_setting 'triclinic'
loop_
_space_group_symop_operation_xyz
x,y,z
-x,-y,-z
loop_
_atom_site_type_symbol
_atom_site_label
_atom_site_fract_x
_atom_site_fract_y
_atom_site_fract_z
Si Si1 0.588494 0.918745 0.621551
Si Si2 0.002645 0.908344 0.814330
Si Si3 0.432363 0.458997 0.703984
Si Si4 0.941391 0.679831 0.607303
Si Si5 0.136808 0.149217 0.837233
Si Si6 0.806691 0.706029 0.139182
Si Si7 0.874791 0.982637 0.721995
Si Si8 0.243556 0.219670 0.541238
O O1 0.714957 0.785873 0.669550
O O2 0.742519 0.697350 0.579666
O O3 0.559079 0.245405 0.464596
O O4 0.356583 0.965578 0.748172
O O5 0.214557 0.583060 0.822122
O O6 0.113550 0.057628 0.701510
O O7 0.897269 0.042321 0.748760
O O8 0.840216 0.892319 0.972232
O O9 0.385860 0.333826 0.736524
O O10 0.638622 0.205886 0.734887
O O11 0.996370 0.484633 0.730364
O O12 0.968216 0.959510 0.449806
O O13 0.125691 0.463555 0.547039
O O14 0.214007 0.158213 0.850075
O O15 0.000000 0.000000 0.000000
O O16 0.026808 0.370922 0.167026
O O17 0.500000 0.000000 0.500000
#
# Coordination Sequence:
#
# PCOD9110874 Si02
#       8
#     2   2   2   2   2   2   2   2
#     4  11  23  42  69  98 132 172 224 283 323 392
#     4  10  22  40  64 101 139 166 216 281 333 394
#     4  10  20  42  67 101 129 165 225 278 339 381
#     4  12  22  43  70 101 131 169 228 279 326 396
#     4  12  28  48  65  92 140 184 220 271 327 403
#     4  11  25  42  64  97 139 177 214 268 335 398
#     4  11  21  41  69 102 126 166 224 283 331 388
#     4  11  20  39  71 103 129 173 219 275 340 378
#
# _framework density 22.312258
#
# number of rings (size 3 to 8) (size 9 to 14) (size 15 to 20)
#    0.000    1.000    6.250    3.375    0.000    4.500 
#    0.000    1.250    0.000    0.000    0.000    0.000 
#    0.000    0.000    0.000    0.000    0.000    0.000 
#
# Total GULP energy -89425.612888 kJ/mol
# GULP energy per Si atom -5589.100805 kJ/mol
# Density = 2.226147 g / cm^3
# Si number density = 22.312258 Si / 1000 Ang^3
#
#
#
# Elastic Constant Matrix: (Units=GPa)
#
#
# Indices 1 2 3 4 5 6 
#
# 1 115.9596 26.1502 32.6162 -0.1717 -6.2837 -21.3259
# 2 26.1502 49.3913 12.3368 2.7525 -8.5623 -24.3128
# 3 32.6162 12.3368 107.5825 7.9680 4.3049 1.0383
# 4 -0.1717 2.7525 7.9680 18.7596 -6.5210 -2.9240
# 5 -6.2837 -8.5623 4.3049 -6.5210 32.4697 -5.2316
# 6 -21.3259 -24.3128 1.0383 -2.9240 -5.2316 50.1486
#
#
#
# Elastic Compliance Matrix: (Units=1/GPa)
#
#
# Indices 1 2 3 4 5 6 
#
# 1 0.011155 -0.002626 -0.003537 0.003800 0.003362 0.004116
# 2 -0.002626 0.032358 -0.003798 0.003455 0.011814 0.016084
# 3 -0.003537 -0.003798 0.011577 -0.006962 -0.005352 -0.004549
# 4 0.003800 0.003455 -0.006962 0.062952 0.016637 0.008841
# 5 0.003362 0.011814 -0.005352 0.016637 0.040625 0.012476
# 6 0.004116 0.016084 -0.004549 0.008841 0.012476 0.031400
#
#
# Mechanical properties :
#
#
# Convention : Reuss Voigt Hill
#
# Bulk Modulus (GPa) = 28.43432 46.12666 37.28049
# Shear Modulus (GPa) = 22.55195 33.73093 28.14144
#
# Velocity S-wave (km/s) = 3.18267 3.89236 3.55527
# Velocity P-wave (km/s) = 5.12614 6.39678 5.79638
#
# Compressibility (1/GPa) = 0.03516877
#
# Stress axis : x y z
#
# Youngs Moduli (GPa) = 89.64297 30.90440 86.38072
#
# Poissons Ratio (x) = 0.08114 0.30549
# Poissons Ratio (y) = 0.23536 0.32811
# Poissons Ratio (z) = 0.31703 0.11739
#
# Static dielectric constant tensor:
#      x y z
#    x 1.863140 0.023030 0.002550 
#    y 0.023030 1.839260 -0.013770 
#    z 0.002550 -0.013770 1.809940 
# 
# From -- ./inp_files/597939.got.cif
#   From: 2010.05.17/outbox.cif.g08.bks.cpg/sg2_299_cif.got.tgz:597939.got - 2010.06.03 11:33:40.
