data_PCOD9110652
_publ_section_title
;
Structure prediction by ZEFSAII (Michael W. Deem and Ramdas Pophale) SiO2 
 PCOD9110652
Probable space group: P -1
;
_chemical_formula_sum "Si O2"
_cell_formula_units_Z 14
_cell_length_a 5.318557
_cell_length_b 18.230930
_cell_length_c 12.197707
_cell_angle_alpha 33.978139
_cell_angle_beta 67.391691
_cell_angle_gamma 70.206593
_cell_volume 609.747050
_symmetry_space_group_name_H-M "P -1"
_symmetry_group_IT_number 2
_symmetry_cell_setting 'triclinic'
loop_
_space_group_symop_operation_xyz
x,y,z
-x,-y,-z
loop_
_atom_site_type_symbol
_atom_site_label
_atom_site_fract_x
_atom_site_fract_y
_atom_site_fract_z
Si Si1 0.304068 0.549295 0.874444
Si Si2 0.174870 0.651246 0.376405
Si Si3 0.394238 0.489269 0.353337
Si Si4 0.122365 0.115608 0.130053
Si Si5 0.493081 0.846342 0.172981
Si Si6 0.387137 0.841322 0.438140
Si Si7 0.542345 0.056407 0.302585
O O1 0.446824 0.496900 0.803419
O O2 0.295301 0.708677 0.673330
O O3 0.500000 0.500000 0.000000
O O4 0.000000 0.500000 0.000000
O O5 0.286929 0.617435 0.279203
O O6 0.391954 0.582441 0.509902
O O7 0.215002 0.801624 0.217385
O O8 0.884713 0.589010 0.517406
O O9 0.157541 0.955677 0.309518
O O10 0.285919 0.134739 0.192227
O O11 0.804827 0.142785 0.154696
O O12 0.271204 0.183750 0.919198
O O13 0.511237 0.797940 0.354611
O O14 0.500000 0.000000 0.000000
O O15 0.575857 0.928904 0.374444
O O16 0.500000 0.000000 0.500000
#
# Coordination Sequence:
#
# PCOD9110652 Si02
#       7
#     2   2   2   2   2   2   2
#     4  12  26  42  63  94 123 168 223 264 317 384
#     4  10  21  41  68  93 126 165 210 268 332 381
#     4  10  22  43  67  89 124 171 213 269 325 370
#     4   9  22  38  64  94 123 166 208 255 324 377
#     4  10  20  42  65 102 128 164 209 269 325 389
#     4   9  23  41  64  89 126 168 203 274 316 376
#     4  10  21  41  62  87 130 173 208 247 312 385
#
# _framework density 22.960339000000001
#
# number of rings (size 3 to 8) (size 9 to 14) (size 15 to 20)
#    0.857    1.143    1.429    1.286    2.000    2.857 
#    5.143    0.000    0.000    0.000    0.000    0.000 
#    0.000    0.000    0.000    0.000    0.000    0.000 
#
# Total GULP energy -78104.915000 kJ/mol
# GULP energy per Si atom -5578.922500 kJ/mol
# Density = 2.290808 g / cm^3
# Si number density = 22.960339 Si / 1000 Ang^3
#
#
#
# Elastic Constant Matrix: (Units=GPa)
#
#
# Indices 1 2 3 4 5 6 
#
# 1 157.1251 47.5831 72.7466 6.8861 -31.6450 31.7797
# 2 47.5831 99.5187 24.4428 19.4554 -7.4371 25.3878
# 3 72.7466 24.4428 128.4305 16.3155 -6.5296 16.8282
# 4 6.8861 19.4554 16.3155 41.7561 -3.8231 2.5266
# 5 -31.6450 -7.4371 -6.5296 -3.8231 35.3109 -4.7308
# 6 31.7797 25.3878 16.8282 2.5266 -4.7308 29.6070
#
#
#
# Elastic Compliance Matrix: (Units=1/GPa)
#
#
# Indices 1 2 3 4 5 6 
#
# 1 0.013154 -0.002888 -0.005847 0.002753 0.009453 -0.007044
# 2 -0.002888 0.014854 0.000823 -0.006294 -0.001299 -0.009776
# 3 -0.005847 0.000823 0.011438 -0.004144 -0.003554 -0.001145
# 4 0.002753 -0.006294 -0.004144 0.028216 0.003832 0.003002
# 5 0.009453 -0.001299 -0.003554 0.003832 0.036065 -0.001578
# 6 -0.007044 -0.009776 -0.001145 0.003002 -0.001578 0.049861
#
#
# Mechanical properties :
#
#
# Convention : Reuss Voigt Hill
#
# Bulk Modulus (GPa) = 42.33416 74.95772 58.64594
# Shear Modulus (GPa) = 28.20309 37.35492 32.77900
#
# Velocity S-wave (km/s) = 3.50857 4.03790 3.78251
# Velocity P-wave (km/s) = 5.90689 7.37950 6.68388
#
# Compressibility (1/GPa) = 0.02362159
#
# Stress axis : x y z
#
# Youngs Moduli (GPa) = 76.02185 67.32092 87.43154
#
# Poissons Ratio (x) = 0.19443 0.51124
# Poissons Ratio (y) = 0.21955 -0.07198
# Poissons Ratio (z) = 0.44453 -0.05542
#
# Static dielectric constant tensor:
#      x y z
#    x 1.803380 0.005850 0.004370 
#    y 0.005850 1.876890 -0.036290 
#    z 0.004370 -0.036290 1.915560 
# 
# From -- ./inp_files/370010.got.cif
#   From: 2010.05.17/outbox.cif.g08.bks.cpg/sg2_186_cif.got.tgz:370010.got - 2010.06.03 11:33:40.
