data_PCOD9110811
_publ_section_title
;
Structure prediction by ZEFSAII (Michael W. Deem and Ramdas Pophale) SiO2 
 PCOD9110811
Probable space group: P -1
;
_chemical_formula_sum "Si O2"
_cell_formula_units_Z 15
_cell_length_a 13.408419
_cell_length_b 8.364764
_cell_length_c 8.738715
_cell_angle_alpha 130.350035
_cell_angle_beta 74.458121
_cell_angle_gamma 92.480543
_cell_volume 708.234497
_symmetry_space_group_name_H-M "P -1"
_symmetry_group_IT_number 2
_symmetry_cell_setting 'triclinic'
loop_
_space_group_symop_operation_xyz
x,y,z
-x,-y,-z
loop_
_atom_site_type_symbol
_atom_site_label
_atom_site_fract_x
_atom_site_fract_y
_atom_site_fract_z
Si Si1 0.361150 0.188899 0.280516
Si Si2 0.230590 0.885572 0.740289
Si Si3 0.413232 0.730834 0.797416
Si Si4 0.237953 0.329629 0.122274
Si Si5 0.000000 0.000000 0.500000
Si Si6 0.934615 0.329245 0.482248
Si Si7 0.747958 0.031898 0.566972
Si Si8 0.386371 0.525391 0.984517
O O1 0.468271 0.279182 0.316083
O O2 0.290155 0.326464 0.266417
O O3 0.300150 0.149148 0.435116
O O4 0.390629 0.956172 0.041082
O O5 0.325880 0.754624 0.716730
O O6 0.134601 0.762431 0.674330
O O7 0.268166 0.945256 0.593926
O O8 0.196081 0.110658 0.979600
O O9 0.401398 0.549253 0.812497
O O10 0.146485 0.533279 0.279610
O O11 0.326253 0.348490 0.970933
O O12 0.996392 0.861950 0.573947
O O13 0.127348 0.998076 0.476184
O O14 0.000000 0.500000 0.500000
O O15 0.685915 0.253849 0.797031
O O16 0.500000 0.500000 0.000000
#
# Coordination Sequence:
#
# PCOD9110811 Si02
#       8
#     2   2   2   2   1   2   2   2
#     4   9  18  35  62  90 125 180 208 262 335 388
#     4  10  23  42  63 100 130 166 229 273 329 406
#     4   9  19  35  59  91 133 165 217 267 324 395
#     4  11  21  42  66  96 134 170 220 272 331 398
#     4  10  20  42  66  94 124 172 222 272 326 398
#     4  11  24  46  71  93 132 177 221 283 342 393
#     4  10  21  40  63  90 132 170 222 275 329 389
#     4  11  20  39  65  92 133 181 213 267 333 396
#
# _framework density 21.179427
#
# number of rings (size 3 to 8) (size 9 to 14) (size 15 to 20)
#    0.000    1.867    4.000    0.800    1.867    1.067 
#    7.200    6.667    0.000    0.000    0.000    0.000 
#    0.000    0.000    0.000    0.000    0.000    0.000 
#
# Total GULP energy -83517.741469 kJ/mol
# GULP energy per Si atom -5567.849431 kJ/mol
# Density = 2.113122 g / cm^3
# Si number density = 21.179427 Si / 1000 Ang^3
#
#
#
# Elastic Constant Matrix: (Units=GPa)
#
#
# Indices 1 2 3 4 5 6 
#
# 1 123.0934 79.1818 39.3447 -21.0578 30.6873 3.3161
# 2 79.1818 131.7157 7.3588 -35.7583 26.6813 0.0182
# 3 39.3447 7.3588 42.5881 -2.2550 18.8937 -2.4150
# 4 -21.0578 -35.7583 -2.2550 36.1901 4.4420 7.6079
# 5 30.6873 26.6813 18.8937 4.4420 27.4592 -4.0248
# 6 3.3161 0.0182 -2.4150 7.6079 -4.0248 42.1641
#
#
#
# Elastic Compliance Matrix: (Units=1/GPa)
#
#
# Indices 1 2 3 4 5 6 
#
# 1 0.021817 -0.011409 -0.017425 0.001232 -0.001962 -0.003118
# 2 -0.011409 0.028002 0.022560 0.028105 -0.035447 -0.006277
# 3 -0.017425 0.022560 0.056932 0.022098 -0.045742 -0.003732
# 4 0.001232 0.028105 0.022098 0.068019 -0.057325 -0.016588
# 5 -0.001962 -0.035447 -0.045742 -0.057325 0.116588 0.019022
# 6 -0.003118 -0.006277 -0.003732 -0.016588 0.019022 0.028560
#
#
# Mechanical properties :
#
#
# Convention : Reuss Voigt Hill
#
# Bulk Modulus (GPa) = 10.61553 61.01866 35.81710
# Shear Modulus (GPa) = 13.74131 32.59681 23.16906
#
# Velocity S-wave (km/s) = 2.54993 3.92737 3.31107
# Velocity P-wave (km/s) = 3.70035 7.03125 5.61832
#
# Compressibility (1/GPa) = 0.09420157
#
# Stress axis : x y z
#
# Youngs Moduli (GPa) = 45.83655 35.71181 17.56490
#
# Poissons Ratio (x) = 0.40745 0.30607
# Poissons Ratio (y) = 0.52297 -0.39626
# Poissons Ratio (z) = 0.79870 -0.80566
#
# Static dielectric constant tensor:
#      x y z
#    x 1.732720 0.033500 -0.006920 
#    y 0.033500 1.833110 0.053230 
#    z -0.006920 0.053230 1.818600 
# 
# From -- ./inp_files/241331.got.cif
#   From: 2010.05.17/outbox.cif.g08.bks.cpg/sg2_121_cif.got.tgz:241331.got - 2010.06.03 11:33:40.
