data_PCOD9110525
_publ_section_title
;
Structure prediction by ZEFSAII (Michael W. Deem and Ramdas Pophale) SiO2 
 PCOD9110525
Probable space group: P -1
;
_chemical_formula_sum "Si O2"
_cell_formula_units_Z 16
_cell_length_a 18.216485
_cell_length_b 11.392036
_cell_length_c 7.093607
_cell_angle_alpha 125.738956
_cell_angle_beta 66.017979
_cell_angle_gamma 150.235334
_cell_volume 574.403032
_symmetry_space_group_name_H-M "P -1"
_symmetry_group_IT_number 2
_symmetry_cell_setting 'triclinic'
loop_
_space_group_symop_operation_xyz
x,y,z
-x,-y,-z
loop_
_atom_site_type_symbol
_atom_site_label
_atom_site_fract_x
_atom_site_fract_y
_atom_site_fract_z
Si Si1 0.195203 0.604523 0.250877
Si Si2 0.249429 0.731199 0.732053
Si Si3 0.506752 0.120779 0.283481
Si Si4 0.637216 0.599180 0.416171
Si Si5 0.893471 0.047515 0.134310
Si Si6 0.618461 0.817106 0.147062
Si Si7 0.661459 0.478753 0.874360
Si Si8 0.021819 0.874661 0.454095
O O1 0.178856 0.642886 0.513746
O O2 0.022591 0.302178 0.097494
O O3 0.326294 0.888941 0.271335
O O4 0.279577 0.580637 0.166824
O O5 0.382705 0.815116 0.647877
O O6 0.118912 0.454052 0.733477
O O7 0.319477 0.000269 0.933574
O O8 0.603591 0.407241 0.393585
O O9 0.500000 0.000000 0.000000
O O10 0.500000 0.500000 0.500000
O O11 0.637702 0.537731 0.144661
O O12 0.807275 0.916343 0.580301
O O13 0.964094 0.096602 0.302688
O O14 0.770196 0.984959 0.238701
O O15 0.793294 0.762986 0.891215
O O16 0.500000 0.500000 0.000000
O O17 0.500382 0.761186 0.289170
O O18 0.000000 0.000000 0.500000
#
# Coordination Sequence:
#
# PCOD9110525 Si02
#       8
#     2   2   2   2   2   2   2   2
#     4  11  22  38  66  97 130 171 231 278 333 406
#     4  11  23  41  69 101 131 182 233 272 348 407
#     4  12  23  41  67  94 139 180 223 280 338 412
#     4  11  24  43  67  99 133 180 231 275 340 405
#     4   9  22  38  63  98 131 174 224 278 340 394
#     4  10  21  40  64  94 143 173 218 286 342 395
#     4  10  20  42  63  93 135 175 221 276 336 403
#     4  10  21  42  66  97 136 179 222 286 332 406
#
# _framework density 27.855004000000001
#
# number of rings (size 3 to 8) (size 9 to 14) (size 15 to 20)
#    0.000    1.500    3.750    0.750    0.000    6.000 
#    2.250    3.750    0.000    3.000    0.000    0.000 
#    0.000    0.000    0.000    0.000    0.000    0.000 
#
# Total GULP energy -89292.400458 kJ/mol
# GULP energy per Si atom -5580.775029 kJ/mol
# Density = 2.779160 g / cm^3
# Si number density = 27.855004 Si / 1000 Ang^3
#
#
#
# Elastic Constant Matrix: (Units=GPa)
#
#
# Indices 1 2 3 4 5 6 
#
# 1 164.3901 60.4871 26.4760 12.2546 -24.1294 -3.6740
# 2 60.4871 256.4405 36.2286 36.3622 2.8060 0.7580
# 3 26.4760 36.2286 37.9239 9.6553 -5.7333 -2.9146
# 4 12.2546 36.3622 9.6553 49.6302 -0.7539 -3.9268
# 5 -24.1294 2.8060 -5.7333 -0.7539 41.9056 2.8572
# 6 -3.6740 0.7580 -2.9146 -3.9268 2.8572 68.8585
#
#
#
# Elastic Compliance Matrix: (Units=1/GPa)
#
#
# Indices 1 2 3 4 5 6 
#
# 1 0.007752 -0.001362 -0.003442 -0.000176 0.004074 0.000104
# 2 -0.001362 0.005133 -0.003516 -0.002794 -0.001634 -0.000370
# 3 -0.003442 -0.003516 0.033365 -0.002945 0.002698 0.000987
# 4 -0.000176 -0.002794 -0.002945 0.022908 0.000013 0.001203
# 5 0.004074 -0.001634 0.002698 0.000013 0.026739 -0.000759
# 6 0.000104 -0.000370 0.000987 0.001203 -0.000759 0.014674
#
#
# Mechanical properties :
#
#
# Convention : Reuss Voigt Hill
#
# Bulk Modulus (GPa) = 33.77438 78.34863 56.06150
# Shear Modulus (GPa) = 36.47464 54.44971 45.46217
#
# Velocity S-wave (km/s) = 3.62255 4.42606 4.04431
# Velocity P-wave (km/s) = 5.44505 7.36942 6.47908
#
# Compressibility (1/GPa) = 0.02960824
#
# Stress axis : x y z
#
# Youngs Moduli (GPa) = 128.99828 194.82578 29.97192
#
# Poissons Ratio (x) = 0.26537 0.10316
# Poissons Ratio (y) = 0.17571 0.10540
# Poissons Ratio (z) = 0.44401 0.68510
#
# Static dielectric constant tensor:
#      x y z
#    x 2.208150 -0.045490 0.175130 
#    y -0.045490 2.574500 0.098250 
#    z 0.175130 0.098250 2.617750 
# 
# From -- ./inp_files/333737.got.cif
#   From: 2010.05.17/outbox.cif.g08.bks.cpg/sg2_167_cif.got.tgz:333737.got - 2010.06.03 11:33:40.
