data_PCOD9110687
_publ_section_title
;
Structure prediction by ZEFSAII (Michael W. Deem and Ramdas Pophale) SiO2 
 PCOD9110687
Probable space group: P -1
;
_chemical_formula_sum "Si O2"
_cell_formula_units_Z 14
_cell_length_a 17.849526
_cell_length_b 14.957434
_cell_length_c 10.550680
_cell_angle_alpha 124.386236
_cell_angle_beta 31.188772
_cell_angle_gamma 149.247354
_cell_volume 570.930939
_symmetry_space_group_name_H-M "P -1"
_symmetry_group_IT_number 2
_symmetry_cell_setting 'triclinic'
loop_
_space_group_symop_operation_xyz
x,y,z
-x,-y,-z
loop_
_atom_site_type_symbol
_atom_site_label
_atom_site_fract_x
_atom_site_fract_y
_atom_site_fract_z
Si Si1 0.552550 0.810580 0.170745
Si Si2 0.875294 0.672165 0.544051
Si Si3 0.105394 0.898868 0.646880
Si Si4 0.976440 0.782067 0.011562
Si Si5 0.584699 0.130396 0.815829
Si Si6 0.216848 0.233089 0.477127
Si Si7 0.359993 0.645694 0.908280
O O1 0.321311 0.565010 0.346355
O O2 0.615978 0.840600 0.588649
O O3 0.688566 0.967258 0.218588
O O4 0.862025 0.962004 0.782507
O O5 0.889397 0.747218 0.715891
O O6 0.760655 0.670321 0.593490
O O7 0.230595 0.880796 0.166717
O O8 0.575605 0.190029 0.746255
O O9 0.949847 0.820032 0.942762
O O10 0.729218 0.301416 0.852867
O O11 0.236743 0.311030 0.644171
O O12 0.895841 0.602650 0.971872
O O13 0.754409 0.129045 0.560970
O O14 0.465131 0.304115 0.192004
#
# Coordination Sequence:
#
# PCOD9110687 Si02
#       7
#     2   2   2   2   2   2   2
#     4   9  22  40  64  90 133 156 201 257 313 364
#     4  10  20  42  65  91 124 165 205 253 305 373
#     4  11  25  40  67  92 121 165 216 250 303 363
#     4  10  24  41  62  98 122 164 202 255 316 364
#     4  10  23  43  63  93 121 166 213 253 299 366
#     4   9  23  41  64  94 127 159 204 251 318 366
#     4  11  22  42  68  89 126 164 206 259 300 366
#
# _framework density 24.521353999999999
#
# number of rings (size 3 to 8) (size 9 to 14) (size 15 to 20)
#    0.857    1.143    0.000    3.000    2.000   10.857 
#    0.000    5.714    0.000    0.000    0.000    0.000 
#    0.000    0.000    0.000    0.000    0.000    0.000 
#
# Total GULP energy -78409.434009 kJ/mol
# GULP energy per Si atom -5600.673858 kJ/mol
# Density = 2.446554 g / cm^3
# Si number density = 24.521354 Si / 1000 Ang^3
#
#
#
# Elastic Constant Matrix: (Units=GPa)
#
#
# Indices 1 2 3 4 5 6 
#
# 1 143.0939 45.6674 55.6482 0.9794 43.6886 -7.4778
# 2 45.6674 151.0575 58.9472 -43.8738 28.8046 8.1338
# 3 55.6482 58.9472 114.6506 -23.4811 20.7171 11.1232
# 4 0.9794 -43.8738 -23.4811 47.4414 -7.2620 5.3068
# 5 43.6886 28.8046 20.7171 -7.2620 54.2870 7.4763
# 6 -7.4778 8.1338 11.1232 5.3068 7.4763 38.3101
#
#
#
# Elastic Compliance Matrix: (Units=1/GPa)
#
#
# Indices 1 2 3 4 5 6 
#
# 1 0.013426 -0.002770 -0.005818 -0.008010 -0.009263 0.007815
# 2 -0.002770 0.011570 -0.001977 0.009971 -0.001334 -0.003544
# 3 -0.005818 -0.001977 0.014061 0.006240 0.002034 -0.006060
# 4 -0.008010 0.009971 0.006240 0.035614 0.005112 -0.011423
# 5 -0.009263 -0.001334 0.002034 0.005112 0.027621 -0.008214
# 6 0.007815 -0.003544 -0.006060 -0.011423 -0.008214 0.033325
#
#
# Mechanical properties :
#
#
# Convention : Reuss Voigt Hill
#
# Bulk Modulus (GPa) = 55.78049 81.03640 68.40845
# Shear Modulus (GPa) = 30.72713 44.57700 37.65207
#
# Velocity S-wave (km/s) = 3.54372 4.26829 3.92277
# Velocity P-wave (km/s) = 6.28817 7.57695 6.96244
#
# Compressibility (1/GPa) = 0.01792741
#
# Stress axis : x y z
#
# Youngs Moduli (GPa) = 74.48175 86.42993 71.11983
#
# Poissons Ratio (x) = 0.23939 0.41374
# Poissons Ratio (y) = 0.20630 0.14064
# Poissons Ratio (z) = 0.43330 0.17091
#
# Static dielectric constant tensor:
#      x y z
#    x 1.912770 0.037520 -0.003750 
#    y 0.037520 1.982270 0.025210 
#    z -0.003750 0.025210 2.006810 
# 
# From -- ./inp_files/313301.got.cif
#   From: 2010.05.17/outbox.cif.g08.bks.cpg/sg2_157_cif.got.tgz:313301.got - 2010.06.03 11:33:40.
