data_PCOD9110544
_publ_section_title
;
Structure prediction by ZEFSAII (Michael W. Deem and Ramdas Pophale) SiO2 
 PCOD9110544
Probable space group: P -1
;
_chemical_formula_sum "Si O2"
_cell_formula_units_Z 15
_cell_length_a 11.482398
_cell_length_b 9.781324
_cell_length_c 12.247826
_cell_angle_alpha 144.515022
_cell_angle_beta 56.592853
_cell_angle_gamma 116.413469
_cell_volume 666.567351
_symmetry_space_group_name_H-M "P -1"
_symmetry_group_IT_number 2
_symmetry_cell_setting 'triclinic'
loop_
_space_group_symop_operation_xyz
x,y,z
-x,-y,-z
loop_
_atom_site_type_symbol
_atom_site_label
_atom_site_fract_x
_atom_site_fract_y
_atom_site_fract_z
Si Si1 0.876096 0.923487 0.386703
Si Si2 0.000000 0.000000 0.000000
Si Si3 0.333476 0.384787 0.848350
Si Si4 0.091908 0.727322 0.574985
Si Si5 0.193350 0.890168 0.228933
Si Si6 0.375584 0.184295 0.174712
Si Si7 0.676229 0.846579 0.066516
Si Si8 0.402743 0.684925 0.484940
O O1 0.784627 0.774815 0.252931
O O2 0.031229 0.819284 0.254340
O O3 0.899751 0.186057 0.496539
O O4 0.801363 0.958726 0.564022
O O5 0.976956 0.067092 0.184506
O O6 0.161130 0.092934 0.982421
O O7 0.346878 0.323401 0.929239
O O8 0.474670 0.315526 0.667146
O O9 0.288586 0.656638 0.033518
O O10 0.249082 0.696944 0.517669
O O11 0.000000 0.500000 0.500000
O O12 0.243647 0.057004 0.213495
O O13 0.407078 0.432055 0.377011
O O14 0.360975 0.241577 0.091348
O O15 0.500000 0.000000 0.000000
O O16 0.591933 0.087797 0.292951
#
# Coordination Sequence:
#
# PCOD9110544 Si02
#       8
#     2   1   2   2   2   2   2   2
#     4  11  25  46  70 101 142 186 234 284 352 417
#     4  10  20  42  64 106 134 166 228 286 338 404
#     4  12  25  45  73 106 140 182 234 294 351 413
#     4  11  23  41  72 101 137 176 231 287 339 406
#     4  11  27  47  69 101 145 188 232 284 352 422
#     4  12  27  48  67 102 142 188 231 282 355 424
#     4  11  26  42  75 103 138 182 236 291 349 411
#     4  11  25  44  72 103 137 181 232 291 346 413
#
# _framework density 22.503353000000001
#
# number of rings (size 3 to 8) (size 9 to 14) (size 15 to 20)
#    0.000    0.800    4.000    3.200    5.600    2.133 
#    2.400    0.000    0.000    0.000    0.000    0.000 
#    0.000    0.000    0.000    0.000    0.000    0.000 
#
# Total GULP energy -83646.700387 kJ/mol
# GULP energy per Si atom -5576.446692 kJ/mol
# Density = 2.245213 g / cm^3
# Si number density = 22.503353 Si / 1000 Ang^3
#
#
#
# Elastic Constant Matrix: (Units=GPa)
#
#
# Indices 1 2 3 4 5 6 
#
# 1 40.6663 26.0171 4.9926 -10.7506 16.5571 2.9388
# 2 26.0171 105.8626 50.5418 -12.3883 2.3817 -0.6878
# 3 4.9926 50.5418 84.5211 -12.6716 1.9898 -0.0220
# 4 -10.7506 -12.3883 -12.6716 37.5406 0.4187 -13.9809
# 5 16.5571 2.3817 1.9898 0.4187 32.5230 -13.8837
# 6 2.9388 -0.6878 -0.0220 -13.9809 -13.8837 24.7438
#
#
#
# Elastic Compliance Matrix: (Units=1/GPa)
#
#
# Indices 1 2 3 4 5 6 
#
# 1 0.050114 -0.014714 0.007149 0.003242 -0.035300 -0.024330
# 2 -0.014714 0.017718 -0.009730 0.001635 0.010670 0.009142
# 3 0.007149 -0.009730 0.018019 0.004570 -0.004546 -0.001072
# 4 0.003242 0.001635 0.004570 0.039652 0.009022 0.027131
# 5 -0.035300 0.010670 -0.004546 0.009022 0.068628 0.048090
# 6 -0.024330 0.009142 -0.001072 0.027131 0.048090 0.085870
#
#
# Mechanical properties :
#
#
# Convention : Reuss Voigt Hill
#
# Bulk Modulus (GPa) = 19.50759 43.79478 31.65118
# Shear Modulus (GPa) = 15.07490 28.92802 22.00146
#
# Velocity S-wave (km/s) = 2.59104 3.58927 3.13021
# Velocity P-wave (km/s) = 4.19987 6.05647 5.21152
#
# Compressibility (1/GPa) = 0.05126210
#
# Stress axis : x y z
#
# Youngs Moduli (GPa) = 19.95467 56.43907 55.49645
#
# Poissons Ratio (x) = 0.83043 -0.39675
# Poissons Ratio (y) = 0.29361 0.53996
# Poissons Ratio (z) = -0.14266 0.54914
#
# Static dielectric constant tensor:
#      x y z
#    x 1.848890 -0.010010 -0.004970 
#    y -0.010010 1.831320 0.025490 
#    z -0.004970 0.025490 1.839410 
# 
# From -- ./inp_files/420166.got.cif
#   From: 2010.05.17/outbox.cif.g08.bks.cpg/sg2_211_cif.got.tgz:420166.got - 2010.06.03 11:33:40.
