data_PCOD9110625
_publ_section_title
;
Structure prediction by ZEFSAII (Michael W. Deem and Ramdas Pophale) SiO2 
 PCOD9110625
Probable space group: P -1
;
_chemical_formula_sum "Si O2"
_cell_formula_units_Z 16
_cell_length_a 9.793674
_cell_length_b 9.822896
_cell_length_c 9.306339
_cell_angle_alpha 43.984678
_cell_angle_beta 86.862345
_cell_angle_gamma 85.779457
_cell_volume 620.060774
_symmetry_space_group_name_H-M "P -1"
_symmetry_group_IT_number 2
_symmetry_cell_setting 'triclinic'
loop_
_space_group_symop_operation_xyz
x,y,z
-x,-y,-z
loop_
_atom_site_type_symbol
_atom_site_label
_atom_site_fract_x
_atom_site_fract_y
_atom_site_fract_z
Si Si1 0.096155 0.252374 0.078266
Si Si2 0.711121 0.227837 0.390901
Si Si3 0.739574 0.223921 0.849372
Si Si4 0.638031 0.925495 0.865569
Si Si5 0.998652 0.125745 0.753652
Si Si6 0.453058 0.415566 0.410833
Si Si7 0.021326 0.364199 0.310440
Si Si8 0.349610 0.973844 0.751242
O O1 0.242031 0.239418 0.998152
O O2 0.105112 0.304064 0.206787
O O3 0.037993 0.040351 0.231296
O O4 0.995886 0.401653 0.882147
O O5 0.588173 0.382941 0.328315
O O6 0.863633 0.303589 0.336108
O O7 0.687875 0.046749 0.634958
O O8 0.686001 0.130585 0.313173
O O9 0.861735 0.259290 0.706196
O O10 0.665357 0.425949 0.749542
O O11 0.640264 0.085462 0.869277
O O12 0.769413 0.075301 0.093914
O O13 0.488763 0.863012 0.886320
O O14 0.073190 0.274774 0.527301
O O15 0.000000 0.000000 0.000000
O O16 0.500000 0.500000 0.500000
O O17 0.389115 0.200062 0.579900
#
# Coordination Sequence:
#
# PCOD9110625 Si02
#       8
#     2   2   2   2   2   2   2   2
#     4  10  24  42  73  96 131 184 227 285 343 403
#     4  11  23  42  67  97 143 180 217 290 336 406
#     4  11  23  40  65  98 127 185 218 272 345 404
#     4  10  20  42  64  96 135 179 225 271 343 401
#     4  11  25  45  70  99 136 172 233 292 338 404
#     4  11  21  40  67  95 135 180 221 273 340 407
#     4  11  23  46  69 100 132 183 235 273 352 409
#     4  11  25  40  62 103 144 172 227 277 339 402
#
# _framework density 25.803920999999999
#
# number of rings (size 3 to 8) (size 9 to 14) (size 15 to 20)
#    0.000    1.250    5.000    2.250    3.500    4.000 
#    2.250    0.000    0.000    0.000    0.000    0.000 
#    0.000    0.000    0.000    0.000    0.000    0.000 
#
# Total GULP energy -89338.157286 kJ/mol
# GULP energy per Si atom -5583.634830 kJ/mol
# Density = 2.574519 g / cm^3
# Si number density = 25.803921 Si / 1000 Ang^3
#
#
#
# Elastic Constant Matrix: (Units=GPa)
#
#
# Indices 1 2 3 4 5 6 
#
# 1 57.9984 19.9122 -3.0085 -1.6666 -16.9032 5.1985
# 2 19.9122 128.6434 33.7847 -3.3490 -6.2686 -2.5714
# 3 -3.0085 33.7847 109.7165 -1.0349 2.7220 -4.7524
# 4 -1.6666 -3.3490 -1.0349 45.5405 3.4557 14.6006
# 5 -16.9032 -6.2686 2.7220 3.4557 37.6531 -5.4336
# 6 5.1985 -2.5714 -4.7524 14.6006 -5.4336 27.8148
#
#
#
# Elastic Compliance Matrix: (Units=1/GPa)
#
#
# Indices 1 2 3 4 5 6 
#
# 1 0.021133 -0.003226 0.001250 0.000840 0.008373 -0.002839
# 2 -0.003226 0.009062 -0.002846 0.000149 0.000390 0.000953
# 3 0.001250 -0.002846 0.010089 -0.000324 -0.000423 0.001314
# 4 0.000840 0.000149 -0.000324 0.027233 -0.004287 -0.015331
# 5 0.008373 0.000390 -0.000423 -0.004287 0.031796 0.006860
# 6 -0.002839 0.000953 0.001314 -0.015331 0.006860 0.046183
#
#
# Mechanical properties :
#
#
# Convention : Reuss Voigt Hill
#
# Bulk Modulus (GPa) = 32.63657 44.19279 38.41468
# Shear Modulus (GPa) = 30.23796 38.57967 34.40881
#
# Velocity S-wave (km/s) = 3.42692 3.87086 3.65564
# Velocity P-wave (km/s) = 5.32295 6.09439 5.72169
#
# Compressibility (1/GPa) = 0.03064047
#
# Stress axis : x y z
#
# Youngs Moduli (GPa) = 47.31889 110.34915 99.11397
#
# Poissons Ratio (x) = 0.35603 -0.12391
# Poissons Ratio (y) = 0.15267 0.28207
# Poissons Ratio (z) = -0.05916 0.31405
#
# Static dielectric constant tensor:
#      x y z
#    x 2.267570 -0.047440 0.201780 
#    y -0.047440 2.074770 0.047670 
#    z 0.201780 0.047670 2.201980 
# 
# From -- ./inp_files/241997.got.cif
#   From: 2010.05.17/outbox.cif.g08.bks.cpg/sg2_121_cif.got.tgz:241997.got - 2010.06.03 11:33:40.
