data_PCOD9110575
_publ_section_title
;
Structure prediction by ZEFSAII (Michael W. Deem and Ramdas Pophale) SiO2 
 PCOD9110575
Probable space group: P -1
;
_chemical_formula_sum "Si O2"
_cell_formula_units_Z 16
_cell_length_a 19.965637
_cell_length_b 7.809386
_cell_length_c 13.576474
_cell_angle_alpha 118.714505
_cell_angle_beta 156.221334
_cell_angle_gamma 64.731956
_cell_volume 748.064879
_symmetry_space_group_name_H-M "P -1"
_symmetry_group_IT_number 2
_symmetry_cell_setting 'triclinic'
loop_
_space_group_symop_operation_xyz
x,y,z
-x,-y,-z
loop_
_atom_site_type_symbol
_atom_site_label
_atom_site_fract_x
_atom_site_fract_y
_atom_site_fract_z
Si Si1 0.844004 0.913203 0.823179
Si Si2 0.161873 0.946637 0.928886
Si Si3 0.065231 0.802340 0.426880
Si Si4 0.493347 0.080234 0.708673
Si Si5 0.846649 0.471425 0.710083
Si Si6 0.510240 0.542274 0.820507
Si Si7 0.557594 0.144475 0.030768
Si Si8 0.123275 0.486782 0.755367
O O1 0.671601 0.007826 0.588323
O O2 0.830824 0.689685 0.708877
O O3 0.862636 0.933098 0.970722
O O4 0.000000 0.000000 0.000000
O O5 0.028873 0.008475 0.684969
O O6 0.148391 0.718211 0.878764
O O7 0.340124 0.002425 0.135661
O O8 0.101354 0.678688 0.343573
O O9 0.246291 0.857905 0.728339
O O10 0.962694 0.656062 0.319834
O O11 0.513703 0.310377 0.774749
O O12 0.472119 0.077915 0.796616
O O13 0.650826 0.413714 0.452772
O O14 0.000000 0.500000 0.000000
O O15 0.481300 0.646590 0.915609
O O16 0.695226 0.596589 0.046743
O O17 0.500000 0.000000 0.000000
O O18 0.000000 0.500000 0.500000
#
# Coordination Sequence:
#
# PCOD9110575 Si02
#       8
#     2   2   2   2   2   2   2   2
#     4  11  23  39  69  94 128 170 224 268 321 391
#     4  11  24  43  68  98 132 172 219 267 327 395
#     4  11  24  43  67  99 132 170 220 269 327 392
#     4  10  23  42  64  90 131 175 209 269 334 380
#     4  10  20  42  64  89 131 170 210 272 325 375
#     4   9  22  41  63  91 127 168 220 264 325 388
#     4  11  25  40  64  96 129 167 221 270 323 387
#     4  11  25  43  68  96 135 175 213 271 336 389
#
# _framework density 21.388517
#
# number of rings (size 3 to 8) (size 9 to 14) (size 15 to 20)
#    0.000    1.500    1.250    3.000    5.250    3.000 
#    0.000    0.625    0.000    0.000    0.000    0.000 
#    0.000    0.000    0.000    0.000    0.000    0.000 
#
# Total GULP energy -89290.381239 kJ/mol
# GULP energy per Si atom -5580.648827 kJ/mol
# Density = 2.133984 g / cm^3
# Si number density = 21.388517 Si / 1000 Ang^3
#
#
#
# Elastic Constant Matrix: (Units=GPa)
#
#
# Indices 1 2 3 4 5 6 
#
# 1 72.4099 23.1265 26.8041 -16.1994 25.9171 -0.4930
# 2 23.1265 57.2185 14.0617 -8.6937 14.1285 -6.9534
# 3 26.8041 14.0617 88.3979 -16.1432 20.3918 4.3205
# 4 -16.1994 -8.6937 -16.1432 30.6934 -4.5070 -0.4382
# 5 25.9171 14.1285 20.3918 -4.5070 43.2441 -0.3822
# 6 -0.4930 -6.9534 4.3205 -0.4382 -0.3822 27.9156
#
#
#
# Elastic Compliance Matrix: (Units=1/GPa)
#
#
# Indices 1 2 3 4 5 6 
#
# 1 0.021051 -0.004624 -0.002137 0.007298 -0.009341 -0.000462
# 2 -0.004624 0.021514 -0.000994 0.002700 -0.003459 0.005426
# 3 -0.002137 -0.000994 0.014283 0.005393 -0.004589 -0.002474
# 4 0.007298 0.002700 0.005393 0.039501 -0.003678 0.000536
# 5 -0.009341 -0.003459 -0.004589 -0.003678 0.031635 0.000059
# 6 -0.000462 0.005426 -0.002474 0.000536 0.000059 0.037558
#
#
# Mechanical properties :
#
#
# Convention : Reuss Voigt Hill
#
# Bulk Modulus (GPa) = 24.19128 38.44567 31.31847
# Shear Modulus (GPa) = 25.66307 30.63955 28.15131
#
# Velocity S-wave (km/s) = 3.46765 3.78898 3.63187
# Velocity P-wave (km/s) = 5.23142 6.09555 5.67994
#
# Compressibility (1/GPa) = 0.04133722
#
# Stress axis : x y z
#
# Youngs Moduli (GPa) = 47.50282 46.48153 70.01195
#
# Poissons Ratio (x) = 0.21493 0.14964
# Poissons Ratio (y) = 0.21965 0.06962
# Poissons Ratio (z) = 0.10153 0.04622
#
# Static dielectric constant tensor:
#      x y z
#    x 1.737430 -0.017740 0.022030 
#    y -0.017740 1.813270 -0.031500 
#    z 0.022030 -0.031500 1.828300 
# 
# From -- ./inp_files/461590.got.cif
#   From: 2010.05.17/outbox.cif.g08.bks.cpg/sg2_231_cif.got.tgz:461590.got - 2010.06.03 11:33:40.
