data_PCOD9110860
_publ_section_title
;
Structure prediction by ZEFSAII (Michael W. Deem and Ramdas Pophale) SiO2 
 PCOD9110860
Probable space group: P -1
;
_chemical_formula_sum "Si O2"
_cell_formula_units_Z 16
_cell_length_a 11.437251
_cell_length_b 19.339544
_cell_length_c 8.949063
_cell_angle_alpha 89.933983
_cell_angle_beta 71.749177
_cell_angle_gamma 30.292728
_cell_volume 784.271799
_symmetry_space_group_name_H-M "P -1"
_symmetry_group_IT_number 2
_symmetry_cell_setting 'triclinic'
loop_
_space_group_symop_operation_xyz
x,y,z
-x,-y,-z
loop_
_atom_site_type_symbol
_atom_site_label
_atom_site_fract_x
_atom_site_fract_y
_atom_site_fract_z
Si Si1 0.172990 0.692157 0.610485
Si Si2 0.332603 0.149441 0.143774
Si Si3 0.270180 0.876720 0.197678
Si Si4 0.167494 0.814620 0.836659
Si Si5 0.066600 0.079475 0.528558
Si Si6 0.298028 0.372060 0.462263
Si Si7 0.111125 0.402165 0.101116
Si Si8 0.295486 0.968567 0.740837
O O1 0.500000 0.500000 0.500000
O O2 0.111493 0.769432 0.782033
O O3 0.111725 0.775058 0.498557
O O4 0.963391 0.733791 0.677006
O O5 0.236723 0.259304 0.067087
O O6 0.521799 0.083673 0.205630
O O7 0.500000 0.000000 0.000000
O O8 0.153669 0.865749 0.316037
O O9 0.581524 0.713970 0.987961
O O10 0.029221 0.031946 0.182550
O O11 0.279875 0.927293 0.331456
O O12 0.505659 0.666079 0.684253
O O13 0.019294 0.887935 0.057200
O O14 0.231753 0.030920 0.601695
O O15 0.000000 0.500000 0.500000
O O16 0.168974 0.454303 0.676761
O O17 0.516648 0.195667 0.368676
O O18 0.000000 0.500000 0.000000
#
# Coordination Sequence:
#
# PCOD9110860 Si02
#       8
#     2   2   2   2   2   2   2   2
#     4  11  25  44  68  93 137 187 230 277 346 415
#     4  12  24  47  69  97 139 193 237 269 346 435
#     4  10  20  42  66  98 137 173 231 272 350 419
#     4  11  22  43  69  96 136 184 225 278 348 427
#     4  10  23  39  70 100 128 181 234 282 332 414
#     4  12  24  39  64 107 144 167 220 297 364 393
#     4  12  26  41  68 106 138 174 228 301 349 396
#     4  12  23  43  71 101 137 181 236 289 343 419
#
# _framework density 20.401091000000001
#
# number of rings (size 3 to 8) (size 9 to 14) (size 15 to 20)
#    0.000    0.750    5.000    2.625    7.000    0.500 
#    0.000    0.625    0.000    0.000    0.000    0.000 
#    0.000    0.000    0.000    0.000    0.000    0.000 
#
# Total GULP energy -89279.459762 kJ/mol
# GULP energy per Si atom -5579.966235 kJ/mol
# Density = 2.035466 g / cm^3
# Si number density = 20.401091 Si / 1000 Ang^3
#
#
#
# Elastic Constant Matrix: (Units=GPa)
#
#
# Indices 1 2 3 4 5 6 
#
# 1 90.4205 35.0391 36.6546 1.3646 -4.1593 -6.4462
# 2 35.0391 113.2820 38.9703 -5.3204 11.4248 3.0102
# 3 36.6546 38.9703 110.7426 4.5671 0.8079 -9.6368
# 4 1.3646 -5.3204 4.5671 32.9661 -6.8306 -5.1978
# 5 -4.1593 11.4248 0.8079 -6.8306 40.4498 7.4684
# 6 -6.4462 3.0102 -9.6368 -5.1978 7.4684 33.5901
#
#
#
# Elastic Compliance Matrix: (Units=1/GPa)
#
#
# Indices 1 2 3 4 5 6 
#
# 1 0.013935 -0.003442 -0.003282 0.000021 0.002187 0.001558
# 2 -0.003442 0.011350 -0.003041 0.001526 -0.002935 -0.001662
# 3 -0.003282 -0.003041 0.011500 -0.001609 -0.000498 0.002804
# 4 0.000021 0.001526 -0.001609 0.032257 0.004420 0.003414
# 5 0.002187 -0.002935 -0.000498 0.004420 0.027432 -0.004875
# 6 0.001558 -0.001662 0.002804 0.003414 -0.004875 0.032635
#
#
# Mechanical properties :
#
#
# Convention : Reuss Voigt Hill
#
# Bulk Modulus (GPa) = 57.95397 59.53033 58.74215
# Shear Modulus (GPa) = 32.38506 34.98661 33.68583
#
# Velocity S-wave (km/s) = 3.98856 4.14567 4.06788
# Velocity P-wave (km/s) = 7.04844 7.22211 7.13580
#
# Compressibility (1/GPa) = 0.01725507
#
# Stress axis : x y z
#
# Youngs Moduli (GPa) = 71.76063 88.10547 86.95316
#
# Poissons Ratio (x) = 0.30326 0.28541
# Poissons Ratio (y) = 0.24700 0.26442
# Poissons Ratio (z) = 0.23555 0.26792
#
# Static dielectric constant tensor:
#      x y z
#    x 1.772100 -0.025220 0.032010 
#    y -0.025220 1.758400 0.023570 
#    z 0.032010 0.023570 1.804900 
# 
# From -- ./inp_files/283089.got.cif
#   From: 2010.05.17/outbox.cif.g08.bks.cpg/sg2_142_cif.got.tgz:283089.got - 2010.06.03 11:33:40.
