data_PCOD9110869
_publ_section_title
;
Structure prediction by ZEFSAII (Michael W. Deem and Ramdas Pophale) SiO2 
 PCOD9110869
Probable space group: P -1
;
_chemical_formula_sum "Si O2"
_cell_formula_units_Z 14
_cell_length_a 14.201032
_cell_length_b 8.883300
_cell_length_c 7.837067
_cell_angle_alpha 93.490479
_cell_angle_beta 41.540330
_cell_angle_gamma 108.288975
_cell_volume 598.268224
_symmetry_space_group_name_H-M "P -1"
_symmetry_group_IT_number 2
_symmetry_cell_setting 'triclinic'
loop_
_space_group_symop_operation_xyz
x,y,z
-x,-y,-z
loop_
_atom_site_type_symbol
_atom_site_label
_atom_site_fract_x
_atom_site_fract_y
_atom_site_fract_z
Si Si1 0.305845 0.716524 0.408286
Si Si2 0.147369 0.525787 0.925462
Si Si3 0.068434 0.386730 0.568737
Si Si4 0.216496 0.205107 0.846536
Si Si5 0.160257 0.868077 0.348201
Si Si6 0.891962 0.904820 0.349971
Si Si7 0.585899 0.942063 0.228477
O O1 0.271448 0.666719 0.651257
O O2 0.217053 0.813536 0.440806
O O3 0.481494 0.845418 0.201284
O O4 0.232038 0.542964 0.389119
O O5 0.206596 0.381730 0.864852
O O6 0.073979 0.560416 0.199378
O O7 0.000000 0.500000 0.000000
O O8 0.008701 0.270271 0.477749
O O9 0.063574 0.249994 0.703800
O O10 0.238849 0.150086 0.620598
O O11 0.338395 0.174921 0.799031
O O12 0.044437 0.067055 0.110800
O O13 0.160647 0.045445 0.399155
O O14 0.276733 0.899823 0.033528
O O15 0.500000 0.000000 0.500000
#
# Coordination Sequence:
#
# PCOD9110869 Si02
#       7
#     2   2   2   2   2   2   2
#     4  11  24  42  66  98 140 176 223 278 338 400
#     4  10  20  42  67 100 136 173 226 281 340 392
#     4  11  22  42  69 103 137 175 226 288 336 396
#     4  11  23  41  74 102 137 179 227 283 335 406
#     4  12  25  44  71 100 136 182 232 283 341 401
#     4  11  22  41  71 105 133 172 234 287 336 395
#     4  12  27  47  70  98 137 187 234 273 341 419
#
# _framework density 23.400876
#
# number of rings (size 3 to 8) (size 9 to 14) (size 15 to 20)
#    0.000    0.857    4.286    4.714    2.000    0.571 
#    0.000    0.714    0.000    0.000    0.000    0.000 
#    0.000    0.000    0.000    0.000    0.000    0.000 
#
# Total GULP energy -77990.826299 kJ/mol
# GULP energy per Si atom -5570.773307 kJ/mol
# Density = 2.334761 g / cm^3
# Si number density = 23.400876 Si / 1000 Ang^3
#
#
#
# Elastic Constant Matrix: (Units=GPa)
#
#
# Indices 1 2 3 4 5 6 
#
# 1 151.6904 57.5126 -5.8518 4.3102 -18.0823 4.2683
# 2 57.5126 134.6256 24.2695 5.3975 -1.2476 -5.5315
# 3 -5.8518 24.2695 47.2057 2.4180 7.9436 1.7197
# 4 4.3102 5.3975 2.4180 34.9112 3.9939 3.2955
# 5 -18.0823 -1.2476 7.9436 3.9939 22.4794 -7.5799
# 6 4.2683 -5.5315 1.7197 3.2955 -7.5799 55.9915
#
#
#
# Elastic Compliance Matrix: (Units=1/GPa)
#
#
# Indices 1 2 3 4 5 6 
#
# 1 0.009077 -0.004183 0.002271 -0.001346 0.006430 -0.000225
# 2 -0.004183 0.010367 -0.005856 -0.000823 -0.000046 0.001565
# 3 0.002271 -0.005856 0.026023 0.000066 -0.008624 -0.002722
# 4 -0.001346 -0.000823 0.000066 0.030041 -0.007417 -0.002753
# 5 0.006430 -0.000046 -0.008624 -0.007417 0.056677 0.007880
# 6 -0.000225 0.001565 -0.002722 -0.002753 0.007880 0.019344
#
#
# Mechanical properties :
#
#
# Convention : Reuss Voigt Hill
#
# Bulk Modulus (GPa) = 33.40929 53.93137 43.67033
# Shear Modulus (GPa) = 28.24177 39.84915 34.04546
#
# Velocity S-wave (km/s) = 3.47777 4.13109 3.81843
# Velocity P-wave (km/s) = 5.51674 6.77136 6.17599
#
# Compressibility (1/GPa) = 0.02993179
#
# Stress axis : x y z
#
# Youngs Moduli (GPa) = 110.16960 96.45574 38.42756
#
# Poissons Ratio (x) = 0.40345 -0.08726
# Poissons Ratio (y) = 0.46081 0.22502
# Poissons Ratio (z) = -0.25017 0.56482
#
# Static dielectric constant tensor:
#      x y z
#    x 1.919370 0.039620 0.091340 
#    y 0.039620 1.897090 0.040160 
#    z 0.091340 0.040160 2.186870 
# 
# From -- ./inp_files/298484.got.cif
#   From: 2010.05.17/outbox.cif.g08.bks.cpg/sg2_150_cif.got.tgz:298484.got - 2010.06.03 11:33:40.
