data_PCOD9110044
_publ_section_title
;
Structure prediction by ZEFSAII (Michael W. Deem and Ramdas Pophale) SiO2 
 PCOD9110044
Probable space group: P -1
;
_chemical_formula_sum "Si O2"
_cell_formula_units_Z 12
_cell_length_a 12.243981
_cell_length_b 12.917714
_cell_length_c 10.381325
_cell_angle_alpha 46.358983
_cell_angle_beta 25.188481
_cell_angle_gamma 38.900378
_cell_volume 438.220211
_symmetry_space_group_name_H-M "P -1"
_symmetry_group_IT_number 2
_symmetry_cell_setting 'triclinic'
loop_
_space_group_symop_operation_xyz
x,y,z
-x,-y,-z
loop_
_atom_site_type_symbol
_atom_site_label
_atom_site_fract_x
_atom_site_fract_y
_atom_site_fract_z
Si Si1 0.329202 0.272457 0.448410
Si Si2 0.898873 0.037524 0.926202
Si Si3 0.802768 0.294407 0.610230
Si Si4 0.158080 0.758977 0.669912
Si Si5 0.241014 0.386414 0.710447
Si Si6 0.278444 0.534564 0.120806
O O1 0.400981 0.254330 0.538064
O O2 0.472417 0.401169 0.156763
O O3 0.997186 0.298771 0.785556
O O4 0.541029 0.127354 0.252140
O O5 0.947095 0.178534 0.679512
O O6 0.006416 0.903508 0.812725
O O7 0.000000 0.000000 0.000000
O O8 0.854548 0.197905 0.504986
O O9 0.889224 0.435526 0.371540
O O10 0.457069 0.410029 0.919664
O O11 0.998943 0.650597 0.943452
O O12 0.498964 0.651209 0.437299
O O13 0.000000 0.500000 0.500000
#
# Coordination Sequence:
#
# PCOD9110044 Si02
#       6
#     2   2   2   2   2   2
#     4  10  22  41  75 109 150 197 265 323 395 452
#     4  11  25  53  81 116 167 212 267 328 405 486
#     4  11  25  48  82 115 157 212 269 331 402 478
#     4  12  28  52  76 123 163 214 259 338 403 490
#     4  12  25  48  80 116 162 204 277 330 398 474
#     4  10  20  41  69 112 143 193 265 325 383 457
#
# _framework density 27.383492
#
# number of rings (size 3 to 8) (size 9 to 14) (size 15 to 20)
#    0.000    1.000    3.333    2.500    0.000    2.000 
#    9.000    1.667    0.000    0.000    0.000    0.000 
#    0.000    0.000    0.000    0.000    0.000    0.000 
#
# Total GULP energy -66951.405817 kJ/mol
# GULP energy per Si atom -5579.283818 kJ/mol
# Density = 2.732117 g / cm^3
# Si number density = 27.383492 Si / 1000 Ang^3
#
#
#
# Elastic Constant Matrix: (Units=GPa)
#
#
# Indices 1 2 3 4 5 6 
#
# 1 183.3723 52.1353 95.3478 -1.4167 -2.3678 -23.8764
# 2 52.1353 116.8340 62.8784 -14.5641 14.6141 7.5721
# 3 95.3478 62.8784 229.0121 17.4978 31.7233 -6.6701
# 4 -1.4167 -14.5641 17.4978 57.6958 0.0905 15.2128
# 5 -2.3678 14.6141 31.7233 0.0905 78.8800 -4.7363
# 6 -23.8764 7.5721 -6.6701 15.2128 -4.7363 36.0523
#
#
#
# Elastic Compliance Matrix: (Units=1/GPa)
#
#
# Indices 1 2 3 4 5 6 
#
# 1 0.008776 -0.003427 -0.002712 -0.001693 0.002415 0.007061
# 2 -0.003427 0.013053 -0.002601 0.006211 -0.001985 -0.008374
# 3 -0.002712 -0.002601 0.006785 -0.003038 -0.002265 0.000989
# 4 -0.001693 0.006211 -0.003038 0.023174 -0.000779 -0.012868
# 5 0.002415 -0.001985 -0.002265 -0.000779 0.014258 0.003799
# 6 0.007061 -0.008374 0.000989 -0.012868 0.003799 0.040285
#
#
# Mechanical properties :
#
#
# Convention : Reuss Voigt Hill
#
# Bulk Modulus (GPa) = 89.81719 105.54905 97.68312
# Shear Modulus (GPa) = 39.20921 55.78274 47.49598
#
# Velocity S-wave (km/s) = 3.78809 4.51831 4.16922
# Velocity P-wave (km/s) = 7.21137 8.11472 7.67634
#
# Compressibility (1/GPa) = 0.01113373
#
# Stress axis : x y z
#
# Youngs Moduli (GPa) = 113.95277 76.60964 147.39346
#
# Poissons Ratio (x) = 0.26254 0.39977
# Poissons Ratio (y) = 0.39052 0.38330
# Poissons Ratio (z) = 0.30907 0.19923
#
# Static dielectric constant tensor:
#      x y z
#    x 2.065220 0.253280 0.033050 
#    y 0.253280 1.868970 -0.091990 
#    z 0.033050 -0.091990 2.057740 
# 
# From -- ./inp_files/316224.got.cif
#   From: 2010.05.17/outbox.cif.g08.bks.cpg/sg2_159_cif.got.tgz:316224.got - 2010.06.03 11:33:40.
