data_PCOD9110278
_publ_section_title
;
Structure prediction by ZEFSAII (Michael W. Deem and Ramdas Pophale) SiO2 
 PCOD9110278
Probable space group: P -1
;
_chemical_formula_sum "Si O2"
_cell_formula_units_Z 14
_cell_length_a 8.844731
_cell_length_b 12.817683
_cell_length_c 7.403446
_cell_angle_alpha 114.282150
_cell_angle_beta 55.566328
_cell_angle_gamma 130.167139
_cell_volume 527.556897
_symmetry_space_group_name_H-M "P -1"
_symmetry_group_IT_number 2
_symmetry_cell_setting 'triclinic'
loop_
_space_group_symop_operation_xyz
x,y,z
-x,-y,-z
loop_
_atom_site_type_symbol
_atom_site_label
_atom_site_fract_x
_atom_site_fract_y
_atom_site_fract_z
Si Si1 0.931093 0.747936 0.270690
Si Si2 0.120089 0.085511 0.800054
Si Si3 0.591599 0.001357 0.635908
Si Si4 0.503222 0.367097 0.365727
Si Si5 0.501869 0.364768 0.942628
Si Si6 0.156477 0.702935 0.379029
Si Si7 0.813904 0.282959 0.210641
O O1 0.954474 0.681744 0.389082
O O2 0.046817 0.894996 0.194397
O O3 0.707834 0.740308 0.453786
O O4 0.984581 0.673503 0.026666
O O5 0.205771 0.009833 0.566254
O O6 0.319329 0.231590 0.857078
O O7 0.000000 0.000000 0.000000
O O8 0.673716 0.154635 0.745743
O O9 0.500000 0.000000 0.500000
O O10 0.402947 0.871884 0.778480
O O11 0.500000 0.500000 0.500000
O O12 0.468690 0.334739 0.155781
O O13 0.714673 0.373150 0.300216
O O14 0.500000 0.500000 0.000000
O O15 0.737763 0.385776 0.760273
O O16 0.124877 0.715219 0.620706
#
# Coordination Sequence:
#
# PCOD9110278 Si02
#       7
#     2   2   2   2   2   2   2
#     4  12  27  45  75 115 148 199 260 312 381 464
#     4  12  25  45  76 118 159 200 256 322 385 459
#     4  10  20  41  72 101 156 196 243 311 385 447
#     4  12  27  51  74 106 155 207 260 319 385 464
#     4  12  26  51  80 108 156 212 254 320 397 459
#     4  11  24  46  75 113 147 204 257 314 388 458
#     4  11  23  48  71 105 154 197 249 320 380 454
#
# _framework density 26.537420000000001
#
# number of rings (size 3 to 8) (size 9 to 14) (size 15 to 20)
#    0.000    0.571    5.714    3.429    4.000    2.857 
#    2.571    1.429    0.000    0.000    0.000    0.000 
#    0.000    0.000    0.000    0.000    0.000    0.000 
#
# Total GULP energy -78153.356958 kJ/mol
# GULP energy per Si atom -5582.382640 kJ/mol
# Density = 2.647702 g / cm^3
# Si number density = 26.537420 Si / 1000 Ang^3
#
#
#
# Elastic Constant Matrix: (Units=GPa)
#
#
# Indices 1 2 3 4 5 6 
#
# 1 162.2273 28.8818 70.8733 3.4928 10.6551 -45.3397
# 2 28.8818 82.5100 -29.0428 10.8025 0.0790 -23.0041
# 3 70.8733 -29.0428 139.2846 -1.6830 11.4842 -16.1861
# 4 3.4928 10.8025 -1.6830 34.0512 -17.0249 -7.8798
# 5 10.6551 0.0790 11.4842 -17.0249 55.8460 7.2117
# 6 -45.3397 -23.0041 -16.1861 -7.8798 7.2117 47.7869
#
#
#
# Elastic Compliance Matrix: (Units=1/GPa)
#
#
# Indices 1 2 3 4 5 6 
#
# 1 0.011575 -0.004064 -0.005714 0.000651 -0.001794 0.007469
# 2 -0.004064 0.018658 0.006986 -0.005086 -0.003159 0.007130
# 3 -0.005714 0.006986 0.011937 -0.001637 -0.002137 0.002038
# 4 0.000651 -0.005086 -0.001637 0.036903 0.011210 0.002008
# 5 -0.001794 -0.003159 -0.002137 0.011210 0.022826 -0.005542
# 6 0.007469 0.007130 0.002038 0.002008 -0.005542 0.033303
#
#
# Mechanical properties :
#
#
# Convention : Reuss Voigt Hill
#
# Bulk Modulus (GPa) = 27.33222 58.38295 42.85758
# Shear Modulus (GPa) = 32.68403 48.42413 40.55408
#
# Velocity S-wave (km/s) = 3.51325 4.27634 3.91344
# Velocity P-wave (km/s) = 5.17485 6.81402 6.05020
#
# Compressibility (1/GPa) = 0.03658686
#
# Stress axis : x y z
#
# Youngs Moduli (GPa) = 86.39335 53.59564 83.77548
#
# Poissons Ratio (x) = 0.21781 0.47865
# Poissons Ratio (y) = 0.35111 -0.58526
# Poissons Ratio (z) = 0.49361 -0.37442
#
# Static dielectric constant tensor:
#      x y z
#    x 1.245490 -0.236760 -0.393820 
#    y -0.236760 2.133510 -0.165320 
#    z -0.393820 -0.165320 1.928070 
# 
# From -- ./inp_files/171996.got.cif
#   From: 2010.05.17/outbox.cif.g08.bks.cpg/sg2_86_cif.got.tgz:171996.got - 2010.06.03 11:33:40.
