data_PCOD9110806
_publ_section_title
;
Structure prediction by ZEFSAII (Michael W. Deem and Ramdas Pophale) SiO2 
 PCOD9110806
Probable space group: P -1
;
_chemical_formula_sum "Si O2"
_cell_formula_units_Z 14
_cell_length_a 18.322139
_cell_length_b 14.700844
_cell_length_c 21.615459
_cell_angle_alpha 25.324830
_cell_angle_beta 161.869716
_cell_angle_gamma 160.020210
_cell_volume 615.877955
_symmetry_space_group_name_H-M "P -1"
_symmetry_group_IT_number 2
_symmetry_cell_setting 'triclinic'
loop_
_space_group_symop_operation_xyz
x,y,z
-x,-y,-z
loop_
_atom_site_type_symbol
_atom_site_label
_atom_site_fract_x
_atom_site_fract_y
_atom_site_fract_z
Si Si1 0.461446 0.727961 0.342544
Si Si2 0.353049 0.976501 0.330596
Si Si3 0.310933 0.792928 0.057407
Si Si4 0.804698 0.551459 0.928474
Si Si5 0.619053 0.711978 0.144070
Si Si6 0.237506 0.026549 0.436528
Si Si7 0.337219 0.430948 0.977091
O O1 0.500000 0.500000 0.500000
O O2 0.531154 0.863435 0.247868
O O3 0.648351 0.889186 0.453724
O O4 0.126262 0.622047 0.152663
O O5 0.525756 0.955870 0.427008
O O6 0.500000 0.000000 0.500000
O O7 0.366801 0.230658 0.164370
O O8 0.009958 0.722555 0.214916
O O9 0.385026 0.723357 0.095420
O O10 0.000000 0.500000 0.000000
O O11 0.272696 0.021402 0.894366
O O12 0.645575 0.515375 0.886725
O O13 0.813506 0.773231 0.760592
O O14 0.494099 0.689773 0.988649
O O15 0.915757 0.739891 0.356238
O O16 0.500000 0.500000 0.000000
#
# Coordination Sequence:
#
# PCOD9110806 Si02
#       7
#     2   2   2   2   2   2   2
#     4  11  21  41  68  93 135 182 222 273 338 396
#     4  11  26  49  73 100 139 181 230 288 353 410
#     4  10  20  42  66  92 138 181 215 272 337 394
#     4  11  23  44  65  97 141 177 227 279 335 400
#     4  12  24  43  71  99 136 180 224 281 339 400
#     4  12  24  42  70  98 136 179 223 280 340 404
#     4  11  27  48  72 104 140 178 232 293 345 410
#
# _framework density 22.731776
#
# number of rings (size 3 to 8) (size 9 to 14) (size 15 to 20)
#    0.000    0.857    4.286    3.857    2.000    5.714 
#    2.571    1.429    0.000    0.000    0.000    0.000 
#    0.000    0.000    0.000    0.000    0.000    0.000 
#
# Total GULP energy -78170.575690 kJ/mol
# GULP energy per Si atom -5583.612549 kJ/mol
# Density = 2.268004 g / cm^3
# Si number density = 22.731776 Si / 1000 Ang^3
#
#
#
# Elastic Constant Matrix: (Units=GPa)
#
#
# Indices 1 2 3 4 5 6 
#
# 1 176.6790 22.9990 59.0948 42.1212 -1.1038 -1.3288
# 2 22.9990 48.1551 30.4793 18.0895 4.1512 -6.1666
# 3 59.0948 30.4793 149.0775 28.7072 -2.7088 -1.3939
# 4 42.1212 18.0895 28.7072 38.2070 -7.9130 -0.1883
# 5 -1.1038 4.1512 -2.7088 -7.9130 46.1472 6.5823
# 6 -1.3288 -6.1666 -1.3939 -0.1883 6.5823 33.4586
#
#
#
# Elastic Compliance Matrix: (Units=1/GPa)
#
#
# Indices 1 2 3 4 5 6 
#
# 1 0.008129 0.000505 -0.001775 -0.008163 -0.001437 0.000579
# 2 0.000505 0.028948 -0.003732 -0.012645 -0.005876 0.006285
# 3 -0.001775 -0.003732 0.008704 -0.002735 0.000405 -0.000491
# 4 -0.008163 -0.012645 -0.002735 0.045083 0.009127 -0.004310
# 5 -0.001437 -0.005876 0.000405 0.009127 0.024596 -0.005911
# 6 0.000579 0.006285 -0.000491 -0.004310 -0.005911 0.032187
#
#
# Mechanical properties :
#
#
# Convention : Reuss Voigt Hill
#
# Bulk Modulus (GPa) = 27.94974 66.56197 47.25585
# Shear Modulus (GPa) = 29.48534 40.98513 35.23524
#
# Velocity S-wave (km/s) = 3.60543 4.25077 3.94133
# Velocity P-wave (km/s) = 5.44558 7.31007 6.44560
#
# Compressibility (1/GPa) = 0.03577851
#
# Stress axis : x y z
#
# Youngs Moduli (GPa) = 123.01398 34.54428 114.89281
#
# Poissons Ratio (x) = -0.01744 0.20388
# Poissons Ratio (y) = -0.06212 0.42876
# Poissons Ratio (z) = 0.21829 0.12891
#
# Static dielectric constant tensor:
#      x y z
#    x 1.901230 -0.013880 0.015010 
#    y -0.013880 1.946170 -0.026440 
#    z 0.015010 -0.026440 1.878040 
# 
# From -- ./inp_files/600282.got.cif
#   From: 2010.05.17/outbox.cif.g08.bks.cpg/sg2_301_cif.got.tgz:600282.got - 2010.06.03 11:33:40.
