data_PCOD9110659
_publ_section_title
;
Structure prediction by ZEFSAII (Michael W. Deem and Ramdas Pophale) SiO2 
 PCOD9110659
Probable space group: P -1
;
_chemical_formula_sum "Si O2"
_cell_formula_units_Z 14
_cell_length_a 7.389867
_cell_length_b 7.073054
_cell_length_c 16.710795
_cell_angle_alpha 50.701605
_cell_angle_beta 73.684346
_cell_angle_gamma 85.332657
_cell_volume 643.203779
_symmetry_space_group_name_H-M "P -1"
_symmetry_group_IT_number 2
_symmetry_cell_setting 'triclinic'
loop_
_space_group_symop_operation_xyz
x,y,z
-x,-y,-z
loop_
_atom_site_type_symbol
_atom_site_label
_atom_site_fract_x
_atom_site_fract_y
_atom_site_fract_z
Si Si1 0.212873 0.887733 0.728542
Si Si2 0.473065 0.737471 0.990333
Si Si3 0.525580 0.737750 0.170376
Si Si4 0.717662 0.114500 0.460290
Si Si5 0.645277 0.779901 0.698149
Si Si6 0.847893 0.670505 0.271067
Si Si7 0.104655 0.505539 0.154921
O O1 0.186404 0.925297 0.626350
O O2 0.147094 0.111095 0.725421
O O3 0.436719 0.860501 0.721918
O O4 0.077366 0.632699 0.830999
O O5 0.552247 0.727494 0.073583
O O6 0.243505 0.711881 0.036325
O O7 0.500000 0.500000 0.000000
O O8 0.549783 0.002761 0.874216
O O9 0.401703 0.478739 0.274652
O O10 0.712869 0.736331 0.198566
O O11 0.762332 0.974873 0.572565
O O12 0.500000 0.000000 0.500000
O O13 0.754645 0.408167 0.389122
O O14 0.764726 0.704043 0.778834
O O15 0.037095 0.621279 0.214438
#
# Coordination Sequence:
#
# PCOD9110659 Si02
#       7
#     2   2   2   2   2   2   2
#     4  10  22  39  60  94 125 162 209 242 304 365
#     4  10  24  41  66  92 118 158 210 252 310 373
#     4  10  21  40  62  90 122 155 203 256 302 356
#     4   9  18  38  60  93 126 163 205 248 300 354
#     4  10  20  42  65  85 131 166 200 258 298 356
#     4  11  22  39  62  92 129 159 203 255 300 369
#     4  10  23  42  60  90 123 162 202 257 309 353
#
# _framework density 21.766041000000001
#
# number of rings (size 3 to 8) (size 9 to 14) (size 15 to 20)
#    0.000    2.000    4.286    0.000    4.000    8.571 
#    0.000    2.857    0.000    0.000    0.000    0.000 
#    0.000    0.000    0.000    0.000    0.000    0.000 
#
# Total GULP energy -78069.629387 kJ/mol
# GULP energy per Si atom -5576.402099 kJ/mol
# Density = 2.171650 g / cm^3
# Si number density = 21.766041 Si / 1000 Ang^3
#
#
#
# Elastic Constant Matrix: (Units=GPa)
#
#
# Indices 1 2 3 4 5 6 
#
# 1 54.0862 17.8287 1.9147 2.1904 -3.6845 -4.5924
# 2 17.8287 158.1809 27.0696 -30.1311 -5.4734 -8.5691
# 3 1.9147 27.0696 78.0925 -30.3553 0.9472 -4.7381
# 4 2.1904 -30.1311 -30.3553 24.6083 3.3086 5.4740
# 5 -3.6845 -5.4734 0.9472 3.3086 36.8285 -0.9333
# 6 -4.5924 -8.5691 -4.7381 5.4740 -0.9333 20.9273
#
#
#
# Elastic Compliance Matrix: (Units=1/GPa)
#
#
# Indices 1 2 3 4 5 6 
#
# 1 0.021095 -0.003776 -0.003986 -0.013094 0.002974 0.005738
# 2 -0.003776 0.009102 0.002768 0.015054 -0.000460 -0.000433
# 3 -0.003986 0.002768 0.026446 0.037775 -0.004158 -0.003820
# 4 -0.013094 0.015054 0.037775 0.112256 -0.010585 -0.017992
# 5 0.002974 -0.000460 -0.004158 -0.010585 0.028530 0.003564
# 6 0.005738 -0.000433 -0.003820 -0.017992 0.003564 0.052867
#
#
# Mechanical properties :
#
#
# Convention : Reuss Voigt Hill
#
# Bulk Modulus (GPa) = 21.43407 42.66505 32.04956
# Shear Modulus (GPa) = 18.12678 32.70926 25.41802
#
# Velocity S-wave (km/s) = 2.88896 3.88076 3.42099
# Velocity P-wave (km/s) = 4.58225 6.30274 5.51006
#
# Compressibility (1/GPa) = 0.04665469
#
# Stress axis : x y z
#
# Youngs Moduli (GPa) = 47.40473 109.86764 37.81358
#
# Poissons Ratio (x) = 0.41486 0.15073
# Poissons Ratio (y) = 0.17900 -0.10468
# Poissons Ratio (z) = 0.18896 -0.30415
#
# Static dielectric constant tensor:
#      x y z
#    x 1.868340 -0.022140 -0.014330 
#    y -0.022140 1.782820 -0.003480 
#    z -0.014330 -0.003480 1.848140 
# 
# From -- ./inp_files/553155.got.cif
#   From: 2010.05.17/outbox.cif.g08.bks.cpg/sg2_277_cif.got.tgz:553155.got - 2010.06.03 11:33:40.
