data_PCOD9110870
_publ_section_title
;
Structure prediction by ZEFSAII (Michael W. Deem and Ramdas Pophale) SiO2 
 PCOD9110870
Probable space group: P -1
;
_chemical_formula_sum "Si O2"
_cell_formula_units_Z 16
_cell_length_a 6.154097
_cell_length_b 9.081130
_cell_length_c 15.448582
_cell_angle_alpha 110.800949
_cell_angle_beta 66.776160
_cell_angle_gamma 74.368426
_cell_volume 652.011771
_symmetry_space_group_name_H-M "P -1"
_symmetry_group_IT_number 2
_symmetry_cell_setting 'triclinic'
loop_
_space_group_symop_operation_xyz
x,y,z
-x,-y,-z
loop_
_atom_site_type_symbol
_atom_site_label
_atom_site_fract_x
_atom_site_fract_y
_atom_site_fract_z
Si Si1 0.143726 0.188002 0.750458
Si Si2 0.270959 0.416892 0.549008
Si Si3 0.139283 0.785112 0.578860
Si Si4 0.601164 0.289347 0.949111
Si Si5 0.315292 0.476164 0.752362
Si Si6 0.714357 0.171290 0.096639
Si Si7 0.439073 0.992484 0.215428
Si Si8 0.069124 0.777313 0.394315
O O1 0.138145 0.380577 0.785083
O O2 0.914297 0.202313 0.854403
O O3 0.090799 0.136257 0.651886
O O4 0.426729 0.055874 0.721360
O O5 0.170083 0.584961 0.537566
O O6 0.565122 0.257958 0.444810
O O7 0.316517 0.481218 0.649455
O O8 0.064149 0.345317 0.583336
O O9 0.086850 0.853194 0.502188
O O10 0.881311 0.903104 0.701659
O O11 0.477782 0.194172 0.886625
O O12 0.500000 0.500000 0.000000
O O13 0.571354 0.239898 0.041151
O O14 0.236245 0.670126 0.840929
O O15 0.620505 0.343109 0.706970
O O16 0.540562 0.113761 0.173824
O O17 0.000000 0.000000 0.000000
#
# Coordination Sequence:
#
# PCOD9110870 Si02
#       8
#     2   2   2   2   2   2   2   2
#     4  11  24  45  70  99 141 189 238 285 345 425
#     4   9  20  39  68 100 144 186 227 283 348 428
#     4  10  22  38  66 104 141 182 230 287 353 416
#     4  12  28  49  74  98 139 195 241 289 358 422
#     4  10  23  43  71 102 140 188 236 282 351 426
#     4  12  26  46  71 105 140 179 232 305 356 403
#     4  12  27  45  70 107 144 180 237 299 351 413
#     4  10  20  42  67 100 137 187 234 274 347 426
#
# _framework density 24.539435000000001
#
# number of rings (size 3 to 8) (size 9 to 14) (size 15 to 20)
#    0.000    1.250    1.250    3.750    3.500    5.500 
#    0.000    8.750    0.000    0.000    0.000    0.000 
#    0.000    0.000    0.000    0.000    0.000    0.000 
#
# Total GULP energy -89589.408471 kJ/mol
# GULP energy per Si atom -5599.338029 kJ/mol
# Density = 2.448358 g / cm^3
# Si number density = 24.539435 Si / 1000 Ang^3
#
#
#
# Elastic Constant Matrix: (Units=GPa)
#
#
# Indices 1 2 3 4 5 6 
#
# 1 101.3342 43.7869 44.4653 6.9047 26.4679 10.2452
# 2 43.7869 153.7360 46.7444 -22.9516 11.4505 -3.8141
# 3 44.4653 46.7444 95.7647 14.0756 19.1070 4.7256
# 4 6.9047 -22.9516 14.0756 27.8569 10.2009 3.2652
# 5 26.4679 11.4505 19.1070 10.2009 42.4763 -6.1955
# 6 10.2452 -3.8141 4.7256 3.2652 -6.1955 54.2411
#
#
#
# Elastic Compliance Matrix: (Units=1/GPa)
#
#
# Indices 1 2 3 4 5 6 
#
# 1 0.015077 -0.002843 -0.003855 -0.001115 -0.007131 -0.003459
# 2 -0.002843 0.011254 -0.005846 0.013474 -0.001748 0.000827
# 3 -0.003855 -0.005846 0.017065 -0.012101 -0.000871 -0.000541
# 4 -0.001115 0.013474 -0.012101 0.058024 -0.011813 -0.002630
# 5 -0.007131 -0.001748 -0.000871 -0.011813 0.032521 0.005725
# 6 -0.003459 0.000827 -0.000541 -0.002630 0.005725 0.020007
#
#
# Mechanical properties :
#
#
# Convention : Reuss Voigt Hill
#
# Bulk Modulus (GPa) = 54.62279 68.98090 61.80184
# Shear Modulus (GPa) = 27.00690 39.30407 33.15548
#
# Velocity S-wave (km/s) = 3.32105 4.00643 3.67973
# Velocity P-wave (km/s) = 6.08386 7.04082 6.57976
#
# Compressibility (1/GPa) = 0.01830738
#
# Stress axis : x y z
#
# Youngs Moduli (GPa) = 66.32723 88.85681 58.60010
#
# Poissons Ratio (x) = 0.25262 0.22593
# Poissons Ratio (y) = 0.18857 0.34256
# Poissons Ratio (z) = 0.25572 0.51943
#
# Static dielectric constant tensor:
#      x y z
#    x 1.928410 -0.013000 0.034610 
#    y -0.013000 1.944170 0.036670 
#    z 0.034610 0.036670 1.936710 
# 
# From -- ./inp_files/548217.got.cif
#   From: 2010.05.17/outbox.cif.g08.bks.cpg/sg2_275_cif.got.tgz:548217.got - 2010.06.03 11:33:40.
