data_PCOD9110787
_publ_section_title
;
Structure prediction by ZEFSAII (Michael W. Deem and Ramdas Pophale) SiO2 
 PCOD9110787
Probable space group: P -1
;
_chemical_formula_sum "Si O2"
_cell_formula_units_Z 16
_cell_length_a 17.931703
_cell_length_b 12.098849
_cell_length_c 9.779222
_cell_angle_alpha 115.558827
_cell_angle_beta 151.007596
_cell_angle_gamma 53.873677
_cell_volume 811.150726
_symmetry_space_group_name_H-M "P -1"
_symmetry_group_IT_number 2
_symmetry_cell_setting 'triclinic'
loop_
_space_group_symop_operation_xyz
x,y,z
-x,-y,-z
loop_
_atom_site_type_symbol
_atom_site_label
_atom_site_fract_x
_atom_site_fract_y
_atom_site_fract_z
Si Si1 0.298583 0.053789 0.753128
Si Si2 0.279729 0.083283 0.289439
Si Si3 0.133339 0.388735 0.257682
Si Si4 0.492346 0.619760 0.152724
Si Si5 0.207742 0.921661 0.312009
Si Si6 0.022134 0.369943 0.375784
Si Si7 0.349103 0.931740 0.061541
Si Si8 0.351727 0.624530 0.238397
O O1 0.166991 0.214919 0.581646
O O2 0.246226 0.945066 0.540696
O O3 0.500000 0.000000 0.000000
O O4 0.292262 0.031581 0.892979
O O5 0.144169 0.244592 0.149299
O O6 0.462999 0.086502 0.596500
O O7 0.272960 0.012778 0.380237
O O8 0.241248 0.004116 0.063340
O O9 0.314115 0.394768 0.539715
O O10 0.079986 0.395924 0.333711
O O11 0.000000 0.500000 0.000000
O O12 0.370494 0.779359 0.988518
O O13 0.425310 0.616240 0.197591
O O14 0.500000 0.500000 0.000000
O O15 0.302666 0.768426 0.317061
O O16 0.000000 0.000000 0.000000
O O17 0.000000 0.500000 0.500000
O O18 0.831988 0.378115 0.066376
O O19 0.500000 0.500000 0.500000
#
# Coordination Sequence:
#
# PCOD9110787 Si02
#       8
#     2   2   2   2   2   2   2   2
#     4  12  24  42  70 100 131 180 230 276 342 397
#     4  10  20  42  66  92 127 167 225 269 322 401
#     4  11  23  43  68  94 129 179 221 268 334 403
#     4  11  24  44  65  97 136 171 219 279 334 399
#     4  12  23  45  67  95 140 173 224 289 333 400
#     4  12  27  46  66 103 141 172 228 286 332 414
#     4  10  22  39  68  95 123 172 222 271 326 398
#     4  12  27  45  70 102 135 184 224 278 352 400
#
# _framework density 19.725065000000001
#
# number of rings (size 3 to 8) (size 9 to 14) (size 15 to 20)
#    0.000    0.750    5.000    2.250    5.250    0.000 
#    0.000    1.250    0.000    0.000    0.000    0.000 
#    0.000    0.000    0.000    0.000    0.000    0.000 
#
# Total GULP energy -89253.973761 kJ/mol
# GULP energy per Si atom -5578.373360 kJ/mol
# Density = 1.968017 g / cm^3
# Si number density = 19.725065 Si / 1000 Ang^3
#
#
#
# Elastic Constant Matrix: (Units=GPa)
#
#
# Indices 1 2 3 4 5 6 
#
# 1 100.5071 31.8020 37.3442 -16.9812 -8.5120 -2.6410
# 2 31.8020 180.5672 62.5126 -7.2191 -12.4490 -8.4125
# 3 37.3442 62.5126 91.6334 -11.3486 -7.3181 -4.4721
# 4 -16.9812 -7.2191 -11.3486 39.8262 7.1428 -8.0766
# 5 -8.5120 -12.4490 -7.3181 7.1428 40.7491 0.8247
# 6 -2.6410 -8.4125 -4.4721 -8.0766 0.8247 29.6178
#
#
#
# Elastic Compliance Matrix: (Units=1/GPa)
#
#
# Indices 1 2 3 4 5 6 
#
# 1 0.012443 -0.000478 -0.004079 0.004183 0.000958 0.001472
# 2 -0.000478 0.007394 -0.004705 -0.000186 0.001321 0.001260
# 3 -0.004079 -0.004705 0.016144 0.002247 0.000189 0.001345
# 4 0.004183 -0.000186 0.002247 0.030080 -0.004234 0.008980
# 5 0.000958 0.001321 0.000189 -0.004234 0.025948 -0.001388
# 6 0.001472 0.001260 0.001345 0.008980 -0.001388 0.036943
#
#
# Mechanical properties :
#
#
# Convention : Reuss Voigt Hill
#
# Bulk Modulus (GPa) = 57.28206 70.66948 63.97577
# Shear Modulus (GPa) = 32.61711 38.10855 35.36283
#
# Velocity S-wave (km/s) = 4.07084 4.40020 4.23872
# Velocity P-wave (km/s) = 7.15535 7.85626 7.51398
#
# Compressibility (1/GPa) = 0.01745747
#
# Stress axis : x y z
#
# Youngs Moduli (GPa) = 80.36843 135.25341 61.94146
#
# Poissons Ratio (x) = 0.06459 0.25264
# Poissons Ratio (y) = 0.03838 0.29145
# Poissons Ratio (z) = 0.32780 0.63641
#
# Static dielectric constant tensor:
#      x y z
#    x 1.649420 -0.024590 0.022190 
#    y -0.024590 1.726150 -0.002550 
#    z 0.022190 -0.002550 1.674120 
# 
# From -- ./inp_files/186965.got.cif
#   From: 2010.05.17/outbox.cif.g08.bks.cpg/sg2_94_cif.got.tgz:186965.got - 2010.06.03 11:33:40.
