data_PCOD9110032
_publ_section_title
;
Structure prediction by ZEFSAII (Michael W. Deem and Ramdas Pophale) SiO2 
 PCOD9110032
Probable space group: P -1
;
_chemical_formula_sum "Si O2"
_cell_formula_units_Z 14
_cell_length_a 9.219069
_cell_length_b 18.565118
_cell_length_c 7.398247
_cell_angle_alpha 33.492363
_cell_angle_beta 48.883844
_cell_angle_gamma 55.432469
_cell_volume 525.866728
_symmetry_space_group_name_H-M "P -1"
_symmetry_group_IT_number 2
_symmetry_cell_setting 'triclinic'
loop_
_space_group_symop_operation_xyz
x,y,z
-x,-y,-z
loop_
_atom_site_type_symbol
_atom_site_label
_atom_site_fract_x
_atom_site_fract_y
_atom_site_fract_z
Si Si1 0.103827 0.077323 0.594673
Si Si2 0.597117 0.632905 0.594663
Si Si3 0.297288 0.439585 0.739591
Si Si4 0.008349 0.617752 0.398693
Si Si5 0.268426 0.815998 0.333636
Si Si6 0.770268 0.112242 0.423150
Si Si7 0.466551 0.183016 0.235383
O O1 0.318500 0.088824 0.464666
O O2 0.960348 0.207465 0.435655
O O3 0.131175 0.003273 0.537781
O O4 0.000000 0.000000 0.000000
O O5 0.678715 0.622432 0.348037
O O6 0.411926 0.727674 0.522862
O O7 0.781892 0.657124 0.513147
O O8 0.500000 0.500000 0.000000
O O9 0.500000 0.500000 0.500000
O O10 0.123954 0.548489 0.619943
O O11 0.324093 0.311178 0.107723
O O12 0.000000 0.500000 0.500000
O O13 0.115721 0.751034 0.981633
O O14 0.254076 0.931867 0.254695
O O15 0.363263 0.806306 0.078679
O O16 0.569393 0.141901 0.420633
#
# Coordination Sequence:
#
# PCOD9110032 Si02
#       7
#     2   2   2   2   2   2   2
#     4  12  28  51  75 108 152 192 252 314 361 438
#     4  10  23  41  66 104 145 184 242 304 358 436
#     4  10  20  41  69 102 140 186 236 299 372 430
#     4  10  22  42  72 103 147 187 244 305 361 444
#     4  11  26  47  73 107 146 193 251 296 371 439
#     4  12  25  48  76 105 147 199 244 300 381 436
#     4  11  26  48  74 109 151 191 247 312 365 440
#
# _framework density 26.622714999999999
#
# number of rings (size 3 to 8) (size 9 to 14) (size 15 to 20)
#    0.000    1.143    2.857    2.571    8.000    1.714 
#    0.000    0.714    0.000    0.000    0.000    0.000 
#    0.000    0.000    0.000    0.000    0.000    0.000 
#
# Total GULP energy -78018.068984 kJ/mol
# GULP energy per Si atom -5572.719213 kJ/mol
# Density = 2.656212 g / cm^3
# Si number density = 26.622715 Si / 1000 Ang^3
#
#
#
# Elastic Constant Matrix: (Units=GPa)
#
#
# Indices 1 2 3 4 5 6 
#
# 1 177.3346 48.5252 14.2929 19.7307 -14.6268 -31.0252
# 2 48.5252 77.1734 17.8224 8.3449 2.5711 -20.2639
# 3 14.2929 17.8224 45.6204 13.9313 -16.0259 9.7242
# 4 19.7307 8.3449 13.9313 36.4898 8.7786 11.7571
# 5 -14.6268 2.5711 -16.0259 8.7786 51.0090 8.7702
# 6 -31.0252 -20.2639 9.7242 11.7571 8.7702 82.1737
#
#
#
# Elastic Compliance Matrix: (Units=1/GPa)
#
#
# Indices 1 2 3 4 5 6 
#
# 1 0.007990 -0.004384 0.001725 -0.005540 0.003640 0.002136
# 2 -0.004384 0.019282 -0.010004 0.001823 -0.006496 0.004716
# 3 0.001725 -0.010004 0.036600 -0.014611 0.016003 -0.005764
# 4 -0.005540 0.001823 -0.014611 0.039932 -0.012404 -0.004303
# 5 0.003640 -0.006496 0.016003 -0.012404 0.028725 -0.003413
# 6 0.002136 0.004716 -0.005764 -0.004303 -0.003413 0.015801
#
#
# Mechanical properties :
#
#
# Convention : Reuss Voigt Hill
#
# Bulk Modulus (GPa) = 25.94254 51.26770 38.60512
# Shear Modulus (GPa) = 26.80908 48.56703 37.68805
#
# Velocity S-wave (km/s) = 3.17677 4.27578 3.76657
# Velocity P-wave (km/s) = 4.81887 6.60873 5.78346
#
# Compressibility (1/GPa) = 0.03854673
#
# Stress axis : x y z
#
# Youngs Moduli (GPa) = 125.15851 51.86182 27.32231
#
# Poissons Ratio (x) = 0.22734 -0.04712
# Poissons Ratio (y) = 0.54864 0.27332
# Poissons Ratio (z) = -0.21585 0.51881
#
# Static dielectric constant tensor:
#      x y z
#    x 2.198510 -0.075680 -0.007770 
#    y -0.075680 2.272520 -0.114910 
#    z -0.007770 -0.114910 1.941000 
# 
# From -- ./inp_files/225461.got.cif
#   From: 2010.05.17/outbox.cif.g08.bks.cpg/sg2_113_cif.got.tgz:225461.got - 2010.06.03 11:33:40.
