data_PCOD9110628
_publ_section_title
;
Structure prediction by ZEFSAII (Michael W. Deem and Ramdas Pophale) SiO2 
 PCOD9110628
Probable space group: P -1
;
_chemical_formula_sum "Si O2"
_cell_formula_units_Z 16
_cell_length_a 8.640803
_cell_length_b 7.254965
_cell_length_c 16.707709
_cell_angle_alpha 115.535270
_cell_angle_beta 140.327453
_cell_angle_gamma 76.779318
_cell_volume 593.595184
_symmetry_space_group_name_H-M "P -1"
_symmetry_group_IT_number 2
_symmetry_cell_setting 'triclinic'
loop_
_space_group_symop_operation_xyz
x,y,z
-x,-y,-z
loop_
_atom_site_type_symbol
_atom_site_label
_atom_site_fract_x
_atom_site_fract_y
_atom_site_fract_z
Si Si1 0.682647 0.690565 0.144500
Si Si2 0.417071 0.225910 0.602696
Si Si3 0.918473 0.823777 0.066717
Si Si4 0.908349 0.205175 0.465686
Si Si5 0.298950 0.640189 0.114115
Si Si6 0.046319 0.469918 0.320508
Si Si7 0.345074 0.142542 0.371600
Si Si8 0.630061 0.132235 0.179271
O O1 0.553038 0.714251 0.183067
O O2 0.941595 0.621543 0.246444
O O3 0.682189 0.902724 0.138886
O O4 0.500000 0.500000 0.000000
O O5 0.621783 0.373613 0.763834
O O6 0.418575 0.203606 0.503779
O O7 0.161475 0.291998 0.535003
O O8 0.454027 0.993149 0.603239
O O9 0.107316 0.797259 0.064002
O O10 0.830572 0.582662 0.011036
O O11 0.660891 0.884254 0.951255
O O12 0.097966 0.971078 0.225691
O O13 0.705967 0.169718 0.309007
O O14 0.856356 0.375307 0.539938
O O15 0.000000 0.000000 0.500000
O O16 0.808766 0.305035 0.229379
O O17 0.248450 0.347924 0.341614
#
# Coordination Sequence:
#
# PCOD9110628 Si02
#       8
#     2   2   2   2   2   2   2   2
#     4  12  26  41  65  99 137 172 226 281 334 395
#     4  10  20  42  64  97 130 179 217 275 329 399
#     4  10  22  40  66  99 131 180 221 273 338 397
#     4  12  23  43  69  98 134 174 228 274 331 402
#     4  10  21  42  66  94 137 176 226 272 329 406
#     4  12  24  43  67  99 135 175 225 277 333 404
#     4  10  23  37  67  98 134 169 225 275 333 392
#     4  12  24  41  69  97 132 180 219 279 335 398
#
# _framework density 26.954395999999999
#
# number of rings (size 3 to 8) (size 9 to 14) (size 15 to 20)
#    0.000    1.000    5.000    1.125    3.500    1.500 
#    0.000    1.875    0.000    0.000    0.000    0.000 
#    0.000    0.000    0.000    0.000    0.000    0.000 
#
# Total GULP energy -89504.093783 kJ/mol
# GULP energy per Si atom -5594.005861 kJ/mol
# Density = 2.689305 g / cm^3
# Si number density = 26.954396 Si / 1000 Ang^3
#
#
#
# Elastic Constant Matrix: (Units=GPa)
#
#
# Indices 1 2 3 4 5 6 
#
# 1 34.8475 39.1111 30.5436 -4.9023 4.6377 -16.7686
# 2 39.1111 161.0670 47.7656 -12.4137 12.5767 -18.2350
# 3 30.5436 47.7656 196.2326 1.1747 -1.9208 1.2553
# 4 -4.9023 -12.4137 1.1747 57.8038 -5.3610 9.5951
# 5 4.6377 12.5767 -1.9208 -5.3610 33.1408 1.1748
# 6 -16.7686 -18.2350 1.2553 9.5951 1.1748 41.3869
#
#
#
# Elastic Compliance Matrix: (Units=1/GPa)
#
#
# Indices 1 2 3 4 5 6 
#
# 1 0.053426 -0.008644 -0.006377 -0.000737 -0.005335 0.018353
# 2 -0.008644 0.008813 -0.000827 0.000947 -0.002038 0.000244
# 3 -0.006377 -0.000827 0.006327 -0.000171 0.001657 -0.003147
# 4 -0.000737 0.000947 -0.000171 0.018411 0.002862 -0.004226
# 5 -0.005335 -0.002038 0.001657 0.002862 0.032420 -0.004694
# 6 0.018353 0.000244 -0.003147 -0.004226 -0.004694 0.032914
#
#
# Mechanical properties :
#
#
# Convention : Reuss Voigt Hill
#
# Bulk Modulus (GPa) = 27.12262 69.66529 48.39396
# Shear Modulus (GPa) = 25.47169 44.78142 35.12656
#
# Velocity S-wave (km/s) = 3.07741 4.08042 3.61388
# Velocity P-wave (km/s) = 4.76566 6.93553 5.95034
#
# Compressibility (1/GPa) = 0.03686959
#
# Stress axis : x y z
#
# Youngs Moduli (GPa) = 18.71757 113.47431 158.04890
#
# Poissons Ratio (x) = 0.98092 1.00784
# Poissons Ratio (y) = 0.16180 0.13067
# Poissons Ratio (z) = 0.11936 0.09382
#
# Static dielectric constant tensor:
#      x y z
#    x 2.223770 0.018680 -0.003960 
#    y 0.018680 2.131200 0.008750 
#    z -0.003960 0.008750 2.066160 
# 
# From -- ./inp_files/594217.got.cif
#   From: 2010.05.17/outbox.cif.g08.bks.cpg/sg2_298_cif.got.tgz:594217.got - 2010.06.03 11:33:40.
