data_PCOD9110711
_publ_section_title
;
Structure prediction by ZEFSAII (Michael W. Deem and Ramdas Pophale) SiO2 
 PCOD9110711
Probable space group: P -1
;
_chemical_formula_sum "Si O2"
_cell_formula_units_Z 16
_cell_length_a 9.572291
_cell_length_b 13.407211
_cell_length_c 10.823769
_cell_angle_alpha 58.075198
_cell_angle_beta 140.512851
_cell_angle_gamma 102.170235
_cell_volume 697.834899
_symmetry_space_group_name_H-M "P -1"
_symmetry_group_IT_number 2
_symmetry_cell_setting 'triclinic'
loop_
_space_group_symop_operation_xyz
x,y,z
-x,-y,-z
loop_
_atom_site_type_symbol
_atom_site_label
_atom_site_fract_x
_atom_site_fract_y
_atom_site_fract_z
Si Si1 0.596200 0.997030 0.927236
Si Si2 0.928844 0.641968 0.074909
Si Si3 0.659737 0.575744 0.435144
Si Si4 0.475244 0.424068 0.224406
Si Si5 0.075079 0.118944 0.444560
Si Si6 0.194423 0.796962 0.045138
Si Si7 0.289243 0.285835 0.862484
Si Si8 0.247201 0.679756 0.749657
O O1 0.352701 0.068073 0.641679
O O2 0.713922 0.852553 0.064112
O O3 0.500000 0.000000 0.000000
O O4 0.768239 0.074000 0.984300
O O5 0.136821 0.507953 0.280614
O O6 0.868679 0.642603 0.178223
O O7 0.028670 0.751555 0.047637
O O8 0.696057 0.654066 0.830718
O O9 0.552308 0.479448 0.360814
O O10 0.752701 0.635473 0.344054
O O11 0.452989 0.688916 0.283468
O O12 0.699188 0.349277 0.339193
O O13 0.317736 0.546073 0.955187
O O14 0.922067 0.189899 0.177853
O O15 0.997480 0.217757 0.440093
O O16 0.000000 0.000000 0.500000
O O17 0.554701 0.268352 0.098426
#
# Coordination Sequence:
#
# PCOD9110711 Si02
#       8
#     2   2   2   2   2   2   2   2
#     4  12  23  40  69  93 120 164 214 263 303 357
#     4  11  26  40  63  92 133 167 196 258 326 357
#     4  11  21  42  65  94 125 161 217 252 298 384
#     4   9  20  37  61  88 125 160 199 253 310 358
#     4  12  21  40  67  90 120 164 208 260 305 356
#     4  12  26  43  59  98 129 160 213 255 306 381
#     4  10  20  42  65  96 123 157 219 258 294 383
#     4   9  17  36  62  94 119 153 210 257 295 369
#
# _framework density 22.928059000000001
#
# number of rings (size 3 to 8) (size 9 to 14) (size 15 to 20)
#    0.000    1.250    6.250    1.500    1.750    3.000 
#    0.000    0.625    0.000    0.000    0.000    0.000 
#    0.000    0.000    0.000    0.000    0.000    0.000 
#
# Total GULP energy -89563.078690 kJ/mol
# GULP energy per Si atom -5597.692418 kJ/mol
# Density = 2.287587 g / cm^3
# Si number density = 22.928059 Si / 1000 Ang^3
#
#
#
# Elastic Constant Matrix: (Units=GPa)
#
#
# Indices 1 2 3 4 5 6 
#
# 1 55.9733 24.8937 3.7373 -5.4397 5.2629 21.7522
# 2 24.8937 139.5951 11.2523 -0.0771 8.2294 15.4632
# 3 3.7373 11.2523 58.9511 -4.3363 12.2490 -0.1004
# 4 -5.4397 -0.0771 -4.3363 31.0431 -3.5956 9.0505
# 5 5.2629 8.2294 12.2490 -3.5956 16.8167 -3.0156
# 6 21.7522 15.4632 -0.1004 9.0505 -3.0156 40.6201
#
#
#
# Elastic Compliance Matrix: (Units=1/GPa)
#
#
# Indices 1 2 3 4 5 6 
#
# 1 0.026791 -0.002576 0.001280 0.008455 -0.009104 -0.015923
# 2 -0.002576 0.008065 -0.000788 -0.000350 -0.002971 -0.001835
# 3 0.001280 -0.000788 0.020216 0.001885 -0.014667 -0.001844
# 4 0.008455 -0.000350 0.001885 0.037884 0.001978 -0.012684
# 5 -0.009104 -0.002971 -0.014667 0.001978 0.076889 0.011237
# 6 -0.015923 -0.001835 -0.001844 -0.012684 0.011237 0.037499
#
#
# Mechanical properties :
#
#
# Convention : Reuss Voigt Hill
#
# Bulk Modulus (GPa) = 19.64491 37.14289 28.39390
# Shear Modulus (GPa) = 21.88382 32.00507 26.94444
#
# Velocity S-wave (km/s) = 3.09278 3.74022 3.43180
# Velocity P-wave (km/s) = 4.61956 5.90654 5.30224
#
# Compressibility (1/GPa) = 0.05090378
#
# Stress axis : x y z
#
# Youngs Moduli (GPa) = 37.32568 123.99886 49.46687
#
# Poissons Ratio (x) = 0.31937 -0.06329
# Poissons Ratio (y) = 0.09614 0.03896
# Poissons Ratio (z) = -0.04776 0.09767
#
# Static dielectric constant tensor:
#      x y z
#    x 1.864850 0.028430 0.011420 
#    y 0.028430 1.878520 0.034410 
#    z 0.011420 0.034410 1.881130 
# 
# From -- ./inp_files/398694.got.cif
#   From: 2010.05.17/outbox.cif.g08.bks.cpg/sg2_200_cif.got.tgz:398694.got - 2010.06.03 11:33:40.
