data_PCOD9110063
_publ_section_title
;
Structure prediction by ZEFSAII (Michael W. Deem and Ramdas Pophale) SiO2 
 PCOD9110063
Probable space group: P -1
;
_chemical_formula_sum "Si O2"
_cell_formula_units_Z 16
_cell_length_a 7.950135
_cell_length_b 11.305644
_cell_length_c 9.346328
_cell_angle_alpha 134.933212
_cell_angle_beta 82.971710
_cell_angle_gamma 87.050777
_cell_volume 578.761094
_symmetry_space_group_name_H-M "P -1"
_symmetry_group_IT_number 2
_symmetry_cell_setting 'triclinic'
loop_
_space_group_symop_operation_xyz
x,y,z
-x,-y,-z
loop_
_atom_site_type_symbol
_atom_site_label
_atom_site_fract_x
_atom_site_fract_y
_atom_site_fract_z
Si Si1 0.799567 0.859687 0.916021
Si Si2 0.428031 0.949495 0.685978
Si Si3 0.448225 0.581134 0.891035
Si Si4 0.172390 0.527523 0.369601
Si Si5 0.297117 0.893713 0.358638
Si Si6 0.378502 0.681784 0.680102
Si Si7 0.906719 0.098669 0.879274
Si Si8 0.899815 0.496800 0.155931
O O1 0.921945 0.946201 0.080973
O O2 0.637985 0.888374 0.067749
O O3 0.834892 0.656538 0.716826
O O4 0.794224 0.977361 0.876445
O O5 0.295919 0.910917 0.543403
O O6 0.458453 0.805837 0.680028
O O7 0.591231 0.974839 0.601273
O O8 0.648493 0.503056 0.770255
O O9 0.376951 0.705540 0.869205
O O10 0.309156 0.454236 0.795911
O O11 0.401464 0.704373 0.137661
O O12 0.201913 0.657321 0.602345
O O13 0.005962 0.583851 0.335224
O O14 0.128045 0.932202 0.310244
O O15 0.500000 0.500000 0.500000
O O16 0.925767 0.300157 0.033191
O O17 0.000000 0.500000 0.000000
#
# Coordination Sequence:
#
# PCOD9110063 Si02
#       8
#     2   2   2   2   2   2   2   2
#     4  10  20  41  69  92 120 169 211 263 316 367
#     4  11  22  38  65  93 125 164 210 259 316 382
#     4  10  21  43  65  93 123 171 216 257 318 379
#     4  10  22  41  68  94 131 165 211 271 318 374
#     4  10  22  37  63  95 125 163 211 258 317 377
#     4  10  24  41  62  99 126 162 220 262 316 387
#     4   9  21  38  64  93 123 161 219 258 310 382
#     4  10  22  39  62  96 130 168 211 257 325 390
#
# _framework density 27.64526
#
# number of rings (size 3 to 8) (size 9 to 14) (size 15 to 20)
#    0.000    2.000    1.250    1.500    7.000    2.500 
#    2.250    0.000    0.000    0.000    0.000    0.000 
#    0.000    0.000    0.000    0.000    0.000    0.000 
#
# Total GULP energy -89275.338406 kJ/mol
# GULP energy per Si atom -5579.708650 kJ/mol
# Density = 2.758234 g / cm^3
# Si number density = 27.645260 Si / 1000 Ang^3
#
#
#
# Elastic Constant Matrix: (Units=GPa)
#
#
# Indices 1 2 3 4 5 6 
#
# 1 114.4025 31.8435 27.3581 -8.1052 34.4897 31.9457
# 2 31.8435 75.5877 21.6107 -21.8077 -12.0798 17.4685
# 3 27.3581 21.6107 89.2495 -26.0242 17.5365 13.5036
# 4 -8.1052 -21.8077 -26.0242 49.1291 5.5228 -0.5772
# 5 34.4897 -12.0798 17.5365 5.5228 48.5745 -5.4953
# 6 31.9457 17.4685 13.5036 -0.5772 -5.4953 35.9586
#
#
#
# Elastic Compliance Matrix: (Units=1/GPa)
#
#
# Indices 1 2 3 4 5 6 
#
# 1 0.023574 -0.008416 0.004059 0.004666 -0.023300 -0.021864
# 2 -0.008416 0.020932 -0.003570 0.004669 0.012002 0.000558
# 3 0.004059 -0.003570 0.017638 0.009702 -0.012398 -0.010234
# 4 0.004666 0.004669 0.009702 0.029358 -0.010254 -0.011152
# 5 -0.023300 0.012002 -0.012398 -0.010254 0.048792 0.026817
# 6 -0.021864 0.000558 -0.010234 -0.011152 0.026817 0.054726
#
#
# Mechanical properties :
#
#
# Convention : Reuss Voigt Hill
#
# Bulk Modulus (GPa) = 21.60332 48.98494 35.29413
# Shear Modulus (GPa) = 22.09423 39.96091 31.02757
#
# Velocity S-wave (km/s) = 2.83009 3.80608 3.35378
# Velocity P-wave (km/s) = 4.30240 6.08873 5.27178
#
# Compressibility (1/GPa) = 0.04628918
#
# Stress axis : x y z
#
# Youngs Moduli (GPa) = 42.42044 47.77344 56.69475
#
# Poissons Ratio (x) = 0.40207 -0.23010
# Poissons Ratio (y) = 0.35701 0.20239
# Poissons Ratio (z) = -0.17217 0.17054
#
# Static dielectric constant tensor:
#      x y z
#    x 2.687060 -0.044340 -0.372390 
#    y -0.044340 2.165070 0.029130 
#    z -0.372390 0.029130 2.642870 
# 
# From -- ./inp_files/182588.got.cif
#   From: 2010.05.17/outbox.cif.g08.bks.cpg/sg2_92_cif.got.tgz:182588.got - 2010.06.03 11:33:40.
