data_PCOD9110365
_publ_section_title
;
Structure prediction by ZEFSAII (Michael W. Deem and Ramdas Pophale) SiO2 
 PCOD9110365
Probable space group: P -1
;
_chemical_formula_sum "Si O2"
_cell_formula_units_Z 16
_cell_length_a 15.925571
_cell_length_b 14.954015
_cell_length_c 14.542765
_cell_angle_alpha 152.502762
_cell_angle_beta 140.940723
_cell_angle_gamma 29.073595
_cell_volume 777.024538
_symmetry_space_group_name_H-M "P -1"
_symmetry_group_IT_number 2
_symmetry_cell_setting 'triclinic'
loop_
_space_group_symop_operation_xyz
x,y,z
-x,-y,-z
loop_
_atom_site_type_symbol
_atom_site_label
_atom_site_fract_x
_atom_site_fract_y
_atom_site_fract_z
Si Si1 0.195697 0.758588 0.916048
Si Si2 0.390372 0.937617 0.469816
Si Si3 0.494226 0.253681 0.812627
Si Si4 0.695343 0.326018 0.539798
Si Si5 0.295860 0.564730 0.634648
Si Si6 0.841877 0.979880 0.176243
Si Si7 0.855724 0.509828 0.738885
Si Si8 0.853811 0.013961 0.562878
O O1 0.315383 0.533024 0.888043
O O2 0.179837 0.660665 0.716178
O O3 0.342517 0.785674 0.040609
O O4 0.000000 0.000000 0.000000
O O5 0.421259 0.882138 0.337648
O O6 0.522869 0.675650 0.394539
O O7 0.211023 0.030505 0.441442
O O8 0.436678 0.116732 0.692726
O O9 0.500000 0.500000 0.500000
O O10 0.801027 0.087489 0.343087
O O11 0.769283 0.471849 0.714844
O O12 0.717273 0.232135 0.575625
O O13 0.292847 0.781499 0.785706
O O14 0.236277 0.479791 0.423685
O O15 0.018235 0.927650 0.252285
O O16 0.847621 0.746167 0.958015
O O17 0.045071 0.244439 0.644266
#
# Coordination Sequence:
#
# PCOD9110365 Si02
#       8
#     2   2   2   2   2   2   2   2
#     4  10  21  39  65  92 127 164 210 265 321 371
#     4  10  20  42  59  84 129 161 204 262 312 367
#     4   9  22  40  61  93 125 167 211 261 316 380
#     4  10  21  40  62  89 124 161 198 253 306 363
#     4   9  21  39  59  90 121 160 203 257 303 365
#     4  10  22  39  61  90 126 157 205 253 301 376
#     4  10  22  39  60  90 125 156 211 247 301 382
#     4  10  21  38  63  88 122 161 199 257 309 358
#
# _framework density 20.591370999999999
#
# number of rings (size 3 to 8) (size 9 to 14) (size 15 to 20)
#    0.000    2.500    0.000    3.000    5.250    3.500 
#    6.750    3.125    0.000    0.000    0.000    0.000 
#    0.000    0.000    0.000    0.000    0.000    0.000 
#
# Total GULP energy -89125.101411 kJ/mol
# GULP energy per Si atom -5570.318838 kJ/mol
# Density = 2.054450 g / cm^3
# Si number density = 20.591371 Si / 1000 Ang^3
#
#
#
# Elastic Constant Matrix: (Units=GPa)
#
#
# Indices 1 2 3 4 5 6 
#
# 1 111.4654 26.8776 43.1820 4.7569 19.4532 -11.6115
# 2 26.8776 58.7788 18.6192 4.2935 14.5109 -7.9511
# 3 43.1820 18.6192 118.6822 15.9446 40.6816 0.5728
# 4 4.7569 4.2935 15.9446 23.6355 10.1449 -2.9777
# 5 19.4532 14.5109 40.6816 10.1449 29.1271 -2.6612
# 6 -11.6115 -7.9511 0.5728 -2.9777 -2.6612 31.8993
#
#
#
# Elastic Compliance Matrix: (Units=1/GPa)
#
#
# Indices 1 2 3 4 5 6 
#
# 1 0.011710 -0.003542 -0.003414 0.001697 -0.001561 0.003469
# 2 -0.003542 0.021037 0.001238 0.000655 -0.009782 0.003177
# 3 -0.003414 0.001238 0.017372 -0.002166 -0.022147 -0.003296
# 4 0.001697 0.000655 -0.002166 0.050565 -0.015659 0.004234
# 5 -0.001561 -0.009782 -0.022147 -0.015659 0.076848 0.002340
# 6 0.003469 0.003177 -0.003296 0.004234 0.002340 0.034053
#
#
# Mechanical properties :
#
#
# Convention : Reuss Voigt Hill
#
# Bulk Modulus (GPa) = 25.85148 51.80933 38.83041
# Shear Modulus (GPa) = 21.19396 30.28223 25.73810
#
# Velocity S-wave (km/s) = 3.21170 3.83904 3.53929
# Velocity P-wave (km/s) = 5.13177 6.69823 5.96663
#
# Compressibility (1/GPa) = 0.03868250
#
# Stress axis : x y z
#
# Youngs Moduli (GPa) = 85.39944 47.53451 57.56282
#
# Poissons Ratio (x) = 0.16838 0.19654
# Poissons Ratio (y) = 0.30250 -0.07127
# Poissons Ratio (z) = 0.29159 -0.05886
#
# Static dielectric constant tensor:
#      x y z
#    x 1.758930 -0.024550 -0.018130 
#    y -0.024550 1.810280 -0.014700 
#    z -0.018130 -0.014700 1.780910 
# 
# From -- ./inp_files/534604.got.cif
#   From: 2010.05.17/outbox.cif.g08.bks.cpg/sg2_268_cif.got.tgz:534604.got - 2010.06.03 11:33:40.
