data_PCOD9110794
_publ_section_title
;
Structure prediction by ZEFSAII (Michael W. Deem and Ramdas Pophale) SiO2 
 PCOD9110794
Probable space group: P -1
;
_chemical_formula_sum "Si O2"
_cell_formula_units_Z 16
_cell_length_a 13.691188
_cell_length_b 13.275323
_cell_length_c 8.103641
_cell_angle_alpha 92.243572
_cell_angle_beta 126.382492
_cell_angle_gamma 45.957797
_cell_volume 651.426928
_symmetry_space_group_name_H-M "P -1"
_symmetry_group_IT_number 2
_symmetry_cell_setting 'triclinic'
loop_
_space_group_symop_operation_xyz
x,y,z
-x,-y,-z
loop_
_atom_site_type_symbol
_atom_site_label
_atom_site_fract_x
_atom_site_fract_y
_atom_site_fract_z
Si Si1 0.744208 0.424989 0.206919
Si Si2 0.770768 0.855318 0.344723
Si Si3 0.177722 0.034697 0.101478
Si Si4 0.709229 0.404994 0.798442
Si Si5 0.090846 0.871435 0.433651
Si Si6 0.660078 0.867542 0.879179
Si Si7 0.417684 0.796607 0.823935
Si Si8 0.363166 0.318150 0.282716
O O1 0.806045 0.302757 0.402698
O O2 0.970318 0.324286 0.377888
O O3 0.676777 0.420998 0.964908
O O4 0.546291 0.637707 0.072215
O O5 0.608024 0.943591 0.341170
O O6 0.711030 0.013460 0.246702
O O7 0.733328 0.813893 0.142370
O O8 0.952631 0.192159 0.992563
O O9 0.101980 0.013780 0.878590
O O10 0.238265 0.100736 0.087881
O O11 0.400238 0.849643 0.402776
O O12 0.500000 0.500000 0.500000
O O13 0.733044 0.505252 0.766813
O O14 0.280724 0.816531 0.568414
O O15 0.000000 0.000000 0.500000
O O16 0.728605 0.732493 0.808764
O O17 0.606730 0.702350 0.885970
#
# Coordination Sequence:
#
# PCOD9110794 Si02
#       8
#     2   2   2   2   2   2   2   2
#     4  11  22  42  64  94 129 167 211 266 322 376
#     4  10  20  42  66  92 131 165 213 266 324 372
#     4  12  24  43  67  95 130 171 214 260 320 380
#     4  11  26  44  66  97 131 171 212 260 323 384
#     4  12  24  40  66  97 129 166 215 267 322 378
#     4  10  21  42  66  95 127 168 219 264 313 379
#     4  10  21  40  63  96 127 169 213 263 321 380
#     4  10  24  42  66  92 130 173 212 263 318 377
#
# _framework density 24.561465999999999
#
# number of rings (size 3 to 8) (size 9 to 14) (size 15 to 20)
#    0.000    1.250    2.500    3.750    1.750    1.500 
#    2.250   13.750    0.000    0.000    0.000    0.000 
#    0.000    0.000    0.000    0.000    0.000    0.000 
#
# Total GULP energy -89252.411309 kJ/mol
# GULP energy per Si atom -5578.275707 kJ/mol
# Density = 2.450556 g / cm^3
# Si number density = 24.561466 Si / 1000 Ang^3
#
#
#
# Elastic Constant Matrix: (Units=GPa)
#
#
# Indices 1 2 3 4 5 6 
#
# 1 60.2201 3.7300 1.9862 6.0007 16.4403 9.5076
# 2 3.7300 94.6042 50.9955 3.1624 -1.9469 18.8244
# 3 1.9862 50.9955 114.0173 9.4189 5.5079 23.7765
# 4 6.0007 3.1624 9.4189 34.8600 5.0714 8.5081
# 5 16.4403 -1.9469 5.5079 5.0714 36.0177 3.1945
# 6 9.5076 18.8244 23.7765 8.5081 3.1945 33.0595
#
#
#
# Elastic Compliance Matrix: (Units=1/GPa)
#
#
# Indices 1 2 3 4 5 6 
#
# 1 0.019948 -0.000739 0.001616 -0.001234 -0.008747 -0.005316
# 2 -0.000739 0.014620 -0.005800 0.001126 0.002250 -0.004448
# 3 0.001616 -0.005800 0.012766 -0.001466 -0.002287 -0.005745
# 4 -0.001234 0.001126 -0.001466 0.031332 -0.002942 -0.007011
# 5 -0.008747 0.002250 -0.002287 -0.002942 0.032599 0.000486
# 6 -0.005316 -0.004448 -0.005745 -0.007011 0.000486 0.040199
#
#
# Mechanical properties :
#
#
# Convention : Reuss Voigt Hill
#
# Bulk Modulus (GPa) = 26.67468 42.47390 34.57429
# Shear Modulus (GPa) = 28.76757 34.92943 31.84850
#
# Velocity S-wave (km/s) = 3.42606 3.77520 3.60486
# Velocity P-wave (km/s) = 5.15116 6.02771 5.60659
#
# Compressibility (1/GPa) = 0.03748873
#
# Stress axis : x y z
#
# Youngs Moduli (GPa) = 50.12921 68.40079 78.33099
#
# Poissons Ratio (x) = 0.05052 -0.12657
# Poissons Ratio (y) = 0.03702 0.45433
# Poissons Ratio (z) = -0.08100 0.39674
#
# Static dielectric constant tensor:
#      x y z
#    x 5.509640 0.342630 4.161800 
#    y 0.342630 2.148910 0.405680 
#    z 4.161800 0.405680 6.956330 
# 
# From -- ./inp_files/315346.got.cif
#   From: 2010.05.17/outbox.cif.g08.bks.cpg/sg2_158_cif.got.tgz:315346.got - 2010.06.03 11:33:40.
