data_PCOD9110964
_publ_section_title
;
Structure prediction by ZEFSAII (Michael W. Deem and Ramdas Pophale) SiO2 
 PCOD9110964
Probable space group: P -1
;
_chemical_formula_sum "Si O2"
_cell_formula_units_Z 16
_cell_length_a 9.095321
_cell_length_b 19.434608
_cell_length_c 10.379117
_cell_angle_alpha 131.465098
_cell_angle_beta 56.745323
_cell_angle_gamma 149.774870
_cell_volume 690.703543
_symmetry_space_group_name_H-M "P -1"
_symmetry_group_IT_number 2
_symmetry_cell_setting 'triclinic'
loop_
_space_group_symop_operation_xyz
x,y,z
-x,-y,-z
loop_
_atom_site_type_symbol
_atom_site_label
_atom_site_fract_x
_atom_site_fract_y
_atom_site_fract_z
Si Si1 0.083241 0.766552 0.977278
Si Si2 0.944588 0.973511 0.303469
Si Si3 0.945950 0.500661 0.737275
Si Si4 0.635079 0.063183 0.215343
Si Si5 0.477210 0.196556 0.468808
Si Si6 0.165210 0.874667 0.544680
Si Si7 0.439463 0.335772 0.976821
Si Si8 0.290108 0.474442 0.657201
O O1 0.209336 0.861412 0.902200
O O2 0.074889 0.653492 0.832600
O O3 0.761751 0.677715 0.026799
O O4 0.309602 0.888782 0.132292
O O5 0.756549 0.870658 0.394305
O O6 0.946049 0.082622 0.422257
O O7 0.767356 0.839987 0.120129
O O8 0.283872 0.091483 0.307088
O O9 0.734124 0.377019 0.570723
O O10 0.167721 0.512702 0.687507
O O11 0.727361 0.426217 0.871531
O O12 0.611737 0.156616 0.397659
O O13 0.825755 0.093818 0.269515
O O14 0.974764 0.704931 0.401101
O O15 0.500000 0.000000 0.500000
O O16 0.541258 0.423273 0.169146
O O17 0.500000 0.500000 0.500000
#
# Coordination Sequence:
#
# PCOD9110964 Si02
#       8
#     2   2   2   2   2   2   2   2
#     4  11  26  43  70 101 141 191 230 296 357 409
#     4  10  22  39  69 103 132 181 229 294 342 410
#     4  11  25  44  73 100 137 192 234 286 354 418
#     4  11  23  45  65  98 145 178 241 292 346 421
#     4  10  20  42  67  98 139 170 242 286 338 419
#     4  12  24  43  73 101 136 193 233 287 353 422
#     4  11  24  45  70 106 141 177 242 296 341 428
#     4  12  28  48  68 109 149 180 233 301 359 426
#
# _framework density 23.164787
#
# number of rings (size 3 to 8) (size 9 to 14) (size 15 to 20)
#    0.000    1.000    3.750    2.250    5.250    1.500 
#    0.000    1.250    0.000    0.000    0.000    0.000 
#    0.000    0.000    0.000    0.000    0.000    0.000 
#
# Total GULP energy -89457.137441 kJ/mol
# GULP energy per Si atom -5591.071090 kJ/mol
# Density = 2.311206 g / cm^3
# Si number density = 23.164787 Si / 1000 Ang^3
#
#
#
# Elastic Constant Matrix: (Units=GPa)
#
#
# Indices 1 2 3 4 5 6 
#
# 1 70.4555 15.2908 6.6744 5.0712 -18.8681 7.1427
# 2 15.2908 69.2423 34.2259 7.8703 -8.2232 8.3986
# 3 6.6744 34.2259 109.3698 21.0795 4.8070 11.9251
# 4 5.0712 7.8703 21.0795 47.7047 6.4218 -6.4565
# 5 -18.8681 -8.2232 4.8070 6.4218 47.7289 1.8593
# 6 7.1427 8.3986 11.9251 -6.4565 1.8593 28.1336
#
#
#
# Elastic Compliance Matrix: (Units=1/GPa)
#
#
# Indices 1 2 3 4 5 6 
#
# 1 0.017282 -0.002240 0.000550 -0.003361 0.007045 -0.005189
# 2 -0.002240 0.018399 -0.005133 -0.001392 0.003116 -0.003274
# 3 0.000550 -0.005133 0.012297 -0.005177 -0.001016 -0.004941
# 4 -0.003361 -0.001392 -0.005177 0.025811 -0.004898 0.009711
# 5 0.007045 0.003116 -0.001016 -0.004898 0.025233 -0.005080
# 6 -0.005189 -0.003274 -0.004941 0.009711 -0.005080 0.042498
#
#
# Mechanical properties :
#
#
# Convention : Reuss Voigt Hill
#
# Bulk Modulus (GPa) = 29.12642 40.16108 34.64375
# Shear Modulus (GPa) = 30.01024 37.57187 33.79106
#
# Velocity S-wave (km/s) = 3.60323 4.03170 3.82347
# Velocity P-wave (km/s) = 5.46917 6.24880 5.87194
#
# Compressibility (1/GPa) = 0.03433309
#
# Stress axis : x y z
#
# Youngs Moduli (GPa) = 57.86337 54.35013 81.31910
#
# Poissons Ratio (x) = 0.12176 -0.04476
# Poissons Ratio (y) = 0.12963 0.41740
# Poissons Ratio (z) = -0.03185 0.27897
#
# Static dielectric constant tensor:
#      x y z
#    x 1.863200 -0.008140 0.031210 
#    y -0.008140 1.902850 -0.029670 
#    z 0.031210 -0.029670 1.891130 
# 
# From -- ./inp_files/404914.got.cif
#   From: 2010.05.17/outbox.cif.g08.bks.cpg/sg2_203_cif.got.tgz:404914.got - 2010.06.03 11:33:40.
