data_PCOD9110615
_publ_section_title
;
Structure prediction by ZEFSAII (Michael W. Deem and Ramdas Pophale) SiO2 
 PCOD9110615
Probable space group: P -1
;
_chemical_formula_sum "Si O2"
_cell_formula_units_Z 12
_cell_length_a 12.362518
_cell_length_b 9.237471
_cell_length_c 10.051391
_cell_angle_alpha 80.672823
_cell_angle_beta 60.046773
_cell_angle_gamma 36.590500
_cell_volume 525.649969
_symmetry_space_group_name_H-M "P -1"
_symmetry_group_IT_number 2
_symmetry_cell_setting 'triclinic'
loop_
_space_group_symop_operation_xyz
x,y,z
-x,-y,-z
loop_
_atom_site_type_symbol
_atom_site_label
_atom_site_fract_x
_atom_site_fract_y
_atom_site_fract_z
Si Si1 0.263735 0.187991 0.262843
Si Si2 0.870600 0.898602 0.157106
Si Si3 0.542059 0.519478 0.822053
Si Si4 0.396435 0.374670 0.837287
Si Si5 0.018688 0.710846 0.364521
Si Si6 0.388049 0.125685 0.693538
O O1 0.109881 0.473438 0.264161
O O2 0.104899 0.232438 0.437800
O O3 0.459162 0.888960 0.121342
O O4 0.414429 0.124377 0.289599
O O5 0.823888 0.773568 0.173208
O O6 0.845433 0.949703 0.324157
O O7 0.679519 0.172032 0.145694
O O8 0.138566 0.672136 0.998019
O O9 0.550507 0.367074 0.745958
O O10 0.777032 0.381138 0.707751
O O11 0.500000 0.500000 0.000000
O O12 0.356779 0.323158 0.733009
O O13 0.500000 0.000000 0.500000
#
# Coordination Sequence:
#
# PCOD9110615 Si02
#       6
#     2   2   2   2   2   2
#     4   9  22  43  63  99 125 167 222 263 324 372
#     4  12  22  42  69  94 130 176 216 266 327 378
#     4  12  25  43  64  96 139 170 213 268 327 389
#     4  10  23  41  64  98 132 168 220 261 328 389
#     4  11  22  42  72  89 135 174 209 275 319 385
#     4  10  20  42  64  95 129 163 221 268 315 376
#
# _framework density 22.828878
#
# number of rings (size 3 to 8) (size 9 to 14) (size 15 to 20)
#    1.000    0.333    5.000    1.000    0.000    1.333 
#    6.000    3.333    0.000    0.000    0.000    0.000 
#    0.000    0.000    0.000    0.000    0.000    0.000 
#
# Total GULP energy -66818.495748 kJ/mol
# GULP energy per Si atom -5568.207979 kJ/mol
# Density = 2.277692 g / cm^3
# Si number density = 22.828878 Si / 1000 Ang^3
#
#
#
# Elastic Constant Matrix: (Units=GPa)
#
#
# Indices 1 2 3 4 5 6 
#
# 1 164.3110 48.4127 34.9251 -11.6138 -30.0084 9.6362
# 2 48.4127 104.7739 3.2007 -3.8239 1.0976 -18.4745
# 3 34.9251 3.2007 50.0622 -1.9148 -16.5719 -1.3257
# 4 -11.6138 -3.8239 -1.9148 22.5728 -2.9372 5.0790
# 5 -30.0084 1.0976 -16.5719 -2.9372 42.2858 6.7270
# 6 9.6362 -18.4745 -1.3257 5.0790 6.7270 40.9961
#
#
#
# Elastic Compliance Matrix: (Units=1/GPa)
#
#
# Indices 1 2 3 4 5 6 
#
# 1 0.011463 -0.006375 -0.004813 0.007268 0.008187 -0.007967
# 2 -0.006375 0.014007 0.001687 -0.003630 -0.005957 0.009292
# 3 -0.004813 0.001687 0.025350 0.000404 0.006243 0.001637
# 4 0.007268 -0.003630 0.000404 0.051449 0.010810 -0.011479
# 5 0.008187 -0.005957 0.006243 0.010810 0.034629 -0.011428
# 6 -0.007967 0.009292 0.001637 -0.011479 -0.011428 0.033803
#
#
# Mechanical properties :
#
#
# Convention : Reuss Voigt Hill
#
# Bulk Modulus (GPa) = 31.42708 54.69157 43.05932
# Shear Modulus (GPa) = 24.96147 36.67820 30.81984
#
# Velocity S-wave (km/s) = 3.31027 4.01266 3.67827
# Velocity P-wave (km/s) = 5.32980 6.74372 6.07802
#
# Compressibility (1/GPa) = 0.03181969
#
# Stress axis : x y z
#
# Youngs Moduli (GPa) = 87.23422 71.39305 39.44733
#
# Poissons Ratio (x) = 0.45514 0.18985
# Poissons Ratio (y) = 0.55613 -0.06656
# Poissons Ratio (z) = 0.41983 -0.12046
#
# Static dielectric constant tensor:
#      x y z
#    x 1.893930 0.099720 0.001070 
#    y 0.099720 2.033560 0.005850 
#    z 0.001070 0.005850 1.919750 
# 
# From -- ./inp_files/381618.got.cif
#   From: 2010.05.17/outbox.cif.g08.bks.cpg/sg2_191_cif.got.tgz:381618.got - 2010.06.03 11:33:40.
