data_PCOD9110006
_publ_section_title
;
Structure prediction by ZEFSAII (Michael W. Deem and Ramdas Pophale) SiO2 
 PCOD9110006
Probable space group: P -1
;
_chemical_formula_sum "Si O2"
_cell_formula_units_Z 16
_cell_length_a 7.775234
_cell_length_b 12.116273
_cell_length_c 13.129481
_cell_angle_alpha 53.292580
_cell_angle_beta 117.279770
_cell_angle_gamma 139.967206
_cell_volume 637.828921
_symmetry_space_group_name_H-M "P -1"
_symmetry_group_IT_number 2
_symmetry_cell_setting 'triclinic'
loop_
_space_group_symop_operation_xyz
x,y,z
-x,-y,-z
loop_
_atom_site_type_symbol
_atom_site_label
_atom_site_fract_x
_atom_site_fract_y
_atom_site_fract_z
Si Si1 0.293965 0.178338 0.400114
Si Si2 0.927892 0.346228 0.984020
Si Si3 0.107644 0.326008 0.407314
Si Si4 0.492458 0.749238 0.203898
Si Si5 0.660404 0.672654 0.869218
Si Si6 0.310774 0.726778 0.772596
Si Si7 0.994383 0.840793 0.334471
Si Si8 0.450529 0.891947 0.323337
O O1 0.119765 0.194024 0.414858
O O2 0.435690 0.351061 0.260734
O O3 0.463196 0.168778 0.528708
O O4 0.142502 0.003319 0.374888
O O5 0.109277 0.501213 0.857135
O O6 0.625843 0.216346 0.938064
O O7 0.051748 0.259694 0.092187
O O8 0.000000 0.500000 0.000000
O O9 0.302580 0.523195 0.290744
O O10 0.185552 0.341086 0.536861
O O11 0.814385 0.256292 0.368058
O O12 0.791125 0.840215 0.221083
O O13 0.452648 0.810039 0.265146
O O14 0.596573 0.793407 0.827006
O O15 0.500000 0.500000 0.000000
O O16 0.342913 0.878611 0.765849
O O17 0.180710 0.833764 0.321848
#
# Coordination Sequence:
#
# PCOD9110006 Si02
#       8
#     2   2   2   2   2   2   2   2
#     4  12  22  41  73 101 139 183 235 284 349 423
#     4  10  23  48  71  94 130 191 243 283 343 411
#     4  11  22  41  64 102 143 181 225 285 350 425
#     4  11  26  45  64 102 148 177 232 294 349 420
#     4  10  21  40  67  98 126 175 242 286 322 406
#     4  10  20  41  68  99 132 172 237 288 336 418
#     4  12  23  41  66 104 144 181 223 278 367 420
#     4  12  24  43  69 108 142 180 223 294 369 411
#
# _framework density 25.085094999999999
#
# number of rings (size 3 to 8) (size 9 to 14) (size 15 to 20)
#    0.000    1.000    3.750    4.125    0.000    0.500 
#   15.750    3.125    0.000    0.000    0.000    0.000 
#    0.000    0.000    0.000    0.000    0.000    0.000 
#
# Total GULP energy -89141.011666 kJ/mol
# GULP energy per Si atom -5571.313229 kJ/mol
# Density = 2.502800 g / cm^3
# Si number density = 25.085095 Si / 1000 Ang^3
#
#
#
# Elastic Constant Matrix: (Units=GPa)
#
#
# Indices 1 2 3 4 5 6 
#
# 1 167.6276 23.6061 69.5001 17.2271 55.7314 5.4392
# 2 23.6061 51.3222 21.5491 4.7256 30.6752 -8.5544
# 3 69.5001 21.5491 143.5701 18.6804 52.6593 -0.7083
# 4 17.2271 4.7256 18.6804 45.2374 13.5280 9.2329
# 5 55.7314 30.6752 52.6593 13.5280 67.6229 -4.0002
# 6 5.4392 -8.5544 -0.7083 9.2329 -4.0002 26.2215
#
#
#
# Elastic Compliance Matrix: (Units=1/GPa)
#
#
# Indices 1 2 3 4 5 6 
#
# 1 0.008892 -0.000246 -0.002187 -0.000206 -0.005636 -0.002771
# 2 -0.000246 0.028108 0.000599 -0.000961 -0.012368 0.007689
# 3 -0.002187 0.000599 0.010450 -0.001816 -0.006207 0.000624
# 4 -0.000206 -0.000961 -0.001816 0.026252 -0.003832 -0.010148
# 5 -0.005636 -0.012368 -0.006207 -0.003832 0.030822 0.003018
# 6 -0.002771 0.007689 0.000624 -0.010148 0.003018 0.045270
#
#
# Mechanical properties :
#
#
# Convention : Reuss Voigt Hill
#
# Bulk Modulus (GPa) = 22.83975 65.75894 44.29935
# Shear Modulus (GPa) = 29.75215 44.34069 37.04642
#
# Velocity S-wave (km/s) = 3.44764 4.20886 3.84712
# Velocity P-wave (km/s) = 4.99730 7.06333 6.11815
#
# Compressibility (1/GPa) = 0.04378332
#
# Stress axis : x y z
#
# Youngs Moduli (GPa) = 112.45973 35.57669 95.69440
#
# Poissons Ratio (x) = 0.00874 0.20929
# Poissons Ratio (y) = 0.02762 -0.05734
# Poissons Ratio (z) = 0.24596 -0.02132
#
# Static dielectric constant tensor:
#      x y z
#    x 2.243940 0.241480 -0.149960 
#    y 0.241480 2.174910 -0.156790 
#    z -0.149960 -0.156790 2.151970 
# 
# From -- ./inp_files/500100.got.cif
#   From: 2010.05.17/outbox.cif.g08.bks.cpg/sg2_251_cif.got.tgz:500100.got - 2010.06.03 11:33:40.
