data_PCOD9110905
_publ_section_title
;
Structure prediction by ZEFSAII (Michael W. Deem and Ramdas Pophale) SiO2 
 PCOD9110905
Probable space group: P -1
;
_chemical_formula_sum "Si O2"
_cell_formula_units_Z 16
_cell_length_a 11.463575
_cell_length_b 7.720685
_cell_length_c 9.185355
_cell_angle_alpha 53.129294
_cell_angle_beta 94.782834
_cell_angle_gamma 78.662485
_cell_volume 616.309745
_symmetry_space_group_name_H-M "P -1"
_symmetry_group_IT_number 2
_symmetry_cell_setting 'triclinic'
loop_
_space_group_symop_operation_xyz
x,y,z
-x,-y,-z
loop_
_atom_site_type_symbol
_atom_site_label
_atom_site_fract_x
_atom_site_fract_y
_atom_site_fract_z
Si Si1 0.935144 0.164324 0.038804
Si Si2 0.384764 0.871610 0.184732
Si Si3 0.321572 0.560320 0.851390
Si Si4 0.277986 0.555434 0.518415
Si Si5 0.446852 0.845614 0.868923
Si Si6 0.002934 0.831681 0.451872
Si Si7 0.824304 0.719893 0.916891
Si Si8 0.181494 0.381905 0.346028
O O1 0.833001 0.368493 0.847246
O O2 0.038869 0.269241 0.058424
O O3 0.000000 0.000000 0.000000
O O4 0.913953 0.991434 0.242560
O O5 0.264150 0.089814 0.085634
O O6 0.358899 0.677855 0.375642
O O7 0.402541 0.822197 0.040558
O O8 0.500093 0.942196 0.223890
O O9 0.331707 0.503248 0.711051
O O10 0.427467 0.362237 0.042639
O O11 0.348957 0.794109 0.774402
O O12 0.196495 0.517441 0.915349
O O13 0.261506 0.358977 0.510446
O O14 0.138478 0.723651 0.452153
O O15 0.947927 0.638418 0.600591
O O16 0.000000 0.000000 0.500000
O O17 0.783262 0.770340 0.718243
#
# Coordination Sequence:
#
# PCOD9110905 Si02
#       8
#     2   2   2   2   2   2   2   2
#     4  12  24  41  66  92 132 185 214 268 325 372
#     4  10  20  42  67  90 129 156 216 270 321 399
#     4  10  23  39  67  94 125 165 214 266 334 393
#     4  12  24  41  62  97 128 168 216 271 315 387
#     4   9  21  44  65  93 120 167 208 267 341 398
#     4  12  25  44  62  97 136 175 226 263 317 382
#     4  11  22  42  63  93 127 174 218 261 321 384
#     4  12  25  43  64  95 139 178 218 271 315 379
#
# _framework density 25.96097
#
# number of rings (size 3 to 8) (size 9 to 14) (size 15 to 20)
#    0.000    1.000    3.750    2.250    3.500    1.000 
#    0.000    5.000    0.000    0.000    0.000    0.000 
#    0.000    0.000    0.000    0.000    0.000    0.000 
#
# Total GULP energy -89580.810357 kJ/mol
# GULP energy per Si atom -5598.800647 kJ/mol
# Density = 2.590188 g / cm^3
# Si number density = 25.960970 Si / 1000 Ang^3
#
#
#
# Elastic Constant Matrix: (Units=GPa)
#
#
# Indices 1 2 3 4 5 6 
#
# 1 119.3058 28.4090 33.6179 7.6372 -16.9035 17.5039
# 2 28.4090 101.9998 10.2522 30.2054 -0.2043 23.8651
# 3 33.6179 10.2522 90.7629 22.8710 -21.7108 18.3793
# 4 7.6372 30.2054 22.8710 45.1031 2.0516 7.2080
# 5 -16.9035 -0.2043 -21.7108 2.0516 51.8303 -4.6283
# 6 17.5039 23.8651 18.3793 7.2080 -4.6283 60.3414
#
#
#
# Elastic Compliance Matrix: (Units=1/GPa)
#
#
# Indices 1 2 3 4 5 6 
#
# 1 0.010278 -0.002890 -0.003368 0.001968 0.001770 -0.000912
# 2 -0.002890 0.014289 0.002932 -0.009862 0.000330 -0.004503
# 3 -0.003368 0.002932 0.016438 -0.009417 0.005849 -0.003616
# 4 0.001968 -0.009862 -0.009417 0.033119 -0.004483 0.001898
# 5 0.001770 0.000330 0.005849 -0.004483 0.022485 -0.000165
# 6 -0.000912 -0.004503 -0.003616 0.001898 -0.000165 0.019480
#
#
# Mechanical properties :
#
#
# Convention : Reuss Voigt Hill
#
# Bulk Modulus (GPa) = 29.10938 50.73630 39.92284
# Shear Modulus (GPa) = 37.26032 47.44090 42.35061
#
# Velocity S-wave (km/s) = 3.79257 4.27944 4.04334
# Velocity P-wave (km/s) = 5.51500 6.63354 6.09996
#
# Compressibility (1/GPa) = 0.03435319
#
# Stress axis : x y z
#
# Youngs Moduli (GPa) = 97.29831 69.98486 60.83339
#
# Poissons Ratio (x) = 0.20226 0.20490
# Poissons Ratio (y) = 0.28119 -0.17839
# Poissons Ratio (z) = 0.32772 -0.20522
#
# Static dielectric constant tensor:
#      x y z
#    x 2.068930 -0.006920 0.047150 
#    y -0.006920 2.083480 -0.049970 
#    z 0.047150 -0.049970 2.022370 
# 
# From -- ./inp_files/241990.got.cif
#   From: 2010.05.17/outbox.cif.g08.bks.cpg/sg2_121_cif.got.tgz:241990.got - 2010.06.03 11:33:40.
