data_PCOD9110098
_publ_section_title
;
Structure prediction by ZEFSAII (Michael W. Deem and Ramdas Pophale) SiO2 
 PCOD9110098
Probable space group: P -1
;
_chemical_formula_sum "Si O2"
_cell_formula_units_Z 16
_cell_length_a 13.507607
_cell_length_b 11.142672
_cell_length_c 8.539195
_cell_angle_alpha 125.018558
_cell_angle_beta 84.984936
_cell_angle_gamma 131.842301
_cell_volume 686.120868
_symmetry_space_group_name_H-M "P -1"
_symmetry_group_IT_number 2
_symmetry_cell_setting 'triclinic'
loop_
_space_group_symop_operation_xyz
x,y,z
-x,-y,-z
loop_
_atom_site_type_symbol
_atom_site_label
_atom_site_fract_x
_atom_site_fract_y
_atom_site_fract_z
Si Si1 0.221901 0.368302 0.303212
Si Si2 0.529255 0.189598 0.013697
Si Si3 0.392389 0.445740 0.613625
Si Si4 0.129895 0.711320 0.252264
Si Si5 0.095826 0.913650 0.988880
Si Si6 0.290815 0.874240 0.048124
Si Si7 0.636855 0.186773 0.501462
Si Si8 0.903661 0.023573 0.600339
O O1 0.278037 0.421524 0.512351
O O2 0.333922 0.607722 0.380238
O O3 0.053845 0.244894 0.212248
O O4 0.202477 0.171564 0.116390
O O5 0.538263 0.372801 0.126503
O O6 0.452720 0.099909 0.127822
O O7 0.687770 0.277368 0.059198
O O8 0.413594 0.971363 0.755753
O O9 0.500000 0.500000 0.500000
O O10 0.276345 0.207804 0.534689
O O11 0.262600 0.886900 0.238556
O O12 0.204039 0.694642 0.360487
O O13 0.073062 0.806426 0.380399
O O14 0.000000 0.500000 0.000000
O O15 0.175394 0.843185 0.937612
O O16 0.049666 0.895023 0.163300
O O17 0.500000 0.000000 0.500000
O O18 0.000000 0.000000 0.500000
#
# Coordination Sequence:
#
# PCOD9110098 Si02
#       8
#     2   2   2   2   2   2   2   2
#     4  10  21  40  66  95 130 180 231 283 338 411
#     4  11  23  41  67 101 136 175 234 287 338 424
#     4  11  24  44  73  95 130 189 235 288 350 416
#     4  11  24  45  70  96 141 187 220 281 357 418
#     4   9  20  42  69  94 133 183 234 287 343 412
#     4  10  20  41  69  96 128 179 231 274 339 408
#     4  12  25  41  65 105 144 179 226 286 355 411
#     4  10  23  42  67  98 133 176 235 282 347 416
#
# _framework density 23.319504999999999
#
# number of rings (size 3 to 8) (size 9 to 14) (size 15 to 20)
#    0.000    1.500    1.250    5.250    3.500    1.000 
#    9.000    2.500    0.000    0.000    0.000    0.000 
#    0.000    0.000    0.000    0.000    0.000    0.000 
#
# Total GULP energy -89110.120628 kJ/mol
# GULP energy per Si atom -5569.382539 kJ/mol
# Density = 2.326643 g / cm^3
# Si number density = 23.319505 Si / 1000 Ang^3
#
#
#
# Elastic Constant Matrix: (Units=GPa)
#
#
# Indices 1 2 3 4 5 6 
#
# 1 144.5341 11.2640 47.1366 -0.7794 -4.7967 -4.8016
# 2 11.2640 74.3425 24.1912 19.3548 -9.3566 -5.6747
# 3 47.1366 24.1912 92.0074 21.7195 0.4449 2.2602
# 4 -0.7794 19.3548 21.7195 24.8249 0.1526 -4.1664
# 5 -4.7967 -9.3566 0.4449 0.1526 44.6708 -5.9208
# 6 -4.8016 -5.6747 2.2602 -4.1664 -5.9208 37.5818
#
#
#
# Elastic Compliance Matrix: (Units=1/GPa)
#
#
# Indices 1 2 3 4 5 6 
#
# 1 0.009117 -0.000801 -0.006085 0.006618 0.001158 0.002326
# 2 -0.000801 0.017929 -0.001431 -0.012450 0.003983 0.001938
# 3 -0.006085 -0.001431 0.018162 -0.015639 -0.001621 -0.004075
# 4 0.006618 -0.012450 -0.015639 0.065054 -0.001042 0.006954
# 5 0.001158 0.003983 -0.001621 -0.001042 0.023962 0.004506
# 6 0.002326 0.001938 -0.004075 0.006954 0.004506 0.028924
#
#
# Mechanical properties :
#
#
# Convention : Reuss Voigt Hill
#
# Bulk Modulus (GPa) = 34.99770 52.89639 43.94704
# Shear Modulus (GPa) = 26.41197 36.63499 31.52348
#
# Velocity S-wave (km/s) = 3.36908 3.96789 3.68068
# Velocity P-wave (km/s) = 5.49316 6.61247 6.07863
#
# Compressibility (1/GPa) = 0.02857331
#
# Stress axis : x y z
#
# Youngs Moduli (GPa) = 109.68354 55.77524 55.05870
#
# Poissons Ratio (x) = 0.04468 0.33504
# Poissons Ratio (y) = 0.08786 0.07881
# Poissons Ratio (z) = 0.66745 0.07984
#
# Static dielectric constant tensor:
#      x y z
#    x 1.977140 -0.077430 -0.036860 
#    y -0.077430 1.721190 -0.036800 
#    z -0.036860 -0.036800 1.897580 
# 
# From -- ./inp_files/308541.got.cif
#   From: 2010.05.17/outbox.cif.g08.bks.cpg/sg2_155_cif.got.tgz:308541.got - 2010.06.03 11:33:40.
