data_PCOD9110003
_publ_section_title
;
Structure prediction by ZEFSAII (Michael W. Deem and Ramdas Pophale) SiO2 
 PCOD9110003
Probable space group: P -1
;
_chemical_formula_sum "Si O2"
_cell_formula_units_Z 16
_cell_length_a 8.633870
_cell_length_b 8.421704
_cell_length_c 22.392779
_cell_angle_alpha 52.490254
_cell_angle_beta 40.424121
_cell_angle_gamma 79.906375
_cell_volume 693.629357
_symmetry_space_group_name_H-M "P -1"
_symmetry_group_IT_number 2
_symmetry_cell_setting 'triclinic'
loop_
_space_group_symop_operation_xyz
x,y,z
-x,-y,-z
loop_
_atom_site_type_symbol
_atom_site_label
_atom_site_fract_x
_atom_site_fract_y
_atom_site_fract_z
Si Si1 0.893964 0.501479 0.169295
Si Si2 0.781462 0.555358 0.494093
Si Si3 0.875037 0.486464 0.706400
Si Si4 0.751594 0.685827 0.928517
Si Si5 0.432790 0.593003 0.827677
Si Si6 0.407674 0.729765 0.579092
Si Si7 0.375027 0.899022 0.296063
Si Si8 0.495414 0.969678 0.910726
O O1 0.804365 0.548432 0.121420
O O2 0.630566 0.385787 0.318194
O O3 0.973665 0.306123 0.177925
O O4 0.171319 0.736932 0.063706
O O5 0.950743 0.519890 0.399638
O O6 0.617970 0.678950 0.493863
O O7 0.572832 0.291163 0.645360
O O8 0.026785 0.740308 0.426891
O O9 0.097191 0.588444 0.671662
O O10 0.732522 0.635959 0.708429
O O11 0.595919 0.213470 0.859689
O O12 0.727902 0.911766 0.876556
O O13 0.500000 0.500000 0.000000
O O14 0.671816 0.559750 0.045362
O O15 0.493116 0.854461 0.763137
O O16 0.500000 0.000000 0.500000
O O17 0.480171 0.971915 0.180480
#
# Coordination Sequence:
#
# PCOD9110003 Si02
#       8
#     2   2   2   2   2   2   2   2
#     4  11  26  41  69 107 136 180 231 284 345 407
#     4  10  25  45  69 101 138 182 230 283 347 401
#     4  11  26  45  71 101 135 185 233 284 347 402
#     4  10  20  41  68  98 137 178 226 281 342 398
#     4  12  24  41  70 105 137 184 231 277 345 413
#     4  12  28  47  72 102 139 178 233 284 341 420
#     4  10  22  42  72  96 142 178 227 283 346 400
#     4  10  23  45  72  98 140 180 228 291 344 403
#
# _framework density 23.067074999999999
#
# number of rings (size 3 to 8) (size 9 to 14) (size 15 to 20)
#    0.000    1.250    2.500    3.000   10.500    4.000 
#    0.000    0.000    0.000    0.000    0.000    0.000 
#    0.000    0.000    0.000    0.000    0.000    0.000 
#
# Total GULP energy -89420.206887 kJ/mol
# GULP energy per Si atom -5588.762930 kJ/mol
# Density = 2.301457 g / cm^3
# Si number density = 23.067075 Si / 1000 Ang^3
#
#
#
# Elastic Constant Matrix: (Units=GPa)
#
#
# Indices 1 2 3 4 5 6 
#
# 1 80.2792 15.7781 7.3922 -7.2995 -6.9142 16.7981
# 2 15.7781 101.3691 33.7081 -8.9985 -2.9312 -0.5730
# 3 7.3922 33.7081 71.7786 -7.9760 13.2110 8.4155
# 4 -7.2995 -8.9985 -7.9760 40.2004 -0.6166 -5.6482
# 5 -6.9142 -2.9312 13.2110 -0.6166 31.3323 -3.3967
# 6 16.7981 -0.5730 8.4155 -5.6482 -3.3967 30.4783
#
#
#
# Elastic Compliance Matrix: (Units=1/GPa)
#
#
# Indices 1 2 3 4 5 6 
#
# 1 0.014803 -0.002240 0.000172 0.001159 0.002163 -0.007792
# 2 -0.002240 0.012771 -0.006802 0.001744 0.004050 0.004127
# 3 0.000172 -0.006802 0.019795 0.001374 -0.009623 -0.006506
# 4 0.001159 0.001744 0.001374 0.026320 0.000789 0.003980
# 5 0.002163 0.004050 -0.009623 0.000789 0.037481 0.005865
# 6 -0.007792 0.004127 -0.006506 0.003980 0.005865 0.040370
#
#
# Mechanical properties :
#
#
# Convention : Reuss Voigt Hill
#
# Bulk Modulus (GPa) = 33.75151 40.79819 37.27485
# Shear Modulus (GPa) = 27.90843 33.50543 30.70693
#
# Velocity S-wave (km/s) = 3.48211 3.81533 3.65252
# Velocity P-wave (km/s) = 5.55252 6.09378 5.82943
#
# Compressibility (1/GPa) = 0.02962831
#
# Stress axis : x y z
#
# Youngs Moduli (GPa) = 67.55325 78.30378 50.51750
#
# Poissons Ratio (x) = 0.17539 -0.00867
# Poissons Ratio (y) = 0.15131 0.34363
# Poissons Ratio (z) = -0.01160 0.53264
#
# Static dielectric constant tensor:
#      x y z
#    x 1.878800 -0.039420 0.027020 
#    y -0.039420 1.917170 0.015540 
#    z 0.027020 0.015540 1.878240 
# 
# From -- ./inp_files/307895.got.cif
#   From: 2010.05.17/outbox.cif.g08.bks.cpg/sg2_154_cif.got.tgz:307895.got - 2010.06.03 11:33:40.
