data_PCOD9110983
_publ_section_title
;
Structure prediction by ZEFSAII (Michael W. Deem and Ramdas Pophale) SiO2 
 PCOD9110983
Probable space group: P -1
;
_chemical_formula_sum "Si O2"
_cell_formula_units_Z 16
_cell_length_a 9.503172
_cell_length_b 10.214972
_cell_length_c 20.232221
_cell_angle_alpha 129.466925
_cell_angle_beta 149.241181
_cell_angle_gamma 41.062074
_cell_volume 659.362034
_symmetry_space_group_name_H-M "P -1"
_symmetry_group_IT_number 2
_symmetry_cell_setting 'triclinic'
loop_
_space_group_symop_operation_xyz
x,y,z
-x,-y,-z
loop_
_atom_site_type_symbol
_atom_site_label
_atom_site_fract_x
_atom_site_fract_y
_atom_site_fract_z
Si Si1 0.554320 0.384146 0.792751
Si Si2 0.311426 0.741866 0.001457
Si Si3 0.095250 0.315991 0.083626
Si Si4 0.837259 0.068686 0.270301
Si Si5 0.166258 0.430806 0.383122
Si Si6 0.107319 0.078714 0.238300
Si Si7 0.989038 0.660715 0.252478
Si Si8 0.749777 0.441888 0.406579
O O1 0.817325 0.409027 0.945827
O O2 0.206933 0.491986 0.722471
O O3 0.513094 0.465139 0.727942
O O4 0.671399 0.153264 0.762568
O O5 0.165078 0.825473 0.897617
O O6 0.022494 0.803022 0.955955
O O7 0.500000 0.500000 0.000000
O O8 0.602191 0.770982 0.146031
O O9 0.448244 0.171038 0.149309
O O10 0.081212 0.485473 0.179803
O O11 0.954468 0.090641 0.252445
O O12 0.899844 0.206494 0.388645
O O13 0.014196 0.841306 0.291796
O O14 0.294581 0.198002 0.350180
O O15 0.153420 0.549522 0.351313
O O16 0.322590 0.477116 0.522805
O O17 0.000000 0.500000 0.500000
#
# Coordination Sequence:
#
# PCOD9110983 Si02
#       8
#     2   2   2   2   2   2   2   2
#     4  11  24  41  74 104 134 183 239 278 345 417
#     4  10  20  42  68 101 140 190 220 269 352 430
#     4  11  24  44  70 105 149 176 225 290 356 418
#     4  12  28  43  68 112 142 175 238 298 352 403
#     4  11  22  49  72  95 141 186 242 283 341 423
#     4  12  24  43  72 105 137 192 234 277 355 424
#     4  11  24  42  73 103 142 186 226 288 356 416
#     4  10  24  49  69  96 141 188 234 298 341 416
#
# _framework density 24.265879999999999
#
# number of rings (size 3 to 8) (size 9 to 14) (size 15 to 20)
#    0.000    1.000    6.250    1.500    3.500    4.500 
#    0.000    0.625    0.000    0.000    0.000    0.000 
#    0.000    0.000    0.000    0.000    0.000    0.000 
#
# Total GULP energy -89599.588782 kJ/mol
# GULP energy per Si atom -5599.974299 kJ/mol
# Density = 2.421065 g / cm^3
# Si number density = 24.265880 Si / 1000 Ang^3
#
#
#
# Elastic Constant Matrix: (Units=GPa)
#
#
# Indices 1 2 3 4 5 6 
#
# 1 120.4695 38.6178 50.8749 -8.6577 -12.4541 32.7338
# 2 38.6178 156.0624 44.0069 5.3172 -27.0415 28.2452
# 3 50.8749 44.0069 113.4195 -2.3894 -47.0891 16.0705
# 4 -8.6577 5.3172 -2.3894 27.5038 -2.7798 3.1828
# 5 -12.4541 -27.0415 -47.0891 -2.7798 54.2285 -8.1805
# 6 32.7338 28.2452 16.0705 3.1828 -8.1805 50.9127
#
#
#
# Elastic Compliance Matrix: (Units=1/GPa)
#
#
# Indices 1 2 3 4 5 6 
#
# 1 0.012803 -0.001085 -0.005667 0.004181 -0.003308 -0.006634
# 2 -0.001085 0.007991 -0.001404 -0.001472 0.002007 -0.002878
# 3 -0.005667 -0.001404 0.017269 0.001205 0.013209 0.001019
# 4 0.004181 -0.001472 0.001205 0.038822 0.002620 -0.004257
# 5 -0.003308 0.002007 0.013209 0.002620 0.030525 0.001585
# 6 -0.006634 -0.002878 0.001019 -0.004257 0.001585 0.025702
#
#
# Mechanical properties :
#
#
# Convention : Reuss Voigt Hill
#
# Bulk Modulus (GPa) = 45.97686 72.99453 59.48569
# Shear Modulus (GPa) = 31.91340 43.62577 37.76959
#
# Velocity S-wave (km/s) = 3.63044 4.24468 3.94952
# Velocity P-wave (km/s) = 6.04663 7.35999 6.73540
#
# Compressibility (1/GPa) = 0.02175007
#
# Stress axis : x y z
#
# Youngs Moduli (GPa) = 78.10677 125.14385 57.90788
#
# Poissons Ratio (x) = 0.13580 0.32819
# Poissons Ratio (y) = 0.08476 0.08129
# Poissons Ratio (z) = 0.44266 0.17567
#
# Static dielectric constant tensor:
#      x y z
#    x 1.958390 -0.022350 0.050850 
#    y -0.022350 1.940290 0.030080 
#    z 0.050850 0.030080 1.981480 
# 
# From -- ./inp_files/588077.got.cif
#   From: 2010.05.17/outbox.cif.g08.bks.cpg/sg2_295_cif.got.tgz:588077.got - 2010.06.03 11:33:40.
