data_PCOD9110188
_publ_section_title
;
Structure prediction by ZEFSAII (Michael W. Deem and Ramdas Pophale) SiO2 
 PCOD9110188
Probable space group: P -1
;
_chemical_formula_sum "Si O2"
_cell_formula_units_Z 12
_cell_length_a 12.979140
_cell_length_b 8.290261
_cell_length_c 9.219509
_cell_angle_alpha 104.797402
_cell_angle_beta 135.309488
_cell_angle_gamma 52.579073
_cell_volume 525.657673
_symmetry_space_group_name_H-M "P -1"
_symmetry_group_IT_number 2
_symmetry_cell_setting 'triclinic'
loop_
_space_group_symop_operation_xyz
x,y,z
-x,-y,-z
loop_
_atom_site_type_symbol
_atom_site_label
_atom_site_fract_x
_atom_site_fract_y
_atom_site_fract_z
Si Si1 0.739811 0.988754 0.210067
Si Si2 0.662706 0.516990 0.684822
Si Si3 0.177271 0.287136 0.214185
Si Si4 0.946953 0.925916 0.118860
Si Si5 0.973730 0.771811 0.675071
Si Si6 0.334380 0.350409 0.954591
O O1 0.883175 0.955714 0.228264
O O2 0.703166 0.819502 0.103271
O O3 0.826909 0.933059 0.444627
O O4 0.538676 0.223362 0.059780
O O5 0.500000 0.500000 0.500000
O O6 0.655860 0.700333 0.636729
O O7 0.848919 0.294752 0.759254
O O8 0.670654 0.564145 0.871844
O O9 0.117908 0.293868 0.320675
O O10 0.196863 0.091188 0.115844
O O11 0.000000 0.500000 0.000000
O O12 0.959267 0.112734 0.143022
O O13 0.158975 0.555961 0.742339
#
# Coordination Sequence:
#
# PCOD9110188 Si02
#       6
#     2   2   2   2   2   2
#     4  11  25  44  70 101 141 185 225 282 346 409
#     4  11  22  42  70 100 136 179 229 288 337 404
#     4  10  20  41  70  96 134 185 221 282 343 396
#     4  11  22  43  70 101 139 181 228 285 342 404
#     4  12  23  42  75 102 136 185 229 276 352 411
#     4  11  23  44  68  99 143 177 232 285 337 408
#
# _framework density 22.828543
#
# number of rings (size 3 to 8) (size 9 to 14) (size 15 to 20)
#    0.000    1.000    5.000    3.500    0.000    0.667 
#    0.000    6.667    0.000    0.000    0.000    0.000 
#    0.000    0.000    0.000    0.000    0.000    0.000 
#
# Total GULP energy -67103.818448 kJ/mol
# GULP energy per Si atom -5591.984871 kJ/mol
# Density = 2.277658 g / cm^3
# Si number density = 22.828543 Si / 1000 Ang^3
#
#
#
# Elastic Constant Matrix: (Units=GPa)
#
#
# Indices 1 2 3 4 5 6 
#
# 1 123.1088 28.0539 41.7020 14.7307 27.1844 4.5766
# 2 28.0539 75.2279 12.3666 17.5274 18.4441 -1.4756
# 3 41.7020 12.3666 66.5099 13.7078 19.5366 8.6825
# 4 14.7307 17.5274 13.7078 26.1244 4.2656 3.9053
# 5 27.1844 18.4441 19.5366 4.2656 37.3617 8.9305
# 6 4.5766 -1.4756 8.6825 3.9053 8.9305 31.5464
#
#
#
# Elastic Compliance Matrix: (Units=1/GPa)
#
#
# Indices 1 2 3 4 5 6 
#
# 1 0.011573 -0.001766 -0.005255 -0.001982 -0.004889 0.001314
# 2 -0.001766 0.018580 0.002050 -0.011797 -0.008683 0.004480
# 3 -0.005255 0.002050 0.022117 -0.008513 -0.007276 -0.002115
# 4 -0.001982 -0.011797 -0.008513 0.051530 0.007360 -0.006384
# 5 -0.004889 -0.008683 -0.007276 0.007360 0.039943 -0.009913
# 6 0.001314 0.004480 -0.002115 -0.006384 -0.009913 0.035897
#
#
# Mechanical properties :
#
#
# Convention : Reuss Voigt Hill
#
# Bulk Modulus (GPa) = 23.62520 47.67685 35.65102
# Shear Modulus (GPa) = 24.54681 31.18809 27.86745
#
# Velocity S-wave (km/s) = 3.28269 3.70021 3.49768
# Velocity P-wave (km/s) = 4.97388 6.25983 5.65354
#
# Compressibility (1/GPa) = 0.04232769
#
# Stress axis : x y z
#
# Youngs Moduli (GPa) = 86.40598 53.82148 45.21383
#
# Poissons Ratio (x) = 0.09504 0.23761
# Poissons Ratio (y) = 0.15258 -0.09268
# Poissons Ratio (z) = 0.45408 -0.11032
#
# Static dielectric constant tensor:
#      x y z
#    x 1.848350 0.008290 0.019160 
#    y 0.008290 1.871490 0.001450 
#    z 0.019160 0.001450 1.909690 
# 
# From -- ./inp_files/183920.got.cif
#   From: 2010.05.17/outbox.cif.g08.bks.cpg/sg2_92_cif.got.tgz:183920.got - 2010.06.03 11:33:40.
