data_PCOD9110492
_publ_section_title
;
Structure prediction by ZEFSAII (Michael W. Deem and Ramdas Pophale) SiO2 
 PCOD9110492
Probable space group: P -1
;
_chemical_formula_sum "Si O2"
_cell_formula_units_Z 16
_cell_length_a 13.734146
_cell_length_b 17.372833
_cell_length_c 11.199219
_cell_angle_alpha 149.646384
_cell_angle_beta 146.941814
_cell_angle_gamma 29.685459
_cell_volume 625.578725
_symmetry_space_group_name_H-M "P -1"
_symmetry_group_IT_number 2
_symmetry_cell_setting 'triclinic'
loop_
_space_group_symop_operation_xyz
x,y,z
-x,-y,-z
loop_
_atom_site_type_symbol
_atom_site_label
_atom_site_fract_x
_atom_site_fract_y
_atom_site_fract_z
Si Si1 0.634023 0.567691 0.047439
Si Si2 0.277275 0.631244 0.342933
Si Si3 0.699928 0.597848 0.743127
Si Si4 0.850635 0.174682 0.747808
Si Si5 0.639200 0.949516 0.198215
Si Si6 0.102658 0.496605 0.439880
Si Si7 0.949836 0.882559 0.876771
Si Si8 0.604881 0.836174 0.535534
O O1 0.505490 0.743427 0.230627
O O2 0.866021 0.540311 0.244084
O O3 0.587387 0.556086 0.845337
O O4 0.666831 0.378274 0.872691
O O5 0.447222 0.687102 0.609598
O O6 0.211936 0.581230 0.328987
O O7 0.098637 0.768172 0.250826
O O8 0.753428 0.736742 0.037495
O O9 0.778729 0.561903 0.641515
O O10 0.772439 0.043538 0.460880
O O11 0.011865 0.095672 0.915562
O O12 0.521884 0.024275 0.304321
O O13 0.500000 0.000000 0.000000
O O14 0.218168 0.336392 0.438046
O O15 0.095997 0.673564 0.712019
O O16 0.718889 0.910911 0.671617
O O17 0.000000 0.000000 0.000000
#
# Coordination Sequence:
#
# PCOD9110492 Si02
#       8
#     2   2   2   2   2   2   2   2
#     4   9  19  38  63  86 109 160 212 239 301 363
#     4   9  20  40  61  84 125 162 208 244 295 373
#     4  11  23  38  61  90 125 166 205 245 298 366
#     4  10  20  42  63  85 124 161 203 252 304 366
#     4  12  23  38  60  95 127 161 204 250 303 358
#     4  11  19  39  66  85 122 164 199 249 308 364
#     4  11  24  42  64  97 121 151 210 263 309 353
#     4  11  20  40  67  85 126 164 197 254 309 362
#
# _framework density 25.576317
#
# number of rings (size 3 to 8) (size 9 to 14) (size 15 to 20)
#    0.750    0.750    5.000    0.750    0.000    6.000 
#    0.000    5.000    0.000    0.000    0.000    0.000 
#    0.000    0.000    0.000    0.000    0.000    0.000 
#
# Total GULP energy -89422.436553 kJ/mol
# GULP energy per Si atom -5588.902285 kJ/mol
# Density = 2.551810 g / cm^3
# Si number density = 25.576317 Si / 1000 Ang^3
#
#
#
# Elastic Constant Matrix: (Units=GPa)
#
#
# Indices 1 2 3 4 5 6 
#
# 1 108.0861 25.7667 45.8301 28.1633 8.0471 16.7022
# 2 25.7667 57.6915 26.7140 5.6904 16.4533 16.0203
# 3 45.8301 26.7140 183.3807 12.4054 8.4504 4.2711
# 4 28.1633 5.6904 12.4054 28.6613 7.8508 5.4427
# 5 8.0471 16.4533 8.4504 7.8508 33.8069 16.4878
# 6 16.7022 16.0203 4.2711 5.4427 16.4878 32.8086
#
#
#
# Elastic Compliance Matrix: (Units=1/GPa)
#
#
# Indices 1 2 3 4 5 6 
#
# 1 0.015268 -0.004218 -0.002388 -0.013397 0.004871 -0.005627
# 2 -0.004218 0.023741 -0.002146 0.003658 -0.008077 -0.005714
# 3 -0.002388 -0.002146 0.006366 -0.000101 -0.000878 0.001893
# 4 -0.013397 0.003658 -0.000101 0.050022 -0.011388 0.002472
# 5 0.004871 -0.008077 -0.000878 -0.011388 0.044408 -0.018850
# 6 -0.005627 -0.005714 0.001893 0.002472 -0.018850 0.044951
#
#
# Mechanical properties :
#
#
# Convention : Reuss Voigt Hill
#
# Bulk Modulus (GPa) = 35.88300 60.64220 48.26260
# Shear Modulus (GPa) = 23.63495 35.77855 29.70675
#
# Velocity S-wave (km/s) = 3.04319 3.74424 3.41177
# Velocity P-wave (km/s) = 5.13890 6.51569 5.86781
#
# Compressibility (1/GPa) = 0.02786835
#
# Stress axis : x y z
#
# Youngs Moduli (GPa) = 65.49695 42.12175 157.08658
#
# Poissons Ratio (x) = 0.17769 0.37517
# Poissons Ratio (y) = 0.27629 0.33717
# Poissons Ratio (z) = 0.15643 0.09041
#
# Static dielectric constant tensor:
#      x y z
#    x 2.068360 -0.077070 -0.016560 
#    y -0.077070 2.111310 -0.017770 
#    z -0.016560 -0.017770 2.008860 
# 
# From -- ./inp_files/456860.got.cif
#   From: 2010.05.17/outbox.cif.g08.bks.cpg/sg2_229_cif.got.tgz:456860.got - 2010.06.03 11:33:40.
