data_PCOD9110175
_publ_section_title
;
Structure prediction by ZEFSAII (Michael W. Deem and Ramdas Pophale) SiO2 
 PCOD9110175
Probable space group: P -1
;
_chemical_formula_sum "Si O2"
_cell_formula_units_Z 16
_cell_length_a 14.516429
_cell_length_b 11.943591
_cell_length_c 7.711759
_cell_angle_alpha 105.658745
_cell_angle_beta 117.630283
_cell_angle_gamma 36.980912
_cell_volume 699.777297
_symmetry_space_group_name_H-M "P -1"
_symmetry_group_IT_number 2
_symmetry_cell_setting 'triclinic'
loop_
_space_group_symop_operation_xyz
x,y,z
-x,-y,-z
loop_
_atom_site_type_symbol
_atom_site_label
_atom_site_fract_x
_atom_site_fract_y
_atom_site_fract_z
Si Si1 0.679952 0.882990 0.041691
Si Si2 0.262843 0.763906 0.049097
Si Si3 0.828960 0.809234 0.482397
Si Si4 0.200811 0.417830 0.522461
Si Si5 0.823545 0.903848 0.884671
Si Si6 0.663007 0.466451 0.273108
Si Si7 0.182553 0.476202 0.122304
Si Si8 0.680212 0.405641 0.641978
O O1 0.756224 0.897119 0.265690
O O2 0.693466 0.941576 0.899304
O O3 0.780753 0.672318 0.015926
O O4 0.500000 0.000000 0.000000
O O5 0.467192 0.602050 0.161564
O O6 0.216794 0.760531 0.198956
O O7 0.183949 0.955664 0.010632
O O8 0.237164 0.684961 0.855453
O O9 0.754626 0.749996 0.450242
O O10 0.792206 0.924900 0.659474
O O11 0.028128 0.611142 0.545743
O O12 0.334361 0.397539 0.681638
O O13 0.174639 0.444849 0.303743
O O14 0.005598 0.687045 0.995592
O O15 0.747355 0.359295 0.486172
O O16 0.319429 0.461518 0.229087
O O17 0.500000 0.500000 0.500000
#
# Coordination Sequence:
#
# PCOD9110175 Si02
#       8
#     2   2   2   2   2   2   2   2
#     4  12  28  44  69 103 135 176 223 281 338 402
#     4  10  23  40  65  97 132 175 224 271 336 394
#     4  11  24  40  67  99 132 177 222 274 336 400
#     4  10  20  41  70  95 131 178 225 271 337 394
#     4  12  26  45  66 103 142 172 227 279 331 412
#     4   9  21  41  66  93 131 176 222 276 328 395
#     4  11  22  46  71  95 139 179 225 279 337 397
#     4   9  21  41  66  95 128 176 222 276 327 390
#
# _framework density 22.864418000000001
#
# number of rings (size 3 to 8) (size 9 to 14) (size 15 to 20)
#    0.000    1.500    2.500    1.875    5.250    7.000 
#    0.000    1.250    0.000    0.000    0.000    0.000 
#    0.000    0.000    0.000    0.000    0.000    0.000 
#
# Total GULP energy -89440.502339 kJ/mol
# GULP energy per Si atom -5590.031396 kJ/mol
# Density = 2.281238 g / cm^3
# Si number density = 22.864418 Si / 1000 Ang^3
#
#
#
# Elastic Constant Matrix: (Units=GPa)
#
#
# Indices 1 2 3 4 5 6 
#
# 1 76.5961 11.2013 12.3722 1.4173 1.3638 6.4922
# 2 11.2013 77.0425 24.8676 0.9253 -12.9425 5.3493
# 3 12.3722 24.8676 79.4089 22.8865 -7.3776 -6.0682
# 4 1.4173 0.9253 22.8865 21.7688 5.8330 -2.1575
# 5 1.3638 -12.9425 -7.3776 5.8330 28.6828 2.2957
# 6 6.4922 5.3493 -6.0682 -2.1575 2.2957 25.3285
#
#
#
# Elastic Compliance Matrix: (Units=1/GPa)
#
#
# Indices 1 2 3 4 5 6 
#
# 1 0.014023 -0.001213 -0.003026 0.002553 -0.002220 -0.003644
# 2 -0.001213 0.016228 -0.005728 0.003450 0.005581 -0.004701
# 3 -0.003026 -0.005728 0.023543 -0.026147 0.008562 0.004622
# 4 0.002553 0.003450 -0.026147 0.078958 -0.021429 0.001021
# 5 -0.002220 0.005581 0.008562 -0.021429 0.044401 -0.004408
# 6 -0.003644 -0.004701 0.004622 0.001021 -0.004408 0.043002
#
#
# Mechanical properties :
#
#
# Convention : Reuss Voigt Hill
#
# Bulk Modulus (GPa) = 29.53240 36.65887 33.09563
# Shear Modulus (GPa) = 19.89076 27.46311 23.67694
#
# Velocity S-wave (km/s) = 2.95268 3.46949 3.22147
# Velocity P-wave (km/s) = 4.95669 5.66725 5.32384
#
# Compressibility (1/GPa) = 0.03386112
#
# Stress axis : x y z
#
# Youngs Moduli (GPa) = 71.31291 61.62365 42.47572
#
# Poissons Ratio (x) = 0.07473 0.12851
# Poissons Ratio (y) = 0.08648 0.24329
# Poissons Ratio (z) = 0.21576 0.35296
#
# Static dielectric constant tensor:
#      x y z
#    x 1.882480 -0.011300 0.011650 
#    y -0.011300 1.799440 -0.001770 
#    z 0.011650 -0.001770 1.893940 
# 
# From -- ./inp_files/307813.got.cif
#   From: 2010.05.17/outbox.cif.g08.bks.cpg/sg2_154_cif.got.tgz:307813.got - 2010.06.03 11:33:40.
