data_PCOD9110250
_publ_section_title
;
Structure prediction by ZEFSAII (Michael W. Deem and Ramdas Pophale) SiO2 
 PCOD9110250
Probable space group: P -1
;
_chemical_formula_sum "Si O2"
_cell_formula_units_Z 12
_cell_length_a 11.110890
_cell_length_b 6.921173
_cell_length_c 8.818704
_cell_angle_alpha 57.281871
_cell_angle_beta 107.663367
_cell_angle_gamma 128.847289
_cell_volume 443.710773
_symmetry_space_group_name_H-M "P -1"
_symmetry_group_IT_number 2
_symmetry_cell_setting 'triclinic'
loop_
_space_group_symop_operation_xyz
x,y,z
-x,-y,-z
loop_
_atom_site_type_symbol
_atom_site_label
_atom_site_fract_x
_atom_site_fract_y
_atom_site_fract_z
Si Si1 0.168547 0.307610 0.240804
Si Si2 0.369666 0.853450 0.879570
Si Si3 0.145804 0.757900 0.353557
Si Si4 0.606443 0.525287 0.166101
Si Si5 0.599757 0.342721 0.560225
Si Si6 0.915490 0.105910 0.025268
O O1 0.260443 0.404976 0.391815
O O2 0.181454 0.058146 0.289279
O O3 0.239874 0.589629 0.045736
O O4 0.989172 0.174137 0.191235
O O5 0.337874 0.653617 0.807188
O O6 0.447496 0.138778 0.688285
O O7 0.500000 0.000000 0.000000
O O8 0.307915 0.791237 0.401317
O O9 0.000000 0.500000 0.500000
O O10 0.088482 0.695554 0.182435
O O11 0.550267 0.419080 0.357054
O O12 0.739454 0.852368 0.091120
O O13 0.500000 0.500000 0.000000
O O14 0.000000 0.000000 0.000000
#
# Coordination Sequence:
#
# PCOD9110250 Si02
#       6
#     2   2   2   2   2   2
#     4  10  23  46  70 106 145 180 236 294 352 420
#     4  10  22  43  68  99 140 183 228 284 352 423
#     4  11  23  40  70 104 138 186 233 285 357 417
#     4  12  24  44  69  99 142 186 235 297 359 415
#     4  11  25  44  71 106 140 186 239 291 351 430
#     4  10  20  41  71  95 140 185 223 293 355 407
#
# _framework density 27.044644000000002
#
# number of rings (size 3 to 8) (size 9 to 14) (size 15 to 20)
#    0.000    1.333    3.333    3.500    0.000    3.333 
#    3.000    1.667    0.000    0.000    0.000    0.000 
#    0.000    0.000    0.000    0.000    0.000    0.000 
#
# Total GULP energy -66848.154261 kJ/mol
# GULP energy per Si atom -5570.679522 kJ/mol
# Density = 2.698309 g / cm^3
# Si number density = 27.044644 Si / 1000 Ang^3
#
#
#
# Elastic Constant Matrix: (Units=GPa)
#
#
# Indices 1 2 3 4 5 6 
#
# 1 72.6940 32.8656 48.8291 -13.8903 2.3375 7.8025
# 2 32.8656 175.0135 65.6360 18.7019 4.9768 6.7043
# 3 48.8291 65.6360 226.1036 18.0849 -19.3907 9.3524
# 4 -13.8903 18.7019 18.0849 37.1596 7.1591 -6.2426
# 5 2.3375 4.9768 -19.3907 7.1591 39.2438 5.9683
# 6 7.8025 6.7043 9.3524 -6.2426 5.9683 42.6067
#
#
#
# Elastic Compliance Matrix: (Units=1/GPa)
#
#
# Indices 1 2 3 4 5 6 
#
# 1 0.021582 -0.003364 -0.005317 0.013614 -0.006059 0.000588
# 2 -0.003364 0.007246 -0.000997 -0.004529 -0.000243 -0.000935
# 3 -0.005317 -0.000997 0.006894 -0.006202 0.005290 -0.002032
# 4 0.013614 -0.004529 -0.006202 0.040791 -0.011840 0.007216
# 5 -0.006059 -0.000243 0.005290 -0.011840 0.031586 -0.006173
# 6 0.000588 -0.000935 -0.002032 0.007216 -0.006173 0.025878
#
#
# Mechanical properties :
#
#
# Convention : Reuss Voigt Hill
#
# Bulk Modulus (GPa) = 61.10039 85.38584 73.24311
# Shear Modulus (GPa) = 31.48857 45.56739 38.52798
#
# Velocity S-wave (km/s) = 3.41591 4.10920 3.77849
# Velocity P-wave (km/s) = 6.18057 7.35899 6.79537
#
# Compressibility (1/GPa) = 0.01636651
#
# Stress axis : x y z
#
# Youngs Moduli (GPa) = 46.33555 138.00512 145.04895
#
# Poissons Ratio (x) = 0.46420 0.77125
# Poissons Ratio (y) = 0.15586 0.14460
# Poissons Ratio (z) = 0.24637 0.13758
#
# Static dielectric constant tensor:
#      x y z
#    x 2.303330 -0.074550 0.018810 
#    y -0.074550 2.175160 -0.043230 
#    z 0.018810 -0.043230 2.053330 
# 
# From -- ./inp_files/294294.got.cif
#   From: 2010.05.17/outbox.cif.g08.bks.cpg/sg2_148_cif.got.tgz:294294.got - 2010.06.03 11:33:40.
