data_PCOD9110393
_publ_section_title
;
Structure prediction by ZEFSAII (Michael W. Deem and Ramdas Pophale) SiO2 
 PCOD9110393
Probable space group: P -1
;
_chemical_formula_sum "Si O2"
_cell_formula_units_Z 15
_cell_length_a 12.035749
_cell_length_b 8.444542
_cell_length_c 13.330930
_cell_angle_alpha 66.268210
_cell_angle_beta 57.090504
_cell_angle_gamma 112.947562
_cell_volume 635.971232
_symmetry_space_group_name_H-M "P -1"
_symmetry_group_IT_number 2
_symmetry_cell_setting 'triclinic'
loop_
_space_group_symop_operation_xyz
x,y,z
-x,-y,-z
loop_
_atom_site_type_symbol
_atom_site_label
_atom_site_fract_x
_atom_site_fract_y
_atom_site_fract_z
Si Si1 0.000000 0.500000 0.000000
Si Si2 0.451712 0.525918 0.855478
Si Si3 0.231102 0.052703 0.806706
Si Si4 0.221245 0.701839 0.278867
Si Si5 0.526744 0.129003 0.349836
Si Si6 0.966115 0.105046 0.859900
Si Si7 0.335714 0.645227 0.425975
Si Si8 0.605492 0.362977 0.932622
O O1 0.842688 0.164896 0.181088
O O2 0.782535 0.395283 0.133654
O O3 0.543169 0.744743 0.667300
O O4 0.609998 0.544771 0.819974
O O5 0.385251 0.574371 0.971786
O O6 0.242164 0.210340 0.996986
O O7 0.138030 0.143159 0.807226
O O8 0.484323 0.306052 0.640552
O O9 0.111140 0.860480 0.016622
O O10 0.352216 0.705124 0.286440
O O11 0.218804 0.595686 0.202424
O O12 0.000000 0.500000 0.500000
O O13 0.372443 0.026897 0.115695
O O14 0.500000 0.000000 0.500000
O O15 0.398879 0.883036 0.394049
O O16 0.095903 0.343104 0.652372
#
# Coordination Sequence:
#
# PCOD9110393 Si02
#       8
#     1   2   2   2   2   2   2   2
#     4  10  20  42  60  94 130 180 224 256 330 402
#     4  11  22  46  71 100 135 183 222 281 343 394
#     4  10  22  38  64  90 135 177 218 267 335 400
#     4  11  23  46  70 100 127 177 232 282 342 399
#     4  11  23  42  65  99 138 173 218 272 333 405
#     4  11  22  40  63  95 133 173 219 271 332 403
#     4  11  23  40  64  96 129 173 219 274 333 399
#     4  10  24  46  71  95 136 175 230 285 334 397
#
# _framework density 23.585972000000002
#
# number of rings (size 3 to 8) (size 9 to 14) (size 15 to 20)
#    0.000    1.333    2.667    2.800    1.867    1.067 
#    7.200    7.333    0.000    0.000    0.000    0.000 
#    0.000    0.000    0.000    0.000    0.000    0.000 
#
# Total GULP energy -83579.763683 kJ/mol
# GULP energy per Si atom -5571.984246 kJ/mol
# Density = 2.353229 g / cm^3
# Si number density = 23.585972 Si / 1000 Ang^3
#
#
#
# Elastic Constant Matrix: (Units=GPa)
#
#
# Indices 1 2 3 4 5 6 
#
# 1 78.3970 -8.1511 26.6347 -0.4091 23.1559 -1.0920
# 2 -8.1511 60.9978 19.2492 -4.3820 3.9382 0.5070
# 3 26.6347 19.2492 84.2589 5.4244 9.8986 -8.7837
# 4 -0.4091 -4.3820 5.4244 14.6521 0.4555 -8.3626
# 5 23.1559 3.9382 9.8986 0.4555 43.6748 3.3268
# 6 -1.0920 0.5070 -8.7837 -8.3626 3.3268 20.3447
#
#
#
# Elastic Compliance Matrix: (Units=1/GPa)
#
#
# Indices 1 2 3 4 5 6 
#
# 1 0.018034 0.005280 -0.006019 0.005763 -0.008891 0.002061
# 2 0.005280 0.019963 -0.006281 0.009400 -0.003388 0.001492
# 3 -0.006019 -0.006281 0.016050 -0.005366 -0.000173 0.004586
# 4 0.005763 0.009400 -0.005366 0.095044 -0.006565 0.037899
# 5 -0.008891 -0.003388 -0.000173 -0.006565 0.028621 -0.007847
# 6 0.002061 0.001492 0.004586 0.037899 -0.007847 0.068068
#
#
# Mechanical properties :
#
#
# Convention : Reuss Voigt Hill
#
# Bulk Modulus (GPa) = 24.99555 33.23550 29.11552
# Shear Modulus (GPa) = 18.30460 28.12903 23.21681
#
# Velocity S-wave (km/s) = 2.78884 3.45718 3.14084
# Velocity P-wave (km/s) = 4.58158 5.48251 5.05216
#
# Compressibility (1/GPa) = 0.04000712
#
# Stress axis : x y z
#
# Youngs Moduli (GPa) = 55.45034 50.09143 62.30681
#
# Poissons Ratio (x) = -0.26449 0.37501
# Poissons Ratio (y) = -0.29279 0.39138
# Poissons Ratio (z) = 0.33374 0.31465
#
# Static dielectric constant tensor:
#      x y z
#    x 1.970830 -0.009240 -0.015620 
#    y -0.009240 1.994860 0.027060 
#    z -0.015620 0.027060 1.843920 
# 
# From -- ./inp_files/515187.got.cif
#   From: 2010.05.17/outbox.cif.g08.bks.cpg/sg2_258_cif.got.tgz:515187.got - 2010.06.03 11:33:40.
