data_PCOD9110936
_publ_section_title
;
Structure prediction by ZEFSAII (Michael W. Deem and Ramdas Pophale) SiO2 
 PCOD9110936
Probable space group: P -1
;
_chemical_formula_sum "Si O2"
_cell_formula_units_Z 15
_cell_length_a 16.531547
_cell_length_b 9.239128
_cell_length_c 5.494511
_cell_angle_alpha 53.581065
_cell_angle_beta 71.278469
_cell_angle_gamma 62.164933
_cell_volume 596.047424
_symmetry_space_group_name_H-M "P -1"
_symmetry_group_IT_number 2
_symmetry_cell_setting 'triclinic'
loop_
_space_group_symop_operation_xyz
x,y,z
-x,-y,-z
loop_
_atom_site_type_symbol
_atom_site_label
_atom_site_fract_x
_atom_site_fract_y
_atom_site_fract_z
Si Si1 0.532920 0.857740 0.387678
Si Si2 0.690414 0.599919 0.802679
Si Si3 0.687403 0.905309 0.884443
Si Si4 0.445388 0.580168 0.720215
Si Si5 0.091871 0.044948 0.832385
Si Si6 0.000000 0.500000 0.500000
Si Si7 0.829270 0.516140 0.371734
Si Si8 0.191670 0.858622 0.421559
O O1 0.618806 0.669965 0.579594
O O2 0.587972 0.932916 0.064910
O O3 0.446631 0.793310 0.501841
O O4 0.500000 0.000000 0.500000
O O5 0.788574 0.490488 0.701287
O O6 0.690963 0.792687 0.740219
O O7 0.644100 0.476695 0.126468
O O8 0.768578 0.730379 0.123778
O O9 0.716798 0.089897 0.696678
O O10 0.500000 0.500000 0.500000
O O11 0.500000 0.500000 0.000000
O O12 0.136486 0.958948 0.616607
O O13 0.067222 0.273607 0.632730
O O14 0.150909 0.950898 0.107763
O O15 0.000000 0.000000 0.000000
O O16 0.934817 0.477441 0.353879
O O17 0.811161 0.356430 0.379262
#
# Coordination Sequence:
#
# PCOD9110936 Si02
#       8
#     2   2   2   2   2   1   2   2
#     4  10  23  42  67 102 139 189 239 300 360 432
#     4  10  23  45  66  98 144 185 243 292 370 429
#     4  11  24  46  69 104 148 190 242 302 366 435
#     4  10  20  42  67  94 131 178 229 284 346 422
#     4  12  27  49  74 107 141 188 245 303 354 439
#     4  12  24  48  78 100 152 190 244 292 374 412
#     4  11  26  45  72 105 140 200 234 310 359 431
#     4  12  28  47  73 107 145 186 248 294 365 430
#
# _framework density 25.165782
#
# number of rings (size 3 to 8) (size 9 to 14) (size 15 to 20)
#    0.000    1.067    4.000    1.200    5.600    2.133 
#    2.400    0.000    0.000    0.000    0.000    0.000 
#    0.000    0.000    0.000    0.000    0.000    0.000 
#
# Total GULP energy -83584.643473 kJ/mol
# GULP energy per Si atom -5572.309565 kJ/mol
# Density = 2.510850 g / cm^3
# Si number density = 25.165782 Si / 1000 Ang^3
#
#
#
# Elastic Constant Matrix: (Units=GPa)
#
#
# Indices 1 2 3 4 5 6 
#
# 1 156.9458 4.6248 6.1026 -3.2423 8.6268 27.0618
# 2 4.6248 120.9688 28.6383 14.0765 -10.6906 41.8619
# 3 6.1026 28.6383 95.3117 6.9308 2.1518 4.0037
# 4 -3.2423 14.0765 6.9308 53.1239 4.4566 -2.4595
# 5 8.6268 -10.6906 2.1518 4.4566 38.3087 -9.2753
# 6 27.0618 41.8619 4.0037 -2.4595 -9.2753 48.2058
#
#
#
# Elastic Compliance Matrix: (Units=1/GPa)
#
#
# Indices 1 2 3 4 5 6 
#
# 1 0.007577 0.001815 -0.000706 0.000008 -0.002683 -0.006287
# 2 0.001815 0.014041 -0.003537 -0.003832 0.001027 -0.012917
# 3 -0.000706 -0.003537 0.011553 -0.000433 -0.000865 0.002320
# 4 0.000008 -0.003832 -0.000433 0.020284 -0.002457 0.003922
# 5 -0.002683 0.001027 -0.000865 -0.002457 0.028807 0.006104
# 6 -0.006287 -0.012917 0.002320 0.003922 0.006104 0.036673
#
#
# Mechanical properties :
#
#
# Convention : Reuss Voigt Hill
#
# Bulk Modulus (GPa) = 35.31628 50.21753 42.76690
# Shear Modulus (GPa) = 37.52893 50.18506 43.85700
#
# Velocity S-wave (km/s) = 3.86588 4.47047 4.17912
# Velocity P-wave (km/s) = 5.83015 6.82970 6.34962
#
# Compressibility (1/GPa) = 0.02831555
#
# Stress axis : x y z
#
# Youngs Moduli (GPa) = 131.97163 71.21938 86.55401
#
# Poissons Ratio (x) = -0.12929 0.06115
# Poissons Ratio (y) = -0.23957 0.30615
# Poissons Ratio (z) = 0.09324 0.25191
#
# Static dielectric constant tensor:
#      x y z
#    x 2.046070 -0.032400 0.006760 
#    y -0.032400 1.952480 -0.072770 
#    z 0.006760 -0.072770 2.094920 
# 
# From -- ./inp_files/104493.got.cif
#   From: 2010.05.17/outbox.cif.g08.bks.cpg/sg2_53_cif.got.tgz:104493.got - 2010.06.03 11:33:40.
