data_PCOD9110993
_publ_section_title
;
Structure prediction by ZEFSAII (Michael W. Deem and Ramdas Pophale) SiO2 
 PCOD9110993
Probable space group: P -1
;
_chemical_formula_sum "Si O2"
_cell_formula_units_Z 13
_cell_length_a 18.644956
_cell_length_b 5.034028
_cell_length_c 9.325781
_cell_angle_alpha 99.977877
_cell_angle_beta 138.435424
_cell_angle_gamma 87.427202
_cell_volume 567.121700
_symmetry_space_group_name_H-M "P -1"
_symmetry_group_IT_number 2
_symmetry_cell_setting 'triclinic'
loop_
_space_group_symop_operation_xyz
x,y,z
-x,-y,-z
loop_
_atom_site_type_symbol
_atom_site_label
_atom_site_fract_x
_atom_site_fract_y
_atom_site_fract_z
Si Si1 0.500000 0.000000 0.500000
Si Si2 0.234232 0.438773 0.232005
Si Si3 0.708112 0.378553 0.983175
Si Si4 0.598778 0.088305 0.361586
Si Si5 0.062068 0.790344 0.658156
Si Si6 0.591268 0.703637 0.070295
Si Si7 0.094019 0.899223 0.040839
O O1 0.424277 0.048653 0.531869
O O2 0.394799 0.820704 0.247860
O O3 0.334279 0.617269 0.478368
O O4 0.195031 0.139600 0.202030
O O5 0.137136 0.623493 0.128772
O O6 0.255289 0.446501 0.091123
O O7 0.808696 0.224282 0.168837
O O8 0.669972 0.551810 0.074685
O O9 0.646032 0.911951 0.291870
O O10 0.480258 0.137896 0.129391
O O11 0.000000 0.500000 0.500000
O O12 0.000000 0.000000 0.500000
O O13 0.049583 0.850257 0.810975
O O14 0.500000 0.500000 0.000000
O O15 0.000000 0.000000 0.000000
#
# Coordination Sequence:
#
# PCOD9110993 Si02
#       7
#     1   2   2   2   2   2   2
#     4  10  20  42  68 104 134 192 238 292 358 434
#     4  10  24  43  71 100 135 186 240 285 369 429
#     4  10  23  42  73 102 144 191 236 299 357 431
#     4  10  24  40  66 100 140 186 237 290 359 442
#     4  11  25  47  71 103 141 187 241 290 362 432
#     4  11  23  43  61 103 150 182 238 298 362 431
#     4  11  24  47  70 100 135 176 241 310 351 421
#
# _framework density 22.922768999999999
#
# number of rings (size 3 to 8) (size 9 to 14) (size 15 to 20)
#    0.000    1.538    1.538    2.308    2.154    9.846 
#    2.769    0.000    0.000    0.000    0.000    0.000 
#    0.000    0.000    0.000    0.000    0.000    0.000 
#
# Total GULP energy -72471.744005 kJ/mol
# GULP energy per Si atom -5574.749539 kJ/mol
# Density = 2.287060 g / cm^3
# Si number density = 22.922769 Si / 1000 Ang^3
#
#
#
# Elastic Constant Matrix: (Units=GPa)
#
#
# Indices 1 2 3 4 5 6 
#
# 1 159.7152 42.0574 50.9631 11.4811 -10.2783 -55.6907
# 2 42.0574 86.6880 38.9361 12.1250 -4.6254 -27.0676
# 3 50.9631 38.9361 127.0733 27.3180 -9.8605 -25.8448
# 4 11.4811 12.1250 27.3180 35.5638 -4.0456 -0.0441
# 5 -10.2783 -4.6254 -9.8605 -4.0456 40.1424 18.8661
# 6 -55.6907 -27.0676 -25.8448 -0.0441 18.8661 39.8857
#
#
#
# Elastic Compliance Matrix: (Units=1/GPa)
#
#
# Indices 1 2 3 4 5 6 
#
# 1 0.014724 0.001316 -0.000661 -0.005641 -0.008599 0.025085
# 2 0.001316 0.016780 -0.002023 -0.005210 -0.005591 0.014553
# 3 -0.000661 -0.002023 0.011571 -0.008097 -0.001050 0.005689
# 4 -0.005641 -0.005210 -0.008097 0.039037 0.009913 -0.021305
# 5 -0.008599 -0.005591 -0.001050 0.009913 0.039279 -0.035048
# 6 0.025085 0.014553 0.005689 -0.021305 -0.035048 0.090213
#
#
# Mechanical properties :
#
#
# Convention : Reuss Voigt Hill
#
# Bulk Modulus (GPa) = 24.79020 70.82109 47.80565
# Shear Modulus (GPa) = 21.95023 39.21970 30.58496
#
# Velocity S-wave (km/s) = 3.09783 4.14085 3.65672
# Velocity P-wave (km/s) = 4.86143 7.33654 6.22327
#
# Compressibility (1/GPa) = 0.04033851
#
# Stress axis : x y z
#
# Youngs Moduli (GPa) = 67.91403 59.59365 86.42348
#
# Poissons Ratio (x) = -0.07843 0.05714
# Poissons Ratio (y) = -0.08937 0.17488
# Poissons Ratio (z) = 0.04490 0.12059
#
# Static dielectric constant tensor:
#      x y z
#    x 1.830430 0.056250 0.005280 
#    y 0.056250 1.848610 -0.007930 
#    z 0.005280 -0.007930 1.844780 
# 
# From -- ./inp_files/137096.got.cif
#   From: 2010.05.17/outbox.cif.g08.bks.cpg/sg2_69_cif.got.tgz:137096.got - 2010.06.03 11:33:40.
