data_PCOD9110074
_publ_section_title
;
Structure prediction by ZEFSAII (Michael W. Deem and Ramdas Pophale) SiO2 
 PCOD9110074
Probable space group: P -1
;
_chemical_formula_sum "Si O2"
_cell_formula_units_Z 14
_cell_length_a 11.560079
_cell_length_b 7.060693
_cell_length_c 8.596453
_cell_angle_alpha 115.525817
_cell_angle_beta 77.052212
_cell_angle_gamma 109.528015
_cell_volume 594.104264
_symmetry_space_group_name_H-M "P -1"
_symmetry_group_IT_number 2
_symmetry_cell_setting 'triclinic'
loop_
_space_group_symop_operation_xyz
x,y,z
-x,-y,-z
loop_
_atom_site_type_symbol
_atom_site_label
_atom_site_fract_x
_atom_site_fract_y
_atom_site_fract_z
Si Si1 0.124505 0.676141 0.171599
Si Si2 0.641268 0.985166 0.642082
Si Si3 0.957607 0.963468 0.259524
Si Si4 0.085903 0.353501 0.565652
Si Si5 0.230389 0.303138 0.981670
Si Si6 0.452511 0.207624 0.717705
Si Si7 0.314192 0.427889 0.345280
O O1 0.174168 0.496906 0.005251
O O2 0.067169 0.845967 0.157064
O O3 0.012316 0.557022 0.277834
O O4 0.238376 0.823279 0.285908
O O5 0.625954 0.936355 0.446412
O O6 0.648556 0.769592 0.652030
O O7 0.520652 0.064582 0.749764
O O8 0.888342 0.823220 0.380359
O O9 0.864952 0.917015 0.127965
O O10 0.012290 0.202902 0.395142
O O11 0.214029 0.494448 0.509493
O O12 0.247030 0.338952 0.172362
O O13 0.363667 0.315952 0.877572
O O14 0.564521 0.384074 0.664310
#
# Coordination Sequence:
#
# PCOD9110074 Si02
#       7
#     2   2   2   2   2   2   2
#     4  10  20  41  69  93 131 171 210 268 325 380
#     4  11  23  47  71  91 126 176 226 256 321 381
#     4   9  19  41  67  94 128 176 209 268 321 385
#     4   9  19  38  68  90 125 173 218 255 314 382
#     4  12  24  39  65  99 138 163 213 268 336 370
#     4  11  26  45  68  94 128 178 216 266 316 390
#     4  12  23  41  68 100 130 166 216 276 308 394
#
# _framework density 23.564889000000001
#
# number of rings (size 3 to 8) (size 9 to 14) (size 15 to 20)
#    0.857    0.571    2.857    3.000    0.000    1.714 
#    0.000    0.000    3.143    0.000    0.000    0.000 
#    0.000    0.000    0.000    0.000    0.000    0.000 
#
# Total GULP energy -78266.285094 kJ/mol
# GULP energy per Si atom -5590.448935 kJ/mol
# Density = 2.351125 g / cm^3
# Si number density = 23.564889 Si / 1000 Ang^3
#
#
#
# Elastic Constant Matrix: (Units=GPa)
#
#
# Indices 1 2 3 4 5 6 
#
# 1 113.5315 12.2561 24.7256 -4.7325 -3.9152 12.6588
# 2 12.2561 40.4192 6.3374 -8.7287 2.5979 -1.2482
# 3 24.7256 6.3374 58.8807 2.4490 -17.0457 15.4092
# 4 -4.7325 -8.7287 2.4490 20.8786 -0.3704 -1.7757
# 5 -3.9152 2.5979 -17.0457 -0.3704 50.9526 6.5192
# 6 12.6588 -1.2482 15.4092 -1.7757 6.5192 35.0933
#
#
#
# Elastic Compliance Matrix: (Units=1/GPa)
#
#
# Indices 1 2 3 4 5 6 
#
# 1 0.010118 -0.002235 -0.003528 0.001594 -0.000009 -0.002098
# 2 -0.002235 0.029493 -0.005450 0.012871 -0.004130 0.005667
# 3 -0.003528 -0.005450 0.025478 -0.006937 0.010057 -0.012328
# 4 0.001594 0.012871 -0.006937 0.054931 -0.003263 0.006314
# 5 -0.000009 -0.004130 0.010057 -0.003263 0.024360 -0.009250
# 6 -0.002098 0.005667 -0.012328 0.006314 -0.009250 0.036904
#
#
# Mechanical properties :
#
#
# Convention : Reuss Voigt Hill
#
# Bulk Modulus (GPa) = 23.43957 33.27441 28.35699
# Shear Modulus (GPa) = 22.94305 32.68572 27.81439
#
# Velocity S-wave (km/s) = 3.12366 3.72835 3.43932
# Velocity P-wave (km/s) = 4.79355 5.71709 5.27557
#
# Compressibility (1/GPa) = 0.04266290
#
# Stress axis : x y z
#
# Youngs Moduli (GPa) = 98.83581 33.90643 39.24991
#
# Poissons Ratio (x) = 0.07577 0.13848
# Poissons Ratio (y) = 0.22086 0.21391
# Poissons Ratio (z) = 0.34871 0.18479
#
# Static dielectric constant tensor:
#      x y z
#    x 1.910530 -0.035610 -0.020520 
#    y -0.035610 1.904110 0.006600 
#    z -0.020520 0.006600 1.894690 
# 
# From -- ./inp_files/245354.got.cif
#   From: 2010.05.17/outbox.cif.g08.bks.cpg/sg2_123_cif.got.tgz:245354.got - 2010.06.03 11:33:40.
