data_PCOD9110398
_publ_section_title
;
Structure prediction by ZEFSAII (Michael W. Deem and Ramdas Pophale) SiO2 
 PCOD9110398
Probable space group: P -1
;
_chemical_formula_sum "Si O2"
_cell_formula_units_Z 16
_cell_length_a 28.005096
_cell_length_b 8.469629
_cell_length_c 21.680843
_cell_angle_alpha 151.493749
_cell_angle_beta 16.976233
_cell_angle_gamma 153.486479
_cell_volume 659.828500
_symmetry_space_group_name_H-M "P -1"
_symmetry_group_IT_number 2
_symmetry_cell_setting 'triclinic'
loop_
_space_group_symop_operation_xyz
x,y,z
-x,-y,-z
loop_
_atom_site_type_symbol
_atom_site_label
_atom_site_fract_x
_atom_site_fract_y
_atom_site_fract_z
Si Si1 0.219081 0.381136 0.237535
Si Si2 0.175652 0.419493 0.753173
Si Si3 0.413680 0.375134 0.206289
Si Si4 0.038194 0.939169 0.662257
Si Si5 0.316094 0.537975 0.746353
Si Si6 0.161901 0.803352 0.645165
Si Si7 0.235038 0.762957 0.052951
Si Si8 0.682488 0.413001 0.983878
O O1 0.064187 0.094149 0.287447
O O2 0.151102 0.694765 0.436800
O O3 0.238577 0.159778 0.196233
O O4 0.412287 0.530106 0.019175
O O5 0.285420 0.666250 0.759732
O O6 0.183764 0.045054 0.639549
O O7 0.168575 0.335215 0.659675
O O8 0.000000 0.500000 0.000000
O O9 0.302774 0.620024 0.416231
O O10 0.303687 0.949649 0.186038
O O11 0.509646 0.438858 0.176042
O O12 0.866151 0.737295 0.849841
O O13 0.500000 0.500000 0.500000
O O14 0.182456 0.122437 0.777620
O O15 0.307637 0.751741 0.890787
O O16 0.967072 0.506711 0.785563
O O17 0.336619 0.643155 0.938782
#
# Coordination Sequence:
#
# PCOD9110398 Si02
#       8
#     2   2   2   2   2   2   2   2
#     4  10  23  35  67  92 135 158 209 257 311 378
#     4  10  22  40  67  88 122 168 211 259 302 372
#     4  10  22  43  60  97 128 170 197 259 318 367
#     4  10  20  42  60  98 119 174 210 252 311 371
#     4  10  23  41  61  90 122 161 203 262 308 365
#     4  10  23  39  66  89 124 162 211 257 305 372
#     4  12  22  40  64  94 121 167 207 258 310 370
#     4  10  22  39  67  86 135 160 209 252 316 369
#
# _framework density 24.248726000000001
#
# number of rings (size 3 to 8) (size 9 to 14) (size 15 to 20)
#    0.750    1.000    1.250    2.625    1.750    4.500 
#    0.000    1.875    0.000    0.000    0.000    0.000 
#    0.000    0.000    0.000    0.000    0.000    0.000 
#
# Total GULP energy -89178.769265 kJ/mol
# GULP energy per Si atom -5573.673079 kJ/mol
# Density = 2.419353 g / cm^3
# Si number density = 24.248726 Si / 1000 Ang^3
#
#
#
# Elastic Constant Matrix: (Units=GPa)
#
#
# Indices 1 2 3 4 5 6 
#
# 1 88.8492 7.5075 27.5454 1.1281 -14.6863 27.3615
# 2 7.5075 58.0029 9.9879 5.7234 -1.7355 -0.7579
# 3 27.5454 9.9879 92.5472 11.6097 -24.6738 7.6940
# 4 1.1281 5.7234 11.6097 32.0069 -3.9893 -3.0437
# 5 -14.6863 -1.7355 -24.6738 -3.9893 39.4416 4.0713
# 6 27.3615 -0.7579 7.6940 -3.0437 4.0713 26.1001
#
#
#
# Elastic Compliance Matrix: (Units=1/GPa)
#
#
# Indices 1 2 3 4 5 6 
#
# 1 0.020226 -0.002313 -0.001496 -0.000790 0.008714 -0.022281
# 2 -0.002313 0.018065 -0.001706 -0.002419 -0.001733 0.003440
# 3 -0.001496 -0.001706 0.014649 -0.004329 0.008574 -0.004642
# 4 -0.000790 -0.002419 -0.004329 0.033808 -0.000311 0.006025
# 5 0.008714 -0.001733 0.008574 -0.000311 0.035641 -0.017309
# 6 -0.022281 0.003440 -0.004642 0.006025 -0.017309 0.066543
#
#
# Mechanical properties :
#
#
# Convention : Reuss Voigt Hill
#
# Bulk Modulus (GPa) = 23.85971 36.60898 30.23434
# Shear Modulus (GPa) = 23.37182 32.46695 27.91938
#
# Velocity S-wave (km/s) = 3.10794 3.66309 3.39687
# Velocity P-wave (km/s) = 4.76865 5.74639 5.28020
#
# Compressibility (1/GPa) = 0.04191167
#
# Stress axis : x y z
#
# Youngs Moduli (GPa) = 49.44080 55.35433 68.26246
#
# Poissons Ratio (x) = 0.12803 0.10211
# Poissons Ratio (y) = 0.11435 0.11645
# Poissons Ratio (z) = 0.07396 0.09443
#
# Static dielectric constant tensor:
#      x y z
#    x 2.055180 0.055640 0.070850 
#    y 0.055640 2.139970 0.005340 
#    z 0.070850 0.005340 1.864910 
# 
# From -- ./inp_files/602295.got.cif
#   From: 2010.05.17/outbox.cif.g08.bks.cpg/sg2_302_cif.got.tgz:602295.got - 2010.06.03 11:33:40.
