data_PCOD9110743
_publ_section_title
;
Structure prediction by ZEFSAII (Michael W. Deem and Ramdas Pophale) SiO2 
 PCOD9110743
Probable space group: P -1
;
_chemical_formula_sum "Si O2"
_cell_formula_units_Z 14
_cell_length_a 9.588019
_cell_length_b 13.249823
_cell_length_c 13.039808
_cell_angle_alpha 138.240170
_cell_angle_beta 124.025621
_cell_angle_gamma 36.391214
_cell_volume 651.060895
_symmetry_space_group_name_H-M "P -1"
_symmetry_group_IT_number 2
_symmetry_cell_setting 'triclinic'
loop_
_space_group_symop_operation_xyz
x,y,z
-x,-y,-z
loop_
_atom_site_type_symbol
_atom_site_label
_atom_site_fract_x
_atom_site_fract_y
_atom_site_fract_z
Si Si1 0.192591 0.498764 0.037175
Si Si2 0.071985 0.922014 0.354392
Si Si3 0.271035 0.652219 0.592994
Si Si4 0.138241 0.584339 0.842053
Si Si5 0.524864 0.841942 0.463955
Si Si6 0.810576 0.641249 0.619157
Si Si7 0.725936 0.228241 0.080633
O O1 0.124381 0.710851 0.207881
O O2 0.475860 0.294805 0.020635
O O3 0.151914 0.534545 0.926589
O O4 0.000000 0.500000 0.000000
O O5 0.304548 0.871000 0.389745
O O6 0.000000 0.000000 0.500000
O O7 0.886264 0.115035 0.345594
O O8 0.500000 0.500000 0.500000
O O9 0.193786 0.524159 0.459444
O O10 0.287557 0.683647 0.745114
O O11 0.268535 0.376501 0.672906
O O12 0.277352 0.647827 0.918775
O O13 0.877261 0.730465 0.795160
O O14 0.582498 0.829435 0.598759
O O15 0.500000 0.000000 0.500000
O O16 0.000000 0.500000 0.500000
O O17 0.000000 0.000000 0.000000
#
# Coordination Sequence:
#
# PCOD9110743 Si02
#       7
#     2   2   2   2   2   2   2
#     4  12  29  51  74 112 154 200 255 318 387 457
#     4  12  26  47  73 107 148 199 253 314 386 449
#     4  12  25  45  75 106 152 195 252 323 382 452
#     4  11  24  45  72 101 154 188 249 313 371 461
#     4  11  23  40  75 108 143 190 252 302 373 451
#     4  10  20  42  66 109 137 187 243 301 371 447
#     4  12  26  49  76 107 148 206 252 313 386 459
#
# _framework density 21.503364999999999
#
# number of rings (size 3 to 8) (size 9 to 14) (size 15 to 20)
#    0.000    0.571    4.286    4.714    8.000    0.000 
#    2.571    1.429    0.000    0.000    0.000    0.000 
#    0.000    0.000    0.000    0.000    0.000    0.000 
#
# Total GULP energy -77989.393368 kJ/mol
# GULP energy per Si atom -5570.670955 kJ/mol
# Density = 2.145442 g / cm^3
# Si number density = 21.503365 Si / 1000 Ang^3
#
#
#
# Elastic Constant Matrix: (Units=GPa)
#
#
# Indices 1 2 3 4 5 6 
#
# 1 185.3862 45.5677 52.4234 -1.3315 9.2863 -2.1417
# 2 45.5677 106.2748 30.4409 -2.3062 2.9096 -9.3152
# 3 52.4234 30.4409 73.9546 -17.6452 -12.3059 -22.8873
# 4 -1.3315 -2.3062 -17.6452 28.5312 7.5003 2.5236
# 5 9.2863 2.9096 -12.3059 7.5003 42.7586 -3.5137
# 6 -2.1417 -9.3152 -22.8873 2.5236 -3.5137 33.7925
#
#
#
# Elastic Compliance Matrix: (Units=1/GPa)
#
#
# Indices 1 2 3 4 5 6 
#
# 1 0.008311 -0.001595 -0.008541 -0.003445 -0.004032 -0.005860
# 2 -0.001595 0.011254 -0.003931 -0.001280 -0.001302 0.000299
# 3 -0.008541 -0.003931 0.032958 0.015032 0.010671 0.020684
# 4 -0.003445 -0.001280 0.015032 0.044086 -0.002070 0.006102
# 5 -0.004032 -0.001302 0.010671 -0.002070 0.028586 0.009740
# 6 -0.005860 0.000299 0.020684 0.006102 0.009740 0.043869
#
#
# Mechanical properties :
#
#
# Convention : Reuss Voigt Hill
#
# Bulk Modulus (GPa) = 41.00410 69.16443 55.08427
# Shear Modulus (GPa) = 24.35141 36.82867 30.59004
#
# Velocity S-wave (km/s) = 3.36884 4.14296 3.77579
# Velocity P-wave (km/s) = 5.85168 7.42427 6.68438
#
# Compressibility (1/GPa) = 0.02438780
#
# Stress axis : x y z
#
# Youngs Moduli (GPa) = 120.32305 88.86112 30.34202
#
# Poissons Ratio (x) = 0.14174 0.25915
# Poissons Ratio (y) = 0.19192 0.11928
# Poissons Ratio (z) = 1.02769 0.34932
#
# Static dielectric constant tensor:
#      x y z
#    x 2.347230 -0.624660 0.173710 
#    y -0.624660 1.508460 0.115980 
#    z 0.173710 0.115980 1.738100 
# 
# From -- ./inp_files/344918.got.cif
#   From: 2010.05.17/outbox.cif.g08.bks.cpg/sg2_173_cif.got.tgz:344918.got - 2010.06.03 11:33:40.
