data_PCOD9110079
_publ_section_title
;
Structure prediction by ZEFSAII (Michael W. Deem and Ramdas Pophale) SiO2 
 PCOD9110079
Probable space group: P -1
;
_chemical_formula_sum "Si O2"
_cell_formula_units_Z 16
_cell_length_a 16.758335
_cell_length_b 16.857008
_cell_length_c 12.781883
_cell_angle_alpha 119.132614
_cell_angle_beta 116.217335
_cell_angle_gamma 17.282523
_cell_volume 933.300711
_symmetry_space_group_name_H-M "P -1"
_symmetry_group_IT_number 2
_symmetry_cell_setting 'triclinic'
loop_
_space_group_symop_operation_xyz
x,y,z
-x,-y,-z
loop_
_atom_site_type_symbol
_atom_site_label
_atom_site_fract_x
_atom_site_fract_y
_atom_site_fract_z
Si Si1 0.078046 0.065720 0.689600
Si Si2 0.493890 0.198783 0.240710
Si Si3 0.016283 0.526684 0.412407
Si Si4 0.556523 0.957588 0.256904
Si Si5 0.232009 0.907563 0.432270
Si Si6 0.717675 0.722846 0.998423
Si Si7 0.234467 0.515719 0.499730
Si Si8 0.476544 0.489187 0.357578
O O1 0.242794 0.998501 0.766580
O O2 0.149114 0.983060 0.555112
O O3 0.234123 0.836689 0.698653
O O4 0.759370 0.357629 0.698648
O O5 0.302178 0.437525 0.364667
O O6 0.589176 0.020122 0.250404
O O7 0.325120 0.326305 0.125581
O O8 0.104915 0.546728 0.481278
O O9 0.000000 0.500000 0.500000
O O10 0.740670 0.784812 0.354485
O O11 0.247089 0.254254 0.302906
O O12 0.649735 0.788324 0.123855
O O13 0.472043 0.748166 0.452762
O O14 0.373882 0.673494 0.348525
O O15 0.964436 0.207628 0.419084
O O16 0.000000 0.500000 0.000000
O O17 0.500000 0.000000 0.000000
O O18 0.500000 0.500000 0.500000
#
# Coordination Sequence:
#
# PCOD9110079 Si02
#       8
#     2   2   2   2   2   2   2   2
#     4  10  17  25  38  58  83 116 150 182 211 251
#     4   9  19  30  45  66  92 120 156 188 214 262
#     4  11  21  34  49  67  90 117 150 194 236 272
#     4  10  20  33  48  67  89 121 157 186 226 272
#     4  10  17  27  39  55  81 113 149 182 206 251
#     4  10  19  31  48  67  91 122 155 192 225 262
#     4  10  18  28  43  61  82 114 150 180 214 259
#     4  10  18  26  37  55  82 117 152 180 213 251
#
# _framework density 17.143457000000001
#
# number of rings (size 3 to 8) (size 9 to 14) (size 15 to 20)
#    0.000    2.000    0.000    9.375    0.000    5.000 
#    0.000    0.000    0.000    0.000    0.000    0.000 
#    0.000    0.000    0.000   22.500    0.000   14.125 
#
# Total GULP energy -89123.795757 kJ/mol
# GULP energy per Si atom -5570.237235 kJ/mol
# Density = 1.710444 g / cm^3
# Si number density = 17.143457 Si / 1000 Ang^3
#
#
#
# Elastic Constant Matrix: (Units=GPa)
#
#
# Indices 1 2 3 4 5 6 
#
# 1 52.1453 8.8920 17.7345 -5.1886 5.4228 1.6438
# 2 8.8920 93.4973 3.1010 -5.4845 2.3489 -0.9788
# 3 17.7345 3.1010 34.5095 -5.7637 4.0585 4.5858
# 4 -5.1886 -5.4845 -5.7637 17.6918 -3.2208 3.8705
# 5 5.4228 2.3489 4.0585 -3.2208 13.1802 -8.7785
# 6 1.6438 -0.9788 4.5858 3.8705 -8.7785 21.1635
#
#
#
# Elastic Compliance Matrix: (Units=1/GPa)
#
#
# Indices 1 2 3 4 5 6 
#
# 1 0.024224 -0.001643 -0.010449 0.002472 -0.008220 -0.003555
# 2 -0.001643 0.011032 0.000539 0.003028 -0.001020 -0.000456
# 3 -0.010449 0.000539 0.040328 0.010872 -0.016781 -0.016851
# 4 0.002472 0.003028 0.010872 0.065043 0.002022 -0.013464
# 5 -0.008220 -0.001020 -0.016781 0.002022 0.121131 0.054102
# 6 -0.003555 -0.000456 -0.016851 -0.013464 0.054102 0.076061
#
#
# Mechanical properties :
#
#
# Convention : Reuss Voigt Hill
#
# Bulk Modulus (GPa) = 19.05558 26.62300 22.83929
# Shear Modulus (GPa) = 13.21291 20.43540 16.82416
#
# Velocity S-wave (km/s) = 2.77921 3.45631 3.13609
# Velocity P-wave (km/s) = 4.63014 5.61172 5.14439
#
# Compressibility (1/GPa) = 0.05247807
#
# Stress axis : x y z
#
# Youngs Moduli (GPa) = 41.28148 90.64267 24.79694
#
# Poissons Ratio (x) = 0.14892 0.25911
# Poissons Ratio (y) = 0.06782 -0.01337
# Poissons Ratio (z) = 0.43136 -0.04887
#
# Static dielectric constant tensor:
#      x y z
#    x 1.630440 0.025800 0.065790 
#    y 0.025800 1.632850 0.027050 
#    z 0.065790 0.027050 1.605390 
# 
# From -- ./inp_files/454863.got.cif
#   From: 2010.05.17/outbox.cif.g08.bks.cpg/sg2_228_cif.got.tgz:454863.got - 2010.06.03 11:33:40.
