data_PCOD9110020
_publ_section_title
;
Structure prediction by ZEFSAII (Michael W. Deem and Ramdas Pophale) SiO2 
 PCOD9110020
Probable space group: P -1
;
_chemical_formula_sum "Si O2"
_cell_formula_units_Z 12
_cell_length_a 7.145962
_cell_length_b 10.026458
_cell_length_c 13.631481
_cell_angle_alpha 30.109798
_cell_angle_beta 100.050929
_cell_angle_gamma 108.416819
_cell_volume 454.744573
_symmetry_space_group_name_H-M "P -1"
_symmetry_group_IT_number 2
_symmetry_cell_setting 'triclinic'
loop_
_space_group_symop_operation_xyz
x,y,z
-x,-y,-z
loop_
_atom_site_type_symbol
_atom_site_label
_atom_site_fract_x
_atom_site_fract_y
_atom_site_fract_z
Si Si1 0.508276 0.686411 0.697760
Si Si2 0.931673 0.419956 0.234407
Si Si3 0.911676 0.878314 0.711309
Si Si4 0.868124 0.169979 0.704423
Si Si5 0.262450 0.960435 0.002516
Si Si6 0.418132 0.552499 0.564328
O O1 0.276844 0.517577 0.810418
O O2 0.684672 0.678210 0.790863
O O3 0.553781 0.622449 0.630274
O O4 0.500000 0.000000 0.500000
O O5 0.943848 0.276467 0.222585
O O6 0.937782 0.171704 0.468840
O O7 0.123819 0.689169 0.104870
O O8 0.942201 0.971816 0.766378
O O9 0.664230 0.189716 0.621567
O O10 0.000000 0.500000 0.500000
O O11 0.815386 0.081557 0.866931
O O12 0.255250 0.250481 0.770726
O O13 0.500000 0.000000 0.000000
O O14 0.500000 0.500000 0.500000
#
# Coordination Sequence:
#
# PCOD9110020 Si02
#       6
#     2   2   2   2   2   2
#     4  10  20  41  69 100 138 187 236 284 358 425
#     4  10  21  40  69 102 138 190 234 290 352 425
#     4  10  21  42  72  99 145 186 231 292 360 418
#     4  12  24  45  70 107 139 188 234 290 366 421
#     4  12  25  44  72 108 145 184 247 293 353 434
#     4  12  25  44  72 101 141 189 235 297 357 414
#
# _framework density 26.388442999999999
#
# number of rings (size 3 to 8) (size 9 to 14) (size 15 to 20)
#    0.000    1.000    6.667    1.000    0.000    4.000 
#    0.000    5.000    0.000   11.000    0.000    0.000 
#    0.000    0.000    0.000    0.000    0.000    0.000 
#
# Total GULP energy -67258.340274 kJ/mol
# GULP energy per Si atom -5604.861689 kJ/mol
# Density = 2.632838 g / cm^3
# Si number density = 26.388443 Si / 1000 Ang^3
#
#
#
# Elastic Constant Matrix: (Units=GPa)
#
#
# Indices 1 2 3 4 5 6 
#
# 1 123.2038 62.0063 29.6747 7.9381 -16.1595 -7.5991
# 2 62.0063 225.3810 58.1495 8.8361 -21.7068 -38.5402
# 3 29.6747 58.1495 146.0184 14.2886 -18.4973 -10.3039
# 4 7.9381 8.8361 14.2886 50.9166 0.4521 -13.1580
# 5 -16.1595 -21.7068 -18.4973 0.4521 43.2047 3.4336
# 6 -7.5991 -38.5402 -10.3039 -13.1580 3.4336 55.3151
#
#
#
# Elastic Compliance Matrix: (Units=1/GPa)
#
#
# Indices 1 2 3 4 5 6 
#
# 1 0.009812 -0.002407 -0.000699 -0.001162 0.002243 -0.000875
# 2 -0.002407 0.006270 -0.001653 0.000729 0.001230 0.003827
# 3 -0.000699 -0.001653 0.008128 -0.002000 0.002437 -0.000361
# 4 -0.001162 0.000729 -0.002000 0.021617 -0.001565 0.005215
# 5 0.002243 0.001230 0.002437 -0.001565 0.025690 -0.000348
# 6 -0.000875 0.003827 -0.000361 0.005215 -0.000348 0.021819
#
#
# Mechanical properties :
#
#
# Convention : Reuss Voigt Hill
#
# Bulk Modulus (GPa) = 68.07201 88.25160 78.16180
# Shear Modulus (GPa) = 46.40279 52.87211 49.63745
#
# Velocity S-wave (km/s) = 4.19794 4.48102 4.34179
# Velocity P-wave (km/s) = 7.02489 7.76458 7.40398
#
# Compressibility (1/GPa) = 0.01469033
#
# Stress axis : x y z
#
# Youngs Moduli (GPa) = 101.92121 159.48987 123.03263
#
# Poissons Ratio (x) = 0.38388 0.08605
# Poissons Ratio (y) = 0.24532 0.20340
# Poissons Ratio (z) = 0.07128 0.26367
#
# Static dielectric constant tensor:
#      x y z
#    x 2.189490 0.080140 0.004480 
#    y 0.080140 2.078030 0.014350 
#    z 0.004480 0.014350 2.106700 
# 
# From -- ./inp_files/380893.got.cif
#   From: 2010.05.17/outbox.cif.g08.bks.cpg/sg2_191_cif.got.tgz:380893.got - 2010.06.03 11:33:40.
