data_PCOD9110238
_publ_section_title
;
Structure prediction by ZEFSAII (Michael W. Deem and Ramdas Pophale) SiO2 
 PCOD9110238
Probable space group: P -1
;
_chemical_formula_sum "Si O2"
_cell_formula_units_Z 14
_cell_length_a 14.828768
_cell_length_b 12.006639
_cell_length_c 12.010832
_cell_angle_alpha 47.475112
_cell_angle_beta 37.383015
_cell_angle_gamma 29.822185
_cell_volume 645.035999
_symmetry_space_group_name_H-M "P -1"
_symmetry_group_IT_number 2
_symmetry_cell_setting 'triclinic'
loop_
_space_group_symop_operation_xyz
x,y,z
-x,-y,-z
loop_
_atom_site_type_symbol
_atom_site_label
_atom_site_fract_x
_atom_site_fract_y
_atom_site_fract_z
Si Si1 0.273714 0.294717 0.106484
Si Si2 0.720520 0.480415 0.861371
Si Si3 0.894593 0.016085 0.205673
Si Si4 0.859256 0.415257 0.351533
Si Si5 0.247030 0.751866 0.592490
Si Si6 0.483502 0.178607 0.754347
Si Si7 0.468174 0.376950 0.272035
O O1 0.204774 0.459921 0.158871
O O2 0.074069 0.347432 0.217160
O O3 0.453430 0.043735 0.149773
O O4 0.381367 0.297979 0.893625
O O5 0.589017 0.650813 0.772267
O O6 0.568772 0.466068 0.079630
O O7 0.930484 0.241937 0.759438
O O8 0.854129 0.169767 0.237679
O O9 0.653787 0.147098 0.313705
O O10 0.000000 0.000000 0.000000
O O11 0.894497 0.240765 0.358047
O O12 0.692431 0.644857 0.286480
O O13 0.733961 0.459137 0.556449
O O14 0.500000 0.500000 0.500000
O O15 0.292018 0.894653 0.430397
#
# Coordination Sequence:
#
# PCOD9110238 Si02
#       7
#     2   2   2   2   2   2   2
#     4  11  25  43  61  95 132 171 202 268 320 383
#     4  10  24  42  65  92 134 164 212 256 324 383
#     4  10  21  40  66  99 123 164 214 265 316 367
#     4  11  23  40  70  95 122 164 221 262 319 364
#     4  10  20  41  71  92 125 162 219 266 304 372
#     4  10  23  44  63  91 130 166 219 253 319 378
#     4  10  21  43  65  95 121 169 215 263 308 377
#
# _framework density 21.704215000000001
#
# number of rings (size 3 to 8) (size 9 to 14) (size 15 to 20)
#    0.000    1.714    2.857    1.286    8.000    2.286 
#   15.429    1.429    0.000    0.000    0.000    0.000 
#    0.000    0.000    0.000    0.000    0.000    0.000 
#
# Total GULP energy -78135.464341 kJ/mol
# GULP energy per Si atom -5581.104596 kJ/mol
# Density = 2.165481 g / cm^3
# Si number density = 21.704215 Si / 1000 Ang^3
#
#
#
# Elastic Constant Matrix: (Units=GPa)
#
#
# Indices 1 2 3 4 5 6 
#
# 1 129.6874 18.0189 39.4885 7.5800 12.7504 4.4851
# 2 18.0189 49.2377 17.3262 4.2245 13.7020 3.9735
# 3 39.4885 17.3262 76.2006 11.7556 25.4583 7.6159
# 4 7.5800 4.2245 11.7556 29.7337 1.9863 13.7020
# 5 12.7504 13.7020 25.4583 1.9863 30.9739 6.9938
# 6 4.4851 3.9735 7.6159 13.7020 6.9938 29.9522
#
#
#
# Elastic Compliance Matrix: (Units=1/GPa)
#
#
# Indices 1 2 3 4 5 6 
#
# 1 0.009329 -0.002001 -0.004617 -0.000320 0.000863 -0.000012
# 2 -0.002001 0.024056 -0.001233 -0.002014 -0.008763 0.000389
# 3 -0.004617 -0.001233 0.021913 -0.007317 -0.015609 0.002275
# 4 -0.000320 -0.002014 -0.007317 0.045932 0.008809 -0.020894
# 5 0.000863 -0.008763 -0.015609 0.008809 0.050515 -0.010823
# 6 -0.000012 0.000389 0.002275 -0.020894 -0.010823 0.044843
#
#
# Mechanical properties :
#
#
# Convention : Reuss Voigt Hill
#
# Bulk Modulus (GPa) = 25.25598 44.97698 35.11648
# Shear Modulus (GPa) = 22.17401 30.15144 26.16272
#
# Velocity S-wave (km/s) = 3.19979 3.73124 3.47568
# Velocity P-wave (km/s) = 5.03122 6.27141 5.68523
#
# Compressibility (1/GPa) = 0.03959459
#
# Stress axis : x y z
#
# Youngs Moduli (GPa) = 107.19200 41.56984 45.63564
#
# Poissons Ratio (x) = 0.08318 0.21071
# Poissons Ratio (y) = 0.21449 0.05628
# Poissons Ratio (z) = 0.49493 0.05127
#
# Static dielectric constant tensor:
#      x y z
#    x 1.783080 -0.023440 0.009700 
#    y -0.023440 1.861190 -0.007190 
#    z 0.009700 -0.007190 1.829870 
# 
# From -- ./inp_files/157516.got.cif
#   From: 2010.05.17/outbox.cif.g08.bks.cpg/sg2_79_cif.got.tgz:157516.got - 2010.06.03 11:33:40.
