data_PCOD9110955
_publ_section_title
;
Structure prediction by ZEFSAII (Michael W. Deem and Ramdas Pophale) SiO2 
 PCOD9110955
Probable space group: P -1
;
_chemical_formula_sum "Si O2"
_cell_formula_units_Z 16
_cell_length_a 9.237993
_cell_length_b 13.128313
_cell_length_c 8.027103
_cell_angle_alpha 110.007661
_cell_angle_beta 103.887019
_cell_angle_gamma 114.602883
_cell_volume 743.727444
_symmetry_space_group_name_H-M "P -1"
_symmetry_group_IT_number 2
_symmetry_cell_setting 'triclinic'
loop_
_space_group_symop_operation_xyz
x,y,z
-x,-y,-z
loop_
_atom_site_type_symbol
_atom_site_label
_atom_site_fract_x
_atom_site_fract_y
_atom_site_fract_z
Si Si1 0.153568 0.259853 0.728731
Si Si2 0.273064 0.031252 0.107134
Si Si3 0.598685 0.789915 0.046974
Si Si4 0.428378 0.898261 0.271611
Si Si5 0.585446 0.485500 0.253834
Si Si6 0.920157 0.872589 0.705120
Si Si7 0.770311 0.605663 0.696600
Si Si8 0.047427 0.643606 0.059962
O O1 0.221569 0.204071 0.856572
O O2 0.322462 0.387527 0.762897
O O3 0.065459 0.158678 0.497847
O O4 0.035761 0.307448 0.799989
O O5 0.186631 0.058663 0.256236
O O6 0.364983 0.958492 0.148252
O O7 0.401404 0.159494 0.108499
O O8 0.109895 0.950219 0.889958
O O9 0.571025 0.872710 0.219807
O O10 0.446458 0.638030 0.922228
O O11 0.255422 0.755811 0.181884
O O12 0.500000 0.000000 0.500000
O O13 0.706047 0.512864 0.466204
O O14 0.395249 0.451361 0.253393
O O15 0.809478 0.738486 0.702457
O O16 0.945035 0.634055 0.855059
O O17 0.000000 0.500000 0.000000
#
# Coordination Sequence:
#
# PCOD9110955 Si02
#       8
#     2   2   2   2   2   2   2   2
#     4  11  24  41  70  99 134 173 231 273 336 406
#     4  11  23  43  67  93 135 171 227 276 335 395
#     4  12  24  43  68  99 132 180 225 274 336 404
#     4  12  29  47  66 100 144 178 224 284 344 398
#     4  10  21  39  69 100 130 169 228 278 331 392
#     4  10  21  41  69  98 125 177 222 279 324 402
#     4  10  20  42  67  97 131 173 221 277 333 401
#     4  12  26  46  68 100 140 179 224 281 339 402
#
# _framework density 21.513258
#
# number of rings (size 3 to 8) (size 9 to 14) (size 15 to 20)
#    0.000    1.000    3.750    2.250    5.250    1.500 
#    2.250    1.875    0.000    0.000    0.000    0.000 
#    0.000    0.000    0.000    0.000    0.000    0.000 
#
# Total GULP energy -89466.247900 kJ/mol
# GULP energy per Si atom -5591.640494 kJ/mol
# Density = 2.146429 g / cm^3
# Si number density = 21.513258 Si / 1000 Ang^3
#
#
#
# Elastic Constant Matrix: (Units=GPa)
#
#
# Indices 1 2 3 4 5 6 
#
# 1 72.0859 16.8725 21.7499 5.0327 -15.9471 -11.3305
# 2 16.8725 78.1428 11.4378 2.8058 -2.7917 -7.3812
# 3 21.7499 11.4378 109.3769 13.2401 -22.5802 -13.0355
# 4 5.0327 2.8058 13.2401 25.6372 2.0849 -5.5709
# 5 -15.9471 -2.7917 -22.5802 2.0849 30.1665 13.4854
# 6 -11.3305 -7.3812 -13.0355 -5.5709 13.4854 27.2525
#
#
#
# Elastic Compliance Matrix: (Units=1/GPa)
#
#
# Indices 1 2 3 4 5 6 
#
# 1 0.016957 -0.003007 -0.001006 -0.002760 0.007452 0.001503
# 2 -0.003007 0.013809 -0.001062 0.000591 -0.002680 0.003429
# 3 -0.001006 -0.001062 0.012102 -0.006900 0.009327 -0.000943
# 4 -0.002760 0.000591 -0.006900 0.047174 -0.015695 0.013122
# 5 0.007452 -0.002680 0.009327 -0.015695 0.055581 -0.023878
# 6 0.001503 0.003429 -0.000943 0.013122 -0.023878 0.052294
#
#
# Mechanical properties :
#
#
# Convention : Reuss Voigt Hill
#
# Bulk Modulus (GPa) = 30.56453 39.96955 35.26704
# Shear Modulus (GPa) = 22.83386 30.58096 26.70741
#
# Velocity S-wave (km/s) = 3.26143 3.77436 3.52723
# Velocity P-wave (km/s) = 5.33110 6.13301 5.74606
#
# Compressibility (1/GPa) = 0.03271766
#
# Stress axis : x y z
#
# Youngs Moduli (GPa) = 58.97253 72.41802 82.62992
#
# Poissons Ratio (x) = 0.21775 0.08313
# Poissons Ratio (y) = 0.17732 0.08778
# Poissons Ratio (z) = 0.05933 0.07693
#
# Static dielectric constant tensor:
#      x y z
#    x 1.775460 0.033070 -0.004450 
#    y 0.033070 1.790120 0.026900 
#    z -0.004450 0.026900 1.802370 
# 
# From -- ./inp_files/189466.got.cif
#   From: 2010.05.17/outbox.cif.g08.bks.cpg/sg2_95_cif.got.tgz:189466.got - 2010.06.03 11:33:40.
