data_PCOD9110242
_publ_section_title
;
Structure prediction by ZEFSAII (Michael W. Deem and Ramdas Pophale) SiO2 
 PCOD9110242
Probable space group: P -1
;
_chemical_formula_sum "Si O2"
_cell_formula_units_Z 16
_cell_length_a 11.892827
_cell_length_b 11.930938
_cell_length_c 8.451914
_cell_angle_alpha 40.921534
_cell_angle_beta 124.323135
_cell_angle_gamma 114.529096
_cell_volume 648.629041
_symmetry_space_group_name_H-M "P -1"
_symmetry_group_IT_number 2
_symmetry_cell_setting 'triclinic'
loop_
_space_group_symop_operation_xyz
x,y,z
-x,-y,-z
loop_
_atom_site_type_symbol
_atom_site_label
_atom_site_fract_x
_atom_site_fract_y
_atom_site_fract_z
Si Si1 0.935099 0.048580 0.230722
Si Si2 0.892228 0.433260 0.861579
Si Si3 0.865174 0.599678 0.343065
Si Si4 0.669161 0.991896 0.920818
Si Si5 0.420938 0.342289 0.973283
Si Si6 0.606465 0.832263 0.528959
Si Si7 0.381574 0.502425 0.271607
Si Si8 0.826575 0.976897 0.760841
O O1 0.031797 0.964639 0.261215
O O2 0.937497 0.255316 0.005673
O O3 0.780552 0.993992 0.142879
O O4 0.000000 0.000000 0.500000
O O5 0.871146 0.579566 0.557594
O O6 0.749524 0.400041 0.869875
O O7 0.000000 0.500000 0.000000
O O8 0.712811 0.533591 0.251567
O O9 0.000000 0.500000 0.500000
O O10 0.858620 0.785822 0.058482
O O11 0.528898 0.089789 0.739475
O O12 0.750616 0.067339 0.751142
O O13 0.623915 0.805762 0.026403
O O14 0.551063 0.421936 0.912775
O O15 0.443189 0.252443 0.254436
O O16 0.663935 0.686262 0.615253
O O17 0.720276 0.958779 0.550476
O O18 0.500000 0.500000 0.500000
#
# Coordination Sequence:
#
# PCOD9110242 Si02
#       8
#     2   2   2   2   2   2   2   2
#     4  12  27  44  64 103 137 175 227 274 341 404
#     4  12  27  44  68  99 139 181 224 278 343 395
#     4  10  20  41  71  94 131 176 229 270 338 388
#     4  10  23  44  70  95 132 177 223 272 332 404
#     4  10  23  42  70  99 133 176 226 277 338 395
#     4  10  22  43  70  96 131 173 228 272 332 398
#     4  12  24  42  65 100 139 173 220 279 330 403
#     4  10  22  44  72  96 132 176 224 285 330 402
#
# _framework density 24.66741
#
# number of rings (size 3 to 8) (size 9 to 14) (size 15 to 20)
#    0.000    1.500    2.500    3.750    5.250    3.000 
#    2.250    1.875    0.000    0.000    0.000    0.000 
#    0.000    0.000    0.000    0.000    0.000    0.000 
#
# Total GULP energy -89520.761154 kJ/mol
# GULP energy per Si atom -5595.047572 kJ/mol
# Density = 2.461127 g / cm^3
# Si number density = 24.667410 Si / 1000 Ang^3
#
#
#
# Elastic Constant Matrix: (Units=GPa)
#
#
# Indices 1 2 3 4 5 6 
#
# 1 107.2614 -9.5245 25.0655 -2.1307 20.3900 8.1676
# 2 -9.5245 82.0684 12.6992 23.3402 -0.2182 6.7905
# 3 25.0655 12.6992 98.7469 26.8158 12.6817 11.3595
# 4 -2.1307 23.3402 26.8158 39.0031 1.0676 12.5168
# 5 20.3900 -0.2182 12.6817 1.0676 32.9621 -0.4716
# 6 8.1676 6.7905 11.3595 12.5168 -0.4716 28.0756
#
#
#
# Elastic Compliance Matrix: (Units=1/GPa)
#
#
# Indices 1 2 3 4 5 6 
#
# 1 0.011643 0.001155 -0.002716 0.003318 -0.006317 -0.004153
# 2 0.001155 0.014833 0.000304 -0.008996 -0.000442 -0.000043
# 3 -0.002716 0.000304 0.013885 -0.009562 -0.003360 -0.000695
# 4 0.003318 -0.008996 -0.009562 0.042183 0.000004 -0.013727
# 5 -0.006317 -0.000442 -0.003360 0.000004 0.035591 0.003900
# 6 -0.004153 -0.000043 -0.000695 -0.013727 0.003900 0.043303
#
#
# Mechanical properties :
#
#
# Convention : Reuss Voigt Hill
#
# Bulk Modulus (GPa) = 26.42215 38.28411 32.35313
# Shear Modulus (GPa) = 28.31767 37.33061 32.82414
#
# Velocity S-wave (km/s) = 3.39186 3.89441 3.65179
# Velocity P-wave (km/s) = 5.10629 5.98128 5.56102
#
# Compressibility (1/GPa) = 0.03784704
#
# Stress axis : x y z
#
# Youngs Moduli (GPa) = 85.88732 67.41793 72.01824
#
# Poissons Ratio (x) = -0.07785 0.19561
# Poissons Ratio (y) = -0.09917 -0.02191
# Poissons Ratio (z) = 0.23327 -0.02051
#
# Static dielectric constant tensor:
#      x y z
#    x 1.957280 0.053270 -0.064960 
#    y 0.053270 1.917120 0.069250 
#    z -0.064960 0.069250 1.813200 
# 
# From -- ./inp_files/261812.got.cif
#   From: 2010.05.17/outbox.cif.g08.bks.cpg/sg2_131_cif.got.tgz:261812.got - 2010.06.03 11:33:40.
