data_PCOD9110858
_publ_section_title
;
Structure prediction by ZEFSAII (Michael W. Deem and Ramdas Pophale) SiO2 
 PCOD9110858
Probable space group: P -1
;
_chemical_formula_sum "Si O2"
_cell_formula_units_Z 16
_cell_length_a 14.605910
_cell_length_b 8.858023
_cell_length_c 12.097254
_cell_angle_alpha 101.872731
_cell_angle_beta 121.894140
_cell_angle_gamma 38.419809
_cell_volume 758.743105
_symmetry_space_group_name_H-M "P -1"
_symmetry_group_IT_number 2
_symmetry_cell_setting 'triclinic'
loop_
_space_group_symop_operation_xyz
x,y,z
-x,-y,-z
loop_
_atom_site_type_symbol
_atom_site_label
_atom_site_fract_x
_atom_site_fract_y
_atom_site_fract_z
Si Si1 0.507472 0.701880 0.748159
Si Si2 0.803831 0.684334 0.354826
Si Si3 0.587077 0.661599 0.272554
Si Si4 0.619182 0.507634 0.039596
Si Si5 0.746812 0.258706 0.477258
Si Si6 0.324295 0.370771 0.359190
Si Si7 0.011156 0.779977 0.725919
Si Si8 0.701701 0.945544 0.669242
O O1 0.435970 0.636674 0.623173
O O2 0.660326 0.608072 0.756974
O O3 0.329947 0.017379 0.700303
O O4 0.574435 0.587165 0.895801
O O5 0.697387 0.690595 0.368982
O O6 0.000000 0.500000 0.500000
O O7 0.860793 0.517945 0.259971
O O8 0.553627 0.696621 0.125984
O O9 0.720192 0.368778 0.356456
O O10 0.403348 0.877434 0.260299
O O11 0.843229 0.257759 0.151429
O O12 0.500000 0.500000 0.000000
O O13 0.755839 0.392880 0.586889
O O14 0.910946 0.957150 0.576879
O O15 0.236015 0.305033 0.312667
O O16 0.537669 0.122785 0.500806
O O17 0.850814 0.898691 0.719681
#
# Coordination Sequence:
#
# PCOD9110858 Si02
#       8
#     2   2   2   2   2   2   2   2
#     4  12  22  43  69  94 132 178 218 259 333 394
#     4  11  22  39  65  98 131 167 220 273 319 375
#     4  10  23  40  67  95 132 179 214 267 327 389
#     4  11  26  46  64  95 136 176 213 265 336 393
#     4  11  22  37  69 101 130 165 225 269 325 382
#     4  10  21  37  70 100 129 169 214 273 333 375
#     4  11  25  41  66 102 130 170 222 274 318 387
#     4  10  20  42  66  98 132 165 221 276 320 378
#
# _framework density 21.087506999999999
#
# number of rings (size 3 to 8) (size 9 to 14) (size 15 to 20)
#    0.000    1.250    5.000    0.375    5.250    5.000 
#    0.000    3.125    0.000    0.000    0.000    0.000 
#    0.000    0.000    0.000    0.000    0.000    0.000 
#
# Total GULP energy -89128.120206 kJ/mol
# GULP energy per Si atom -5570.507513 kJ/mol
# Density = 2.103951 g / cm^3
# Si number density = 21.087507 Si / 1000 Ang^3
#
#
#
# Elastic Constant Matrix: (Units=GPa)
#
#
# Indices 1 2 3 4 5 6 
#
# 1 110.8992 15.7853 27.5815 -0.5037 17.0989 -6.0016
# 2 15.7853 56.9246 9.1198 10.2616 0.4114 -0.0436
# 3 27.5815 9.1198 79.1897 5.1211 -2.8170 3.6860
# 4 -0.5037 10.2616 5.1211 20.7000 -6.6799 -6.3531
# 5 17.0989 0.4114 -2.8170 -6.6799 41.1109 1.3288
# 6 -6.0016 -0.0436 3.6860 -6.3531 1.3288 35.0506
#
#
#
# Elastic Compliance Matrix: (Units=1/GPa)
#
#
# Indices 1 2 3 4 5 6 
#
# 1 0.011322 -0.002823 -0.004054 0.002048 -0.004720 0.002912
# 2 -0.002823 0.020436 -0.000574 -0.011038 -0.000787 -0.002368
# 3 -0.004054 -0.000574 0.014556 -0.003616 0.002198 -0.002964
# 4 0.002048 -0.011038 -0.003616 0.060999 0.008552 0.011449
# 5 -0.004720 -0.000787 0.002198 0.008552 0.027853 -0.000546
# 6 0.002912 -0.002368 -0.002964 0.011449 -0.000546 0.031433
#
#
# Mechanical properties :
#
#
# Convention : Reuss Voigt Hill
#
# Bulk Modulus (GPa) = 31.83606 39.10962 35.47284
# Shear Modulus (GPa) = 26.04545 32.34078 29.19311
#
# Velocity S-wave (km/s) = 3.51823 3.92043 3.72476
# Velocity P-wave (km/s) = 5.62439 6.25137 5.94615
#
# Compressibility (1/GPa) = 0.03141092
#
# Stress axis : x y z
#
# Youngs Moduli (GPa) = 88.32412 48.93439 68.69987
#
# Poissons Ratio (x) = 0.13814 0.27852
# Poissons Ratio (y) = 0.24934 0.03944
# Poissons Ratio (z) = 0.35808 0.02809
#
# Static dielectric constant tensor:
#      x y z
#    x 1.839700 0.035640 0.044370 
#    y 0.035640 1.858940 0.072480 
#    z 0.044370 0.072480 1.829600 
# 
# From -- ./inp_files/274306.got.cif
#   From: 2010.05.17/outbox.cif.g08.bks.cpg/sg2_138_cif.got.tgz:274306.got - 2010.06.03 11:33:40.
