data_PCOD9110884
_publ_section_title
;
Structure prediction by ZEFSAII (Michael W. Deem and Ramdas Pophale) SiO2 
 PCOD9110884
Probable space group: P -1
;
_chemical_formula_sum "Si O2"
_cell_formula_units_Z 14
_cell_length_a 18.144711
_cell_length_b 9.104731
_cell_length_c 5.220233
_cell_angle_alpha 102.509935
_cell_angle_beta 106.382079
_cell_angle_gamma 117.662134
_cell_volume 668.718116
_symmetry_space_group_name_H-M "P -1"
_symmetry_group_IT_number 2
_symmetry_cell_setting 'triclinic'
loop_
_space_group_symop_operation_xyz
x,y,z
-x,-y,-z
loop_
_atom_site_type_symbol
_atom_site_label
_atom_site_fract_x
_atom_site_fract_y
_atom_site_fract_z
Si Si1 0.392033 0.976584 0.114635
Si Si2 0.047819 0.679296 0.290563
Si Si3 0.853726 0.488467 0.134596
Si Si4 0.218546 0.433479 0.410637
Si Si5 0.399665 0.776818 0.545991
Si Si6 0.195260 0.870241 0.890924
Si Si7 0.096521 0.016854 0.128074
O O1 0.381045 0.843279 0.285410
O O2 0.493594 0.159160 0.325688
O O3 0.392346 0.890342 0.811556
O O4 0.305534 0.995353 0.030025
O O5 0.961419 0.617336 0.373374
O O6 0.072183 0.859956 0.243647
O O7 0.000000 0.500000 0.000000
O O8 0.141056 0.738432 0.549184
O O9 0.793645 0.489057 0.307629
O O10 0.825264 0.283935 0.981886
O O11 0.840310 0.564263 0.886021
O O12 0.323299 0.567892 0.460783
O O13 0.176123 0.224123 0.350758
O O14 0.142960 0.968407 0.928897
O O15 0.000000 0.000000 0.000000
#
# Coordination Sequence:
#
# PCOD9110884 Si02
#       7
#     2   2   2   2   2   2   2
#     4  10  22  38  73 100 130 167 226 279 329 392
#     4  12  26  43  66  95 132 181 231 280 321 400
#     4  12  24  42  69  93 129 179 224 271 326 398
#     4  12  24  43  68  98 137 173 217 277 342 392
#     4  10  20  42  67 105 130 167 219 283 335 392
#     4  12  25  42  67 100 131 179 229 278 331 397
#     4  12  28  42  63  96 140 183 221 279 334 399
#
# _framework density 20.935578
#
# number of rings (size 3 to 8) (size 9 to 14) (size 15 to 20)
#    0.000    0.571    5.714    2.143    4.000    1.143 
#    0.000    0.714    0.000    0.857    0.000    0.000 
#    0.000    0.000    0.000    0.000    0.000    0.000 
#
# Total GULP energy -78130.184857 kJ/mol
# GULP energy per Si atom -5580.727490 kJ/mol
# Density = 2.088793 g / cm^3
# Si number density = 20.935578 Si / 1000 Ang^3
#
#
#
# Elastic Constant Matrix: (Units=GPa)
#
#
# Indices 1 2 3 4 5 6 
#
# 1 151.4253 45.3090 49.8983 16.1577 23.7044 22.9901
# 2 45.3090 115.5173 17.7230 19.1058 4.4139 16.7460
# 3 49.8983 17.7230 85.9684 -3.1240 2.6148 3.1317
# 4 16.1577 19.1058 -3.1240 38.3683 9.9658 3.4031
# 5 23.7044 4.4139 2.6148 9.9658 39.4663 8.3315
# 6 22.9901 16.7460 3.1317 3.4031 8.3315 37.7484
#
#
#
# Elastic Compliance Matrix: (Units=1/GPa)
#
#
# Indices 1 2 3 4 5 6 
#
# 1 0.010591 -0.002198 -0.005507 -0.002344 -0.004346 -0.003848
# 2 -0.002198 0.010903 -0.001087 -0.004838 0.002120 -0.003440
# 3 -0.005507 -0.001087 0.015078 0.003626 0.001088 0.002018
# 4 -0.002344 -0.004838 0.003626 0.031299 -0.006597 0.001907
# 5 -0.004346 0.002120 0.001088 -0.006597 0.030248 -0.004465
# 6 -0.003848 -0.003440 0.002018 0.001907 -0.004465 0.031007
#
#
# Mechanical properties :
#
#
# Convention : Reuss Voigt Hill
#
# Bulk Modulus (GPa) = 52.66357 64.30795 58.48576
# Shear Modulus (GPa) = 32.67140 39.11532 35.89336
#
# Velocity S-wave (km/s) = 3.95469 4.32715 4.14510
# Velocity P-wave (km/s) = 6.78693 7.46655 7.13484
#
# Compressibility (1/GPa) = 0.01898846
#
# Stress axis : x y z
#
# Youngs Moduli (GPa) = 94.42135 91.71493 66.32245
#
# Poissons Ratio (x) = 0.20155 0.36523
# Poissons Ratio (y) = 0.20750 0.07211
# Poissons Ratio (z) = 0.51997 0.09972
#
# Static dielectric constant tensor:
#      x y z
#    x 1.856750 0.019310 -0.028990 
#    y 0.019310 1.779670 -0.039120 
#    z -0.028990 -0.039120 1.828990 
# 
# From -- ./inp_files/104173.got.cif
#   From: 2010.05.17/outbox.cif.g08.bks.cpg/sg2_53_cif.got.tgz:104173.got - 2010.06.03 11:33:40.
