data_PCOD9110765
_publ_section_title
;
Structure prediction by ZEFSAII (Michael W. Deem and Ramdas Pophale) SiO2 
 PCOD9110765
Probable space group: P -1
;
_chemical_formula_sum "Si O2"
_cell_formula_units_Z 11
_cell_length_a 7.100295
_cell_length_b 7.940091
_cell_length_c 17.393330
_cell_angle_alpha 134.729774
_cell_angle_beta 143.610763
_cell_angle_gamma 59.211925
_cell_volume 409.802364
_symmetry_space_group_name_H-M "P -1"
_symmetry_group_IT_number 2
_symmetry_cell_setting 'triclinic'
loop_
_space_group_symop_operation_xyz
x,y,z
-x,-y,-z
loop_
_atom_site_type_symbol
_atom_site_label
_atom_site_fract_x
_atom_site_fract_y
_atom_site_fract_z
Si Si1 0.500000 0.000000 0.500000
Si Si2 0.659136 0.841205 0.831324
Si Si3 0.865081 0.745677 0.407817
Si Si4 0.678415 0.618842 0.931770
Si Si5 0.268911 0.244752 0.844642
Si Si6 0.320794 0.626254 0.408746
O O1 0.308339 0.206149 0.554623
O O2 0.400628 0.398995 0.780377
O O3 0.602449 0.730239 0.861628
O O4 0.669631 0.627777 0.707048
O O5 0.409507 0.019125 0.783505
O O6 0.000000 0.000000 0.000000
O O7 0.159813 0.600362 0.431606
O O8 0.419094 0.142630 0.438584
O O9 0.000000 0.000000 0.500000
O O10 0.718850 0.798182 0.073561
O O11 0.000000 0.500000 0.000000
O O12 0.908533 0.256437 0.697368
O O13 0.500000 0.500000 0.000000
#
# Coordination Sequence:
#
# PCOD9110765 Si02
#       6
#     1   2   2   2   2   2
#     4  10  20  42  66  90 124 180 220 268 322 392
#     4  12  23  38  62  99 138 169 216 275 329 397
#     4  10  21  37  68  94 126 176 220 267 330 391
#     4  12  21  39  66  98 134 172 215 274 334 388
#     4  12  22  39  63  97 133 168 215 269 333 391
#     4  11  22  41  66  94 132 170 219 267 334 384
#
# _framework density 26.842209
#
# number of rings (size 3 to 8) (size 9 to 14) (size 15 to 20)
#    0.000    0.727    7.273    0.545    0.000    0.000 
#    0.000    0.909    0.000    5.455    0.000    0.000 
#    0.000    0.000    0.000    0.000    0.000    0.000 
#
# Total GULP energy -61271.492346 kJ/mol
# GULP energy per Si atom -5570.135668 kJ/mol
# Density = 2.678111 g / cm^3
# Si number density = 26.842209 Si / 1000 Ang^3
#
#
#
# Elastic Constant Matrix: (Units=GPa)
#
#
# Indices 1 2 3 4 5 6 
#
# 1 104.8613 20.3948 26.8889 16.5493 -35.7856 -8.5967
# 2 20.3948 148.3601 43.5104 23.8625 -20.4746 -4.7544
# 3 26.8889 43.5104 138.1856 4.2558 -14.3960 -6.6963
# 4 16.5493 23.8625 4.2558 56.5153 -10.0793 -13.5393
# 5 -35.7856 -20.4746 -14.3960 -10.0793 58.2381 24.0349
# 6 -8.5967 -4.7544 -6.6963 -13.5393 24.0349 33.2029
#
#
#
# Elastic Compliance Matrix: (Units=1/GPa)
#
#
# Indices 1 2 3 4 5 6 
#
# 1 0.013243 0.000406 -0.001874 -0.003455 0.009294 -0.005027
# 2 0.000406 0.008308 -0.002397 -0.003587 0.003174 -0.002949
# 3 -0.001874 -0.002397 0.008356 0.001258 -0.000394 0.001655
# 4 -0.003455 -0.003587 0.001258 0.021979 -0.003553 0.010380
# 5 0.009294 0.003174 -0.000394 -0.003553 0.032421 -0.022136
# 6 -0.005027 -0.002949 0.001655 0.010380 -0.022136 0.048984
#
#
# Mechanical properties :
#
#
# Convention : Reuss Voigt Hill
#
# Bulk Modulus (GPa) = 45.08865 63.66613 54.37739
# Shear Modulus (GPa) = 33.68999 49.63213 41.66106
#
# Velocity S-wave (km/s) = 3.54660 4.30470 3.94391
# Velocity P-wave (km/s) = 5.79701 6.96257 6.40635
#
# Compressibility (1/GPa) = 0.02217853
#
# Stress axis : x y z
#
# Youngs Moduli (GPa) = 75.51370 120.36812 119.66954
#
# Poissons Ratio (x) = -0.04891 0.22423
# Poissons Ratio (y) = -0.03068 0.28681
# Poissons Ratio (z) = 0.14149 0.28849
#
# Static dielectric constant tensor:
#      x y z
#    x -19.933590 -8.049590 0.314720 
#    y -8.049590 -0.652270 -0.095140 
#    z 0.314720 -0.095140 1.948930 
# 
# From -- ./inp_files/554824.got.cif
#   From: 2010.05.17/outbox.cif.g08.bks.cpg/sg2_278_cif.got.tgz:554824.got - 2010.06.03 11:33:40.
