data_PCOD9110326
_publ_section_title
;
Structure prediction by ZEFSAII (Michael W. Deem and Ramdas Pophale) SiO2 
 PCOD9110326
Probable space group: P -1
;
_chemical_formula_sum "Si O2"
_cell_formula_units_Z 16
_cell_length_a 18.050466
_cell_length_b 6.617687
_cell_length_c 12.296589
_cell_angle_alpha 93.740162
_cell_angle_beta 50.880068
_cell_angle_gamma 59.265153
_cell_volume 796.975268
_symmetry_space_group_name_H-M "P -1"
_symmetry_group_IT_number 2
_symmetry_cell_setting 'triclinic'
loop_
_space_group_symop_operation_xyz
x,y,z
-x,-y,-z
loop_
_atom_site_type_symbol
_atom_site_label
_atom_site_fract_x
_atom_site_fract_y
_atom_site_fract_z
Si Si1 0.931849 0.767486 0.347913
Si Si2 0.207797 0.729447 0.329640
Si Si3 0.634442 0.261148 0.435182
Si Si4 0.629897 0.223194 0.940897
Si Si5 0.874280 0.576368 0.674589
Si Si6 0.724572 0.746794 0.455129
Si Si7 0.431554 0.347526 0.289796
Si Si8 0.114362 0.884931 0.805030
O O1 0.826207 0.740841 0.428555
O O2 0.081296 0.478769 0.241765
O O3 0.872466 0.998460 0.507002
O O4 0.936187 0.895314 0.239325
O O5 0.264120 0.751240 0.169028
O O6 0.129643 0.646074 0.370621
O O7 0.335795 0.480043 0.277828
O O8 0.500000 0.500000 0.500000
O O9 0.618676 0.407772 0.568956
O O10 0.764276 0.168024 0.255447
O O11 0.665556 0.982428 0.425087
O O12 0.727339 0.895773 0.795803
O O13 0.500000 0.500000 0.000000
O O14 0.571960 0.223010 0.107242
O O15 0.000000 0.500000 0.500000
O O16 0.596984 0.827679 0.634920
O O17 0.818127 0.421808 0.315064
O O18 0.000000 0.000000 0.000000
#
# Coordination Sequence:
#
# PCOD9110326 Si02
#       8
#     2   2   2   2   2   2   2   2
#     4  11  22  40  64  96 126 171 217 268 324 388
#     4  11  21  41  64  89 134 168 218 266 309 391
#     4  10  22  42  64  96 125 167 217 273 328 398
#     4  10  25  41  59  94 132 169 220 263 319 382
#     4  12  25  38  65  97 129 178 223 264 328 380
#     4  10  20  41  73  83 132 169 209 258 341 383
#     4  10  21  40  63  91 126 170 215 258 327 385
#     4  10  23  43  65  98 124 170 216 273 338 395
#
# _framework density 20.075906
#
# number of rings (size 3 to 8) (size 9 to 14) (size 15 to 20)
#    0.000    1.500    5.000    1.125    0.000    7.000 
#    9.000    0.000    0.000    0.000    0.000    0.000 
#    0.000    0.000    0.000    0.000    0.000    0.000 
#
# Total GULP energy -89120.240201 kJ/mol
# GULP energy per Si atom -5570.015013 kJ/mol
# Density = 2.003021 g / cm^3
# Si number density = 20.075906 Si / 1000 Ang^3
#
#
#
# Elastic Constant Matrix: (Units=GPa)
#
#
# Indices 1 2 3 4 5 6 
#
# 1 72.6686 51.2203 26.8351 -15.7353 -13.0726 3.1232
# 2 51.2203 123.1073 45.4856 -11.3845 -11.6821 12.6431
# 3 26.8351 45.4856 130.4555 -30.7243 -23.8564 15.6590
# 4 -15.7353 -11.3845 -30.7243 35.4537 7.2997 -13.1865
# 5 -13.0726 -11.6821 -23.8564 7.2997 15.6487 -2.1866
# 6 3.1232 12.6431 15.6590 -13.1865 -2.1866 40.5002
#
#
#
# Elastic Compliance Matrix: (Units=1/GPa)
#
#
# Indices 1 2 3 4 5 6 
#
# 1 0.022998 -0.008759 0.002079 0.007855 0.012654 0.003397
# 2 -0.008759 0.012885 -0.003471 -0.003614 -0.001761 -0.003277
# 3 0.002079 -0.003471 0.013219 0.007753 0.015567 -0.000823
# 4 0.007855 -0.003614 0.007753 0.041818 -0.002284 0.011017
# 5 0.012654 -0.001761 0.015567 -0.002284 0.097690 -0.001915
# 6 0.003397 -0.003277 -0.000823 0.011017 -0.001915 0.029254
#
#
# Mechanical properties :
#
#
# Convention : Reuss Voigt Hill
#
# Bulk Modulus (GPa) = 34.71971 63.70149 49.21060
# Shear Modulus (GPa) = 20.18041 31.83319 26.00680
#
# Velocity S-wave (km/s) = 3.17394 3.98633 3.60310
# Velocity P-wave (km/s) = 5.54649 7.27922 6.47111
#
# Compressibility (1/GPa) = 0.02880208
#
# Stress axis : x y z
#
# Youngs Moduli (GPa) = 43.48216 77.61180 75.64623
#
# Poissons Ratio (x) = 0.67977 -0.15729
# Poissons Ratio (y) = 0.38084 0.26254
# Poissons Ratio (z) = -0.09041 0.26936
#
# Static dielectric constant tensor:
#      x y z
#    x 1.724280 -0.043690 -0.031410 
#    y -0.043690 1.792930 0.003240 
#    z -0.031410 0.003240 1.752860 
# 
# From -- ./inp_files/459502.got.cif
#   From: 2010.05.17/outbox.cif.g08.bks.cpg/sg2_230_cif.got.tgz:459502.got - 2010.06.03 11:33:40.
