data_PCOD9110504
_publ_section_title
;
Structure prediction by ZEFSAII (Michael W. Deem and Ramdas Pophale) SiO2 
 PCOD9110504
Probable space group: P -1
;
_chemical_formula_sum "Si O2"
_cell_formula_units_Z 16
_cell_length_a 10.487994
_cell_length_b 11.840357
_cell_length_c 8.220962
_cell_angle_alpha 94.131675
_cell_angle_beta 55.602272
_cell_angle_gamma 127.513093
_cell_volume 607.768257
_symmetry_space_group_name_H-M "P -1"
_symmetry_group_IT_number 2
_symmetry_cell_setting 'triclinic'
loop_
_space_group_symop_operation_xyz
x,y,z
-x,-y,-z
loop_
_atom_site_type_symbol
_atom_site_label
_atom_site_fract_x
_atom_site_fract_y
_atom_site_fract_z
Si Si1 0.792758 0.477100 0.469162
Si Si2 0.824879 0.721917 0.353087
Si Si3 0.261197 0.421727 0.143805
Si Si4 0.512165 0.938541 0.661386
Si Si5 0.692419 0.981743 0.991545
Si Si6 0.199512 0.168232 0.299938
Si Si7 0.343607 0.156298 0.676523
Si Si8 0.175092 0.590314 0.022026
O O1 0.750425 0.556811 0.379598
O O2 0.784597 0.527977 0.657204
O O3 0.596329 0.293581 0.556805
O O4 0.032419 0.557956 0.274454
O O5 0.719441 0.723304 0.590114
O O6 0.753083 0.769047 0.268876
O O7 0.083131 0.848829 0.207090
O O8 0.139967 0.239335 0.224181
O O9 0.239485 0.495607 0.016512
O O10 0.500000 0.500000 0.000000
O O11 0.680809 0.929966 0.478726
O O12 0.500000 0.000000 0.500000
O O13 0.499620 0.030413 0.819004
O O14 0.336945 0.764718 0.849433
O O15 0.651125 0.852776 0.891381
O O16 0.759370 0.959363 0.111504
O O17 0.000000 0.000000 0.500000
O O18 0.000000 0.500000 0.000000
#
# Coordination Sequence:
#
# PCOD9110504 Si02
#       8
#     2   2   2   2   2   2   2   2
#     4  11  23  42  66  98 138 179 224 280 349 415
#     4  10  21  38  66  96 134 177 230 285 337 408
#     4  11  26  46  72 103 142 181 230 289 342 411
#     4  10  23  43  67  96 139 176 230 291 343 407
#     4  10  20  42  63  89 136 181 227 279 348 405
#     4   9  21  42  64  96 135 176 226 278 343 405
#     4  11  22  38  63  99 134 174 233 283 337 408
#     4  12  25  46  72 102 140 184 231 285 350 410
#
# _framework density 26.325824000000001
#
# number of rings (size 3 to 8) (size 9 to 14) (size 15 to 20)
#    0.000    1.500    2.500    1.875    3.500    2.000 
#    9.000    0.625    0.000    0.000    0.000    0.000 
#    0.000    0.000    0.000    0.000    0.000    0.000 
#
# Total GULP energy -89271.903510 kJ/mol
# GULP energy per Si atom -5579.493969 kJ/mol
# Density = 2.626591 g / cm^3
# Si number density = 26.325824 Si / 1000 Ang^3
#
#
#
# Elastic Constant Matrix: (Units=GPa)
#
#
# Indices 1 2 3 4 5 6 
#
# 1 110.4487 44.6906 30.4606 -19.2414 16.1018 -37.4302
# 2 44.6906 127.9560 56.6634 -9.8225 1.6007 -30.8479
# 3 30.4606 56.6634 147.7656 3.2052 8.6056 -4.8254
# 4 -19.2414 -9.8225 3.2052 52.8959 2.5985 5.3396
# 5 16.1018 1.6007 8.6056 2.5985 25.5052 -3.5939
# 6 -37.4302 -30.8479 -4.8254 5.3396 -3.5939 40.6414
#
#
#
# Elastic Compliance Matrix: (Units=1/GPa)
#
#
# Indices 1 2 3 4 5 6 
#
# 1 0.016529 -0.001315 -0.002114 0.005039 -0.008381 0.012571
# 2 -0.001315 0.012020 -0.004262 0.001137 0.002451 0.007474
# 3 -0.002114 -0.004262 0.008843 -0.001596 -0.001794 -0.004081
# 4 0.005039 0.001137 -0.001596 0.021053 -0.004557 0.002146
# 5 -0.008381 0.002451 -0.001794 -0.004557 0.045207 -0.001476
# 6 0.012571 0.007474 -0.004081 0.002146 -0.001476 0.040959
#
#
# Mechanical properties :
#
#
# Convention : Reuss Voigt Hill
#
# Bulk Modulus (GPa) = 45.42981 72.19994 58.81487
# Shear Modulus (GPa) = 29.88128 40.76553 35.32340
#
# Velocity S-wave (km/s) = 3.37271 3.93937 3.66700
# Velocity P-wave (km/s) = 5.69747 6.94093 6.34971
#
# Compressibility (1/GPa) = 0.02201198
#
# Stress axis : x y z
#
# Youngs Moduli (GPa) = 60.50063 83.19440 113.08009
#
# Poissons Ratio (x) = 0.10936 0.23904
# Poissons Ratio (y) = 0.07953 0.48191
# Poissons Ratio (z) = 0.12789 0.35454
#
# Static dielectric constant tensor:
#      x y z
#    x 2.142890 -0.040810 -0.004070 
#    y -0.040810 2.137790 0.014630 
#    z -0.004070 0.014630 2.162980 
# 
# From -- ./inp_files/262478.got.cif
#   From: 2010.05.17/outbox.cif.g08.bks.cpg/sg2_132_cif.got.tgz:262478.got - 2010.06.03 11:33:40.
