data_PCOD9110675
_publ_section_title
;
Structure prediction by ZEFSAII (Michael W. Deem and Ramdas Pophale) SiO2 
 PCOD9110675
Probable space group: P -1
;
_chemical_formula_sum "Si O2"
_cell_formula_units_Z 14
_cell_length_a 19.047978
_cell_length_b 9.402090
_cell_length_c 8.388859
_cell_angle_alpha 81.483512
_cell_angle_beta 52.401392
_cell_angle_gamma 126.016519
_cell_volume 589.163356
_symmetry_space_group_name_H-M "P -1"
_symmetry_group_IT_number 2
_symmetry_cell_setting 'triclinic'
loop_
_space_group_symop_operation_xyz
x,y,z
-x,-y,-z
loop_
_atom_site_type_symbol
_atom_site_label
_atom_site_fract_x
_atom_site_fract_y
_atom_site_fract_z
Si Si1 0.756403 0.802127 0.709951
Si Si2 0.090357 0.522436 0.744760
Si Si3 0.595629 0.515479 0.658664
Si Si4 0.720940 0.928557 0.213651
Si Si5 0.146706 0.798766 0.341069
Si Si6 0.408266 0.687724 0.800742
Si Si7 0.392706 0.770583 0.449794
O O1 0.747213 0.756566 0.542665
O O2 0.904160 0.117515 0.524083
O O3 0.580861 0.653837 0.007008
O O4 0.725852 0.612066 0.881046
O O5 0.191615 0.760946 0.434148
O O6 0.221360 0.604035 0.641673
O O7 0.000000 0.500000 0.000000
O O8 0.923648 0.214898 0.940936
O O9 0.650023 0.671478 0.394386
O O10 0.571055 0.314049 0.697392
O O11 0.595145 0.862823 0.494110
O O12 0.720772 0.976193 0.023436
O O13 0.000000 0.500000 0.500000
O O14 0.359618 0.670022 0.693361
O O15 0.451907 0.891975 0.807539
#
# Coordination Sequence:
#
# PCOD9110675 Si02
#       7
#     2   2   2   2   2   2   2
#     4  10  21  41  64  95 127 169 209 258 322 378
#     4  11  22  40  64  89 129 169 209 259 316 380
#     4  10  22  38  68  94 128 165 212 264 313 378
#     4  10  20  42  65  89 125 171 210 254 320 382
#     4  10  22  38  66  94 118 169 217 252 306 388
#     4  10  22  41  64  94 131 164 210 268 315 369
#     4  11  23  39  60 101 124 169 209 265 318 365
#
# _framework density 23.762509999999999
#
# number of rings (size 3 to 8) (size 9 to 14) (size 15 to 20)
#    0.000    1.714    1.429    2.571    4.000    3.429 
#    5.143    0.000    0.000    4.286    0.000    0.000 
#    0.000    0.000    0.000    0.000    0.000    0.000 
#
# Total GULP energy -78280.225912 kJ/mol
# GULP energy per Si atom -5591.444708 kJ/mol
# Density = 2.370843 g / cm^3
# Si number density = 23.762510 Si / 1000 Ang^3
#
#
#
# Elastic Constant Matrix: (Units=GPa)
#
#
# Indices 1 2 3 4 5 6 
#
# 1 153.1758 50.3288 47.6604 -13.1528 6.2565 -9.6457
# 2 50.3288 170.7135 26.4822 -10.1064 11.2418 -15.6070
# 3 47.6604 26.4822 64.9688 -10.0117 20.7149 -5.7610
# 4 -13.1528 -10.1064 -10.0117 30.0287 -2.4101 1.2200
# 5 6.2565 11.2418 20.7149 -2.4101 23.1264 -5.6463
# 6 -9.6457 -15.6070 -5.7610 1.2200 -5.6463 40.6612
#
#
#
# Elastic Compliance Matrix: (Units=1/GPa)
#
#
# Indices 1 2 3 4 5 6 
#
# 1 0.009474 -0.001776 -0.007703 0.001387 0.005642 0.001216
# 2 -0.001776 0.006821 -0.000587 0.001107 -0.001745 0.001838
# 3 -0.007703 -0.000587 0.029455 0.004386 -0.023881 -0.001327
# 4 0.001387 0.001107 0.004386 0.035650 -0.001089 0.000155
# 5 0.005642 -0.001745 -0.023881 -0.001089 0.065402 0.006400
# 6 0.001216 0.001838 -0.001327 0.000155 0.006400 0.026283
#
#
# Mechanical properties :
#
#
# Convention : Reuss Voigt Hill
#
# Bulk Modulus (GPa) = 39.03788 70.86677 54.95233
# Shear Modulus (GPa) = 24.78200 36.38904 30.58552
#
# Velocity S-wave (km/s) = 3.23290 3.91751 3.59156
# Velocity P-wave (km/s) = 5.51358 7.09579 6.35412
#
# Compressibility (1/GPa) = 0.02561614
#
# Stress axis : x y z
#
# Youngs Moduli (GPa) = 105.54904 146.60483 33.95002
#
# Poissons Ratio (x) = 0.26043 0.26153
# Poissons Ratio (y) = 0.18750 0.01994
# Poissons Ratio (z) = 0.81310 0.08609
#
# Static dielectric constant tensor:
#      x y z
#    x 1.889490 0.063720 -0.042740 
#    y 0.063720 2.061730 -0.110770 
#    z -0.042740 -0.110770 1.986500 
# 
# From -- ./inp_files/328830.got.cif
#   From: 2010.05.17/outbox.cif.g08.bks.cpg/sg2_165_cif.got.tgz:328830.got - 2010.06.03 11:33:40.
