data_PCOD9110401
_publ_section_title
;
Structure prediction by ZEFSAII (Michael W. Deem and Ramdas Pophale) SiO2 
 PCOD9110401
Probable space group: P -1
;
_chemical_formula_sum "Si O2"
_cell_formula_units_Z 14
_cell_length_a 13.486971
_cell_length_b 7.063788
_cell_length_c 13.205494
_cell_angle_alpha 98.562197
_cell_angle_beta 29.935282
_cell_angle_gamma 97.825516
_cell_volume 620.744786
_symmetry_space_group_name_H-M "P -1"
_symmetry_group_IT_number 2
_symmetry_cell_setting 'triclinic'
loop_
_space_group_symop_operation_xyz
x,y,z
-x,-y,-z
loop_
_atom_site_type_symbol
_atom_site_label
_atom_site_fract_x
_atom_site_fract_y
_atom_site_fract_z
Si Si1 0.103558 0.069929 0.037630
Si Si2 0.647710 0.644564 0.256324
Si Si3 0.357132 0.325656 0.959253
Si Si4 0.787214 0.911850 0.444383
Si Si5 0.600072 0.223769 0.335490
Si Si6 0.014404 0.610474 0.348643
Si Si7 0.227336 0.734030 0.361330
O O1 0.218280 0.910349 0.861501
O O2 0.140122 0.258453 0.951897
O O3 0.229593 0.132528 0.032224
O O4 0.894191 0.002018 0.258298
O O5 0.551598 0.626261 0.228632
O O6 0.666652 0.442125 0.275305
O O7 0.508277 0.774888 0.459555
O O8 0.138881 0.547683 0.483293
O O9 0.539793 0.299003 0.869885
O O10 0.203070 0.488297 0.136288
O O11 0.572102 0.835063 0.596320
O O12 0.916383 0.737212 0.358822
O O13 0.780040 0.078227 0.547709
O O14 0.905580 0.255633 0.620528
#
# Coordination Sequence:
#
# PCOD9110401 Si02
#       7
#     2   2   2   2   2   2   2
#     4  10  22  38  62  86 128 151 203 246 300 353
#     4   9  21  39  62  89 120 159 201 245 299 362
#     4  10  20  42  61  83 123 160 193 246 304 349
#     4  12  23  39  64  93 122 160 201 252 300 358
#     4  11  21  40  63  90 120 162 200 245 301 360
#     4  11  24  39  62  91 123 155 206 252 294 364
#     4  11  22  42  62  88 121 163 200 248 307 352
#
# _framework density 22.553553999999998
#
# number of rings (size 3 to 8) (size 9 to 14) (size 15 to 20)
#    0.857    0.571    2.857    3.000    0.000    0.571 
#    0.000    8.571    0.000    0.000    0.000    0.000 
#    0.000    0.000    0.000    0.000    0.000    0.000 
#
# Total GULP energy -78220.113179 kJ/mol
# GULP energy per Si atom -5587.150941 kJ/mol
# Density = 2.250222 g / cm^3
# Si number density = 22.553554 Si / 1000 Ang^3
#
#
#
# Elastic Constant Matrix: (Units=GPa)
#
#
# Indices 1 2 3 4 5 6 
#
# 1 60.0048 7.8349 22.6859 -9.0995 -6.8918 15.4291
# 2 7.8349 80.8557 43.1951 0.8250 0.9217 7.1659
# 3 22.6859 43.1951 62.6018 3.3056 -7.9757 13.1943
# 4 -9.0995 0.8250 3.3056 27.6502 6.3355 10.2018
# 5 -6.8918 0.9217 -7.9757 6.3355 29.9846 0.2811
# 6 15.4291 7.1659 13.1943 10.2018 0.2811 27.6681
#
#
#
# Elastic Compliance Matrix: (Units=1/GPa)
#
#
# Indices 1 2 3 4 5 6 
#
# 1 0.026673 0.003858 -0.009505 0.016123 0.000239 -0.017288
# 2 0.003858 0.020881 -0.016404 0.004209 -0.004996 -0.001238
# 3 -0.009505 -0.016404 0.032980 -0.007237 0.008655 -0.003598
# 4 0.016123 0.004209 -0.007237 0.054181 -0.009548 -0.026510
# 5 0.000239 -0.004996 0.008655 -0.009548 0.037877 0.000169
# 6 -0.017288 -0.001238 -0.003598 -0.026510 0.000169 0.057593
#
#
# Mechanical properties :
#
#
# Convention : Reuss Voigt Hill
#
# Bulk Modulus (GPa) = 27.44804 38.98825 33.21815
# Shear Modulus (GPa) = 17.45628 25.71034 21.58331
#
# Velocity S-wave (km/s) = 2.78509 3.38000 3.09687
# Velocity P-wave (km/s) = 4.74751 5.70588 5.24862
#
# Compressibility (1/GPa) = 0.03643247
#
# Stress axis : x y z
#
# Youngs Moduli (GPa) = 37.49135 47.89070 30.32119
#
# Poissons Ratio (x) = -0.18477 0.28821
# Poissons Ratio (y) = -0.14465 0.49738
# Poissons Ratio (z) = 0.35636 0.78559
#
# Static dielectric constant tensor:
#      x y z
#    x 1.854770 0.020170 0.007410 
#    y 0.020170 1.831310 -0.003610 
#    z 0.007410 -0.003610 1.812950 
# 
# From -- ./inp_files/575290.got.cif
#   From: 2010.05.17/outbox.cif.g08.bks.cpg/sg2_288_cif.got.tgz:575290.got - 2010.06.03 11:33:40.
