data_PCOD9110922
_publ_section_title
;
Structure prediction by ZEFSAII (Michael W. Deem and Ramdas Pophale) SiO2 
 PCOD9110922
Probable space group: P -1
;
_chemical_formula_sum "Si O2"
_cell_formula_units_Z 16
_cell_length_a 11.076935
_cell_length_b 20.229889
_cell_length_c 6.554629
_cell_angle_alpha 87.924883
_cell_angle_beta 98.653380
_cell_angle_gamma 151.124155
_cell_volume 687.041663
_symmetry_space_group_name_H-M "P -1"
_symmetry_group_IT_number 2
_symmetry_cell_setting 'triclinic'
loop_
_space_group_symop_operation_xyz
x,y,z
-x,-y,-z
loop_
_atom_site_type_symbol
_atom_site_label
_atom_site_fract_x
_atom_site_fract_y
_atom_site_fract_z
Si Si1 0.775160 0.855641 0.251555
Si Si2 0.481499 0.042461 0.307983
Si Si3 0.516995 0.395562 0.578729
Si Si4 0.528400 0.536897 0.771123
Si Si5 0.368055 0.132555 0.427812
Si Si6 0.894911 0.205853 0.051846
Si Si7 0.996071 0.598411 0.980355
Si Si8 0.341794 0.660152 0.845992
O O1 0.700455 0.761241 0.401814
O O2 0.677378 0.874111 0.345431
O O3 0.600259 0.762007 0.020074
O O4 0.079364 0.003634 0.276631
O O5 0.500000 0.000000 0.500000
O O6 0.463690 0.106245 0.392415
O O7 0.716541 0.140713 0.203507
O O8 0.234790 0.907839 0.119607
O O9 0.427508 0.423851 0.641957
O O10 0.578913 0.446564 0.355876
O O11 0.771726 0.497812 0.761296
O O12 0.835193 0.690860 0.809469
O O13 0.500000 0.500000 0.000000
O O14 0.572831 0.281534 0.366241
O O15 0.941094 0.298159 0.941442
O O16 0.233902 0.675147 0.925828
O O17 0.881999 0.498480 0.141324
#
# Coordination Sequence:
#
# PCOD9110922 Si02
#       8
#     2   2   2   2   2   2   2   2
#     4  10  24  40  65  96 129 169 218 269 314 394
#     4  11  26  42  67  93 130 173 214 269 324 380
#     4   9  21  41  61  95 134 161 217 269 315 383
#     4  10  22  39  67  94 130 173 211 266 326 382
#     4  11  24  43  63  97 125 175 219 261 331 375
#     4  10  23  43  62  99 123 167 222 261 319 392
#     4   9  19  40  68  93 128 164 214 266 322 385
#     4  10  20  42  67  92 130 168 207 273 323 379
#
# _framework density 23.288250000000001
#
# number of rings (size 3 to 8) (size 9 to 14) (size 15 to 20)
#    0.000    2.000    1.250    0.375    5.250    5.000 
#    2.250    6.875    0.000    0.000    0.000    0.000 
#    0.000    0.000    0.000    0.000    0.000    0.000 
#
# Total GULP energy -89409.108621 kJ/mol
# GULP energy per Si atom -5588.069289 kJ/mol
# Density = 2.323525 g / cm^3
# Si number density = 23.288250 Si / 1000 Ang^3
#
#
#
# Elastic Constant Matrix: (Units=GPa)
#
#
# Indices 1 2 3 4 5 6 
#
# 1 58.1606 8.8909 23.3126 -15.0995 6.8196 -10.7363
# 2 8.8909 74.6841 16.3753 -16.1568 8.8000 1.2275
# 3 23.3126 16.3753 64.1115 -15.3054 3.7236 -3.8458
# 4 -15.0995 -16.1568 -15.3054 27.2353 -4.3413 7.0296
# 5 6.8196 8.8000 3.7236 -4.3413 25.3992 1.0291
# 6 -10.7363 1.2275 -3.8458 7.0296 1.0291 30.8119
#
#
#
# Elastic Compliance Matrix: (Units=1/GPa)
#
#
# Indices 1 2 3 4 5 6 
#
# 1 0.023097 0.000671 -0.006165 0.007562 -0.004468 0.005676
# 2 0.000671 0.016191 -0.002213 0.008779 -0.003861 -0.002561
# 3 -0.006165 -0.002213 0.019938 0.006890 0.000724 -0.001168
# 4 0.007562 0.008779 0.006890 0.052847 0.003316 -0.009022
# 5 -0.004468 -0.003861 0.000724 0.003316 0.042511 -0.003489
# 6 0.005676 -0.002561 -0.001168 -0.009022 -0.003489 0.036564
#
#
# Mechanical properties :
#
#
# Convention : Reuss Voigt Hill
#
# Bulk Modulus (GPa) = 22.82469 32.67931 27.75200
# Shear Modulus (GPa) = 22.60748 26.58110 24.59429
#
# Velocity S-wave (km/s) = 3.11909 3.38212 3.25327
# Velocity P-wave (km/s) = 4.77429 5.41430 5.10434
#
# Compressibility (1/GPa) = 0.04381221
#
# Stress axis : x y z
#
# Youngs Moduli (GPa) = 43.29560 61.76111 50.15626
#
# Poissons Ratio (x) = -0.04145 0.30921
# Poissons Ratio (y) = -0.02906 0.11100
# Poissons Ratio (z) = 0.26691 0.13669
#
# Static dielectric constant tensor:
#      x y z
#    x 1.878640 -0.009680 -0.019890 
#    y -0.009680 1.884940 -0.022830 
#    z -0.019890 -0.022830 1.997280 
# 
# From -- ./inp_files/83177.got.cif
#   From: 2010.05.17/outbox.cif.g08.bks.cpg/sg2_42_cif.got.tgz:83177.got - 2010.06.03 11:33:40.
