data_PCOD9110656
_publ_section_title
;
Structure prediction by ZEFSAII (Michael W. Deem and Ramdas Pophale) SiO2 
 PCOD9110656
Probable space group: P -1
;
_chemical_formula_sum "Si O2"
_cell_formula_units_Z 16
_cell_length_a 8.384186
_cell_length_b 8.487378
_cell_length_c 11.774800
_cell_angle_alpha 115.509653
_cell_angle_beta 108.437424
_cell_angle_gamma 90.695753
_cell_volume 706.541142
_symmetry_space_group_name_H-M "P -1"
_symmetry_group_IT_number 2
_symmetry_cell_setting 'triclinic'
loop_
_space_group_symop_operation_xyz
x,y,z
-x,-y,-z
loop_
_atom_site_type_symbol
_atom_site_label
_atom_site_fract_x
_atom_site_fract_y
_atom_site_fract_z
Si Si1 0.166694 0.946090 0.578252
Si Si2 0.306616 0.806673 0.136687
Si Si3 0.373572 0.310057 0.826610
Si Si4 0.719407 0.311479 0.657337
Si Si5 0.799375 0.933199 0.958726
Si Si6 0.090664 0.525158 0.860695
Si Si7 0.544034 0.597860 0.772037
Si Si8 0.770450 0.214205 0.228404
O O1 0.253811 0.821684 0.476681
O O2 0.131664 0.839017 0.655635
O O3 0.289705 0.130162 0.689774
O O4 0.000000 0.000000 0.500000
O O5 0.465987 0.744194 0.088242
O O6 0.337344 0.795138 0.272846
O O7 0.138609 0.672720 0.014761
O O8 0.288066 0.998112 0.150323
O O9 0.217333 0.385738 0.869345
O O10 0.463216 0.468225 0.814692
O O11 0.597936 0.455958 0.651585
O O12 0.902786 0.421726 0.768729
O O13 0.745402 0.041506 0.087778
O O14 0.717825 0.728593 0.887308
O O15 0.000000 0.000000 0.000000
O O16 0.135009 0.631392 0.784840
O O17 0.401923 0.717985 0.750581
#
# Coordination Sequence:
#
# PCOD9110656 Si02
#       8
#     2   2   2   2   2   2   2   2
#     4  12  26  45  65  92 130 178 227 267 317 385
#     4  10  22  38  66  97 133 162 210 270 329 390
#     4  10  22  41  66  94 129 175 214 269 324 384
#     4  11  24  42  65  97 135 174 219 264 321 382
#     4  11  23  41  68 103 133 168 210 268 334 389
#     4  10  20  42  65 103 128 167 213 270 332 381
#     4  10  22  43  67 100 132 168 216 272 326 386
#     4  10  24  42  68  95 134 173 216 263 328 389
#
# _framework density 22.645530000000001
#
# number of rings (size 3 to 8) (size 9 to 14) (size 15 to 20)
#    0.000    1.500    1.250    3.375    1.750    9.000 
#    0.000    0.000    0.000    0.000    0.000    0.000 
#    0.000    0.000    0.000    0.000    0.000    0.000 
#
# Total GULP energy -89364.769027 kJ/mol
# GULP energy per Si atom -5585.298064 kJ/mol
# Density = 2.259399 g / cm^3
# Si number density = 22.645530 Si / 1000 Ang^3
#
#
#
# Elastic Constant Matrix: (Units=GPa)
#
#
# Indices 1 2 3 4 5 6 
#
# 1 53.3977 33.6027 9.1404 5.3230 -0.4207 -8.7391
# 2 33.6027 106.6615 43.2243 -2.4091 -5.8183 -11.7529
# 3 9.1404 43.2243 88.6011 4.9593 -20.2792 -6.4090
# 4 5.3230 -2.4091 4.9593 43.1034 -7.0361 -2.5742
# 5 -0.4207 -5.8183 -20.2792 -7.0361 36.2917 8.5722
# 6 -8.7391 -11.7529 -6.4090 -2.5742 8.5722 37.3734
#
#
#
# Elastic Compliance Matrix: (Units=1/GPa)
#
#
# Indices 1 2 3 4 5 6 
#
# 1 0.024523 -0.008118 0.001498 -0.003726 -0.001749 0.003583
# 2 -0.008118 0.014878 -0.006750 0.002493 -0.001502 0.002139
# 3 0.001498 -0.006750 0.016258 -0.001180 0.008004 -0.000902
# 4 -0.003726 0.002493 -0.001180 0.024675 0.004386 0.000404
# 5 -0.001749 -0.001502 0.008004 0.004386 0.034286 -0.007071
# 6 0.003583 0.002139 -0.000902 0.000404 -0.007071 0.029763
#
#
# Mechanical properties :
#
#
# Convention : Reuss Voigt Hill
#
# Bulk Modulus (GPa) = 34.57778 46.73276 40.65527
# Shear Modulus (GPa) = 27.66060 34.19987 30.93024
#
# Velocity S-wave (km/s) = 3.49873 3.89038 3.69974
# Velocity P-wave (km/s) = 5.62350 6.39230 6.02019
#
# Compressibility (1/GPa) = 0.02892030
#
# Stress axis : x y z
#
# Youngs Moduli (GPa) = 40.77741 67.21257 61.50954
#
# Poissons Ratio (x) = 0.54560 -0.09212
# Poissons Ratio (y) = 0.33101 0.41516
# Poissons Ratio (z) = -0.06107 0.45366
#
# Static dielectric constant tensor:
#      x y z
#    x 1.919540 -0.013860 -0.037930 
#    y -0.013860 1.863060 -0.010030 
#    z -0.037930 -0.010030 1.817530 
# 
# From -- ./inp_files/380403.got.cif
#   From: 2010.05.17/outbox.cif.g08.bks.cpg/sg2_191_cif.got.tgz:380403.got - 2010.06.03 11:33:40.
