data_PCOD9110511
_publ_section_title
;
Structure prediction by ZEFSAII (Michael W. Deem and Ramdas Pophale) SiO2 
 PCOD9110511
Probable space group: P -1
;
_chemical_formula_sum "Si O2"
_cell_formula_units_Z 16
_cell_length_a 12.170779
_cell_length_b 8.346819
_cell_length_c 24.012443
_cell_angle_alpha 122.224325
_cell_angle_beta 154.786295
_cell_angle_gamma 48.141276
_cell_volume 754.616250
_symmetry_space_group_name_H-M "P -1"
_symmetry_group_IT_number 2
_symmetry_cell_setting 'triclinic'
loop_
_space_group_symop_operation_xyz
x,y,z
-x,-y,-z
loop_
_atom_site_type_symbol
_atom_site_label
_atom_site_fract_x
_atom_site_fract_y
_atom_site_fract_z
Si Si1 0.425874 0.242629 0.495365
Si Si2 0.404955 0.833243 0.556270
Si Si3 0.051343 0.569803 0.778571
Si Si4 0.743645 0.709829 0.997593
Si Si5 0.412487 0.434928 0.211547
Si Si6 0.704764 0.707956 0.376659
Si Si7 0.813096 0.329481 0.476215
Si Si8 0.444775 0.788554 0.992922
O O1 0.641991 0.217767 0.538237
O O2 0.404264 0.406569 0.563307
O O3 0.097353 0.378204 0.340934
O O4 0.500000 0.000000 0.500000
O O5 0.215281 0.797574 0.508296
O O6 0.755439 0.660055 0.697540
O O7 0.378403 0.069802 0.588145
O O8 0.297162 0.325331 0.863170
O O9 0.204817 0.715950 0.882156
O O10 0.575310 0.692430 0.862612
O O11 0.703786 0.950757 0.027497
O O12 0.602379 0.688757 0.986778
O O13 0.092392 0.530303 0.112815
O O14 0.459036 0.636776 0.251052
O O15 0.674252 0.291768 0.349494
O O16 0.000000 0.500000 0.500000
O O17 0.846533 0.731144 0.388575
#
# Coordination Sequence:
#
# PCOD9110511 Si02
#       8
#     2   2   2   2   2   2   2   2
#     4  10  22  39  63  92 117 167 204 246 315 367
#     4  10  21  40  58  89 122 163 199 249 305 359
#     4   9  22  38  64  89 125 154 203 259 307 359
#     4  10  22  39  65  91 117 165 207 255 303 355
#     4  10  22  40  60  90 127 160 203 245 312 371
#     4  10  21  38  59  85 121 164 198 246 303 370
#     4  11  22  39  60  92 127 158 202 255 301 369
#     4  10  20  42  63  91 119 159 213 256 298 356
#
# _framework density 21.202829999999999
#
# number of rings (size 3 to 8) (size 9 to 14) (size 15 to 20)
#    0.750    1.250    0.000    3.750    3.500    0.000 
#    6.750    0.000    0.000    6.000    0.000    0.000 
#    0.000    0.000    0.000    0.000    0.000    0.000 
#
# Total GULP energy -89221.209805 kJ/mol
# GULP energy per Si atom -5576.325613 kJ/mol
# Density = 2.115457 g / cm^3
# Si number density = 21.202830 Si / 1000 Ang^3
#
#
#
# Elastic Constant Matrix: (Units=GPa)
#
#
# Indices 1 2 3 4 5 6 
#
# 1 105.4425 2.9433 21.5543 10.2453 3.9204 -1.1189
# 2 2.9433 44.9834 -8.4356 5.7425 -3.2344 -4.9855
# 3 21.5543 -8.4356 37.8513 0.9086 -8.1577 -6.7548
# 4 10.2453 5.7425 0.9086 25.5003 3.3647 -5.8376
# 5 3.9204 -3.2344 -8.1577 3.3647 28.4576 3.0908
# 6 -1.1189 -4.9855 -6.7548 -5.8376 3.0908 29.8127
#
#
#
# Elastic Compliance Matrix: (Units=1/GPa)
#
#
# Indices 1 2 3 4 5 6 
#
# 1 0.011727 -0.002314 -0.008259 -0.003938 -0.003539 -0.002222
# 2 -0.002314 0.025704 0.009296 -0.004892 0.005969 0.004741
# 3 -0.008259 0.009296 0.037275 0.000271 0.011924 0.008507
# 4 -0.003938 -0.004892 0.000271 0.044638 -0.006134 0.008472
# 5 -0.003539 0.005969 0.011924 -0.006134 0.040650 -0.001849
# 6 -0.002222 0.004741 0.008507 0.008472 -0.001849 0.038030
#
#
# Mechanical properties :
#
#
# Convention : Reuss Voigt Hill
#
# Bulk Modulus (GPa) = 13.85933 24.48902 19.17417
# Shear Modulus (GPa) = 22.25893 28.23515 25.24704
#
# Velocity S-wave (km/s) = 3.24359 3.65316 3.45445
# Velocity P-wave (km/s) = 4.53636 5.41933 4.99738
#
# Compressibility (1/GPa) = 0.07215355
#
# Stress axis : x y z
#
# Youngs Moduli (GPa) = 85.27142 38.90408 26.82762
#
# Poissons Ratio (x) = 0.09003 0.22156
# Poissons Ratio (y) = 0.19732 -0.24939
# Poissons Ratio (z) = 0.70421 -0.36165
#
# Static dielectric constant tensor:
#      x y z
#    x 1.829140 -0.009130 -0.004940 
#    y -0.009130 1.780140 0.012970 
#    z -0.004940 0.012970 1.758170 
# 
# From -- ./inp_files/609629.got.cif
#   From: 2010.05.17/outbox.cif.g08.bks.cpg/sg2_305_cif.got.tgz:609629.got - 2010.06.03 11:33:40.
