data_PCOD9110752
_publ_section_title
;
Structure prediction by ZEFSAII (Michael W. Deem and Ramdas Pophale) SiO2 
 PCOD9110752
Probable space group: P -1
;
_chemical_formula_sum "Si O2"
_cell_formula_units_Z 16
_cell_length_a 11.698959
_cell_length_b 9.785821
_cell_length_c 14.911225
_cell_angle_alpha 145.861704
_cell_angle_beta 64.240497
_cell_angle_gamma 99.077388
_cell_volume 790.948119
_symmetry_space_group_name_H-M "P -1"
_symmetry_group_IT_number 2
_symmetry_cell_setting 'triclinic'
loop_
_space_group_symop_operation_xyz
x,y,z
-x,-y,-z
loop_
_atom_site_type_symbol
_atom_site_label
_atom_site_fract_x
_atom_site_fract_y
_atom_site_fract_z
Si Si1 0.220574 0.002961 0.126165
Si Si2 0.965149 0.912318 0.250726
Si Si3 0.142212 0.038434 0.968376
Si Si4 0.500485 0.641730 0.934579
Si Si5 0.880618 0.562836 0.944738
Si Si6 0.557080 0.787395 0.189316
Si Si7 0.264234 0.505834 0.358475
Si Si8 0.602960 0.302704 0.428226
O O1 0.200222 0.307600 0.311092
O O2 0.099237 0.939823 0.177946
O O3 0.211050 0.973668 0.006775
O O4 0.367353 0.814900 0.015786
O O5 0.014719 0.729607 0.222499
O O6 0.849808 0.203389 0.464720
O O7 0.910059 0.755439 0.112211
O O8 0.253002 0.854320 0.758827
O O9 0.104741 0.333663 0.102556
O O10 0.000000 0.000000 0.000000
O O11 0.506469 0.345510 0.787984
O O12 0.639485 0.624445 0.829997
O O13 0.493436 0.767026 0.103425
O O14 0.721592 0.603037 0.031127
O O15 0.548250 0.084220 0.363952
O O16 0.366778 0.541533 0.416298
O O17 0.500000 0.500000 0.500000
#
# Coordination Sequence:
#
# PCOD9110752 Si02
#       8
#     2   2   2   2   2   2   2   2
#     4  12  23  41  66  94 127 168 209 252 317 384
#     4  11  22  40  66  92 126 163 210 259 316 360
#     4  11  21  40  63  93 120 166 210 247 303 383
#     4  11  24  41  66  93 124 170 209 255 321 369
#     4  10  20  42  66  87 124 171 205 254 310 377
#     4  10  21  44  66  86 126 172 212 250 307 391
#     4  12  23  39  61  99 127 158 209 268 309 361
#     4  11  22  40  60  89 128 162 205 261 311 359
#
# _framework density 20.228887
#
# number of rings (size 3 to 8) (size 9 to 14) (size 15 to 20)
#    0.000    1.000    5.000    3.750    0.000    0.500 
#    2.250    2.500    0.000    0.000    0.000    0.000 
#    0.000    0.000    0.000    0.000    0.000    0.000 
#
# Total GULP energy -89423.537697 kJ/mol
# GULP energy per Si atom -5588.971106 kJ/mol
# Density = 2.018285 g / cm^3
# Si number density = 20.228887 Si / 1000 Ang^3
#
#
#
# Elastic Constant Matrix: (Units=GPa)
#
#
# Indices 1 2 3 4 5 6 
#
# 1 90.5453 35.3119 5.4727 4.6865 -8.5288 -11.1723
# 2 35.3119 103.9824 13.0466 11.6603 -13.0773 -11.8113
# 3 5.4727 13.0466 27.9261 9.7284 -11.2436 -10.9255
# 4 4.6865 11.6603 9.7284 22.2464 -0.6415 -7.9778
# 5 -8.5288 -13.0773 -11.2436 -0.6415 35.3579 8.3701
# 6 -11.1723 -11.8113 -10.9255 -7.9778 8.3701 46.9432
#
#
#
# Elastic Compliance Matrix: (Units=1/GPa)
#
#
# Indices 1 2 3 4 5 6 
#
# 1 0.012973 -0.004082 0.000754 -0.000181 0.001393 0.001957
# 2 -0.004082 0.012136 -0.002137 -0.004357 0.002658 0.000370
# 3 0.000754 -0.002137 0.051140 -0.018903 0.013926 0.005848
# 4 -0.000181 -0.004357 -0.018903 0.057327 -0.007957 0.005622
# 5 0.001393 0.002658 0.013926 -0.007957 0.034664 -0.003292
# 6 0.001957 0.000370 0.005848 0.005622 -0.003292 0.024765
#
#
# Mechanical properties :
#
#
# Convention : Reuss Voigt Hill
#
# Bulk Modulus (GPa) = 15.30963 36.67958 25.99460
# Shear Modulus (GPa) = 22.15256 32.15100 27.15178
#
# Velocity S-wave (km/s) = 3.31281 3.99100 3.66762
# Velocity P-wave (km/s) = 4.71355 6.27767 5.55098
#
# Compressibility (1/GPa) = 0.06531837
#
# Stress axis : x y z
#
# Youngs Moduli (GPa) = 77.08498 82.39660 19.55433
#
# Poissons Ratio (x) = 0.33637 -0.01475
# Poissons Ratio (y) = 0.31469 0.04179
# Poissons Ratio (z) = -0.05814 0.17609
#
# Static dielectric constant tensor:
#      x y z
#    x 1.707950 -0.004530 0.023450 
#    y -0.004530 1.717960 0.019790 
#    z 0.023450 0.019790 1.707850 
# 
# From -- ./inp_files/355334.got.cif
#   From: 2010.05.17/outbox.cif.g08.bks.cpg/sg2_178_cif.got.tgz:355334.got - 2010.06.03 11:33:40.
