data_PCOD9110356
_publ_section_title
;
Structure prediction by ZEFSAII (Michael W. Deem and Ramdas Pophale) SiO2 
 PCOD9110356
Probable space group: P -1
;
_chemical_formula_sum "Si O2"
_cell_formula_units_Z 15
_cell_length_a 13.563827
_cell_length_b 24.316510
_cell_length_c 12.653015
_cell_angle_alpha 147.623817
_cell_angle_beta 145.037681
_cell_angle_gamma 16.087341
_cell_volume 618.325829
_symmetry_space_group_name_H-M "P -1"
_symmetry_group_IT_number 2
_symmetry_cell_setting 'triclinic'
loop_
_space_group_symop_operation_xyz
x,y,z
-x,-y,-z
loop_
_atom_site_type_symbol
_atom_site_label
_atom_site_fract_x
_atom_site_fract_y
_atom_site_fract_z
Si Si1 0.500000 0.000000 0.500000
Si Si2 0.425630 0.796383 0.048185
Si Si3 0.022831 0.304521 0.375274
Si Si4 0.207224 0.411625 0.647071
Si Si5 0.368800 0.853369 0.856615
Si Si6 0.980509 0.937475 0.485482
Si Si7 0.585416 0.948267 0.113802
Si Si8 0.565232 0.365499 0.029012
O O1 0.499392 0.129309 0.720290
O O2 0.230119 0.147574 0.400997
O O3 0.559453 0.635227 0.980109
O O4 0.537214 0.731592 0.918103
O O5 0.000000 0.000000 0.000000
O O6 0.017909 0.429337 0.586015
O O7 0.262549 0.159672 0.245922
O O8 0.659101 0.434210 0.245570
O O9 0.608605 0.164360 0.580344
O O10 0.288600 0.480948 0.879890
O O11 0.000000 0.500000 0.500000
O O12 0.279217 0.810459 0.626325
O O13 0.969698 0.110592 0.945466
O O14 0.597256 0.824657 0.959277
O O15 0.913774 0.852623 0.267473
O O16 0.000000 0.000000 0.500000
O O17 0.500000 0.000000 0.000000
#
# Coordination Sequence:
#
# PCOD9110356 Si02
#       8
#     1   2   2   2   2   2   2   2
#     4  12  16  26  46  72  98 126 168 200 264 290
#     4  10  17  25  43  68  99 127 156 207 257 303
#     4  10  20  29  48  73 101 133 163 205 253 305
#     4  10  21  34  48  70 103 136 166 201 247 302
#     4   9  17  27  40  69  98 124 153 201 255 290
#     4  10  19  30  49  68  94 132 167 202 243 292
#     4  10  17  27  42  65  97 127 158 195 240 289
#     4   9  17  30  45  65  97 130 161 202 249 293
#
# _framework density 24.259053999999999
#
# number of rings (size 3 to 8) (size 9 to 14) (size 15 to 20)
#    0.000    2.133    6.667    0.000    1.867    0.533 
#    0.000    0.000    0.000    0.000    0.000    0.933 
#    0.000   10.667    0.000    0.000    0.000    0.000 
#
# Total GULP energy -83504.168970 kJ/mol
# GULP energy per Si atom -5566.944598 kJ/mol
# Density = 2.420384 g / cm^3
# Si number density = 24.259054 Si / 1000 Ang^3
#
#
#
# Elastic Constant Matrix: (Units=GPa)
#
#
# Indices 1 2 3 4 5 6 
#
# 1 130.9617 27.0989 87.7898 -21.0822 30.6985 10.5476
# 2 27.0989 59.0526 33.3063 -20.3975 1.0614 -18.0727
# 3 87.7898 33.3063 254.9811 -28.0655 31.7817 2.4582
# 4 -21.0822 -20.3975 -28.0655 44.6536 7.7374 -7.2403
# 5 30.6985 1.0614 31.7817 7.7374 41.2018 1.1092
# 6 10.5476 -18.0727 2.4582 -7.2403 1.1092 26.5584
#
#
#
# Elastic Compliance Matrix: (Units=1/GPa)
#
#
# Indices 1 2 3 4 5 6 
#
# 1 0.013657 -0.006933 -0.002518 0.001624 -0.008114 -0.009127
# 2 -0.006933 0.037020 -0.000802 0.018402 0.000486 0.033016
# 3 -0.002518 -0.000802 0.005521 0.002532 -0.002858 0.000753
# 4 0.001624 0.018402 0.002532 0.038842 -0.011543 0.022714
# 5 -0.008114 0.000486 -0.002858 -0.011543 0.034696 -0.000778
# 6 -0.009127 0.033016 0.000753 0.022714 -0.000778 0.069900
#
#
# Mechanical properties :
#
#
# Convention : Reuss Voigt Hill
#
# Bulk Modulus (GPa) = 28.01825 82.37615 55.19720
# Shear Modulus (GPa) = 21.54787 42.26945 31.90866
#
# Velocity S-wave (km/s) = 2.98357 4.17876 3.63068
# Velocity P-wave (km/s) = 4.84186 7.57055 6.35440
#
# Compressibility (1/GPa) = 0.03569102
#
# Stress axis : x y z
#
# Youngs Moduli (GPa) = 73.22169 27.01240 181.11491
#
# Poissons Ratio (x) = 0.18729 0.45613
# Poissons Ratio (y) = 0.50768 0.14523
# Poissons Ratio (z) = 0.18441 0.02166
#
# Static dielectric constant tensor:
#      x y z
#    x 1.919710 0.011050 -0.006780 
#    y 0.011050 1.945570 0.078270 
#    z -0.006780 0.078270 1.979980 
# 
# From -- ./inp_files/423942.got.cif
#   From: 2010.05.17/outbox.cif.g08.bks.cpg/sg2_212_cif.got.tgz:423942.got - 2010.06.03 11:33:40.
