data_PCOD9110757
_publ_section_title
;
Structure prediction by ZEFSAII (Michael W. Deem and Ramdas Pophale) SiO2 
 PCOD9110757
Probable space group: P -1
;
_chemical_formula_sum "Si O2"
_cell_formula_units_Z 15
_cell_length_a 8.882186
_cell_length_b 5.889286
_cell_length_c 18.191027
_cell_angle_alpha 89.022957
_cell_angle_beta 132.185609
_cell_angle_gamma 69.027734
_cell_volume 611.118346
_symmetry_space_group_name_H-M "P -1"
_symmetry_group_IT_number 2
_symmetry_cell_setting 'triclinic'
loop_
_space_group_symop_operation_xyz
x,y,z
-x,-y,-z
loop_
_atom_site_type_symbol
_atom_site_label
_atom_site_fract_x
_atom_site_fract_y
_atom_site_fract_z
Si Si1 0.500000 0.000000 0.500000
Si Si2 0.084920 0.949576 0.443878
Si Si3 0.703320 0.877854 0.691266
Si Si4 0.852676 0.889648 0.995221
Si Si5 0.696134 0.633125 0.831174
Si Si6 0.023362 0.615210 0.313720
Si Si7 0.155246 0.910745 0.859596
Si Si8 0.674695 0.426719 0.216098
O O1 0.316351 0.957758 0.496671
O O2 0.566269 0.129859 0.594872
O O3 0.094857 0.695871 0.411503
O O4 0.000000 0.000000 0.500000
O O5 0.875157 0.180736 0.327249
O O6 0.602554 0.786117 0.723968
O O7 0.775933 0.678102 0.644464
O O8 0.940068 0.855103 0.801214
O O9 0.742047 0.063274 0.030045
O O10 0.038580 0.600546 0.088101
O O11 0.691061 0.837583 0.887860
O O12 0.000000 0.000000 0.000000
O O13 0.557116 0.493349 0.815639
O O14 0.967658 0.817900 0.228026
O O15 0.781096 0.615040 0.244281
O O16 0.335348 0.685472 0.866220
#
# Coordination Sequence:
#
# PCOD9110757 Si02
#       8
#     1   2   2   2   2   2   2   2
#     4  12  22  42  68  98 128 178 224 274 328 396
#     4  11  24  43  62  96 134 170 229 281 325 399
#     4  11  21  41  65  94 131 166 226 267 318 397
#     4  11  23  40  68  99 127 169 223 270 331 398
#     4  11  24  40  67 101 129 170 221 276 328 397
#     4  10  20  43  63  84 130 175 206 266 332 385
#     4  10  20  42  66  88 130 170 210 271 319 391
#     4  10  23  43  61  94 135 169 214 271 335 393
#
# _framework density 24.545164
#
# number of rings (size 3 to 8) (size 9 to 14) (size 15 to 20)
#    0.000    1.333    6.667    0.800    0.000    3.733 
#    4.800    1.333    0.000    0.000    0.000    0.000 
#    0.000    0.000    0.000    0.000    0.000    0.000 
#
# Total GULP energy -83682.728796 kJ/mol
# GULP energy per Si atom -5578.848586 kJ/mol
# Density = 2.448930 g / cm^3
# Si number density = 24.545164 Si / 1000 Ang^3
#
#
#
# Elastic Constant Matrix: (Units=GPa)
#
#
# Indices 1 2 3 4 5 6 
#
# 1 157.6127 38.4824 54.5000 19.8160 -21.5107 15.1108
# 2 38.4824 82.6204 31.9374 11.2702 -8.9622 0.8609
# 3 54.5000 31.9374 113.1081 17.7592 -37.6799 -13.9943
# 4 19.8160 11.2702 17.7592 43.7697 -7.2865 1.9157
# 5 -21.5107 -8.9622 -37.6799 -7.2865 46.9707 -0.1644
# 6 15.1108 0.8609 -13.9943 1.9157 -0.1644 33.2231
#
#
#
# Elastic Compliance Matrix: (Units=1/GPa)
#
#
# Indices 1 2 3 4 5 6 
#
# 1 0.009121 -0.002356 -0.004149 -0.001565 0.000136 -0.005744
# 2 -0.002356 0.014518 -0.003146 -0.001550 -0.001075 -0.000546
# 3 -0.004149 -0.003146 0.016852 -0.002787 0.010618 0.009280
# 4 -0.001565 -0.001550 -0.002787 0.025279 0.000666 -0.001876
# 5 0.000136 -0.001075 0.010618 0.000666 0.029784 0.004548
# 6 -0.005744 -0.000546 0.009280 -0.001876 0.004548 0.036766
#
#
# Mechanical properties :
#
#
# Convention : Reuss Voigt Hill
#
# Bulk Modulus (GPa) = 47.19874 67.02009 57.10941
# Shear Modulus (GPa) = 31.50914 40.02081 35.76497
#
# Velocity S-wave (km/s) = 3.58679 4.04232 3.82135
# Velocity P-wave (km/s) = 6.03527 7.01079 6.54124
#
# Compressibility (1/GPa) = 0.02118701
#
# Stress axis : x y z
#
# Youngs Moduli (GPa) = 109.64131 68.88137 59.34105
#
# Poissons Ratio (x) = 0.16230 0.24620
# Poissons Ratio (y) = 0.25834 0.18671
# Poissons Ratio (z) = 0.45490 0.21672
#
# Static dielectric constant tensor:
#      x y z
#    x 1.957640 -0.068450 0.126250 
#    y -0.068450 1.550900 0.540920 
#    z 0.126250 0.540920 1.416720 
# 
# From -- ./inp_files/35956.got.cif
#   From: 2010.05.17/outbox.cif.g08.bks.cpg/sg2_18_cif.got.tgz:35956.got - 2010.06.03 11:33:40.
