data_PCOD9110114
_publ_section_title
;
Structure prediction by ZEFSAII (Michael W. Deem and Ramdas Pophale) SiO2 
 PCOD9110114
Probable space group: P -1
;
_chemical_formula_sum "Si O2"
_cell_formula_units_Z 16
_cell_length_a 10.425477
_cell_length_b 11.154839
_cell_length_c 9.797874
_cell_angle_alpha 130.847083
_cell_angle_beta 58.290728
_cell_angle_gamma 125.664304
_cell_volume 680.708023
_symmetry_space_group_name_H-M "P -1"
_symmetry_group_IT_number 2
_symmetry_cell_setting 'triclinic'
loop_
_space_group_symop_operation_xyz
x,y,z
-x,-y,-z
loop_
_atom_site_type_symbol
_atom_site_label
_atom_site_fract_x
_atom_site_fract_y
_atom_site_fract_z
Si Si1 0.130333 0.668849 0.995939
Si Si2 0.915283 0.121471 0.572675
Si Si3 0.498046 0.806192 0.870782
Si Si4 0.895786 0.603186 0.564164
Si Si5 0.331891 0.019038 0.842139
Si Si6 0.691762 0.836718 0.302822
Si Si7 0.974288 0.793191 0.935331
Si Si8 0.559120 0.310262 0.459619
O O1 0.136891 0.806633 0.209334
O O2 0.312801 0.679180 0.895008
O O3 0.000000 0.500000 0.000000
O O4 0.066443 0.697058 0.905140
O O5 0.016027 0.267500 0.514267
O O6 0.000000 0.000000 0.500000
O O7 0.762350 0.998342 0.482739
O O8 0.545518 0.729980 0.652126
O O9 0.500000 0.000000 0.000000
O O10 0.604828 0.841149 0.970474
O O11 0.883677 0.705601 0.783454
O O12 0.723978 0.472710 0.507706
O O13 0.000000 0.500000 0.500000
O O14 0.386992 0.856009 0.691047
O O15 0.135656 0.947987 0.908364
O O16 0.395326 0.114279 0.737472
O O17 0.563377 0.689590 0.352020
O O18 0.846175 0.809463 0.129558
#
# Coordination Sequence:
#
# PCOD9110114 Si02
#       8
#     2   2   2   2   2   2   2   2
#     4  12  24  43  73 106 140 189 245 296 358 426
#     4  12  25  43  71 107 145 188 240 299 354 434
#     4  10  20  41  69  98 132 178 241 290 343 418
#     4  12  24  47  74 102 142 193 242 295 360 437
#     4  11  22  42  73 101 136 188 240 295 351 425
#     4  12  26  42  67 106 145 181 239 293 368 423
#     4  12  24  44  70 101 141 186 236 292 363 425
#     4  11  23  43  69 104 139 184 238 295 354 426
#
# _framework density 23.504937999999999
#
# number of rings (size 3 to 8) (size 9 to 14) (size 15 to 20)
#    0.000    0.500    6.250    3.750    0.000    2.500 
#    0.000    0.625    0.000    0.000    0.000    0.000 
#    0.000    0.000    0.000    0.000    0.000    0.000 
#
# Total GULP energy -89365.450267 kJ/mol
# GULP energy per Si atom -5585.340642 kJ/mol
# Density = 2.345144 g / cm^3
# Si number density = 23.504938 Si / 1000 Ang^3
#
#
#
# Elastic Constant Matrix: (Units=GPa)
#
#
# Indices 1 2 3 4 5 6 
#
# 1 85.9735 31.2319 38.9633 -1.1886 24.3638 2.9079
# 2 31.2319 107.0381 20.5008 -21.8390 8.3570 15.1952
# 3 38.9633 20.5008 104.1836 -10.5698 30.3989 -2.9135
# 4 -1.1886 -21.8390 -10.5698 37.8431 6.9593 7.0437
# 5 24.3638 8.3570 30.3989 6.9593 58.7678 -1.9452
# 6 2.9079 15.1952 -2.9135 7.0437 -1.9452 36.7500
#
#
#
# Elastic Compliance Matrix: (Units=1/GPa)
#
#
# Indices 1 2 3 4 5 6 
#
# 1 0.016084 -0.004154 -0.004436 -0.002569 -0.003465 0.000402
# 2 -0.004154 0.013589 0.000099 0.009368 -0.001608 -0.007163
# 3 -0.004436 0.000099 0.013357 0.004650 -0.005629 0.000180
# 4 -0.002569 0.009368 0.004650 0.036383 -0.007334 -0.010663
# 5 -0.003465 -0.001608 -0.005629 -0.007334 0.022564 0.003093
# 6 0.000402 -0.007163 0.000180 -0.010663 0.003093 0.032363
#
#
# Mechanical properties :
#
#
# Convention : Reuss Voigt Hill
#
# Bulk Modulus (GPa) = 38.39058 53.17637 45.78347
# Shear Modulus (GPa) = 31.24896 40.43879 35.84387
#
# Velocity S-wave (km/s) = 3.65014 4.15232 3.90930
# Velocity P-wave (km/s) = 5.84235 6.75733 6.31643
#
# Compressibility (1/GPa) = 0.02604805
#
# Stress axis : x y z
#
# Youngs Moduli (GPa) = 62.17428 73.58629 74.86560
#
# Poissons Ratio (x) = 0.30568 0.33211
# Poissons Ratio (y) = 0.25827 -0.00740
# Poissons Ratio (z) = 0.27581 -0.00727
#
# Static dielectric constant tensor:
#      x y z
#    x 1.893820 -0.040760 -0.134850 
#    y -0.040760 1.879360 0.064820 
#    z -0.134850 0.064820 1.826520 
# 
# From -- ./inp_files/263387.got.cif
#   From: 2010.05.17/outbox.cif.g08.bks.cpg/sg2_132_cif.got.tgz:263387.got - 2010.06.03 11:33:40.
