data_PCOD9110155
_publ_section_title
;
Structure prediction by ZEFSAII (Michael W. Deem and Ramdas Pophale) SiO2 
 PCOD9110155
Probable space group: P -1
;
_chemical_formula_sum "Si O2"
_cell_formula_units_Z 16
_cell_length_a 9.630100
_cell_length_b 13.530057
_cell_length_c 11.806972
_cell_angle_alpha 57.117896
_cell_angle_beta 140.899893
_cell_angle_gamma 105.870961
_cell_volume 782.399513
_symmetry_space_group_name_H-M "P -1"
_symmetry_group_IT_number 2
_symmetry_cell_setting 'triclinic'
loop_
_space_group_symop_operation_xyz
x,y,z
-x,-y,-z
loop_
_atom_site_type_symbol
_atom_site_label
_atom_site_fract_x
_atom_site_fract_y
_atom_site_fract_z
Si Si1 0.891863 0.886047 0.680698
Si Si2 0.456019 0.250739 0.472163
Si Si3 0.438092 0.869103 0.752700
Si Si4 0.345197 0.719897 0.981894
Si Si5 0.581275 0.347291 0.271820
Si Si6 0.152444 0.549067 0.794802
Si Si7 0.208542 0.014290 0.194834
Si Si8 0.392604 0.402459 0.555670
O O1 0.794311 0.766902 0.696263
O O2 0.860414 0.945013 0.747555
O O3 0.150812 0.831846 0.842320
O O4 0.745088 0.996217 0.438806
O O5 0.537736 0.339855 0.382352
O O6 0.461491 0.288702 0.581708
O O7 0.608477 0.116745 0.618425
O O8 0.479967 0.787341 0.942125
O O9 0.351345 0.788074 0.655232
O O10 0.670612 0.890576 0.841143
O O11 0.223889 0.640047 0.874478
O O12 0.492714 0.638765 0.224602
O O13 0.767512 0.411623 0.301572
O O14 0.333930 0.419225 0.018080
O O15 0.885486 0.555690 0.633722
O O16 0.000000 0.000000 0.000000
O O17 0.500000 0.500000 0.500000
#
# Coordination Sequence:
#
# PCOD9110155 Si02
#       8
#     2   2   2   2   2   2   2   2
#     4  11  20  41  67  95 130 174 216 259 326 391
#     4  11  21  40  65  91 128 169 219 262 323 385
#     4  10  21  41  64  94 126 172 214 264 327 391
#     4  11  24  43  65  95 132 173 214 269 334 383
#     4  10  20  41  70  89 125 175 219 270 326 389
#     4  10  24  43  65  95 128 171 221 271 334 380
#     4  11  22  37  60 101 132 168 215 265 320 388
#     4  12  27  43  65  99 131 173 225 270 328 393
#
# _framework density 20.449909999999999
#
# number of rings (size 3 to 8) (size 9 to 14) (size 15 to 20)
#    0.000    1.250    3.750    2.625    1.750    3.000 
#    0.000   11.875    0.000    0.000    0.000    0.000 
#    0.000    0.000    0.000    0.000    0.000    0.000 
#
# Total GULP energy -89284.009391 kJ/mol
# GULP energy per Si atom -5580.250587 kJ/mol
# Density = 2.040336 g / cm^3
# Si number density = 20.449910 Si / 1000 Ang^3
#
#
#
# Elastic Constant Matrix: (Units=GPa)
#
#
# Indices 1 2 3 4 5 6 
#
# 1 107.3574 18.6118 42.3791 -9.7419 -19.1273 9.8924
# 2 18.6118 54.6508 13.3778 -6.6315 -8.7051 1.8444
# 3 42.3791 13.3778 61.4417 -2.3628 -18.9696 15.3806
# 4 -9.7419 -6.6315 -2.3628 27.1880 -4.5953 -0.2986
# 5 -19.1273 -8.7051 -18.9696 -4.5953 30.9927 -9.0293
# 6 9.8924 1.8444 15.3806 -0.2986 -9.0293 33.9451
#
#
#
# Elastic Compliance Matrix: (Units=1/GPa)
#
#
# Indices 1 2 3 4 5 6 
#
# 1 0.013791 -0.001572 -0.007916 0.004578 0.004134 0.000793
# 2 -0.001572 0.020685 -0.002164 0.005114 0.004746 0.001622
# 3 -0.007916 -0.002164 0.026785 0.000372 0.008810 -0.007365
# 4 0.004578 0.005114 0.000372 0.041595 0.011105 0.001539
# 5 0.004134 0.004746 0.008810 0.011105 0.045126 0.006646
# 6 0.000793 0.001622 -0.007365 0.001539 0.006646 0.034259
#
#
# Mechanical properties :
#
#
# Convention : Reuss Voigt Hill
#
# Bulk Modulus (GPa) = 26.34507 41.35415 33.84961
# Shear Modulus (GPa) = 22.91530 28.36390 25.63960
#
# Velocity S-wave (km/s) = 3.35110 3.72828 3.54471
# Velocity P-wave (km/s) = 5.28052 6.22892 5.77423
#
# Compressibility (1/GPa) = 0.03795777
#
# Stress axis : x y z
#
# Youngs Moduli (GPa) = 72.51164 48.34484 37.33456
#
# Poissons Ratio (x) = 0.07598 0.29554
# Poissons Ratio (y) = 0.11396 0.08078
# Poissons Ratio (z) = 0.57401 0.10460
#
# Static dielectric constant tensor:
#      x y z
#    x 1.735130 0.010720 -0.036360 
#    y 0.010720 1.748580 -0.030580 
#    z -0.036360 -0.030580 1.693650 
# 
# From -- ./inp_files/261091.got.cif
#   From: 2010.05.17/outbox.cif.g08.bks.cpg/sg2_131_cif.got.tgz:261091.got - 2010.06.03 11:33:40.
