data_PCOD9110987
_publ_section_title
;
Structure prediction by ZEFSAII (Michael W. Deem and Ramdas Pophale) SiO2 
 PCOD9110987
Probable space group: P -1
;
_chemical_formula_sum "Si O2"
_cell_formula_units_Z 14
_cell_length_a 20.624136
_cell_length_b 5.304423
_cell_length_c 8.028589
_cell_angle_alpha 60.441124
_cell_angle_beta 128.456567
_cell_angle_gamma 122.316365
_cell_volume 563.833339
_symmetry_space_group_name_H-M "P -1"
_symmetry_group_IT_number 2
_symmetry_cell_setting 'triclinic'
loop_
_space_group_symop_operation_xyz
x,y,z
-x,-y,-z
loop_
_atom_site_type_symbol
_atom_site_label
_atom_site_fract_x
_atom_site_fract_y
_atom_site_fract_z
Si Si1 0.549854 0.679556 0.360882
Si Si2 0.215986 0.819178 0.112345
Si Si3 0.590507 0.355594 0.098556
Si Si4 0.268819 0.519964 0.965666
Si Si5 0.280878 0.344497 0.526307
Si Si6 0.037675 0.731690 0.699764
Si Si7 0.867537 0.303920 0.484222
O O1 0.500000 0.500000 0.500000
O O2 0.642195 0.630134 0.492043
O O3 0.564407 0.044815 0.267185
O O4 0.489418 0.565058 0.136853
O O5 0.240238 0.616483 0.357943
O O6 0.245884 0.684343 0.036124
O O7 0.113491 0.784577 0.940489
O O8 0.267204 0.176251 0.104984
O O9 0.640523 0.285631 0.038448
O O10 0.665087 0.620580 0.227427
O O11 0.192946 0.489450 0.716112
O O12 0.200332 0.031167 0.478853
O O13 0.085904 0.691418 0.620754
O O14 0.949797 0.444860 0.690542
O O15 0.000000 0.000000 0.500000
#
# Coordination Sequence:
#
# PCOD9110987 Si02
#       7
#     2   2   2   2   2   2   2
#     4  11  26  48  72 106 147 191 248 311 370 447
#     4  11  26  41  75 109 152 193 250 307 374 438
#     4  11  25  45  75 103 145 196 248 302 377 443
#     4  11  22  46  71 106 142 203 245 301 368 450
#     4  12  26  45  69 110 147 194 243 314 369 448
#     4  10  20  42  68 102 138 197 245 302 363 440
#     4  10  22  40  71  97 145 190 249 297 371 437
#
# _framework density 24.830034000000001
#
# number of rings (size 3 to 8) (size 9 to 14) (size 15 to 20)
#    0.000    1.143    2.857    3.000    4.000    1.143 
#    0.000    0.714    0.000    0.000    0.000    0.000 
#    0.000    0.000    0.000    0.000    0.000    0.000 
#
# Total GULP energy -78362.213795 kJ/mol
# GULP energy per Si atom -5597.300985 kJ/mol
# Density = 2.477352 g / cm^3
# Si number density = 24.830034 Si / 1000 Ang^3
#
#
#
# Elastic Constant Matrix: (Units=GPa)
#
#
# Indices 1 2 3 4 5 6 
#
# 1 95.7234 49.8930 39.3223 2.4645 13.2832 19.3857
# 2 49.8930 148.0303 62.2267 -13.3544 6.8190 16.7796
# 3 39.3223 62.2267 137.9665 -5.9463 21.1877 13.6913
# 4 2.4645 -13.3544 -5.9463 43.5301 -4.7448 7.1188
# 5 13.2832 6.8190 21.1877 -4.7448 43.4622 5.4380
# 6 19.3857 16.7796 13.6913 7.1188 5.4380 40.2309
#
#
#
# Elastic Compliance Matrix: (Units=1/GPa)
#
#
# Indices 1 2 3 4 5 6 
#
# 1 0.014305 -0.003691 -0.001673 -0.001789 -0.002658 -0.004108
# 2 -0.003691 0.009840 -0.003322 0.003303 0.001818 -0.002025
# 3 -0.001673 -0.003322 0.009862 0.000136 -0.003674 -0.000692
# 4 -0.001789 0.003303 0.000136 0.025381 0.003423 -0.005516
# 5 -0.002658 0.001818 -0.003674 0.003423 0.025994 -0.002346
# 6 -0.004108 -0.002025 -0.000692 -0.005516 -0.002346 0.029209
#
#
# Mechanical properties :
#
#
# Convention : Reuss Voigt Hill
#
# Bulk Modulus (GPa) = 60.11849 76.06712 68.09280
# Shear Modulus (GPa) = 36.36146 40.79653 38.57900
#
# Velocity S-wave (km/s) = 3.83092 4.05783 3.94601
# Velocity P-wave (km/s) = 6.62061 7.25646 6.94582
#
# Compressibility (1/GPa) = 0.01663382
#
# Stress axis : x y z
#
# Youngs Moduli (GPa) = 69.90519 101.62989 101.39994
#
# Poissons Ratio (x) = 0.37514 0.16969
# Poissons Ratio (y) = 0.25804 0.33682
# Poissons Ratio (z) = 0.11698 0.33758
#
# Static dielectric constant tensor:
#      x y z
#    x 2.063050 -0.018610 0.002000 
#    y -0.018610 1.979520 0.025300 
#    z 0.002000 0.025300 2.009030 
# 
# From -- ./inp_files/340064.got.cif
#   From: 2010.05.17/outbox.cif.g08.bks.cpg/sg2_171_cif.got.tgz:340064.got - 2010.06.03 11:33:40.
