data_PCOD9110065
_publ_section_title
;
Structure prediction by ZEFSAII (Michael W. Deem and Ramdas Pophale) SiO2 
 PCOD9110065
Probable space group: P -1
;
_chemical_formula_sum "Si O2"
_cell_formula_units_Z 16
_cell_length_a 20.031998
_cell_length_b 17.659315
_cell_length_c 11.792342
_cell_angle_alpha 147.832086
_cell_angle_beta 43.661514
_cell_angle_gamma 159.838928
_cell_volume 705.511224
_symmetry_space_group_name_H-M "P -1"
_symmetry_group_IT_number 2
_symmetry_cell_setting 'triclinic'
loop_
_space_group_symop_operation_xyz
x,y,z
-x,-y,-z
loop_
_atom_site_type_symbol
_atom_site_label
_atom_site_fract_x
_atom_site_fract_y
_atom_site_fract_z
Si Si1 0.753621 0.697579 0.937874
Si Si2 0.224588 0.557536 0.287834
Si Si3 0.240176 0.119444 0.051642
Si Si4 0.537304 0.845515 0.713314
Si Si5 0.439755 0.092232 0.826997
Si Si6 0.835951 0.012999 0.438932
Si Si7 0.113619 0.173256 0.461261
Si Si8 0.733099 0.274909 0.207924
O O1 0.681988 0.666199 0.866126
O O2 0.744098 0.803947 0.182039
O O3 0.685588 0.453160 0.755563
O O4 0.000000 0.000000 0.000000
O O5 0.308489 0.817478 0.556196
O O6 0.974554 0.227352 0.174383
O O7 0.321743 0.643180 0.155025
O O8 0.401105 0.204996 0.988678
O O9 0.169678 0.106497 0.235787
O O10 0.342786 0.548270 0.657972
O O11 0.418798 0.785653 0.688576
O O12 0.665298 0.881874 0.550344
O O13 0.699515 0.154742 0.976064
O O14 0.351326 0.939546 0.864417
O O15 0.956045 0.060792 0.435405
O O16 0.028053 0.365507 0.608698
O O17 0.000000 0.000000 0.500000
#
# Coordination Sequence:
#
# PCOD9110065 Si02
#       8
#     2   2   2   2   2   2   2   2
#     4  10  20  41  69  92 132 169 218 270 319 391
#     4  10  23  42  62  95 133 168 218 270 325 388
#     4  11  24  42  66  96 131 175 214 265 334 385
#     4  10  25  42  67  96 126 176 227 265 325 390
#     4  11  25  39  66  96 132 173 214 269 335 390
#     4  11  22  43  72  96 125 180 219 270 330 386
#     4  11  26  42  65  98 136 167 222 276 323 389
#     4  10  23  44  63  93 138 164 223 274 321 391
#
# _framework density 22.67859
#
# number of rings (size 3 to 8) (size 9 to 14) (size 15 to 20)
#    0.000    1.500    2.500    2.250    7.000    4.000 
#    0.000    0.000    0.000    0.000    0.000    0.000 
#    0.000    0.000    0.000    0.000    0.000    0.000 
#
# Total GULP energy -89473.473498 kJ/mol
# GULP energy per Si atom -5592.092094 kJ/mol
# Density = 2.262697 g / cm^3
# Si number density = 22.678590 Si / 1000 Ang^3
#
#
#
# Elastic Constant Matrix: (Units=GPa)
#
#
# Indices 1 2 3 4 5 6 
#
# 1 52.6838 30.3132 9.8342 -17.0958 -12.9569 -15.7247
# 2 30.3132 101.2122 18.4164 -19.9666 -4.3102 3.6705
# 3 9.8342 18.4164 91.3232 -23.5766 -10.9225 6.0852
# 4 -17.0958 -19.9666 -23.5766 43.6180 3.2511 -6.1405
# 5 -12.9569 -4.3102 -10.9225 3.2511 29.2880 -0.3882
# 6 -15.7247 3.6705 6.0852 -6.1405 -0.3882 42.3372
#
#
#
# Elastic Compliance Matrix: (Units=1/GPa)
#
#
# Indices 1 2 3 4 5 6 
#
# 1 0.035616 -0.008552 0.001641 0.012088 0.013975 0.015615
# 2 -0.008552 0.013020 -0.001364 0.001513 -0.002596 -0.003913
# 3 0.001641 -0.001364 0.013406 0.006889 0.004758 -0.000156
# 4 0.012088 0.001513 0.006889 0.032890 0.004597 0.008181
# 5 0.013975 -0.002596 0.004758 0.004597 0.041285 0.005777
# 6 0.015615 -0.003913 -0.000156 0.008181 0.005777 0.031021
#
#
# Mechanical properties :
#
#
# Convention : Reuss Voigt Hill
#
# Bulk Modulus (GPa) = 21.98156 40.26075 31.12116
# Shear Modulus (GPa) = 25.13181 35.49232 30.31206
#
# Velocity S-wave (km/s) = 3.33254 3.96032 3.65991
# Velocity P-wave (km/s) = 4.95191 6.22121 5.62249
#
# Compressibility (1/GPa) = 0.04549268
#
# Stress axis : x y z
#
# Youngs Moduli (GPa) = 28.07733 76.80692 74.59140
#
# Poissons Ratio (x) = 0.65686 -0.12241
# Poissons Ratio (y) = 0.24012 0.10171
# Poissons Ratio (z) = -0.04608 0.10473
#
# Static dielectric constant tensor:
#      x y z
#    x 1.850950 -0.012080 0.006790 
#    y -0.012080 1.845320 0.025730 
#    z 0.006790 0.025730 1.863730 
# 
# From -- ./inp_files/472502.got.cif
#   From: 2010.05.17/outbox.cif.g08.bks.cpg/sg2_237_cif.got.tgz:472502.got - 2010.06.03 11:33:40.
