data_PCOD9110180
_publ_section_title
;
Structure prediction by ZEFSAII (Michael W. Deem and Ramdas Pophale) SiO2 
 PCOD9110180
Probable space group: P -1
;
_chemical_formula_sum "Si O2"
_cell_formula_units_Z 16
_cell_length_a 7.187089
_cell_length_b 13.373280
_cell_length_c 12.247619
_cell_angle_alpha 52.000487
_cell_angle_beta 108.464739
_cell_angle_gamma 69.882973
_cell_volume 609.675908
_symmetry_space_group_name_H-M "P -1"
_symmetry_group_IT_number 2
_symmetry_cell_setting 'triclinic'
loop_
_space_group_symop_operation_xyz
x,y,z
-x,-y,-z
loop_
_atom_site_type_symbol
_atom_site_label
_atom_site_fract_x
_atom_site_fract_y
_atom_site_fract_z
Si Si1 0.416459 0.389037 0.772400
Si Si2 0.412115 0.288779 0.609428
Si Si3 0.807850 0.848132 0.217030
Si Si4 0.775971 0.681010 0.911048
Si Si5 0.186604 0.023800 0.463400
Si Si6 0.259037 0.567733 0.827606
Si Si7 0.991720 0.640574 0.191854
Si Si8 0.027413 0.014938 0.200159
O O1 0.397537 0.394929 0.634982
O O2 0.315483 0.552708 0.719226
O O3 0.232584 0.349974 0.796166
O O4 0.742665 0.218693 0.976851
O O5 0.228112 0.252971 0.638163
O O6 0.725832 0.099717 0.766541
O O7 0.274020 0.423709 0.389668
O O8 0.005361 0.741570 0.218149
O O9 0.910318 0.924653 0.248082
O O10 0.500000 0.000000 0.000000
O O11 0.505934 0.861329 0.676642
O O12 0.700730 0.599964 0.030994
O O13 0.902148 0.716914 0.001381
O O14 0.000000 0.500000 0.000000
O O15 0.030328 0.228360 0.328769
O O16 0.155901 0.009830 0.339220
O O17 0.000000 0.000000 0.500000
O O18 0.500000 0.500000 0.000000
#
# Coordination Sequence:
#
# PCOD9110180 Si02
#       8
#     2   2   2   2   2   2   2   2
#     4  10  20  41  70  95 140 180 231 290 352 433
#     4  11  24  44  70 105 141 188 229 301 367 419
#     4  11  23  42  71 102 137 187 229 285 369 429
#     4  11  25  48  69 105 145 183 244 305 351 427
#     4  12  25  44  76 104 142 196 241 297 357 431
#     4  11  22  46  69 101 136 188 240 286 361 427
#     4  10  22  46  64  98 145 180 237 291 358 431
#     4  12  24  43  70 110 142 177 248 292 356 442
#
# _framework density 26.243452000000001
#
# number of rings (size 3 to 8) (size 9 to 14) (size 15 to 20)
#    0.000    1.000    5.000    3.375    0.000    4.000 
#    4.500    0.000    0.000    0.000    0.000    0.000 
#    0.000    0.000    0.000    0.000    0.000    0.000 
#
# Total GULP energy -89521.972990 kJ/mol
# GULP energy per Si atom -5595.123312 kJ/mol
# Density = 2.618372 g / cm^3
# Si number density = 26.243452 Si / 1000 Ang^3
#
#
#
# Elastic Constant Matrix: (Units=GPa)
#
#
# Indices 1 2 3 4 5 6 
#
# 1 80.7859 21.2231 21.0348 0.4853 7.0276 3.5954
# 2 21.2231 171.9446 76.0281 0.9300 17.6032 0.5949
# 3 21.0348 76.0281 211.5241 -4.7198 17.7059 6.2324
# 4 0.4853 0.9300 -4.7198 45.6729 -7.5508 2.3305
# 5 7.0276 17.6032 17.7059 -7.5508 27.4060 -8.1443
# 6 3.5954 0.5949 6.2324 2.3305 -8.1443 32.6921
#
#
#
# Elastic Compliance Matrix: (Units=1/GPa)
#
#
# Indices 1 2 3 4 5 6 
#
# 1 0.013174 -0.001018 -0.000640 -0.000590 -0.003078 -0.002033
# 2 -0.001018 0.007281 -0.002248 -0.000900 -0.003317 -0.000354
# 3 -0.000640 -0.002248 0.005873 0.000316 -0.002598 -0.001678
# 4 -0.000590 -0.000900 0.000316 0.023091 0.006917 0.000098
# 5 -0.003078 -0.003317 -0.002598 0.006917 0.046558 0.012000
# 6 -0.002033 -0.000354 -0.001678 0.000098 0.012000 0.034121
#
#
# Mechanical properties :
#
#
# Convention : Reuss Voigt Hill
#
# Bulk Modulus (GPa) = 54.00363 77.86963 65.93663
# Shear Modulus (GPa) = 34.70260 44.21876 39.46068
#
# Velocity S-wave (km/s) = 3.64034 4.10926 3.88189
# Velocity P-wave (km/s) = 6.18805 7.22849 6.72842
#
# Compressibility (1/GPa) = 0.01851727
#
# Stress axis : x y z
#
# Youngs Moduli (GPa) = 75.90604 137.34354 170.26666
#
# Poissons Ratio (x) = 0.13979 0.10895
# Poissons Ratio (y) = 0.07726 0.38273
# Poissons Ratio (z) = 0.04857 0.30872
#
# Static dielectric constant tensor:
#      x y z
#    x 2.022450 -0.096220 -0.005740 
#    y -0.096220 2.149820 0.067190 
#    z -0.005740 0.067190 2.113940 
# 
# From -- ./inp_files/398809.got.cif
#   From: 2010.05.17/outbox.cif.g08.bks.cpg/sg2_200_cif.got.tgz:398809.got - 2010.06.03 11:33:40.
