data_PCOD9110973
_publ_section_title
;
Structure prediction by ZEFSAII (Michael W. Deem and Ramdas Pophale) SiO2 
 PCOD9110973
Probable space group: P -1
;
_chemical_formula_sum "Si O2"
_cell_formula_units_Z 14
_cell_length_a 7.956937
_cell_length_b 14.912292
_cell_length_c 7.793716
_cell_angle_alpha 113.597704
_cell_angle_beta 37.217371
_cell_angle_gamma 114.532930
_cell_volume 504.750466
_symmetry_space_group_name_H-M "P -1"
_symmetry_group_IT_number 2
_symmetry_cell_setting 'triclinic'
loop_
_space_group_symop_operation_xyz
x,y,z
-x,-y,-z
loop_
_atom_site_type_symbol
_atom_site_label
_atom_site_fract_x
_atom_site_fract_y
_atom_site_fract_z
Si Si1 0.772886 0.983406 0.879689
Si Si2 0.656752 0.083877 0.567425
Si Si3 0.763629 0.298072 0.487720
Si Si4 0.284303 0.463284 0.797590
Si Si5 0.639888 0.618810 0.854876
Si Si6 0.305878 0.809106 0.885323
Si Si7 0.824810 0.736010 0.439778
O O1 0.830072 0.097523 0.991689
O O2 0.609872 0.906566 0.089701
O O3 0.500000 0.000000 0.000000
O O4 0.081586 0.955753 0.581374
O O5 0.783323 0.188567 0.460655
O O6 0.500000 0.000000 0.500000
O O7 0.734444 0.275356 0.291852
O O8 0.042979 0.381151 0.340306
O O9 0.524565 0.330296 0.827688
O O10 0.500000 0.500000 0.500000
O O11 0.433118 0.519168 0.884759
O O12 0.236783 0.345233 0.724908
O O13 0.000000 0.500000 0.000000
O O14 0.719520 0.681991 0.660625
O O15 0.644825 0.824251 0.638495
O O16 0.152005 0.774563 0.163459
#
# Coordination Sequence:
#
# PCOD9110973 Si02
#       7
#     2   2   2   2   2   2   2
#     4  12  28  46  70 103 141 179 239 298 344 411
#     4  12  26  48  72  96 139 196 233 277 355 423
#     4  12  26  43  68 101 140 179 233 281 344 416
#     4  10  20  42  68 100 134 173 226 280 343 411
#     4  11  24  43  71 102 131 178 233 284 330 423
#     4  12  26  44  67 100 144 177 223 288 357 401
#     4  11  24  43  71  99 133 180 225 283 346 408
#
# _framework density 27.736478999999999
#
# number of rings (size 3 to 8) (size 9 to 14) (size 15 to 20)
#    0.000    0.571    1.429    7.714    8.000    0.000 
#    0.000    4.286    0.000    0.000    0.000    0.000 
#    0.000    0.000    0.000    0.000    0.000    0.000 
#
# Total GULP energy -78288.117257 kJ/mol
# GULP energy per Si atom -5592.008375 kJ/mol
# Density = 2.767335 g / cm^3
# Si number density = 27.736479 Si / 1000 Ang^3
#
#
#
# Elastic Constant Matrix: (Units=GPa)
#
#
# Indices 1 2 3 4 5 6 
#
# 1 95.9827 22.7870 55.3898 4.5229 -6.8723 22.6015
# 2 22.7870 115.3244 43.9878 0.5794 -10.2345 7.1957
# 3 55.3898 43.9878 240.6118 -10.2345 -8.6743 3.3211
# 4 4.5229 0.5794 -10.2345 56.4064 2.7241 -2.3119
# 5 -6.8723 -10.2345 -8.6743 2.7241 50.2218 2.0951
# 6 22.6015 7.1957 3.3211 -2.3119 2.0951 46.7011
#
#
#
# Elastic Compliance Matrix: (Units=1/GPa)
#
#
# Indices 1 2 3 4 5 6 
#
# 1 0.014187 -0.001091 -0.003003 -0.002021 0.001587 -0.006655
# 2 -0.001091 0.009648 -0.001458 -0.000393 0.001626 -0.000947
# 3 -0.003003 -0.001458 0.005150 0.001244 0.000057 0.001371
# 4 -0.002021 -0.000393 0.001244 0.018257 -0.001212 0.001908
# 5 0.001587 0.001626 0.000057 -0.001212 0.020620 -0.002008
# 6 -0.006655 -0.000947 0.001371 0.001908 -0.002008 0.024867
#
#
# Mechanical properties :
#
#
# Convention : Reuss Voigt Hill
#
# Bulk Modulus (GPa) = 55.92703 77.36091 66.64397
# Shear Modulus (GPa) = 45.54038 52.64946 49.09492
#
# Velocity S-wave (km/s) = 4.05643 4.36156 4.21176
# Velocity P-wave (km/s) = 6.49207 7.30180 6.90881
#
# Compressibility (1/GPa) = 0.01788044
#
# Stress axis : x y z
#
# Youngs Moduli (GPa) = 70.48825 103.64635 194.17742
#
# Poissons Ratio (x) = 0.11312 0.58315
# Poissons Ratio (y) = 0.07693 0.28304
# Poissons Ratio (z) = 0.21169 0.15108
#
# Static dielectric constant tensor:
#      x y z
#    x 2.349830 0.072880 0.047860 
#    y 0.072880 2.265690 0.000510 
#    z 0.047860 0.000510 2.027390 
# 
# From -- ./inp_files/217401.got.cif
#   From: 2010.05.17/outbox.cif.g08.bks.cpg/sg2_109_cif.got.tgz:217401.got - 2010.06.03 11:33:40.
