data_PCOD9110976
_publ_section_title
;
Structure prediction by ZEFSAII (Michael W. Deem and Ramdas Pophale) SiO2 
 PCOD9110976
Probable space group: P -1
;
_chemical_formula_sum "Si O2"
_cell_formula_units_Z 16
_cell_length_a 5.485389
_cell_length_b 14.373390
_cell_length_c 8.379890
_cell_angle_alpha 107.805804
_cell_angle_beta 90.075072
_cell_angle_gamma 86.361770
_cell_volume 627.670747
_symmetry_space_group_name_H-M "P -1"
_symmetry_group_IT_number 2
_symmetry_cell_setting 'triclinic'
loop_
_space_group_symop_operation_xyz
x,y,z
-x,-y,-z
loop_
_atom_site_type_symbol
_atom_site_label
_atom_site_fract_x
_atom_site_fract_y
_atom_site_fract_z
Si Si1 0.119136 0.861237 0.237358
Si Si2 0.898149 0.462752 0.311293
Si Si3 0.612647 0.845997 0.774180
Si Si4 0.416655 0.024964 0.698242
Si Si5 0.964186 0.794126 0.507954
Si Si6 0.638131 0.342174 0.449236
Si Si7 0.664821 0.646383 0.248090
Si Si8 0.835919 0.715322 0.971351
O O1 0.158462 0.834854 0.410641
O O2 0.363402 0.909130 0.209152
O O3 0.860135 0.926604 0.276159
O O4 0.059488 0.763837 0.088980
O O5 0.644545 0.420970 0.351306
O O6 0.849630 0.552995 0.238113
O O7 0.000000 0.500000 0.500000
O O8 0.058355 0.375101 0.182500
O O9 0.423009 0.935134 0.778188
O O10 0.515361 0.745977 0.653805
O O11 0.714304 0.807817 0.922243
O O12 0.837386 0.868836 0.669972
O O13 0.500000 0.000000 0.500000
O O14 0.089581 0.706415 0.562772
O O15 0.771864 0.745323 0.368513
O O16 0.558184 0.372059 0.643466
O O17 0.652338 0.669915 0.074503
#
# Coordination Sequence:
#
# PCOD9110976 Si02
#       8
#     2   2   2   2   2   2   2   2
#     4  11  27  44  73 110 151 192 242 315 379 433
#     4  12  22  45  74 102 140 189 254 300 356 448
#     4  11  24  42  70 101 142 193 243 298 368 446
#     4  12  25  46  79 110 143 192 263 305 360 452
#     4  10  20  42  68 100 142 186 240 299 364 433
#     4  11  22  42  73 101 138 190 248 301 365 434
#     4  10  23  42  67 102 141 185 238 304 364 440
#     4  11  26  47  66 106 156 191 229 307 388 432
#
# _framework density 25.491071999999999
#
# number of rings (size 3 to 8) (size 9 to 14) (size 15 to 20)
#    0.000    1.000    3.750    2.625    5.250    2.000 
#    2.250    1.250    0.000    0.000    0.000    0.000 
#    0.000    0.000    0.000    0.000    0.000    0.000 
#
# Total GULP energy -89404.533778 kJ/mol
# GULP energy per Si atom -5587.783361 kJ/mol
# Density = 2.543305 g / cm^3
# Si number density = 25.491072 Si / 1000 Ang^3
#
#
#
# Elastic Constant Matrix: (Units=GPa)
#
#
# Indices 1 2 3 4 5 6 
#
# 1 81.4356 28.7904 26.2005 7.7496 -8.6089 -4.1707
# 2 28.7904 136.7439 31.3541 -26.2171 0.2001 -3.2013
# 3 26.2005 31.3541 105.4743 -12.3301 -6.0473 -1.2537
# 4 7.7496 -26.2171 -12.3301 45.6642 -4.8749 1.5884
# 5 -8.6089 0.2001 -6.0473 -4.8749 26.0043 -0.1628
# 6 -4.1707 -3.2013 -1.2537 1.5884 -0.1628 44.3582
#
#
#
# Elastic Compliance Matrix: (Units=1/GPa)
#
#
# Indices 1 2 3 4 5 6 
#
# 1 0.015464 -0.003488 -0.003196 -0.005168 0.003442 0.001310
# 2 -0.003488 0.009423 -0.001307 0.005594 -0.000482 0.000113
# 3 -0.003196 -0.001307 0.011136 0.003030 0.002109 -0.000181
# 4 -0.005168 0.005594 0.003030 0.027272 0.004057 -0.000958
# 5 0.003442 -0.000482 0.002109 0.004057 0.040852 0.000353
# 6 0.001310 0.000113 -0.000181 -0.000958 0.000353 0.022706
#
#
# Mechanical properties :
#
#
# Convention : Reuss Voigt Hill
#
# Bulk Modulus (GPa) = 49.89695 55.14932 52.52314
# Shear Modulus (GPa) = 33.44158 39.02593 36.23375
#
# Velocity S-wave (km/s) = 3.62594 3.91700 3.77427
# Velocity P-wave (km/s) = 6.09481 6.49145 6.29625
#
# Compressibility (1/GPa) = 0.02004131
#
# Stress axis : x y z
#
# Youngs Moduli (GPa) = 64.66729 106.12525 89.79626
#
# Poissons Ratio (x) = 0.37019 0.28695
# Poissons Ratio (y) = 0.22558 0.11736
# Poissons Ratio (z) = 0.20665 0.13870
#
# Static dielectric constant tensor:
#      x y z
#    x 2.087690 0.041960 0.002800 
#    y 0.041960 2.079590 -0.002130 
#    z 0.002800 -0.002130 2.078750 
# 
# From -- ./inp_files/135647.got.cif
#   From: 2010.05.17/outbox.cif.g08.bks.cpg/sg2_68_cif.got.tgz:135647.got - 2010.06.03 11:33:40.
