data_PCOD9110669
_publ_section_title
;
Structure prediction by ZEFSAII (Michael W. Deem and Ramdas Pophale) SiO2 
 PCOD9110669
Probable space group: P -1
;
_chemical_formula_sum "Si O2"
_cell_formula_units_Z 16
_cell_length_a 9.517418
_cell_length_b 7.730569
_cell_length_c 11.477729
_cell_angle_alpha 94.827151
_cell_angle_beta 117.227973
_cell_angle_gamma 96.755058
_cell_volume 736.529992
_symmetry_space_group_name_H-M "P -1"
_symmetry_group_IT_number 2
_symmetry_cell_setting 'triclinic'
loop_
_space_group_symop_operation_xyz
x,y,z
-x,-y,-z
loop_
_atom_site_type_symbol
_atom_site_label
_atom_site_fract_x
_atom_site_fract_y
_atom_site_fract_z
Si Si1 0.826438 0.003254 0.610366
Si Si2 0.830832 0.828667 0.193909
Si Si3 0.430570 0.295237 0.449329
Si Si4 0.751725 0.200706 0.142716
Si Si5 0.697482 0.267537 0.721892
Si Si6 0.505538 0.220740 0.861364
Si Si7 0.626020 0.140354 0.331999
Si Si8 0.015670 0.485585 0.866632
O O1 0.749346 0.799116 0.592614
O O2 0.782061 0.099575 0.718681
O O3 0.735919 0.077437 0.471775
O O4 0.015622 0.070413 0.669823
O O5 0.672431 0.735376 0.198035
O O6 0.889939 0.675049 0.135043
O O7 0.775377 0.997800 0.120838
O O8 0.500000 0.500000 0.500000
O O9 0.538144 0.219683 0.582971
O O10 0.497648 0.240999 0.348767
O O11 0.736133 0.236912 0.276146
O O12 0.893827 0.336207 0.146008
O O13 0.588729 0.227017 0.017901
O O14 0.636963 0.317797 0.827257
O O15 0.835488 0.427181 0.743901
O O16 0.472551 0.025590 0.783219
O O17 0.000000 0.500000 0.000000
#
# Coordination Sequence:
#
# PCOD9110669 Si02
#       8
#     2   2   2   2   2   2   2   2
#     4  10  20  42  66  90 127 172 217 264 321 377
#     4  10  25  41  66 100 126 173 221 259 337 381
#     4  11  22  37  64  99 126 171 219 263 323 388
#     4  11  25  43  67  98 134 171 217 266 327 390
#     4  10  20  42  65  88 130 171 213 265 325 374
#     4  11  20  43  68  94 132 170 217 264 320 401
#     4  10  20  42  66  90 131 171 208 272 321 382
#     4  11  24  45  64  94 133 170 216 274 317 380
#
# _framework density 21.723488
#
# number of rings (size 3 to 8) (size 9 to 14) (size 15 to 20)
#    0.000    1.500    3.750    2.250    1.750    4.000 
#    4.500    5.625    0.000    0.000    0.000    0.000 
#    0.000    0.000    0.000    0.000    0.000    0.000 
#
# Total GULP energy -89152.748900 kJ/mol
# GULP energy per Si atom -5572.046806 kJ/mol
# Density = 2.167404 g / cm^3
# Si number density = 21.723488 Si / 1000 Ang^3
#
#
#
# Elastic Constant Matrix: (Units=GPa)
#
#
# Indices 1 2 3 4 5 6 
#
# 1 118.0745 37.7246 46.6590 -0.5334 -1.9481 25.7824
# 2 37.7246 61.2370 9.3288 6.5658 -10.3977 20.7109
# 3 46.6590 9.3288 69.7047 2.8263 -8.6906 7.6347
# 4 -0.5334 6.5658 2.8263 24.9292 7.0367 -4.3203
# 5 -1.9481 -10.3977 -8.6906 7.0367 45.9321 6.5654
# 6 25.7824 20.7109 7.6347 -4.3203 6.5654 33.9261
#
#
#
# Elastic Compliance Matrix: (Units=1/GPa)
#
#
# Indices 1 2 3 4 5 6 
#
# 1 0.015437 -0.007570 -0.009369 0.003477 -0.002790 -0.004020
# 2 -0.007570 0.030086 0.005196 -0.015322 0.012412 -0.018136
# 3 -0.009369 0.005196 0.021249 -0.006202 0.006152 -0.002814
# 4 0.003477 -0.015322 -0.006202 0.052228 -0.015021 0.017664
# 5 -0.002790 0.012412 0.006152 -0.015021 0.030009 -0.014562
# 6 -0.004020 -0.018136 -0.002814 0.017664 -0.014562 0.049303
#
#
# Mechanical properties :
#
#
# Convention : Reuss Voigt Hill
#
# Bulk Modulus (GPa) = 23.10192 48.49347 35.79769
# Shear Modulus (GPa) = 21.16606 31.31106 26.23856
#
# Velocity S-wave (km/s) = 3.12483 3.80062 3.47917
# Velocity P-wave (km/s) = 4.86590 6.45222 5.71438
#
# Compressibility (1/GPa) = 0.04328644
#
# Stress axis : x y z
#
# Youngs Moduli (GPa) = 64.77740 33.23796 47.06120
#
# Poissons Ratio (x) = 0.25161 0.44092
# Poissons Ratio (y) = 0.49036 -0.24452
# Poissons Ratio (z) = 0.60690 -0.17270
#
# Static dielectric constant tensor:
#      x y z
#    x 1.882640 0.017710 -0.017820 
#    y 0.017710 1.888190 -0.046120 
#    z -0.017820 -0.046120 1.817730 
# 
# From -- ./inp_files/382710.got.cif
#   From: 2010.05.17/outbox.cif.g08.bks.cpg/sg2_192_cif.got.tgz:382710.got - 2010.06.03 11:33:40.
