data_PCOD9110508
_publ_section_title
;
Structure prediction by ZEFSAII (Michael W. Deem and Ramdas Pophale) SiO2 
 PCOD9110508
Probable space group: P -1
;
_chemical_formula_sum "Si O2"
_cell_formula_units_Z 14
_cell_length_a 5.210706
_cell_length_b 8.937151
_cell_length_c 16.977937
_cell_angle_alpha 71.629180
_cell_angle_beta 91.548258
_cell_angle_gamma 52.303531
_cell_volume 567.735190
_symmetry_space_group_name_H-M "P -1"
_symmetry_group_IT_number 2
_symmetry_cell_setting 'triclinic'
loop_
_space_group_symop_operation_xyz
x,y,z
-x,-y,-z
loop_
_atom_site_type_symbol
_atom_site_label
_atom_site_fract_x
_atom_site_fract_y
_atom_site_fract_z
Si Si1 0.697287 0.959143 0.691562
Si Si2 0.198192 0.748386 0.266153
Si Si3 0.904471 0.865009 0.541184
Si Si4 0.045381 0.648469 0.434160
Si Si5 0.238572 0.245099 0.976401
Si Si6 0.508971 0.184816 0.159827
Si Si7 0.512066 0.451729 0.865215
O O1 0.941474 0.831506 0.640664
O O2 0.703798 0.804589 0.772688
O O3 0.728700 0.114832 0.710892
O O4 0.317351 0.126431 0.626214
O O5 0.417322 0.612977 0.215213
O O6 0.209283 0.609145 0.356652
O O7 0.824465 0.937172 0.197061
O O8 0.158942 0.686850 0.508796
O O9 0.500000 0.000000 0.500000
O O10 0.000000 0.000000 0.500000
O O11 0.000000 0.500000 0.500000
O O12 0.329451 0.369716 0.910671
O O13 0.871422 0.327198 0.935368
O O14 0.295782 0.262502 0.065531
O O15 0.500000 0.000000 0.000000
O O16 0.630831 0.313426 0.159860
#
# Coordination Sequence:
#
# PCOD9110508 Si02
#       7
#     2   2   2   2   2   2   2
#     4  10  23  43  67  95 138 180 226 291 346 404
#     4  11  24  45  67 102 142 180 229 294 348 404
#     4  10  20  42  63  90 125 173 221 268 336 399
#     4  10  23  42  65  97 134 180 231 284 345 417
#     4  12  25  49  74 102 144 188 228 287 345 413
#     4  11  26  44  71 102 139 183 234 287 341 415
#     4  12  28  45  73 106 140 187 235 280 348 416
#
# _framework density 24.659383999999999
#
# number of rings (size 3 to 8) (size 9 to 14) (size 15 to 20)
#    0.000    1.143    2.857    2.143    8.000    0.571 
#    2.571    0.000    0.000    0.000    0.000    0.000 
#    0.000    0.000    0.000    0.000    0.000    0.000 
#
# Total GULP energy -78162.886151 kJ/mol
# GULP energy per Si atom -5583.063297 kJ/mol
# Density = 2.460326 g / cm^3
# Si number density = 24.659384 Si / 1000 Ang^3
#
#
#
# Elastic Constant Matrix: (Units=GPa)
#
#
# Indices 1 2 3 4 5 6 
#
# 1 65.0608 -3.2300 30.1410 -14.9597 -7.9901 8.2530
# 2 -3.2300 87.1193 63.1389 -1.7352 -15.4580 16.1365
# 3 30.1410 63.1389 203.2718 13.3173 -34.7486 -4.7264
# 4 -14.9597 -1.7352 13.3173 57.8364 2.0087 1.8160
# 5 -7.9901 -15.4580 -34.7486 2.0087 53.2712 -11.7364
# 6 8.2530 16.1365 -4.7264 1.8160 -11.7364 44.8906
#
#
#
# Elastic Compliance Matrix: (Units=1/GPa)
#
#
# Indices 1 2 3 4 5 6 
#
# 1 0.020859 0.006345 -0.005818 0.007175 -0.000681 -0.007196
# 2 0.006345 0.018658 -0.007309 0.004183 -0.000532 -0.008951
# 3 -0.005818 -0.007309 0.009240 -0.004198 0.004518 0.006021
# 4 0.007175 0.004183 -0.004198 0.020463 -0.002251 -0.004681
# 5 -0.000681 -0.000532 0.004518 -0.002251 0.023071 0.006915
# 6 -0.007196 -0.008951 0.006021 -0.004681 0.006915 0.029448
#
#
# Mechanical properties :
#
#
# Convention : Reuss Voigt Hill
#
# Bulk Modulus (GPa) = 28.41501 59.50574 43.96037
# Shear Modulus (GPa) = 34.00547 48.89310 41.44929
#
# Velocity S-wave (km/s) = 3.71753 4.45763 4.10429
# Velocity P-wave (km/s) = 5.47492 7.11880 6.35028
#
# Compressibility (1/GPa) = 0.03519267
#
# Stress axis : x y z
#
# Youngs Moduli (GPa) = 47.94026 53.59622 108.22612
#
# Poissons Ratio (x) = -0.34004 0.62961
# Poissons Ratio (y) = -0.30416 0.79106
# Poissons Ratio (z) = 0.27889 0.39175
#
# Static dielectric constant tensor:
#      x y z
#    x 1.871530 -0.115000 0.081020 
#    y -0.115000 1.924750 0.017640 
#    z 0.081020 0.017640 1.983800 
# 
# From -- ./inp_files/35636.got.cif
#   From: 2010.05.17/outbox.cif.g08.bks.cpg/sg2_18_cif.got.tgz:35636.got - 2010.06.03 11:33:40.
