data_PCOD9110697
_publ_section_title
;
Structure prediction by ZEFSAII (Michael W. Deem and Ramdas Pophale) SiO2 
 PCOD9110697
Probable space group: P -1
;
_chemical_formula_sum "Si O2"
_cell_formula_units_Z 16
_cell_length_a 17.043549
_cell_length_b 11.109284
_cell_length_c 8.793982
_cell_angle_alpha 39.472602
_cell_angle_beta 47.868553
_cell_angle_gamma 58.366993
_cell_volume 784.912651
_symmetry_space_group_name_H-M "P -1"
_symmetry_group_IT_number 2
_symmetry_cell_setting 'triclinic'
loop_
_space_group_symop_operation_xyz
x,y,z
-x,-y,-z
loop_
_atom_site_type_symbol
_atom_site_label
_atom_site_fract_x
_atom_site_fract_y
_atom_site_fract_z
Si Si1 0.931889 0.899694 0.052597
Si Si2 0.884001 0.059681 0.650337
Si Si3 0.098401 0.635214 0.918963
Si Si4 0.270087 0.148168 0.452332
Si Si5 0.602935 0.414262 0.533983
Si Si6 0.306018 0.732730 0.716676
Si Si7 0.544823 0.582665 0.012917
Si Si8 0.213406 0.284938 0.051500
O O1 0.830939 0.810422 0.352022
O O2 0.891987 0.052926 0.828800
O O3 0.998892 0.741135 0.024234
O O4 0.000000 0.000000 0.000000
O O5 0.806904 0.893663 0.855225
O O6 0.865803 0.249652 0.390983
O O7 0.000000 0.000000 0.500000
O O8 0.190652 0.652974 0.908089
O O9 0.105636 0.414392 0.079396
O O10 0.243880 0.211356 0.251666
O O11 0.291433 0.924892 0.636691
O O12 0.375020 0.247404 0.275438
O O13 0.500000 0.500000 0.500000
O O14 0.643691 0.244360 0.539544
O O15 0.555863 0.360012 0.809020
O O16 0.693543 0.574526 0.261167
O O17 0.381492 0.580985 0.847109
O O18 0.500000 0.500000 0.000000
#
# Coordination Sequence:
#
# PCOD9110697 Si02
#       8
#     2   2   2   2   2   2   2   2
#     4  11  23  40  63  96 135 166 201 255 324 376
#     4  10  22  40  62  90 124 163 212 264 295 373
#     4  10  20  42  65  93 127 167 212 261 302 376
#     4  12  22  40  67  93 130 170 203 263 318 373
#     4   9  19  41  63  89 118 160 211 261 303 369
#     4  10  20  42  66  93 121 166 218 253 313 377
#     4  11  25  44  61  95 135 161 210 266 315 375
#     4  11  21  40  67  92 120 166 221 255 307 367
#
# _framework density 20.384435
#
# number of rings (size 3 to 8) (size 9 to 14) (size 15 to 20)
#    0.000    1.500    6.250    0.750    1.750    3.500 
#    4.500    1.250    0.000    0.000    0.000    0.000 
#    0.000    0.000    0.000    0.000    0.000    0.000 
#
# Total GULP energy -89227.746091 kJ/mol
# GULP energy per Si atom -5576.734131 kJ/mol
# Density = 2.033804 g / cm^3
# Si number density = 20.384435 Si / 1000 Ang^3
#
#
#
# Elastic Constant Matrix: (Units=GPa)
#
#
# Indices 1 2 3 4 5 6 
#
# 1 69.8483 -4.0812 19.4295 9.5043 3.6041 15.8583
# 2 -4.0812 65.6962 5.7980 8.3143 -6.6105 -0.6966
# 3 19.4295 5.7980 66.0368 20.8859 -15.8247 9.5138
# 4 9.5043 8.3143 20.8859 40.7247 -5.7914 1.1949
# 5 3.6041 -6.6105 -15.8247 -5.7914 25.4900 2.7391
# 6 15.8583 -0.6966 9.5138 1.1949 2.7391 35.2512
#
#
#
# Elastic Compliance Matrix: (Units=1/GPa)
#
#
# Indices 1 2 3 4 5 6 
#
# 1 0.017747 0.001263 -0.004902 -0.002432 -0.005116 -0.006156
# 2 0.001263 0.016021 0.000073 -0.003113 0.003360 -0.000427
# 3 -0.004902 0.000073 0.023336 -0.008743 0.013736 -0.004862
# 4 -0.002432 -0.003113 -0.008743 0.030280 0.000740 0.002308
# 5 -0.005116 0.003360 0.013736 0.000740 0.050086 -0.005256
# 6 -0.006156 -0.000427 -0.004862 0.002308 -0.005256 0.032771
#
#
# Mechanical properties :
#
#
# Convention : Reuss Voigt Hill
#
# Bulk Modulus (GPa) = 20.01154 27.09712 23.55433
# Shear Modulus (GPa) = 25.76902 32.32217 29.04560
#
# Velocity S-wave (km/s) = 3.55935 3.98632 3.77887
# Velocity P-wave (km/s) = 5.17014 5.87448 5.53353
#
# Compressibility (1/GPa) = 0.04997116
#
# Stress axis : x y z
#
# Youngs Moduli (GPa) = 56.34845 62.41769 42.85160
#
# Poissons Ratio (x) = -0.07882 0.21007
# Poissons Ratio (y) = -0.07116 -0.00313
# Poissons Ratio (z) = 0.27624 -0.00455
#
# Static dielectric constant tensor:
#      x y z
#    x 1.738560 0.008290 0.075230 
#    y 0.008290 1.745910 -0.109500 
#    z 0.075230 -0.109500 1.475850 
# 
# From -- ./inp_files/330583.got.cif
#   From: 2010.05.17/outbox.cif.g08.bks.cpg/sg2_166_cif.got.tgz:330583.got - 2010.06.03 11:33:40.
