data_PCOD9110497
_publ_section_title
;
Structure prediction by ZEFSAII (Michael W. Deem and Ramdas Pophale) SiO2 
 PCOD9110497
Probable space group: P -1
;
_chemical_formula_sum "Si O2"
_cell_formula_units_Z 14
_cell_length_a 11.443533
_cell_length_b 12.078954
_cell_length_c 14.469856
_cell_angle_alpha 43.772887
_cell_angle_beta 149.992547
_cell_angle_gamma 124.954355
_cell_volume 684.019901
_symmetry_space_group_name_H-M "P -1"
_symmetry_group_IT_number 2
_symmetry_cell_setting 'triclinic'
loop_
_space_group_symop_operation_xyz
x,y,z
-x,-y,-z
loop_
_atom_site_type_symbol
_atom_site_label
_atom_site_fract_x
_atom_site_fract_y
_atom_site_fract_z
Si Si1 0.793430 0.580655 0.542291
Si Si2 0.290358 0.964763 0.501875
Si Si3 0.074216 0.503440 0.943222
Si Si4 0.740705 0.407802 0.264397
Si Si5 0.408353 0.597446 0.635289
Si Si6 0.093395 0.153116 0.428496
Si Si7 0.800126 0.036222 0.763939
O O1 0.593904 0.526000 0.375987
O O2 0.867543 0.473445 0.749072
O O3 0.029351 0.556995 0.654111
O O4 0.748074 0.763435 0.440220
O O5 0.251457 0.786550 0.615144
O O6 0.149704 0.007068 0.283833
O O7 0.568150 0.958272 0.677091
O O8 0.217873 0.094658 0.453688
O O9 0.100600 0.689446 0.821465
O O10 0.321037 0.393049 0.160490
O O11 0.000000 0.500000 0.000000
O O12 0.722564 0.453050 0.332926
O O13 0.500000 0.500000 0.000000
O O14 0.280612 0.770633 0.410881
O O15 0.000000 0.000000 0.500000
O O16 0.000000 0.000000 0.000000
#
# Coordination Sequence:
#
# PCOD9110497 Si02
#       7
#     2   2   2   2   2   2   2
#     4  10  23  39  64  89 126 158 205 258 307 365
#     4  10  21  42  63  87 125 160 203 250 309 364
#     4  10  22  40  63  88 124 169 201 252 305 369
#     4  11  20  39  67  88 120 163 202 257 307 363
#     4  11  23  40  64  95 120 159 212 252 314 362
#     4  10  20  42  63  88 125 164 203 248 311 365
#     4  10  24  40  63  91 121 160 204 258 304 362
#
# _framework density 20.467241000000001
#
# number of rings (size 3 to 8) (size 9 to 14) (size 15 to 20)
#    0.857    0.857    2.857    1.286    2.000    2.857 
#    2.571    0.714    0.000    0.000    0.000    0.000 
#    0.000    0.000    0.000    0.000    0.000    0.000 
#
# Total GULP energy -78070.567912 kJ/mol
# GULP energy per Si atom -5576.469137 kJ/mol
# Density = 2.042066 g / cm^3
# Si number density = 20.467241 Si / 1000 Ang^3
#
#
#
# Elastic Constant Matrix: (Units=GPa)
#
#
# Indices 1 2 3 4 5 6 
#
# 1 78.7114 7.9670 9.0406 -3.6448 -12.0786 -18.5787
# 2 7.9670 63.8888 10.6308 3.9097 -15.9041 -29.5599
# 3 9.0406 10.6308 88.4688 -5.1644 -17.7690 -4.5331
# 4 -3.6448 3.9097 -5.1644 23.1394 -2.2041 -3.2735
# 5 -12.0786 -15.9041 -17.7690 -2.2041 28.0270 -2.8315
# 6 -18.5787 -29.5599 -4.5331 -3.2735 -2.8315 41.8937
#
#
#
# Elastic Compliance Matrix: (Units=1/GPa)
#
#
# Indices 1 2 3 4 5 6 
#
# 1 0.017858 0.007940 0.001314 0.005326 0.014978 0.015093
# 2 0.007940 0.035498 0.002389 0.002877 0.028436 0.030973
# 3 0.001314 0.002389 0.013708 0.004647 0.011472 0.004890
# 4 0.005326 0.002877 0.004647 0.047026 0.011517 0.009347
# 5 0.014978 0.028436 0.011472 0.011517 0.069841 0.033568
# 6 0.015093 0.030973 0.004890 0.009347 0.033568 0.055946
#
#
# Mechanical properties :
#
#
# Convention : Reuss Voigt Hill
#
# Bulk Modulus (GPa) = 11.06810 31.81620 21.44215
# Shear Modulus (GPa) = 20.26693 32.17404 26.22049
#
# Velocity S-wave (km/s) = 3.15018 3.96912 3.58312
# Velocity P-wave (km/s) = 4.31868 6.04846 5.25523
#
# Compressibility (1/GPa) = 0.09034974
#
# Stress axis : x y z
#
# Youngs Moduli (GPa) = 55.99872 28.17075 72.94919
#
# Poissons Ratio (x) = -0.22368 -0.09583
# Poissons Ratio (y) = -0.44464 -0.17430
# Poissons Ratio (z) = -0.07356 -0.06731
#
# Static dielectric constant tensor:
#      x y z
#    x 1.764860 -0.025450 -0.013020 
#    y -0.025450 1.773360 0.006240 
#    z -0.013020 0.006240 1.719270 
# 
# From -- ./inp_files/518691.got.cif
#   From: 2010.05.17/outbox.cif.g08.bks.cpg/sg2_260_cif.got.tgz:518691.got - 2010.06.03 11:33:40.
