data_PCOD9110213
_publ_section_title
;
Structure prediction by ZEFSAII (Michael W. Deem and Ramdas Pophale) SiO2 
 PCOD9110213
Probable space group: P -1
;
_chemical_formula_sum "Si O2"
_cell_formula_units_Z 16
_cell_length_a 10.641283
_cell_length_b 7.309328
_cell_length_c 9.161153
_cell_angle_alpha 84.592041
_cell_angle_beta 89.116360
_cell_angle_gamma 70.335735
_cell_volume 667.916540
_symmetry_space_group_name_H-M "P -1"
_symmetry_group_IT_number 2
_symmetry_cell_setting 'triclinic'
loop_
_space_group_symop_operation_xyz
x,y,z
-x,-y,-z
loop_
_atom_site_type_symbol
_atom_site_label
_atom_site_fract_x
_atom_site_fract_y
_atom_site_fract_z
Si Si1 0.590905 0.523076 0.827603
Si Si2 0.828300 0.856357 0.587946
Si Si3 0.719317 0.528596 0.535718
Si Si4 0.032455 0.557307 0.832898
Si Si5 0.313498 0.510498 0.789395
Si Si6 0.786546 0.092451 0.835064
Si Si7 0.354618 0.159518 0.997687
Si Si8 0.006053 0.779741 0.320551
O O1 0.607104 0.541112 0.653627
O O2 0.436179 0.556697 0.856204
O O3 0.689321 0.303720 0.869836
O O4 0.355768 0.319729 0.107926
O O5 0.742512 0.735431 0.530185
O O6 0.925043 0.716820 0.721643
O O7 0.912586 0.891604 0.446512
O O8 0.748734 0.039549 0.675457
O O9 0.687726 0.468201 0.383717
O O10 0.859946 0.371206 0.597099
O O11 0.163876 0.618082 0.838658
O O12 0.057914 0.360217 0.752431
O O13 0.000000 0.500000 0.000000
O O14 0.336380 0.284797 0.842989
O O15 0.934534 0.101384 0.803752
O O16 0.755612 0.938187 0.954374
O O17 0.500000 0.000000 0.000000
#
# Coordination Sequence:
#
# PCOD9110213 Si02
#       8
#     2   2   2   2   2   2   2   2
#     4  11  25  45  73  98 133 181 226 283 341 394
#     4  11  19  44  68  97 139 177 228 277 335 405
#     4  10  20  41  71 100 133 181 222 281 340 392
#     4  11  23  38  69 105 136 180 222 279 339 400
#     4  12  23  42  70 101 141 173 228 282 336 406
#     4  11  24  42  74  98 129 183 231 272 338 402
#     4  12  26  47  68  99 136 181 225 276 342 406
#     4  10  21  41  69  98 138 178 227 275 338 401
#
# _framework density 23.955088
#
# number of rings (size 3 to 8) (size 9 to 14) (size 15 to 20)
#    0.000    1.000    5.000    2.625    3.500    0.000 
#    0.000    8.750    0.000    0.000    0.000    0.000 
#    0.000    0.000    0.000    0.000    0.000    0.000 
#
# Total GULP energy -89448.879432 kJ/mol
# GULP energy per Si atom -5590.554965 kJ/mol
# Density = 2.390057 g / cm^3
# Si number density = 23.955088 Si / 1000 Ang^3
#
#
#
# Elastic Constant Matrix: (Units=GPa)
#
#
# Indices 1 2 3 4 5 6 
#
# 1 103.1562 13.7186 28.2039 -11.4382 -7.9415 11.6228
# 2 13.7186 85.1907 16.1031 11.2173 -5.3405 7.1041
# 3 28.2039 16.1031 112.4744 8.1790 -11.1239 -8.0495
# 4 -11.4382 11.2173 8.1790 31.3368 4.2510 -8.0072
# 5 -7.9415 -5.3405 -11.1239 4.2510 48.8877 -1.0872
# 6 11.6228 7.1041 -8.0495 -8.0072 -1.0872 30.1940
#
#
#
# Elastic Compliance Matrix: (Units=1/GPa)
#
#
# Indices 1 2 3 4 5 6 
#
# 1 0.011785 -0.001542 -0.003296 0.004676 0.000505 -0.003794
# 2 -0.001542 0.013546 -0.001275 -0.006442 0.001397 -0.004591
# 3 -0.003296 -0.001275 0.010576 -0.002839 0.002061 0.003709
# 4 0.004676 -0.006442 -0.002839 0.039564 -0.003823 0.009313
# 5 0.000505 0.001397 0.002061 -0.003823 0.021486 -0.000214
# 6 -0.003794 -0.004591 0.003709 0.009313 -0.000214 0.039111
#
#
# Mechanical properties :
#
#
# Convention : Reuss Voigt Hill
#
# Bulk Modulus (GPa) = 42.22780 46.31915 44.27348
# Shear Modulus (GPa) = 32.01270 38.27008 35.14139
#
# Velocity S-wave (km/s) = 3.65960 4.00131 3.83426
# Velocity P-wave (km/s) = 5.96012 6.38162 6.17447
#
# Compressibility (1/GPa) = 0.02368108
#
# Stress axis : x y z
#
# Youngs Moduli (GPa) = 84.85216 73.82029 94.55665
#
# Poissons Ratio (x) = 0.11386 0.31166
# Poissons Ratio (y) = 0.13088 0.12052
# Poissons Ratio (z) = 0.27968 0.09409
#
# Static dielectric constant tensor:
#      x y z
#    x 1.941650 -0.002520 -0.044910 
#    y -0.002520 1.945430 -0.022660 
#    z -0.044910 -0.022660 1.926650 
# 
# From -- ./inp_files/242997.got.cif
#   From: 2010.05.17/outbox.cif.g08.bks.cpg/sg2_122_cif.got.tgz:242997.got - 2010.06.03 11:33:40.
