data_PCOD9110349
_publ_section_title
;
Structure prediction by ZEFSAII (Michael W. Deem and Ramdas Pophale) SiO2 
 PCOD9110349
Probable space group: P -1
;
_chemical_formula_sum "Si O2"
_cell_formula_units_Z 12
_cell_length_a 7.124246
_cell_length_b 12.707013
_cell_length_c 7.165527
_cell_angle_alpha 45.427329
_cell_angle_beta 80.749214
_cell_angle_gamma 89.606891
_cell_volume 450.875332
_symmetry_space_group_name_H-M "P -1"
_symmetry_group_IT_number 2
_symmetry_cell_setting 'triclinic'
loop_
_space_group_symop_operation_xyz
x,y,z
-x,-y,-z
loop_
_atom_site_type_symbol
_atom_site_label
_atom_site_fract_x
_atom_site_fract_y
_atom_site_fract_z
Si Si1 0.574860 0.131116 0.586251
Si Si2 0.725408 0.120178 0.165800
Si Si3 0.916862 0.986289 0.821724
Si Si4 0.744429 0.428816 0.660637
Si Si5 0.715633 0.672764 0.088859
Si Si6 0.666130 0.626213 0.741149
O O1 0.618134 0.154244 0.329323
O O2 0.448214 0.258810 0.494428
O O3 0.430842 0.975942 0.820550
O O4 0.780795 0.111860 0.658861
O O5 0.885371 0.017525 0.318534
O O6 0.824543 0.274643 0.868396
O O7 0.792817 0.827458 0.985921
O O8 0.000000 0.000000 0.000000
O O9 0.788441 0.527117 0.347371
O O10 0.514565 0.367770 0.789436
O O11 0.789258 0.544919 0.679626
O O12 0.762973 0.687658 0.842297
O O13 0.500000 0.500000 0.000000
#
# Coordination Sequence:
#
# PCOD9110349 Si02
#       6
#     2   2   2   2   2   2
#     4  11  22  46  70  96 141 183 232 287 338 419
#     4  11  23  45  72  99 138 184 232 288 348 410
#     4  12  28  43  65 108 143 183 234 283 353 414
#     4  10  21  42  76 104 133 187 228 288 355 409
#     4  10  21  43  68 102 141 175 235 287 335 421
#     4  10  20  41  76 102 128 185 236 277 358 408
#
# _framework density 26.614896000000002
#
# number of rings (size 3 to 8) (size 9 to 14) (size 15 to 20)
#    0.000    1.333    5.000    1.500    2.333    5.333 
#    0.000    0.833    0.000    0.000    0.000    0.000 
#    0.000    0.000    0.000    0.000    0.000    0.000 
#
# Total GULP energy -67192.282828 kJ/mol
# GULP energy per Si atom -5599.356902 kJ/mol
# Density = 2.655432 g / cm^3
# Si number density = 26.614896 Si / 1000 Ang^3
#
#
#
# Elastic Constant Matrix: (Units=GPa)
#
#
# Indices 1 2 3 4 5 6 
#
# 1 107.4752 39.3463 39.8000 -6.5632 11.9976 -1.2293
# 2 39.3463 121.0681 41.6444 -12.5406 17.5734 22.4954
# 3 39.8000 41.6444 142.8426 -31.7560 33.6935 3.0167
# 4 -6.5632 -12.5406 -31.7560 31.5205 -0.9285 -0.0852
# 5 11.9976 17.5734 33.6935 -0.9285 46.5201 -3.2868
# 6 -1.2293 22.4954 3.0167 -0.0852 -3.2868 43.1794
#
#
#
# Elastic Compliance Matrix: (Units=1/GPa)
#
#
# Indices 1 2 3 4 5 6 
#
# 1 0.011452 -0.003468 -0.002719 -0.001714 0.000458 0.002354
# 2 -0.003468 0.011642 -0.000878 0.002912 -0.003258 -0.006345
# 3 -0.002719 -0.000878 0.012396 0.011341 -0.007794 -0.001057
# 4 -0.001714 0.002912 0.011341 0.043703 -0.008204 -0.002897
# 5 0.000458 -0.003258 -0.007794 -0.008204 0.028401 0.004400
# 6 0.002354 -0.006345 -0.001057 -0.002897 0.004400 0.026935
#
#
# Mechanical properties :
#
#
# Convention : Reuss Voigt Hill
#
# Bulk Modulus (GPa) = 46.81417 68.10749 57.46083
# Shear Modulus (GPa) = 32.09668 40.95035 36.52351
#
# Velocity S-wave (km/s) = 3.47647 3.92679 3.70847
# Velocity P-wave (km/s) = 5.80880 6.79743 6.32247
#
# Compressibility (1/GPa) = 0.02136105
#
# Stress axis : x y z
#
# Youngs Moduli (GPa) = 87.32078 85.89247 80.67036
#
# Poissons Ratio (x) = 0.29789 0.21931
# Poissons Ratio (y) = 0.30284 0.07083
# Poissons Ratio (z) = 0.23739 0.07542
#
# Static dielectric constant tensor:
#      x y z
#    x 2.095280 0.013030 0.047300 
#    y 0.013030 2.159680 0.025610 
#    z 0.047300 0.025610 2.096290 
# 
# From -- ./inp_files/183720.got.cif
#   From: 2010.05.17/outbox.cif.g08.bks.cpg/sg2_92_cif.got.tgz:183720.got - 2010.06.03 11:33:40.
