data_PCOD9110412
_publ_section_title
;
Structure prediction by ZEFSAII (Michael W. Deem and Ramdas Pophale) SiO2 
 PCOD9110412
Probable space group: P -1
;
_chemical_formula_sum "Si O2"
_cell_formula_units_Z 14
_cell_length_a 10.186512
_cell_length_b 7.591069
_cell_length_c 11.512627
_cell_angle_alpha 71.317519
_cell_angle_beta 67.290826
_cell_angle_gamma 123.115945
_cell_volume 499.444080
_symmetry_space_group_name_H-M "P -1"
_symmetry_group_IT_number 2
_symmetry_cell_setting 'triclinic'
loop_
_space_group_symop_operation_xyz
x,y,z
-x,-y,-z
loop_
_atom_site_type_symbol
_atom_site_label
_atom_site_fract_x
_atom_site_fract_y
_atom_site_fract_z
Si Si1 0.714521 0.634365 0.298928
Si Si2 0.840454 0.729359 0.964523
Si Si3 0.234379 0.240491 0.246658
Si Si4 0.625159 0.233645 0.803428
Si Si5 0.049889 0.478650 0.682813
Si Si6 0.249075 0.070854 0.499916
Si Si7 0.793958 0.276711 0.032266
O O1 0.799522 0.551566 0.370558
O O2 0.448542 0.358521 0.444500
O O3 0.760648 0.644765 0.141504
O O4 0.892563 0.977988 0.184820
O O5 0.733975 0.766328 0.899983
O O6 0.767326 0.469362 0.978611
O O7 0.340319 0.521071 0.220036
O O8 0.290396 0.126149 0.335240
O O9 0.973646 0.033529 0.384200
O O10 0.864894 0.375532 0.679693
O O11 0.500000 0.000000 0.000000
O O12 0.451218 0.047106 0.796073
O O13 0.898112 0.274700 0.888859
O O14 0.198862 0.805556 0.599115
O O15 0.000000 0.500000 0.000000
#
# Coordination Sequence:
#
# PCOD9110412 Si02
#       7
#     2   2   2   2   2   2   2
#     4  11  25  39  63  94 137 156 202 265 323 356
#     4  11  23  42  59 100 121 164 209 261 309 370
#     4  10  21  42  66  92 123 163 220 251 303 377
#     4   9  18  34  65  92 115 158 209 265 291 355
#     4  10  20  42  61  89 127 166 207 254 307 376
#     4  10  22  41  64  87 126 172 205 257 306 372
#     4  11  20  38  67  93 122 162 220 251 304 370
#
# _framework density 28.031167
#
# number of rings (size 3 to 8) (size 9 to 14) (size 15 to 20)
#    0.000    1.714    5.714    0.429    2.000    2.286 
#    2.571    0.714    0.000    0.000    0.000    0.000 
#    0.000    0.000    0.000    0.000    0.000    0.000 
#
# Total GULP energy -78248.240585 kJ/mol
# GULP energy per Si atom -5589.160042 kJ/mol
# Density = 2.796737 g / cm^3
# Si number density = 28.031167 Si / 1000 Ang^3
#
#
#
# Elastic Constant Matrix: (Units=GPa)
#
#
# Indices 1 2 3 4 5 6 
#
# 1 99.3149 41.7358 35.7710 -23.5832 -24.0912 22.6304
# 2 41.7358 150.4683 44.0686 -55.0456 -16.0632 19.5080
# 3 35.7710 44.0686 110.1853 -39.9974 -19.3768 3.4331
# 4 -23.5832 -55.0456 -39.9974 60.3040 22.6721 -10.5672
# 5 -24.0912 -16.0632 -19.3768 22.6721 46.9903 -10.7432
# 6 22.6304 19.5080 3.4331 -10.5672 -10.7432 39.0751
#
#
#
# Elastic Compliance Matrix: (Units=1/GPa)
#
#
# Indices 1 2 3 4 5 6 
#
# 1 0.014336 -0.002261 -0.003268 -0.001378 0.004519 -0.006017
# 2 -0.002261 0.010834 -0.000672 0.009164 -0.002680 -0.002299
# 3 -0.003268 -0.000672 0.012980 0.006971 0.000814 0.003197
# 4 -0.001378 0.009164 0.006971 0.033223 -0.010327 0.001756
# 5 0.004519 -0.002680 0.000814 -0.010327 0.028867 0.003793
# 6 -0.006017 -0.002299 0.003197 0.001756 0.003793 0.031461
#
#
# Mechanical properties :
#
#
# Convention : Reuss Voigt Hill
#
# Bulk Modulus (GPa) = 38.83825 67.01325 52.92575
# Shear Modulus (GPa) = 32.74670 45.16675 38.95672
#
# Velocity S-wave (km/s) = 3.42164 4.01846 3.73200
# Velocity P-wave (km/s) = 5.43099 6.74458 6.12311
#
# Compressibility (1/GPa) = 0.02574782
#
# Stress axis : x y z
#
# Youngs Moduli (GPa) = 69.75350 92.29784 77.04385
#
# Poissons Ratio (x) = 0.20869 0.25178
# Poissons Ratio (y) = 0.15771 0.05179
# Poissons Ratio (z) = 0.22796 0.06204
#
# Static dielectric constant tensor:
#      x y z
#    x 2.309090 0.056320 0.030580 
#    y 0.056320 2.217200 0.061020 
#    z 0.030580 0.061020 2.339390 
# 
# From -- ./inp_files/515362.got.cif
#   From: 2010.05.17/outbox.cif.g08.bks.cpg/sg2_258_cif.got.tgz:515362.got - 2010.06.03 11:33:40.
