data_PCOD9110096
_publ_section_title
;
Structure prediction by ZEFSAII (Michael W. Deem and Ramdas Pophale) SiO2 
 PCOD9110096
Probable space group: P -1
;
_chemical_formula_sum "Si O2"
_cell_formula_units_Z 16
_cell_length_a 9.202861
_cell_length_b 18.968798
_cell_length_c 8.279901
_cell_angle_alpha 70.790085
_cell_angle_beta 110.745056
_cell_angle_gamma 50.739617
_cell_volume 675.280799
_symmetry_space_group_name_H-M "P -1"
_symmetry_group_IT_number 2
_symmetry_cell_setting 'triclinic'
loop_
_space_group_symop_operation_xyz
x,y,z
-x,-y,-z
loop_
_atom_site_type_symbol
_atom_site_label
_atom_site_fract_x
_atom_site_fract_y
_atom_site_fract_z
Si Si1 0.823875 0.862561 0.658976
Si Si2 0.918927 0.678353 0.007429
Si Si3 0.428101 0.375218 0.391587
Si Si4 0.035646 0.923634 0.208573
Si Si5 0.173045 0.134474 0.716347
Si Si6 0.396822 0.695388 0.118935
Si Si7 0.255803 0.593944 0.526658
Si Si8 0.671266 0.128202 0.202016
O O1 0.854537 0.874554 0.475890
O O2 0.500000 0.000000 0.500000
O O3 0.912189 0.740603 0.813757
O O4 0.049828 0.821215 0.879017
O O5 0.080187 0.535383 0.128901
O O6 0.118511 0.633639 0.265017
O O7 0.587745 0.805545 0.850963
O O8 0.619140 0.231645 0.485701
O O9 0.501342 0.327608 0.643501
O O10 0.550936 0.409492 0.377898
O O11 0.966202 0.864470 0.205312
O O12 0.771757 0.050673 0.131656
O O13 0.000000 0.000000 0.000000
O O14 0.022465 0.275756 0.570447
O O15 0.500000 0.000000 0.000000
O O16 0.560477 0.552960 0.242224
O O17 0.455274 0.738961 0.989592
O O18 0.000000 0.000000 0.500000
#
# Coordination Sequence:
#
# PCOD9110096 Si02
#       8
#     2   2   2   2   2   2   2   2
#     4  12  23  39  67  95 126 171 214 262 323 379
#     4  11  22  43  67  96 128 171 216 261 327 385
#     4  10  20  41  71  95 127 163 220 269 320 384
#     4  11  23  43  66  91 126 174 211 261 326 381
#     4  11  25  41  63  99 128 162 218 270 312 382
#     4  11  21  40  66  93 126 171 209 265 323 381
#     4  10  20  41  69  96 125 162 217 270 322 376
#     4  12  26  43  61  96 135 173 217 264 318 385
#
# _framework density 23.693845
#
# number of rings (size 3 to 8) (size 9 to 14) (size 15 to 20)
#    0.000    1.000    3.750    4.500    1.750    3.500 
#    4.500    0.625    0.000    0.000    0.000    0.000 
#    0.000    0.000    0.000    0.000    0.000    0.000 
#
# Total GULP energy -89210.027597 kJ/mol
# GULP energy per Si atom -5575.626725 kJ/mol
# Density = 2.363992 g / cm^3
# Si number density = 23.693845 Si / 1000 Ang^3
#
#
#
# Elastic Constant Matrix: (Units=GPa)
#
#
# Indices 1 2 3 4 5 6 
#
# 1 84.4967 13.9537 31.6026 -7.7673 -32.4324 -13.9976
# 2 13.9537 81.1249 27.1662 -32.3918 -5.9265 -5.3352
# 3 31.6026 27.1662 101.7635 -25.0154 -19.8309 -4.6253
# 4 -7.7673 -32.3918 -25.0154 45.4451 -4.8660 -0.9415
# 5 -32.4324 -5.9265 -19.8309 -4.8660 45.4162 -6.8564
# 6 -13.9976 -5.3352 -4.6253 -0.9415 -6.8564 24.8975
#
#
#
# Elastic Compliance Matrix: (Units=1/GPa)
#
#
# Indices 1 2 3 4 5 6 
#
# 1 0.023663 0.002069 -0.001226 0.007426 0.020358 0.019407
# 2 0.002069 0.018809 -0.000593 0.014262 0.006313 0.007361
# 3 -0.001226 -0.000593 0.013667 0.007655 0.006405 0.003776
# 4 0.007426 0.014262 0.007655 0.039782 0.017010 0.014842
# 5 0.020358 0.006313 0.006405 0.017010 0.046126 0.027334
# 6 0.019407 0.007361 0.003776 0.014842 0.027334 0.061443
#
#
# Mechanical properties :
#
#
# Convention : Reuss Voigt Hill
#
# Bulk Modulus (GPa) = 17.65543 45.87002 31.76272
# Shear Modulus (GPa) = 22.53558 36.12927 29.33242
#
# Velocity S-wave (km/s) = 3.08736 3.90915 3.52231
# Velocity P-wave (km/s) = 4.49185 6.30689 5.47510
#
# Compressibility (1/GPa) = 0.05663980
#
# Stress axis : x y z
#
# Youngs Moduli (GPa) = 42.25945 53.16496 73.16718
#
# Poissons Ratio (x) = -0.11001 0.08971
# Poissons Ratio (y) = -0.08744 0.04340
# Poissons Ratio (z) = 0.05182 0.03153
#
# Static dielectric constant tensor:
#      x y z
#    x 2.060880 -0.202360 0.140090 
#    y -0.202360 2.846560 -0.234870 
#    z 0.140090 -0.234870 2.030100 
# 
# From -- ./inp_files/223454.got.cif
#   From: 2010.05.17/outbox.cif.g08.bks.cpg/sg2_112_cif.got.tgz:223454.got - 2010.06.03 11:33:40.
