data_PCOD9110170
_publ_section_title
;
Structure prediction by ZEFSAII (Michael W. Deem and Ramdas Pophale) SiO2 
 PCOD9110170
Probable space group: P -1
;
_chemical_formula_sum "Si O2"
_cell_formula_units_Z 16
_cell_length_a 18.464559
_cell_length_b 21.863910
_cell_length_c 11.680752
_cell_angle_alpha 36.325497
_cell_angle_beta 152.372622
_cell_angle_gamma 159.876124
_cell_volume 742.106047
_symmetry_space_group_name_H-M "P -1"
_symmetry_group_IT_number 2
_symmetry_cell_setting 'triclinic'
loop_
_space_group_symop_operation_xyz
x,y,z
-x,-y,-z
loop_
_atom_site_type_symbol
_atom_site_label
_atom_site_fract_x
_atom_site_fract_y
_atom_site_fract_z
Si Si1 0.866381 0.311627 0.586423
Si Si2 0.637248 0.842072 0.845424
Si Si3 0.155722 0.743273 0.627035
Si Si4 0.364363 0.524679 0.100914
Si Si5 0.735732 0.849039 0.717718
Si Si6 0.680105 0.504192 0.480734
Si Si7 0.498724 0.062389 0.785149
Si Si8 0.896331 0.524485 0.976668
O O1 0.555019 0.161739 0.413975
O O2 0.866955 0.270727 0.519857
O O3 0.000000 0.500000 0.500000
O O4 0.067962 0.354005 0.882495
O O5 0.612542 0.780009 0.777729
O O6 0.520002 0.703130 0.987421
O O7 0.958233 0.028022 0.033776
O O8 0.894799 0.653396 0.459088
O O9 0.412711 0.937864 0.751811
O O10 0.145328 0.617497 0.838189
O O11 0.547171 0.525781 0.329779
O O12 0.303675 0.520124 0.153073
O O13 0.553512 0.685560 0.623528
O O14 0.713572 0.956880 0.485493
O O15 0.831947 0.515913 0.768780
O O16 0.795074 0.274342 0.866923
O O17 0.500000 0.000000 0.000000
#
# Coordination Sequence:
#
# PCOD9110170 Si02
#       8
#     2   2   2   2   2   2   2   2
#     4  10  20  41  70  94 133 180 220 283 346 404
#     4  10  22  43  68  95 142 175 219 296 342 397
#     4  12  23  43  76 100 131 192 226 276 356 399
#     4  11  24  43  69  96 142 182 220 288 352 398
#     4  11  24  42  68 102 140 177 230 292 336 407
#     4  12  24  41  67 101 135 186 231 273 347 404
#     4  12  25  43  69 105 139 178 232 283 333 411
#     4  12  24  47  69  98 145 181 229 286 333 413
#
# _framework density 21.560261000000001
#
# number of rings (size 3 to 8) (size 9 to 14) (size 15 to 20)
#    0.000    0.750    5.000    4.500    0.000    5.000 
#    0.000    2.500    0.000    0.000    0.000    0.000 
#    0.000    0.000    0.000    0.000    0.000    0.000 
#
# Total GULP energy -89533.504058 kJ/mol
# GULP energy per Si atom -5595.844004 kJ/mol
# Density = 2.151119 g / cm^3
# Si number density = 21.560261 Si / 1000 Ang^3
#
#
#
# Elastic Constant Matrix: (Units=GPa)
#
#
# Indices 1 2 3 4 5 6 
#
# 1 124.7100 19.1563 22.7735 19.6447 -2.5400 9.4946
# 2 19.1563 82.3003 10.8754 12.3185 -4.4999 -11.4605
# 3 22.7735 10.8754 55.5761 18.1483 10.6801 6.8765
# 4 19.6447 12.3185 18.1483 28.7623 -1.3911 -2.7375
# 5 -2.5400 -4.4999 10.6801 -1.3911 48.1081 8.3558
# 6 9.4946 -11.4605 6.8765 -2.7375 8.3558 30.1929
#
#
#
# Elastic Compliance Matrix: (Units=1/GPa)
#
#
# Indices 1 2 3 4 5 6 
#
# 1 0.009762 -0.001787 -0.001694 -0.005169 0.001303 -0.004192
# 2 -0.001787 0.014125 -0.001865 -0.003063 0.000523 0.005926
# 3 -0.001694 -0.001865 0.025759 -0.015121 -0.005391 -0.005921
# 4 -0.005169 -0.003063 -0.015121 0.050019 0.002918 0.007635
# 5 0.001303 0.000523 -0.005391 0.002918 0.023072 -0.005104
# 6 -0.004192 0.005926 -0.005921 0.007635 -0.005104 0.040141
#
#
# Mechanical properties :
#
#
# Convention : Reuss Voigt Hill
#
# Bulk Modulus (GPa) = 25.67198 40.91077 33.29137
# Shear Modulus (GPa) = 26.80134 35.39806 31.09970
#
# Velocity S-wave (km/s) = 3.52957 4.05633 3.80209
# Velocity P-wave (km/s) = 5.34261 6.39959 5.89484
#
# Compressibility (1/GPa) = 0.03895298
#
# Stress axis : x y z
#
# Youngs Moduli (GPa) = 102.43301 70.79463 38.82093
#
# Poissons Ratio (x) = 0.12652 0.06578
# Poissons Ratio (y) = 0.18307 0.07242
# Poissons Ratio (z) = 0.17357 0.13207
#
# Static dielectric constant tensor:
#      x y z
#    x 1.776270 0.011120 0.026540 
#    y 0.011120 1.792510 -0.003230 
#    z 0.026540 -0.003230 1.792690 
# 
# From -- ./inp_files/467110.got.cif
#   From: 2010.05.17/outbox.cif.g08.bks.cpg/sg2_234_cif.got.tgz:467110.got - 2010.06.03 11:33:40.
