data_PCOD9110896
_publ_section_title
;
Structure prediction by ZEFSAII (Michael W. Deem and Ramdas Pophale) SiO2 
 PCOD9110896
Probable space group: P -1
;
_chemical_formula_sum "Si O2"
_cell_formula_units_Z 16
_cell_length_a 9.233124
_cell_length_b 13.379455
_cell_length_c 11.839624
_cell_angle_alpha 144.149235
_cell_angle_beta 127.668151
_cell_angle_gamma 69.844140
_cell_volume 641.216311
_symmetry_space_group_name_H-M "P -1"
_symmetry_group_IT_number 2
_symmetry_cell_setting 'triclinic'
loop_
_space_group_symop_operation_xyz
x,y,z
-x,-y,-z
loop_
_atom_site_type_symbol
_atom_site_label
_atom_site_fract_x
_atom_site_fract_y
_atom_site_fract_z
Si Si1 0.744668 0.640857 0.410127
Si Si2 0.443684 0.789244 0.308939
Si Si3 0.157094 0.869200 0.877710
Si Si4 0.161280 0.163186 0.786978
Si Si5 0.281082 0.643249 0.536364
Si Si6 0.256463 0.248646 0.168327
Si Si7 0.439729 0.753258 0.025571
Si Si8 0.893422 0.554714 0.154852
O O1 0.589669 0.744548 0.423307
O O2 0.819717 0.609360 0.290698
O O3 0.937049 0.749002 0.664137
O O4 0.644333 0.448907 0.244578
O O5 0.489782 0.721406 0.147462
O O6 0.500000 0.000000 0.500000
O O7 0.224439 0.660190 0.111875
O O8 0.249305 0.782350 0.740493
O O9 0.274833 0.844305 0.020163
O O10 0.176580 0.070937 0.041563
O O11 0.366578 0.131988 0.837005
O O12 0.163646 0.340245 0.879656
O O13 0.160003 0.193475 0.947613
O O14 0.000000 0.000000 0.500000
O O15 0.221091 0.433775 0.353287
O O16 0.509614 0.705241 0.677560
O O17 0.126067 0.624716 0.344117
#
# Coordination Sequence:
#
# PCOD9110896 Si02
#       8
#     2   2   2   2   2   2   2   2
#     4  10  20  42  67  88 121 166 209 262 324 377
#     4  11  23  41  64  96 129 161 209 271 323 380
#     4  11  23  42  69  90 126 175 214 261 324 379
#     4  12  23  38  68  96 125 172 219 260 320 392
#     4  10  23  42  64  92 131 169 214 267 316 373
#     4  11  25  43  63  97 132 170 220 264 314 384
#     4  11  22  42  63  92 122 167 216 255 321 386
#     4  10  21  41  66  91 123 167 212 261 326 375
#
# _framework density 24.952579
#
# number of rings (size 3 to 8) (size 9 to 14) (size 15 to 20)
#    0.000    1.250    3.750    3.000    3.500    0.500 
#    6.750    0.625    0.000    0.000    0.000    0.000 
#    0.000    0.000    0.000    0.000    0.000    0.000 
#
# Total GULP energy -89520.115435 kJ/mol
# GULP energy per Si atom -5595.007215 kJ/mol
# Density = 2.489579 g / cm^3
# Si number density = 24.952579 Si / 1000 Ang^3
#
#
#
# Elastic Constant Matrix: (Units=GPa)
#
#
# Indices 1 2 3 4 5 6 
#
# 1 32.3320 9.7104 29.8862 -13.1670 -4.5728 -1.2135
# 2 9.7104 108.2237 51.2791 -15.7586 9.8171 -9.1906
# 3 29.8862 51.2791 156.5309 2.8351 22.5393 -5.2298
# 4 -13.1670 -15.7586 2.8351 49.9993 -3.5249 6.3444
# 5 -4.5728 9.8171 22.5393 -3.5249 36.1461 -2.7371
# 6 -1.2135 -9.1906 -5.2298 6.3444 -2.7371 26.8127
#
#
#
# Elastic Compliance Matrix: (Units=1/GPa)
#
#
# Indices 1 2 3 4 5 6 
#
# 1 0.051079 0.002467 -0.013135 0.016275 0.015442 -0.001679
# 2 0.002467 0.011921 -0.004443 0.004394 0.000450 0.002338
# 3 -0.013135 -0.004443 0.011684 -0.006205 -0.008286 0.000784
# 4 0.016275 0.004394 -0.006205 0.027110 0.007025 -0.004665
# 5 0.015442 0.000450 -0.008286 0.007025 0.035439 0.001192
# 6 -0.001679 0.002338 0.000784 -0.004665 0.001192 0.039400
#
#
# Mechanical properties :
#
#
# Convention : Reuss Voigt Hill
#
# Bulk Modulus (GPa) = 22.49104 53.20422 37.84763
# Shear Modulus (GPa) = 22.55559 36.33902 29.44730
#
# Velocity S-wave (km/s) = 3.00982 3.82032 3.43903
# Velocity P-wave (km/s) = 4.59475 6.38970 5.56507
#
# Compressibility (1/GPa) = 0.04446214
#
# Stress axis : x y z
#
# Youngs Moduli (GPa) = 19.57769 83.88309 85.59059
#
# Poissons Ratio (x) = -0.20695 1.12423
# Poissons Ratio (y) = -0.04830 0.38026
# Poissons Ratio (z) = 0.25715 0.37267
#
# Static dielectric constant tensor:
#      x y z
#    x 2.014620 -0.007620 -0.068250 
#    y -0.007620 1.931780 -0.015880 
#    z -0.068250 -0.015880 2.020650 
# 
# From -- ./inp_files/244051.got.cif
#   From: 2010.05.17/outbox.cif.g08.bks.cpg/sg2_123_cif.got.tgz:244051.got - 2010.06.03 11:33:40.
