data_PCOD9110778
_publ_section_title
;
Structure prediction by ZEFSAII (Michael W. Deem and Ramdas Pophale) SiO2 
 PCOD9110778
Probable space group: P -1
;
_chemical_formula_sum "Si O2"
_cell_formula_units_Z 14
_cell_length_a 14.090073
_cell_length_b 11.756240
_cell_length_c 22.416658
_cell_angle_alpha 20.134941
_cell_angle_beta 147.610996
_cell_angle_gamma 147.160941
_cell_volume 661.711881
_symmetry_space_group_name_H-M "P -1"
_symmetry_group_IT_number 2
_symmetry_cell_setting 'triclinic'
loop_
_space_group_symop_operation_xyz
x,y,z
-x,-y,-z
loop_
_atom_site_type_symbol
_atom_site_label
_atom_site_fract_x
_atom_site_fract_y
_atom_site_fract_z
Si Si1 0.344026 0.494107 0.371174
Si Si2 0.049278 0.406058 0.881131
Si Si3 0.845674 0.207251 0.694420
Si Si4 0.465277 0.508109 0.640077
Si Si5 0.846992 0.142305 0.169303
Si Si6 0.896455 0.203554 0.390515
Si Si7 0.805106 0.807646 0.749188
O O1 0.500000 0.500000 0.500000
O O2 0.170322 0.645875 0.220421
O O3 0.427471 0.646614 0.277481
O O4 0.256489 0.088721 0.516616
O O5 0.106621 0.694970 0.820571
O O6 0.156293 0.539584 0.811398
O O7 0.101611 0.076746 0.096822
O O8 0.644591 0.263055 0.566725
O O9 0.978261 0.566971 0.606777
O O10 0.850755 0.085661 0.688956
O O11 0.610087 0.742914 0.645511
O O12 0.316158 0.201412 0.743862
O O13 0.031612 0.099346 0.257705
O O14 0.797785 0.440323 0.956734
O O15 0.000000 0.000000 0.500000
#
# Coordination Sequence:
#
# PCOD9110778 Si02
#       7
#     2   2   2   2   2   2   2
#     4  11  22  39  65  95 123 164 221 260 306 383
#     4  10  20  42  66  91 129 166 208 259 322 368
#     4  11  24  40  63  95 129 165 206 267 315 374
#     4  12  22  40  65  97 129 166 216 254 312 374
#     4  10  21  42  69  92 126 173 207 258 311 378
#     4  10  21  41  66  88 122 172 208 254 324 372
#     4  10  23  42  64  95 129 166 215 255 314 370
#
# _framework density 21.157243000000001
#
# number of rings (size 3 to 8) (size 9 to 14) (size 15 to 20)
#    0.000    1.429    1.429    5.571    0.000    0.571 
#    2.571    4.286    0.000    0.000    0.000    0.000 
#    0.000    0.000    0.000    0.000    0.000    0.000 
#
# Total GULP energy -78171.078716 kJ/mol
# GULP energy per Si atom -5583.648480 kJ/mol
# Density = 2.110909 g / cm^3
# Si number density = 21.157243 Si / 1000 Ang^3
#
#
#
# Elastic Constant Matrix: (Units=GPa)
#
#
# Indices 1 2 3 4 5 6 
#
# 1 85.0994 44.6063 20.4066 -13.6459 -15.2054 10.1443
# 2 44.6063 170.5435 55.4498 -4.0605 -6.5711 -4.3316
# 3 20.4066 55.4498 86.6089 4.8204 -2.8227 5.6136
# 4 -13.6459 -4.0605 4.8204 34.5440 -7.1685 1.1492
# 5 -15.2054 -6.5711 -2.8227 -7.1685 25.8798 -1.5177
# 6 10.1443 -4.3316 5.6136 1.1492 -1.5177 35.2551
#
#
#
# Elastic Compliance Matrix: (Units=1/GPa)
#
#
# Indices 1 2 3 4 5 6 
#
# 1 0.018486 -0.003680 -0.001808 0.009817 0.012139 -0.005281
# 2 -0.003680 0.008419 -0.004720 0.000024 -0.000367 0.002828
# 3 -0.001808 -0.004720 0.015301 -0.003687 -0.001757 -0.002451
# 4 0.009817 0.000024 -0.003687 0.036622 0.015354 -0.002767
# 5 0.012139 -0.000367 -0.001757 0.015354 0.049646 -0.001622
# 6 -0.005281 0.002828 -0.002451 -0.002767 -0.001622 0.030642
#
#
# Mechanical properties :
#
#
# Convention : Reuss Voigt Hill
#
# Bulk Modulus (GPa) = 45.89172 64.79745 55.34458
# Shear Modulus (GPa) = 26.76736 33.92172 30.34454
#
# Velocity S-wave (km/s) = 3.56077 4.00849 3.79124
# Velocity P-wave (km/s) = 6.21638 7.21921 6.73648
#
# Compressibility (1/GPa) = 0.02179042
#
# Stress axis : x y z
#
# Youngs Moduli (GPa) = 54.09455 118.78043 65.35656
#
# Poissons Ratio (x) = 0.43710 0.11817
# Poissons Ratio (y) = 0.19906 0.30846
# Poissons Ratio (z) = 0.09781 0.56060
#
# Static dielectric constant tensor:
#      x y z
#    x 1.778330 -0.019270 -0.012870 
#    y -0.019270 1.755130 0.010870 
#    z -0.012870 0.010870 1.836320 
# 
# From -- ./inp_files/241479.got.cif
#   From: 2010.05.17/outbox.cif.g08.bks.cpg/sg2_121_cif.got.tgz:241479.got - 2010.06.03 11:33:40.
