data_PCOD9110151
_publ_section_title
;
Structure prediction by ZEFSAII (Michael W. Deem and Ramdas Pophale) SiO2 
 PCOD9110151
Probable space group: P -1
;
_chemical_formula_sum "Si O2"
_cell_formula_units_Z 15
_cell_length_a 8.216858
_cell_length_b 12.126677
_cell_length_c 9.354452
_cell_angle_alpha 62.769376
_cell_angle_beta 121.053169
_cell_angle_gamma 134.968800
_cell_volume 558.257179
_symmetry_space_group_name_H-M "P -1"
_symmetry_group_IT_number 2
_symmetry_cell_setting 'triclinic'
loop_
_space_group_symop_operation_xyz
x,y,z
-x,-y,-z
loop_
_atom_site_type_symbol
_atom_site_label
_atom_site_fract_x
_atom_site_fract_y
_atom_site_fract_z
Si Si1 0.000000 0.000000 0.000000
Si Si2 0.562923 0.919535 0.288197
Si Si3 0.607165 0.201363 0.014121
Si Si4 0.069383 0.278485 0.052982
Si Si5 0.673465 0.402830 0.150338
Si Si6 0.763175 0.111195 0.633724
Si Si7 0.918749 0.563184 0.551712
Si Si8 0.407059 0.291980 0.396243
O O1 0.998225 0.125277 0.029020
O O2 0.140605 0.975878 0.203917
O O3 0.301929 0.819231 0.308154
O O4 0.692232 0.870993 0.474621
O O5 0.607932 0.084094 0.191013
O O6 0.572790 0.881034 0.152132
O O7 0.534107 0.291137 0.017827
O O8 0.857511 0.286332 0.995712
O O9 0.195383 0.297012 0.250401
O O10 0.249474 0.426411 0.943817
O O11 0.531536 0.320306 0.280264
O O12 0.919084 0.420483 0.254953
O O13 0.972224 0.259931 0.547420
O O14 0.500000 0.000000 0.500000
O O15 0.629603 0.437550 0.503205
O O16 0.000000 0.500000 0.500000
#
# Coordination Sequence:
#
# PCOD9110151 Si02
#       8
#     1   2   2   2   2   2   2   2
#     4  12  26  40  72 104 152 180 252 320 358 434
#     4  11  23  45  69 103 143 194 248 294 375 453
#     4  11  26  44  70 100 150 193 239 298 383 465
#     4  12  26  45  67 113 147 188 242 315 380 440
#     4  11  23  45  74 101 139 193 244 298 367 454
#     4  12  23  43  73 109 143 193 249 310 370 435
#     4  10  20  41  70 106 136 181 248 304 356 435
#     4  11  24  43  76 102 142 187 255 312 360 439
#
# _framework density 26.869335
#
# number of rings (size 3 to 8) (size 9 to 14) (size 15 to 20)
#    0.000    0.800    4.000    4.800    1.867    0.533 
#    0.000    2.667    0.000    0.000    0.000    0.000 
#    0.000    0.000    0.000    0.000    0.000    0.000 
#
# Total GULP energy -83677.990781 kJ/mol
# GULP energy per Si atom -5578.532719 kJ/mol
# Density = 2.680818 g / cm^3
# Si number density = 26.869335 Si / 1000 Ang^3
#
#
#
# Elastic Constant Matrix: (Units=GPa)
#
#
# Indices 1 2 3 4 5 6 
#
# 1 73.7477 19.3443 20.9498 -10.0390 -8.1764 -2.1719
# 2 19.3443 75.9097 49.3753 -33.0596 -10.2281 -9.1794
# 3 20.9498 49.3753 171.0039 -31.3402 13.7364 0.3249
# 4 -10.0390 -33.0596 -31.3402 40.0124 0.2684 -8.5625
# 5 -8.1764 -10.2281 13.7364 0.2684 40.3792 2.5405
# 6 -2.1719 -9.1794 0.3249 -8.5625 2.5405 33.3015
#
#
#
# Elastic Compliance Matrix: (Units=1/GPa)
#
#
# Indices 1 2 3 4 5 6 
#
# 1 0.014947 -0.002016 -0.001267 0.001182 0.002907 0.000514
# 2 -0.002016 0.029301 -0.004664 0.022842 0.007613 0.013283
# 3 -0.001267 -0.004664 0.008058 0.002039 -0.004155 -0.000606
# 4 0.001182 0.022842 0.002039 0.049769 0.003814 0.018859
# 5 0.002907 0.007613 -0.004155 0.003814 0.028599 0.001127
# 6 0.000514 0.013283 -0.000606 0.018859 0.001127 0.038492
#
#
# Mechanical properties :
#
#
# Convention : Reuss Voigt Hill
#
# Bulk Modulus (GPa) = 27.46326 55.55556 41.50941
# Shear Modulus (GPa) = 25.35541 38.13809 31.74675
#
# Velocity S-wave (km/s) = 3.07523 3.77157 3.44106
# Velocity P-wave (km/s) = 4.78044 6.29979 5.59196
#
# Compressibility (1/GPa) = 0.03641229
#
# Stress axis : x y z
#
# Youngs Moduli (GPa) = 66.90391 34.12889 124.09854
#
# Poissons Ratio (x) = 0.06881 0.15720
# Poissons Ratio (y) = 0.13490 0.57875
# Poissons Ratio (z) = 0.08475 0.15917
#
# Static dielectric constant tensor:
#      x y z
#    x 2.143580 0.099490 0.024960 
#    y 0.099490 2.324220 0.109340 
#    z 0.024960 0.109340 2.200720 
# 
# From -- ./inp_files/185432.got.cif
#   From: 2010.05.17/outbox.cif.g08.bks.cpg/sg2_93_cif.got.tgz:185432.got - 2010.06.03 11:33:40.
