data_PCOD9110252
_publ_section_title
;
Structure prediction by ZEFSAII (Michael W. Deem and Ramdas Pophale) SiO2 
 PCOD9110252
Probable space group: P -1
;
_chemical_formula_sum "Si O2"
_cell_formula_units_Z 16
_cell_length_a 8.506909
_cell_length_b 22.355645
_cell_length_c 8.303562
_cell_angle_alpha 40.625345
_cell_angle_beta 49.284194
_cell_angle_gamma 55.238333
_cell_volume 770.259166
_symmetry_space_group_name_H-M "P -1"
_symmetry_group_IT_number 2
_symmetry_cell_setting 'triclinic'
loop_
_space_group_symop_operation_xyz
x,y,z
-x,-y,-z
loop_
_atom_site_type_symbol
_atom_site_label
_atom_site_fract_x
_atom_site_fract_y
_atom_site_fract_z
Si Si1 0.370462 0.052322 0.335402
Si Si2 0.255142 0.522214 0.166977
Si Si3 0.488584 0.644501 0.152243
Si Si4 0.058411 0.919102 0.252343
Si Si5 0.791183 0.066607 0.559558
Si Si6 0.659599 0.280357 0.237240
Si Si7 0.584451 0.226248 0.752067
Si Si8 0.829130 0.499476 0.370698
O O1 0.143751 0.088539 0.490593
O O2 0.500000 0.000000 0.500000
O O3 0.373328 0.973091 0.360566
O O4 0.454432 0.142067 0.031131
O O5 0.230421 0.475958 0.452142
O O6 0.081588 0.492934 0.220436
O O7 0.500000 0.500000 0.000000
O O8 0.210683 0.634272 0.994985
O O9 0.464708 0.709782 0.190841
O O10 0.704491 0.575051 0.180230
O O11 0.285933 0.589905 0.401630
O O12 0.481520 0.690851 0.885406
O O13 0.222632 0.949472 0.209127
O O14 0.171550 0.822683 0.302697
O O15 0.000000 0.000000 0.000000
O O16 0.782917 0.177656 0.323355
O O17 0.000000 0.000000 0.500000
O O18 0.552548 0.269857 0.505131
#
# Coordination Sequence:
#
# PCOD9110252 Si02
#       8
#     2   2   2   2   2   2   2   2
#     4  11  21  39  63  86 120 173 218 272 330 384
#     4  10  20  41  71  96 133 170 217 272 339 403
#     4  10  21  42  67  96 136 173 222 275 334 402
#     4  10  21  39  60  89 121 167 221 270 325 386
#     4   9  21  38  59  86 128 170 215 270 319 377
#     4  10  22  39  62  95 129 172 220 274 329 399
#     4  11  23  40  65  91 133 169 219 273 329 384
#     4   9  21  41  67  96 131 175 212 272 339 401
#
# _framework density 20.772228999999999
#
# number of rings (size 3 to 8) (size 9 to 14) (size 15 to 20)
#    0.000    2.000    1.250    1.500    1.750    5.000 
#    2.250   17.500    0.000    0.000    0.000    0.000 
#    0.000    0.000    0.000    0.000    0.000    0.000 
#
# Total GULP energy -89134.235340 kJ/mol
# GULP energy per Si atom -5570.889709 kJ/mol
# Density = 2.072495 g / cm^3
# Si number density = 20.772229 Si / 1000 Ang^3
#
#
#
# Elastic Constant Matrix: (Units=GPa)
#
#
# Indices 1 2 3 4 5 6 
#
# 1 139.3817 32.0253 63.3356 -5.3146 18.4304 11.1701
# 2 32.0253 75.1601 29.2301 -4.4337 -3.4024 8.3442
# 3 63.3356 29.2301 99.7486 3.8435 21.8048 -1.7794
# 4 -5.3146 -4.4337 3.8435 33.8857 -2.0508 -5.3401
# 5 18.4304 -3.4024 21.8048 -2.0508 50.4130 7.2848
# 6 11.1701 8.3442 -1.7794 -5.3401 7.2848 32.7612
#
#
#
# Elastic Compliance Matrix: (Units=1/GPa)
#
#
# Indices 1 2 3 4 5 6 
#
# 1 0.010882 -0.001767 -0.006328 0.001646 -0.000839 -0.003149
# 2 -0.001767 0.016860 -0.005010 0.002045 0.004710 -0.004678
# 3 -0.006328 -0.005010 0.017106 -0.003142 -0.006310 0.005254
# 4 0.001646 0.002045 -0.003142 0.031035 0.001661 0.003436
# 5 -0.000839 0.004710 -0.006310 0.001661 0.024177 -0.006362
# 6 -0.003149 -0.004678 0.005254 0.003436 -0.006362 0.035049
#
#
# Mechanical properties :
#
#
# Convention : Reuss Voigt Hill
#
# Bulk Modulus (GPa) = 53.65856 62.60801 58.13328
# Shear Modulus (GPa) = 29.84510 36.05861 32.95186
#
# Velocity S-wave (km/s) = 3.79460 4.17094 3.98721
# Velocity P-wave (km/s) = 6.71465 7.30762 7.01740
#
# Compressibility (1/GPa) = 0.01863636
#
# Stress axis : x y z
#
# Youngs Moduli (GPa) = 91.89407 59.31344 58.46000
#
# Poissons Ratio (x) = 0.10481 0.36994
# Poissons Ratio (y) = 0.16238 0.29291
# Poissons Ratio (z) = 0.58152 0.29718
#
# Static dielectric constant tensor:
#      x y z
#    x 1.765430 0.009310 -0.015460 
#    y 0.009310 1.787670 0.002280 
#    z -0.015460 0.002280 1.748520 
# 
# From -- ./inp_files/222980.got.cif
#   From: 2010.05.17/outbox.cif.g08.bks.cpg/sg2_112_cif.got.tgz:222980.got - 2010.06.03 11:33:40.
