data_PCOD9110352
_publ_section_title
;
Structure prediction by ZEFSAII (Michael W. Deem and Ramdas Pophale) SiO2 
 PCOD9110352
Probable space group: P -1
;
_chemical_formula_sum "Si O2"
_cell_formula_units_Z 14
_cell_length_a 9.135507
_cell_length_b 7.437646
_cell_length_c 18.871810
_cell_angle_alpha 53.859546
_cell_angle_beta 146.276303
_cell_angle_gamma 111.559697
_cell_volume 552.839233
_symmetry_space_group_name_H-M "P -1"
_symmetry_group_IT_number 2
_symmetry_cell_setting 'triclinic'
loop_
_space_group_symop_operation_xyz
x,y,z
-x,-y,-z
loop_
_atom_site_type_symbol
_atom_site_label
_atom_site_fract_x
_atom_site_fract_y
_atom_site_fract_z
Si Si1 0.822435 0.421403 0.134912
Si Si2 0.403237 0.348249 0.633756
Si Si3 0.781397 0.400626 0.349729
Si Si4 0.706612 0.212719 0.587431
Si Si5 0.356636 0.802094 0.013897
Si Si6 0.956147 0.150760 0.852507
Si Si7 0.206381 0.023410 0.462933
O O1 0.926889 0.648891 0.114116
O O2 0.981765 0.263840 0.300550
O O3 0.500000 0.500000 0.000000
O O4 0.845295 0.263696 0.110074
O O5 0.327043 0.445196 0.658964
O O6 0.479093 0.538694 0.569539
O O7 0.108398 0.347385 0.484444
O O8 0.675785 0.139982 0.781050
O O9 0.590559 0.564659 0.177957
O O10 0.756761 0.144389 0.416141
O O11 0.501432 0.063691 0.559638
O O12 0.890850 0.216474 0.727867
O O13 0.858790 0.125700 0.595257
O O14 0.500000 0.000000 0.000000
O O15 0.183061 0.907265 0.989416
#
# Coordination Sequence:
#
# PCOD9110352 Si02
#       7
#     2   2   2   2   2   2   2
#     4  12  26  43  75 109 142 186 248 293 363 445
#     4  10  22  40  71 108 141 190 247 297 356 438
#     4  10  25  45  73 107 152 188 245 307 364 421
#     4  10  20  41  77 102 140 188 243 298 359 427
#     4  12  26  48  75 104 150 198 235 303 375 436
#     4  12  24  43  77 108 143 195 248 294 361 442
#     4  10  22  44  73 110 139 187 247 301 351 433
#
# _framework density 25.323819
#
# number of rings (size 3 to 8) (size 9 to 14) (size 15 to 20)
#    0.000    1.143    4.286    1.286    4.000    0.571 
#    0.000    7.143    0.000    0.000    0.000    0.000 
#    0.000    0.000    0.000    0.000    0.000    0.000 
#
# Total GULP energy -78238.333101 kJ/mol
# GULP energy per Si atom -5588.452364 kJ/mol
# Density = 2.526618 g / cm^3
# Si number density = 25.323819 Si / 1000 Ang^3
#
#
#
# Elastic Constant Matrix: (Units=GPa)
#
#
# Indices 1 2 3 4 5 6 
#
# 1 99.1163 39.1523 44.0969 -5.1826 34.1610 -8.3769
# 2 39.1523 114.1413 41.5652 3.8877 -1.8433 -9.5042
# 3 44.0969 41.5652 136.0193 -13.5169 10.8790 0.4542
# 4 -5.1826 3.8877 -13.5169 41.0490 -7.9704 -0.5608
# 5 34.1610 -1.8433 10.8790 -7.9704 58.4711 -1.4092
# 6 -8.3769 -9.5042 0.4542 -0.5608 -1.4092 40.9317
#
#
#
# Elastic Compliance Matrix: (Units=1/GPa)
#
#
# Indices 1 2 3 4 5 6 
#
# 1 0.016699 -0.004473 -0.003346 -0.000341 -0.009271 0.002092
# 2 -0.004473 0.011477 -0.002503 -0.001822 0.003238 0.001864
# 3 -0.003346 -0.002503 0.009466 0.003009 0.000494 -0.001313
# 4 -0.000341 -0.001822 0.003009 0.026090 0.003137 -0.000061
# 5 -0.009271 0.003238 0.000494 0.003137 0.022949 -0.000318
# 6 0.002092 0.001864 -0.001313 -0.000061 -0.000318 0.025295
#
#
# Mechanical properties :
#
#
# Convention : Reuss Voigt Hill
#
# Bulk Modulus (GPa) = 58.83735 66.54510 62.69122
# Shear Modulus (GPa) = 36.15715 43.05453 39.60584
#
# Velocity S-wave (km/s) = 3.78271 4.12777 3.95900
# Velocity P-wave (km/s) = 6.50869 7.00376 6.76076
#
# Compressibility (1/GPa) = 0.01699601
#
# Stress axis : x y z
#
# Youngs Moduli (GPa) = 59.88320 87.13444 105.64609
#
# Poissons Ratio (x) = 0.38979 0.35351
# Poissons Ratio (y) = 0.26788 0.26443
# Poissons Ratio (z) = 0.20038 0.21810
#
# Static dielectric constant tensor:
#      x y z
#    x 2.055450 -0.087030 -0.007520 
#    y -0.087030 2.030560 -0.009510 
#    z -0.007520 -0.009510 2.036170 
# 
# From -- ./inp_files/619243.got.cif
#   From: 2010.05.17/outbox.cif.g08.bks.cpg/sg2_310_cif.got.tgz:619243.got - 2010.06.03 11:33:40.
