data_PCOD9110268
_publ_section_title
;
Structure prediction by ZEFSAII (Michael W. Deem and Ramdas Pophale) SiO2 
 PCOD9110268
Probable space group: P -1
;
_chemical_formula_sum "Si O2"
_cell_formula_units_Z 12
_cell_length_a 9.917249
_cell_length_b 12.569568
_cell_length_c 7.428841
_cell_angle_alpha 88.932414
_cell_angle_beta 70.303026
_cell_angle_gamma 36.471902
_cell_volume 462.558098
_symmetry_space_group_name_H-M "P -1"
_symmetry_group_IT_number 2
_symmetry_cell_setting 'triclinic'
loop_
_space_group_symop_operation_xyz
x,y,z
-x,-y,-z
loop_
_atom_site_type_symbol
_atom_site_label
_atom_site_fract_x
_atom_site_fract_y
_atom_site_fract_z
Si Si1 0.308439 0.582121 0.813383
Si Si2 0.103561 0.754313 0.282730
Si Si3 0.295944 0.359421 0.894428
Si Si4 0.622380 0.949597 0.642140
Si Si5 0.199101 0.870346 0.741205
Si Si6 0.693090 0.676945 0.705892
O O1 0.598284 0.426229 0.771439
O O2 0.317847 0.452572 0.764829
O O3 0.238355 0.719228 0.699863
O O4 0.106667 0.718402 0.071732
O O5 0.934472 0.778341 0.473754
O O6 0.952959 0.963199 0.342784
O O7 0.491024 0.140165 0.764930
O O8 0.326298 0.367677 0.091204
O O9 0.000000 0.500000 0.000000
O O10 0.589201 0.863883 0.773796
O O11 0.500000 0.000000 0.500000
O O12 0.478950 0.751862 0.673130
O O13 0.000000 0.000000 0.000000
O O14 0.000000 0.500000 0.500000
#
# Coordination Sequence:
#
# PCOD9110268 Si02
#       6
#     2   2   2   2   2   2
#     4  10  21  42  65 103 136 176 230 289 340 411
#     4  10  20  41  71  99 135 182 227 280 350 413
#     4  12  27  43  65 101 140 179 231 290 339 409
#     4  12  24  44  70  96 136 183 229 283 346 409
#     4  10  21  38  73 101 132 183 227 278 348 416
#     4  12  24  44  73 103 137 180 233 283 351 416
#
# _framework density 25.942689000000001
#
# number of rings (size 3 to 8) (size 9 to 14) (size 15 to 20)
#    0.000    1.000    1.667    7.500    2.333    0.667 
#    3.000    0.833    0.000    0.000    0.000    0.000 
#    0.000    0.000    0.000    0.000    0.000    0.000 
#
# Total GULP energy -67278.277203 kJ/mol
# GULP energy per Si atom -5606.523100 kJ/mol
# Density = 2.588364 g / cm^3
# Si number density = 25.942689 Si / 1000 Ang^3
#
#
#
# Elastic Constant Matrix: (Units=GPa)
#
#
# Indices 1 2 3 4 5 6 
#
# 1 92.6157 24.5483 43.8567 9.8328 -12.8941 40.8350
# 2 24.5483 115.5148 17.6786 -4.1829 -2.5657 56.4084
# 3 43.8567 17.6786 97.9751 12.7694 -0.9574 7.1071
# 4 9.8328 -4.1829 12.7694 44.5889 3.0253 -14.0160
# 5 -12.8941 -2.5657 -0.9574 3.0253 48.1709 -1.6382
# 6 40.8350 56.4084 7.1071 -14.0160 -1.6382 67.8577
#
#
#
# Elastic Compliance Matrix: (Units=1/GPa)
#
#
# Indices 1 2 3 4 5 6 
#
# 1 0.024566 0.006072 -0.009352 -0.009081 0.006584 -0.020567
# 2 0.006072 0.016580 -0.003808 -0.004465 0.002104 -0.017909
# 3 -0.009352 -0.003808 0.014542 -0.000046 -0.002169 0.007208
# 4 -0.009081 -0.004465 -0.000046 0.029035 -0.003980 0.015083
# 5 0.006584 0.002104 -0.002169 -0.003980 0.022645 -0.005759
# 6 -0.020567 -0.017909 0.007208 0.015083 -0.005759 0.044222
#
#
# Mechanical properties :
#
#
# Convention : Reuss Voigt Hill
#
# Bulk Modulus (GPa) = 24.09016 53.14143 38.61580
# Shear Modulus (GPa) = 27.83926 46.79162 37.31544
#
# Velocity S-wave (km/s) = 3.27938 4.25155 3.79671
# Velocity P-wave (km/s) = 4.86263 6.68054 5.84272
#
# Compressibility (1/GPa) = 0.04151073
#
# Stress axis : x y z
#
# Youngs Moduli (GPa) = 40.70736 60.31525 68.76633
#
# Poissons Ratio (x) = -0.36621 0.64310
# Poissons Ratio (y) = -0.24716 0.26185
# Poissons Ratio (z) = 0.38070 0.22967
#
# Static dielectric constant tensor:
#      x y z
#    x 2.003130 0.066330 0.018280 
#    y 0.066330 2.038250 0.058730 
#    z 0.018280 0.058730 1.903630 
# 
# From -- ./inp_files/187382.got.cif
#   From: 2010.05.17/outbox.cif.g08.bks.cpg/sg2_94_cif.got.tgz:187382.got - 2010.06.03 11:33:40.
