data_PCOD9110945
_publ_section_title
;
Structure prediction by ZEFSAII (Michael W. Deem and Ramdas Pophale) SiO2 
 PCOD9110945
Probable space group: P -1
;
_chemical_formula_sum "Si O2"
_cell_formula_units_Z 16
_cell_length_a 14.493653
_cell_length_b 12.193822
_cell_length_c 9.638869
_cell_angle_alpha 80.493284
_cell_angle_beta 69.727710
_cell_angle_gamma 30.447889
_cell_volume 777.179079
_symmetry_space_group_name_H-M "P -1"
_symmetry_group_IT_number 2
_symmetry_cell_setting 'triclinic'
loop_
_space_group_symop_operation_xyz
x,y,z
-x,-y,-z
loop_
_atom_site_type_symbol
_atom_site_label
_atom_site_fract_x
_atom_site_fract_y
_atom_site_fract_z
Si Si1 0.458619 0.412629 0.493741
Si Si2 0.880989 0.201359 0.923529
Si Si3 0.692008 0.797921 0.343906
Si Si4 0.150796 0.117312 0.673293
Si Si5 0.027493 0.362831 0.422597
Si Si6 0.802859 0.207867 0.650389
Si Si7 0.458296 0.371653 0.803646
Si Si8 0.532571 0.050638 0.847230
O O1 0.500000 0.500000 0.500000
O O2 0.318061 0.570620 0.402106
O O3 0.373881 0.446744 0.674387
O O4 0.651661 0.150899 0.405078
O O5 0.848464 0.184334 0.791425
O O6 0.007109 0.188775 0.832157
O O7 0.678969 0.424689 0.064044
O O8 0.000000 0.000000 0.000000
O O9 0.796244 0.816377 0.298296
O O10 0.840854 0.556360 0.375478
O O11 0.500000 0.000000 0.500000
O O12 0.606330 0.851955 0.227755
O O13 0.049673 0.243411 0.549780
O O14 0.238215 0.168271 0.276487
O O15 0.000000 0.500000 0.500000
O O16 0.667729 0.229824 0.709153
O O17 0.000000 0.000000 0.500000
O O18 0.478597 0.228584 0.879566
O O19 0.500000 0.000000 0.000000
#
# Coordination Sequence:
#
# PCOD9110945 Si02
#       8
#     2   2   2   2   2   2   2   2
#     4  10  20  42  67  95 132 173 229 285 331 411
#     4  12  26  44  67  99 142 180 226 286 350 414
#     4  11  23  45  73 103 135 183 240 288 341 418
#     4  11  23  43  73 101 130 187 236 283 346 413
#     4  10  22  45  72  98 138 177 248 282 337 422
#     4  11  24  43  72 100 132 181 236 281 339 417
#     4  11  24  45  64 100 142 174 222 289 356 402
#     4  12  27  45  68 106 147 178 226 298 351 412
#
# _framework density 20.587275999999999
#
# number of rings (size 3 to 8) (size 9 to 14) (size 15 to 20)
#    0.000    1.000    3.750    4.125    3.500    4.500 
#    2.250    0.000    0.000    0.000    0.000    0.000 
#    0.000    0.000    0.000    0.000    0.000    0.000 
#
# Total GULP energy -89418.255377 kJ/mol
# GULP energy per Si atom -5588.640961 kJ/mol
# Density = 2.054042 g / cm^3
# Si number density = 20.587276 Si / 1000 Ang^3
#
#
#
# Elastic Constant Matrix: (Units=GPa)
#
#
# Indices 1 2 3 4 5 6 
#
# 1 103.8412 40.9649 39.0455 -14.4894 -6.4253 -5.9530
# 2 40.9649 159.2763 56.7165 -22.0425 2.9646 -5.0476
# 3 39.0455 56.7165 119.5538 -16.5661 -7.9140 -13.9701
# 4 -14.4894 -22.0425 -16.5661 43.2690 7.0505 4.5946
# 5 -6.4253 2.9646 -7.9140 7.0505 42.4713 -9.2758
# 6 -5.9530 -5.0476 -13.9701 4.5946 -9.2758 34.2900
#
#
#
# Elastic Compliance Matrix: (Units=1/GPa)
#
#
# Indices 1 2 3 4 5 6 
#
# 1 0.011679 -0.001878 -0.002499 0.001686 0.001342 0.000870
# 2 -0.001878 0.008313 -0.003247 0.002882 -0.002258 -0.001422
# 3 -0.002499 -0.003247 0.011563 0.001010 0.002801 0.004421
# 4 0.001686 0.002882 0.001010 0.026757 -0.005033 -0.003818
# 5 0.001342 -0.002258 0.002801 -0.005033 0.027248 0.009087
# 6 0.000870 -0.001422 0.004421 -0.003818 0.009087 0.033876
#
#
# Mechanical properties :
#
#
# Convention : Reuss Voigt Hill
#
# Bulk Modulus (GPa) = 61.32188 72.90278 67.11233
# Shear Modulus (GPa) = 35.68380 40.40237 38.04309
#
# Velocity S-wave (km/s) = 4.16780 4.43481 4.30338
# Velocity P-wave (km/s) = 7.28091 7.85569 7.57376
#
# Compressibility (1/GPa) = 0.01630739
#
# Stress axis : x y z
#
# Youngs Moduli (GPa) = 85.62492 120.28788 86.48227
#
# Poissons Ratio (x) = 0.22588 0.21614
# Poissons Ratio (y) = 0.16079 0.28080
# Poissons Ratio (z) = 0.21399 0.39056
#
# Static dielectric constant tensor:
#      x y z
#    x 1.784340 -0.015310 -0.001850 
#    y -0.015310 1.721510 -0.013580 
#    z -0.001850 -0.013580 1.673700 
# 
# From -- ./inp_files/307312.got.cif
#   From: 2010.05.17/outbox.cif.g08.bks.cpg/sg2_154_cif.got.tgz:307312.got - 2010.06.03 11:33:40.
