data_PCOD9110215
_publ_section_title
;
Structure prediction by ZEFSAII (Michael W. Deem and Ramdas Pophale) SiO2 
 PCOD9110215
Probable space group: P -1
;
_chemical_formula_sum "Si O2"
_cell_formula_units_Z 15
_cell_length_a 12.106678
_cell_length_b 14.529429
_cell_length_c 11.540907
_cell_angle_alpha 122.075846
_cell_angle_beta 80.031187
_cell_angle_gamma 148.989576
_cell_volume 676.456302
_symmetry_space_group_name_H-M "P -1"
_symmetry_group_IT_number 2
_symmetry_cell_setting 'triclinic'
loop_
_space_group_symop_operation_xyz
x,y,z
-x,-y,-z
loop_
_atom_site_type_symbol
_atom_site_label
_atom_site_fract_x
_atom_site_fract_y
_atom_site_fract_z
Si Si1 0.500000 0.000000 0.000000
Si Si2 0.782119 0.817128 0.313136
Si Si3 0.248982 0.543923 0.667735
Si Si4 0.105388 0.925365 0.729239
Si Si5 0.173803 0.887118 0.124019
Si Si6 0.938705 0.391165 0.315714
Si Si7 0.313179 0.516601 0.893883
Si Si8 0.780465 0.568440 0.772701
O O1 0.725523 0.137668 0.962283
O O2 0.343861 0.927437 0.866231
O O3 0.923763 0.994554 0.292413
O O4 0.664631 0.592942 0.164414
O O5 0.531473 0.673244 0.302232
O O6 0.000000 0.000000 0.500000
O O7 0.313718 0.545852 0.778225
O O8 0.185900 0.618035 0.747685
O O9 0.530295 0.787490 0.702091
O O10 0.994471 0.263344 0.459225
O O11 0.426472 0.204029 0.896506
O O12 0.908799 0.745643 0.757884
O O13 0.986819 0.713918 0.155215
O O14 0.974698 0.762833 0.979198
O O15 0.186565 0.531605 0.328314
O O16 0.000000 0.500000 0.500000
#
# Coordination Sequence:
#
# PCOD9110215 Si02
#       8
#     1   2   2   2   2   2   2   2
#     4   8  20  38  66 100 128 182 232 262 346 414
#     4  12  28  46  69 105 146 184 244 295 349 421
#     4  11  24  44  74 110 136 186 243 278 356 436
#     4  12  25  45  73 105 141 183 242 291 351 422
#     4  10  22  45  73  96 145 185 228 293 348 413
#     4  10  20  41  71 100 140 181 224 290 348 418
#     4  12  26  47  70 105 146 187 237 295 349 419
#     4  11  24  45  73 104 142 190 232 293 360 412
#
# _framework density 22.174381
#
# number of rings (size 3 to 8) (size 9 to 14) (size 15 to 20)
#    0.000    1.067    5.333    0.400    1.867    2.133 
#    0.000   10.667    0.000    0.000    0.000    0.000 
#    0.000    0.000    0.000    0.000    0.000    0.000 
#
# Total GULP energy -83591.151271 kJ/mol
# GULP energy per Si atom -5572.743418 kJ/mol
# Density = 2.212391 g / cm^3
# Si number density = 22.174381 Si / 1000 Ang^3
#
#
#
# Elastic Constant Matrix: (Units=GPa)
#
#
# Indices 1 2 3 4 5 6 
#
# 1 21.9492 -52.9522 21.2453 7.6654 2.0722 3.0819
# 2 -52.9522 14.0442 23.9311 6.9502 3.8667 2.3873
# 3 21.2453 23.9311 125.1358 17.6361 -0.0602 12.8753
# 4 7.6654 6.9502 17.6361 20.1886 -2.6909 4.0289
# 5 2.0722 3.8667 -0.0602 -2.6909 30.2546 4.1449
# 6 3.0819 2.3873 12.8753 4.0289 4.1449 50.4299
#
#
#
# Elastic Compliance Matrix: (Units=1/GPa)
#
#
# Indices 1 2 3 4 5 6 
#
# 1 -0.002464 -0.017842 0.003207 0.004757 0.002939 -0.000445
# 2 -0.017842 -0.005150 0.003167 0.006141 0.002456 -0.000167
# 3 0.003207 0.003167 0.008336 -0.009430 -0.001225 -0.001620
# 4 0.004757 0.006141 -0.009430 0.054985 0.004159 -0.002908
# 5 0.002939 0.002456 -0.001225 0.004159 0.033324 -0.003054
# 6 -0.000445 -0.000167 -0.001620 -0.002908 -0.003054 0.020762
#
#
# Mechanical properties :
#
#
# Convention : Reuss Voigt Hill
#
# Bulk Modulus (GPa) = -45.01975 16.17527 -14.42224
# Shear Modulus (GPa) = 39.89621 31.43496 35.66558
#
# Velocity S-wave (km/s) = 4.24630 3.76922 4.01485
# Velocity P-wave (km/s) = 1.92218 5.12378 3.86962
#
# Compressibility (1/GPa) = -0.02221247
#
# Stress axis : x y z
#
# Youngs Moduli (GPa) = -405.89293 -194.18949 119.95627
#
# Poissons Ratio (x) = -3.46467 -0.38472
# Poissons Ratio (y) = -7.24183 -0.37987
# Poissons Ratio (z) = 1.30178 0.61495
#
# Static dielectric constant tensor:
#      x y z
#    x 1.556400 0.201310 0.774990 
#    y 0.201310 1.603410 -0.668340 
#    z 0.774990 -0.668340 -0.018130 
# 
# From -- ./inp_files/434203.got.cif
#   From: 2010.05.17/outbox.cif.g08.bks.cpg/sg2_218_cif.got.tgz:434203.got - 2010.06.03 11:33:40.
