data_PCOD9110592
_publ_section_title
;
Structure prediction by ZEFSAII (Michael W. Deem and Ramdas Pophale) SiO2 
 PCOD9110592
Probable space group: P -1
;
_chemical_formula_sum "Si O2"
_cell_formula_units_Z 15
_cell_length_a 6.581567
_cell_length_b 7.724465
_cell_length_c 15.610483
_cell_angle_alpha 78.919487
_cell_angle_beta 125.710794
_cell_angle_gamma 83.276982
_cell_volume 605.651040
_symmetry_space_group_name_H-M "P -1"
_symmetry_group_IT_number 2
_symmetry_cell_setting 'triclinic'
loop_
_space_group_symop_operation_xyz
x,y,z
-x,-y,-z
loop_
_atom_site_type_symbol
_atom_site_label
_atom_site_fract_x
_atom_site_fract_y
_atom_site_fract_z
Si Si1 0.212163 0.213261 0.844769
Si Si2 0.744627 0.297659 0.168910
Si Si3 0.159278 0.321320 0.006027
Si Si4 0.610409 0.618278 0.447710
Si Si5 0.135786 0.915467 0.346841
Si Si6 0.802972 0.395170 0.353071
Si Si7 0.219056 0.841645 0.984441
Si Si8 0.000000 0.000000 0.500000
O O1 0.025442 0.218670 0.718482
O O2 0.202484 0.022362 0.907470
O O3 0.129483 0.345632 0.893728
O O4 0.510144 0.190838 0.895871
O O5 0.461627 0.261939 0.113086
O O6 0.756656 0.434818 0.236843
O O7 0.741854 0.319242 0.063415
O O8 0.998725 0.123629 0.264046
O O9 0.023306 0.168899 0.018454
O O10 0.000000 0.500000 0.000000
O O11 0.500000 0.500000 0.500000
O O12 0.426336 0.827286 0.390722
O O13 0.621638 0.534115 0.363100
O O14 0.900618 0.616063 0.546283
O O15 0.117254 0.915161 0.443827
O O16 0.801104 0.184738 0.385880
#
# Coordination Sequence:
#
# PCOD9110592 Si02
#       8
#     2   2   2   2   2   2   2   1
#     4   9  20  39  63  89 121 162 215 250 307 373
#     4   9  22  41  62  93 126 164 217 255 309 380
#     4  11  23  39  61  97 129 162 205 259 320 378
#     4  11  23  43  63  92 129 169 210 263 323 366
#     4  10  21  42  64  93 126 168 214 262 308 375
#     4  10  23  43  64  93 129 162 214 265 309 384
#     4   9  19  42  63  87 124 164 202 262 304 374
#     4  10  20  42  64  92 124 164 210 258 312 366
#
# _framework density 24.766734
#
# number of rings (size 3 to 8) (size 9 to 14) (size 15 to 20)
#    0.000    2.133    1.333    1.200    1.867    5.333 
#   14.400    0.000    0.000    0.000    0.000    0.000 
#    0.000    0.000    0.000    0.000    0.000    0.000 
#
# Total GULP energy -83576.556847 kJ/mol
# GULP energy per Si atom -5571.770456 kJ/mol
# Density = 2.471036 g / cm^3
# Si number density = 24.766734 Si / 1000 Ang^3
#
#
#
# Elastic Constant Matrix: (Units=GPa)
#
#
# Indices 1 2 3 4 5 6 
#
# 1 118.9183 21.9982 46.9380 3.1389 10.7432 -36.8926
# 2 21.9982 102.2171 8.8642 -0.1318 0.5617 -37.3734
# 3 46.9380 8.8642 65.1937 9.9339 -9.4152 -9.3984
# 4 3.1389 -0.1318 9.9339 49.5530 -10.5862 -9.4937
# 5 10.7432 0.5617 -9.4152 -10.5862 31.0878 9.0508
# 6 -36.8926 -37.3734 -9.3984 -9.4937 9.0508 42.1333
#
#
#
# Elastic Compliance Matrix: (Units=1/GPa)
#
#
# Indices 1 2 3 4 5 6 
#
# 1 0.026184 0.007463 -0.019211 0.003243 -0.022896 0.030911
# 2 0.007463 0.017388 -0.006350 0.003085 -0.010612 0.023517
# 3 -0.019211 -0.006350 0.030672 -0.004581 0.020618 -0.021074
# 4 0.003243 0.003085 -0.004581 0.023237 0.002665 0.009217
# 5 -0.022896 -0.010612 0.020618 0.002665 0.058122 -0.036748
# 6 0.030911 0.023517 -0.021074 0.009217 -0.036748 0.076930
#
#
# Mechanical properties :
#
#
# Convention : Reuss Voigt Hill
#
# Bulk Modulus (GPa) = 26.28294 49.10332 37.69313
# Shear Modulus (GPa) = 17.76757 38.45673 28.11215
#
# Velocity S-wave (km/s) = 2.68133 3.94478 3.37275
# Velocity P-wave (km/s) = 4.49681 6.37320 5.51539
#
# Compressibility (1/GPa) = 0.03804750
#
# Stress axis : x y z
#
# Youngs Moduli (GPa) = 38.19142 57.50969 32.60345
#
# Poissons Ratio (x) = -0.42918 0.62635
# Poissons Ratio (y) = -0.28501 0.20702
# Poissons Ratio (z) = 0.73370 0.36517
#
# Static dielectric constant tensor:
#      x y z
#    x 1.948000 0.059870 0.010520 
#    y 0.059870 2.191200 0.011930 
#    z 0.010520 0.011930 1.962150 
# 
# From -- ./inp_files/116041.got.cif
#   From: 2010.05.17/outbox.cif.g08.bks.cpg/sg2_59_cif.got.tgz:116041.got - 2010.06.03 11:33:40.
