data_PCOD9110221
_publ_section_title
;
Structure prediction by ZEFSAII (Michael W. Deem and Ramdas Pophale) SiO2 
 PCOD9110221
Probable space group: P -1
;
_chemical_formula_sum "Si O2"
_cell_formula_units_Z 14
_cell_length_a 7.622368
_cell_length_b 9.106655
_cell_length_c 8.986407
_cell_angle_alpha 118.769515
_cell_angle_beta 99.769511
_cell_angle_gamma 73.352391
_cell_volume 523.492297
_symmetry_space_group_name_H-M "P -1"
_symmetry_group_IT_number 2
_symmetry_cell_setting 'triclinic'
loop_
_space_group_symop_operation_xyz
x,y,z
-x,-y,-z
loop_
_atom_site_type_symbol
_atom_site_label
_atom_site_fract_x
_atom_site_fract_y
_atom_site_fract_z
Si Si1 0.774346 0.429808 0.327018
Si Si2 0.500000 0.500000 0.500000
Si Si3 0.000000 0.500000 0.000000
Si Si4 0.554487 0.143569 0.422292
Si Si5 0.937990 0.346800 0.617088
Si Si6 0.745584 0.104564 0.991695
Si Si7 0.319961 0.167680 0.926109
Si Si8 0.200609 0.006281 0.377096
O O1 0.565516 0.531891 0.346160
O O2 0.916412 0.536744 0.349654
O O3 0.819743 0.248195 0.162799
O O4 0.773478 0.417723 0.507103
O O5 0.507438 0.293216 0.367424
O O6 0.910633 0.394198 0.806217
O O7 0.182497 0.343408 0.953720
O O8 0.363874 0.105703 0.427171
O O9 0.664891 0.971560 0.270204
O O10 0.699968 0.147970 0.575889
O O11 0.033672 0.152372 0.488030
O O12 0.751977 0.925547 0.990105
O O13 0.528403 0.181864 0.978941
O O14 0.837635 0.062885 0.823633
#
# Coordination Sequence:
#
# PCOD9110221 Si02
#       8
#     2   1   1   2   2   2   2   2
#     4  11  26  44  70 105 142 190 240 292 365 436
#     4  12  22  42  74 106 138 186 246 298 350 440
#     4  12  26  46  70 104 150 192 234 304 366 432
#     4  10  20  41  71 102 140 185 237 295 358 429
#     4  11  26  47  69 101 145 191 235 301 369 431
#     4  10  23  43  74 103 140 187 246 295 353 437
#     4  10  22  42  72 103 144 190 237 291 364 431
#     4  10  21  43  71 100 140 188 233 296 361 430
#
# _framework density 26.743469999999999
#
# number of rings (size 3 to 8) (size 9 to 14) (size 15 to 20)
#    0.000    1.429    4.286    0.000    6.000    0.571 
#    2.571    2.857    0.000    0.000    0.000    0.000 
#    0.000    0.000    0.000    0.000    0.000    0.000 
#
# Total GULP energy -77991.067330 kJ/mol
# GULP energy per Si atom -5570.790524 kJ/mol
# Density = 2.668260 g / cm^3
# Si number density = 26.743470 Si / 1000 Ang^3
#
#
#
# Elastic Constant Matrix: (Units=GPa)
#
#
# Indices 1 2 3 4 5 6 
#
# 1 101.1862 55.6028 21.8922 19.7623 9.2980 -17.1667
# 2 55.6028 98.6148 29.2334 16.5598 -1.8874 -33.4958
# 3 21.8922 29.2334 178.8690 23.8731 6.2977 -19.0996
# 4 19.7623 16.5598 23.8731 34.9980 -12.7574 -4.9927
# 5 9.2980 -1.8874 6.2977 -12.7574 28.6838 9.0542
# 6 -17.1667 -33.4958 -19.0996 -4.9927 9.0542 48.1417
#
#
#
# Elastic Compliance Matrix: (Units=1/GPa)
#
#
# Indices 1 2 3 4 5 6 
#
# 1 0.017685 -0.007839 0.001338 -0.011343 -0.012388 0.002536
# 2 -0.007839 0.018426 -0.000685 -0.002553 -0.000241 0.009534
# 3 0.001338 -0.000685 0.007037 -0.007017 -0.006162 0.003223
# 4 -0.011343 -0.002553 -0.007017 0.050799 0.030507 -0.009074
# 5 -0.012388 -0.000241 -0.006162 0.030507 0.058476 -0.014864
# 6 0.002536 0.009534 0.003223 -0.009074 -0.014864 0.031443
#
#
# Mechanical properties :
#
#
# Convention : Reuss Voigt Hill
#
# Bulk Modulus (GPa) = 34.75226 65.79187 50.27207
# Shear Modulus (GPa) = 24.05838 40.49414 32.27626
#
# Velocity S-wave (km/s) = 3.00258 3.89545 3.47779
# Velocity P-wave (km/s) = 5.00435 6.69980 5.91316
#
# Compressibility (1/GPa) = 0.02877510
#
# Stress axis : x y z
#
# Youngs Moduli (GPa) = 56.54574 54.27252 142.11317
#
# Poissons Ratio (x) = 0.42543 -0.19008
# Poissons Ratio (y) = 0.44324 0.09731
# Poissons Ratio (z) = -0.07563 0.03716
#
# Static dielectric constant tensor:
#      x y z
#    x 2.989950 -0.570140 -0.140110 
#    y -0.570140 2.703640 0.081230 
#    z -0.140110 0.081230 2.217000 
# 
# From -- ./inp_files/156202.got.cif
#   From: 2010.05.17/outbox.cif.g08.bks.cpg/sg2_79_cif.got.tgz:156202.got - 2010.06.03 11:33:40.
