data_PCOD9110121
_publ_section_title
;
Structure prediction by ZEFSAII (Michael W. Deem and Ramdas Pophale) SiO2 
 PCOD9110121
Probable space group: P -1
;
_chemical_formula_sum "Si O2"
_cell_formula_units_Z 16
_cell_length_a 7.466226
_cell_length_b 13.157852
_cell_length_c 14.086547
_cell_angle_alpha 42.922498
_cell_angle_beta 66.916437
_cell_angle_gamma 45.727568
_cell_volume 654.357767
_symmetry_space_group_name_H-M "P -1"
_symmetry_group_IT_number 2
_symmetry_cell_setting 'triclinic'
loop_
_space_group_symop_operation_xyz
x,y,z
-x,-y,-z
loop_
_atom_site_type_symbol
_atom_site_label
_atom_site_fract_x
_atom_site_fract_y
_atom_site_fract_z
Si Si1 0.935120 0.682931 0.335899
Si Si2 0.545290 0.276744 0.250411
Si Si3 0.912863 0.998234 0.201698
Si Si4 0.737710 0.798593 0.035664
Si Si5 0.955056 0.587942 0.844424
Si Si6 0.239191 0.679619 0.114895
Si Si7 0.756044 0.022164 0.558126
Si Si8 0.601905 0.115840 0.733911
O O1 0.700830 0.744455 0.275947
O O2 0.000000 0.500000 0.500000
O O3 0.159771 0.656944 0.249901
O O4 0.844691 0.858253 0.306594
O O5 0.782411 0.140934 0.222426
O O6 0.297675 0.364819 0.178576
O O7 0.495934 0.467249 0.171939
O O8 0.571439 0.147555 0.420699
O O9 0.791103 0.133248 0.038639
O O10 0.217317 0.874893 0.242237
O O11 0.796262 0.596013 0.142958
O O12 0.996998 0.736797 0.066932
O O13 0.500000 0.000000 0.000000
O O14 0.706157 0.895301 0.874291
O O15 0.876616 0.798339 0.701282
O O16 0.000000 0.500000 0.000000
O O17 0.628270 0.142635 0.599992
O O18 0.000000 0.000000 0.500000
#
# Coordination Sequence:
#
# PCOD9110121 Si02
#       8
#     2   2   2   2   2   2   2   2
#     4  12  26  46  71 102 149 196 242 300 368 439
#     4  11  24  45  73 108 144 187 243 308 366 434
#     4  11  25  44  76 106 141 191 247 304 363 432
#     4  10  20  41  69  99 133 184 241 296 342 427
#     4  11  24  42  73 106 137 193 245 293 368 437
#     4  10  23  44  72 104 140 188 244 298 366 433
#     4  12  24  44  67 105 151 182 234 306 373 427
#     4  11  23  46  71 100 147 188 244 301 361 432
#
# _framework density 24.451457999999999
#
# number of rings (size 3 to 8) (size 9 to 14) (size 15 to 20)
#    0.000    1.000    3.750    2.625    0.000    3.500 
#    0.000    2.500    0.000    0.000    0.000    0.000 
#    0.000    0.000    0.000    0.000    0.000    0.000 
#
# Total GULP energy -89294.091617 kJ/mol
# GULP energy per Si atom -5580.880726 kJ/mol
# Density = 2.439581 g / cm^3
# Si number density = 24.451458 Si / 1000 Ang^3
#
#
#
# Elastic Constant Matrix: (Units=GPa)
#
#
# Indices 1 2 3 4 5 6 
#
# 1 79.6068 16.8126 34.6920 -17.8236 3.1143 0.5750
# 2 16.8126 105.6724 33.8380 -5.7155 -4.6259 4.7064
# 3 34.6920 33.8380 169.0474 -16.5343 11.5770 17.7009
# 4 -17.8236 -5.7155 -16.5343 42.9580 2.6512 -3.2440
# 5 3.1143 -4.6259 11.5770 2.6512 43.7138 -3.4168
# 6 0.5750 4.7064 17.7009 -3.2440 -3.4168 20.8384
#
#
#
# Elastic Compliance Matrix: (Units=1/GPa)
#
#
# Indices 1 2 3 4 5 6 
#
# 1 0.015191 -0.001465 -0.002545 0.005381 -0.000671 0.002802
# 2 -0.001465 0.010378 -0.001848 -0.000077 0.001660 -0.000473
# 3 -0.002545 -0.001848 0.007790 0.001381 -0.002657 -0.006350
# 4 0.005381 -0.000077 0.001381 0.026351 -0.002164 0.002443
# 5 -0.000671 0.001660 -0.002657 -0.002164 0.024369 0.005560
# 6 0.002802 -0.000473 -0.006350 0.002443 0.005560 0.054704
#
#
# Mechanical properties :
#
#
# Convention : Reuss Voigt Hill
#
# Bulk Modulus (GPa) = 46.20753 58.33463 52.27108
# Shear Modulus (GPa) = 31.70310 39.43430 35.56870
#
# Velocity S-wave (km/s) = 3.60470 4.02027 3.81815
# Velocity P-wave (km/s) = 6.02195 6.74235 6.39230
#
# Compressibility (1/GPa) = 0.02164149
#
# Stress axis : x y z
#
# Youngs Moduli (GPa) = 65.82739 96.36041 128.37340
#
# Poissons Ratio (x) = 0.14116 0.32677
# Poissons Ratio (y) = 0.09643 0.23727
# Poissons Ratio (z) = 0.16756 0.17810
#
# Static dielectric constant tensor:
#      x y z
#    x 1.928010 -0.001750 0.022790 
#    y -0.001750 2.091320 0.095460 
#    z 0.022790 0.095460 2.117820 
# 
# From -- ./inp_files/503790.got.cif
#   From: 2010.05.17/outbox.cif.g08.bks.cpg/sg2_252_cif.got.tgz:503790.got - 2010.06.03 11:33:40.
