data_PCOD9110257
_publ_section_title
;
Structure prediction by ZEFSAII (Michael W. Deem and Ramdas Pophale) SiO2 
 PCOD9110257
Probable space group: P -1
;
_chemical_formula_sum "Si O2"
_cell_formula_units_Z 14
_cell_length_a 23.240005
_cell_length_b 8.529375
_cell_length_c 23.703664
_cell_angle_alpha 44.169591
_cell_angle_beta 12.227409
_cell_angle_gamma 41.140746
_cell_volume 648.763626
_symmetry_space_group_name_H-M "P -1"
_symmetry_group_IT_number 2
_symmetry_cell_setting 'triclinic'
loop_
_space_group_symop_operation_xyz
x,y,z
-x,-y,-z
loop_
_atom_site_type_symbol
_atom_site_label
_atom_site_fract_x
_atom_site_fract_y
_atom_site_fract_z
Si Si1 0.664119 0.112837 0.909972
Si Si2 0.285565 0.407276 0.289449
Si Si3 0.638030 0.680646 0.639839
Si Si4 0.952292 0.212715 0.035658
Si Si5 0.205843 0.873616 0.388221
Si Si6 0.972835 0.987078 0.198262
Si Si7 0.364935 0.519322 0.561223
O O1 0.538254 0.196112 0.070975
O O2 0.477260 0.961633 0.104578
O O3 0.605121 0.366550 0.868943
O O4 0.002576 0.970761 0.612680
O O5 0.205744 0.339606 0.444239
O O6 0.000000 0.500000 0.500000
O O7 0.697742 0.411502 0.632015
O O8 0.762579 0.833508 0.440048
O O9 0.299628 0.816802 0.940581
O O10 0.977711 0.098338 0.103154
O O11 0.634001 0.422232 0.285725
O O12 0.185452 0.342645 0.773262
O O13 0.000000 0.000000 0.000000
O O14 0.000000 0.000000 0.500000
O O15 0.846065 0.203767 0.308683
O O16 0.500000 0.500000 0.500000
#
# Coordination Sequence:
#
# PCOD9110257 Si02
#       7
#     2   2   2   2   2   2   2
#     4  11  23  39  63  85 117 154 234 263 309 382
#     4  11  24  42  65  90 119 171 226 268 320 387
#     4  12  26  40  66  92 134 166 214 284 323 370
#     4  11  22  42  74 102 131 173 212 259 312 398
#     4  12  23  40  62  90 122 172 221 264 327 390
#     4  11  24  43  62 101 131 168 215 262 330 379
#     4  10  20  41  71  97 133 175 218 248 305 411
#
# _framework density 21.579508000000001
#
# number of rings (size 3 to 8) (size 9 to 14) (size 15 to 20)
#    0.000    0.857    2.857    6.000    6.000    0.000 
#    0.000    8.571    0.000    0.000    0.000    0.000 
#    0.000    0.000    0.000    0.000    0.000    0.000 
#
# Total GULP energy -78278.642747 kJ/mol
# GULP energy per Si atom -5591.331625 kJ/mol
# Density = 2.153039 g / cm^3
# Si number density = 21.579508 Si / 1000 Ang^3
#
#
#
# Elastic Constant Matrix: (Units=GPa)
#
#
# Indices 1 2 3 4 5 6 
#
# 1 23.7103 15.2807 1.4952 10.2543 1.3954 15.3976
# 2 15.2807 134.1483 37.4615 11.4531 -23.2615 21.5820
# 3 1.4952 37.4615 121.5516 2.8311 -15.6293 13.6754
# 4 10.2543 11.4531 2.8311 56.1569 7.8157 2.5520
# 5 1.3954 -23.2615 -15.6293 7.8157 15.1199 -2.8530
# 6 15.3976 21.5820 13.6754 2.5520 -2.8530 25.6155
#
#
#
# Elastic Compliance Matrix: (Units=1/GPa)
#
#
# Indices 1 2 3 4 5 6 
#
# 1 0.080726 -0.004115 0.004180 -0.010097 -0.013252 -0.047759
# 2 -0.004115 0.013001 -0.000518 -0.004579 0.021196 -0.005387
# 3 0.004180 -0.000518 0.010308 -0.002201 0.009419 -0.006310
# 4 -0.010097 -0.004579 -0.002201 0.023042 -0.019038 0.006687
# 5 -0.013252 0.021196 0.009419 -0.019038 0.119605 0.000296
# 6 -0.047759 -0.005387 -0.006310 0.006687 0.000296 0.075022
#
#
# Mechanical properties :
#
#
# Convention : Reuss Voigt Hill
#
# Bulk Modulus (GPa) = 9.69666 43.09833 26.39749
# Shear Modulus (GPa) = 14.00616 34.38997 24.19806
#
# Velocity S-wave (km/s) = 2.55041 3.99637 3.35228
# Velocity P-wave (km/s) = 3.62987 6.42728 5.21948
#
# Compressibility (1/GPa) = 0.10312829
#
# Stress axis : x y z
#
# Youngs Moduli (GPa) = 12.38752 76.91781 97.01572
#
# Poissons Ratio (x) = 0.31651 -0.40549
# Poissons Ratio (y) = 0.05097 0.05025
# Poissons Ratio (z) = -0.05177 0.03984
#
# Static dielectric constant tensor:
#      x y z
#    x 1.817930 -0.010160 0.000950 
#    y -0.010160 1.811280 0.030770 
#    z 0.000950 0.030770 1.818630 
# 
# From -- ./inp_files/621102.got.cif
#   From: 2010.05.17/outbox.cif.g08.bks.cpg/sg2_311_cif.got.tgz:621102.got - 2010.06.03 11:33:40.
