data_PCOD9110309
_publ_section_title
;
Structure prediction by ZEFSAII (Michael W. Deem and Ramdas Pophale) SiO2 
 PCOD9110309
Probable space group: P -1
;
_chemical_formula_sum "Si O2"
_cell_formula_units_Z 12
_cell_length_a 8.245097
_cell_length_b 11.956471
_cell_length_c 9.066053
_cell_angle_alpha 139.501725
_cell_angle_beta 67.002227
_cell_angle_gamma 85.752513
_cell_volume 418.840936
_symmetry_space_group_name_H-M "P -1"
_symmetry_group_IT_number 2
_symmetry_cell_setting 'triclinic'
loop_
_space_group_symop_operation_xyz
x,y,z
-x,-y,-z
loop_
_atom_site_type_symbol
_atom_site_label
_atom_site_fract_x
_atom_site_fract_y
_atom_site_fract_z
Si Si1 0.052733 0.740056 0.149450
Si Si2 0.055019 0.596894 0.710413
Si Si3 0.021507 0.881575 0.610341
Si Si4 0.423542 0.002257 0.694008
Si Si5 0.470636 0.830907 0.918421
Si Si6 0.526906 0.420549 0.741781
O O1 0.002136 0.755331 0.356242
O O2 0.919459 0.983509 0.371095
O O3 0.017584 0.606595 0.913011
O O4 0.319167 0.627983 0.937804
O O5 0.327000 0.424787 0.437080
O O6 0.000000 0.500000 0.500000
O O7 0.840399 0.852429 0.021532
O O8 0.203859 0.717429 0.502795
O O9 0.776363 0.070838 0.948007
O O10 0.517466 0.755228 0.441422
O O11 0.500000 0.000000 0.500000
O O12 0.511693 0.113278 0.864355
O O13 0.500000 0.000000 0.000000
O O14 0.500000 0.500000 0.000000
#
# Coordination Sequence:
#
# PCOD9110309 Si02
#       6
#     2   2   2   2   2   2
#     4  10  20  41  72  99 134 177 241 286 345 399
#     4  10  22  41  63  96 140 180 223 279 352 411
#     4  10  22  42  71  99 136 180 233 295 338 414
#     4  11  23  43  71  99 141 184 236 294 341 413
#     4  11  25  43  64 100 144 186 228 280 363 424
#     4  10  22  40  69 107 130 173 239 290 342 407
#
# _framework density 28.650497999999999
#
# number of rings (size 3 to 8) (size 9 to 14) (size 15 to 20)
#    0.000    1.667    1.667    2.000    4.667    3.333 
#    6.000    7.500    0.000    0.000    0.000    0.000 
#    0.000    0.000    0.000    0.000    0.000    0.000 
#
# Total GULP energy -66901.786331 kJ/mol
# GULP energy per Si atom -5575.148861 kJ/mol
# Density = 2.858529 g / cm^3
# Si number density = 28.650498 Si / 1000 Ang^3
#
#
#
# Elastic Constant Matrix: (Units=GPa)
#
#
# Indices 1 2 3 4 5 6 
#
# 1 72.6940 19.6602 55.1146 9.9312 -10.4444 -17.4121
# 2 19.6602 101.1386 39.1545 18.9438 2.1514 -17.4195
# 3 55.1146 39.1545 183.4952 17.0523 -8.8306 -18.1931
# 4 9.9312 18.9438 17.0523 44.0689 -26.0845 3.1234
# 5 -10.4444 2.1514 -8.8306 -26.0845 93.4223 -0.6599
# 6 -17.4121 -17.4195 -18.1931 3.1234 -0.6599 52.4396
#
#
#
# Elastic Compliance Matrix: (Units=1/GPa)
#
#
# Indices 1 2 3 4 5 6 
#
# 1 0.019200 -0.000755 -0.004942 -0.001662 0.001265 0.004525
# 2 -0.000755 0.012489 -0.001609 -0.006147 -0.002215 0.003678
# 3 -0.004942 -0.001609 0.007427 -0.001186 -0.000141 0.000470
# 4 -0.001662 -0.006147 -0.001186 0.031620 0.008638 -0.004780
# 5 0.001265 -0.002215 -0.000141 0.008638 0.013290 -0.000712
# 6 0.004525 0.003678 0.000470 -0.004780 -0.000712 0.022233
#
#
# Mechanical properties :
#
#
# Convention : Reuss Voigt Hill
#
# Bulk Modulus (GPa) = 40.80868 65.02071 52.91469
# Shear Modulus (GPa) = 38.74819 54.21273 46.48046
#
# Velocity S-wave (km/s) = 3.68155 4.35467 4.03218
# Velocity P-wave (km/s) = 5.68738 6.93022 6.33933
#
# Compressibility (1/GPa) = 0.02450459
#
# Stress axis : x y z
#
# Youngs Moduli (GPa) = 52.08375 80.06999 134.63788
#
# Poissons Ratio (x) = 0.06049 0.66535
# Poissons Ratio (y) = 0.03934 0.21659
# Poissons Ratio (z) = 0.25738 0.12881
#
# Static dielectric constant tensor:
#      x y z
#    x 2.417700 -0.018440 -0.044570 
#    y -0.018440 2.221960 -0.026220 
#    z -0.044570 -0.026220 2.228840 
# 
# From -- ./inp_files/155015.got.cif
#   From: 2010.05.17/outbox.cif.g08.bks.cpg/sg2_78_cif.got.tgz:155015.got - 2010.06.03 11:33:40.
