data_PCOD9110241
_publ_section_title
;
Structure prediction by ZEFSAII (Michael W. Deem and Ramdas Pophale) SiO2 
 PCOD9110241
Probable space group: P -1
;
_chemical_formula_sum "Si O2"
_cell_formula_units_Z 16
_cell_length_a 19.557252
_cell_length_b 12.171426
_cell_length_c 8.603018
_cell_angle_alpha 128.825312
_cell_angle_beta 129.733855
_cell_angle_gamma 27.646145
_cell_volume 720.092821
_symmetry_space_group_name_H-M "P -1"
_symmetry_group_IT_number 2
_symmetry_cell_setting 'triclinic'
loop_
_space_group_symop_operation_xyz
x,y,z
-x,-y,-z
loop_
_atom_site_type_symbol
_atom_site_label
_atom_site_fract_x
_atom_site_fract_y
_atom_site_fract_z
Si Si1 0.125883 0.945640 0.198656
Si Si2 0.851279 0.116015 0.451510
Si Si3 0.132094 0.226034 0.286920
Si Si4 0.336926 0.172200 0.707115
Si Si5 0.186599 0.359823 0.976828
Si Si6 0.723872 0.011834 0.019635
Si Si7 0.593922 0.593445 0.933371
Si Si8 0.372391 0.378764 0.348081
O O1 0.134226 0.923473 0.377071
O O2 0.280002 0.687915 0.119312
O O3 0.102393 0.136772 0.283554
O O4 0.000000 0.000000 0.000000
O O5 0.830305 0.995179 0.229546
O O6 0.697909 0.405695 0.462132
O O7 0.000000 0.000000 0.500000
O O8 0.197013 0.282420 0.511230
O O9 0.979103 0.444062 0.160821
O O10 0.259660 0.011794 0.161127
O O11 0.305023 0.180243 0.849423
O O12 0.491824 0.894408 0.636457
O O13 0.350579 0.323455 0.852835
O O14 0.219337 0.210787 0.029531
O O15 0.227018 0.465590 0.181152
O O16 0.557670 0.247354 0.055230
O O17 0.572524 0.635234 0.752338
#
# Coordination Sequence:
#
# PCOD9110241 Si02
#       8
#     2   2   2   2   2   2   2   2
#     4  11  24  45  67  97 136 170 216 274 333 389
#     4  11  25  43  69  96 128 176 223 265 325 395
#     4  12  27  40  65 101 135 171 218 274 334 380
#     4  11  21  42  67 100 126 168 219 277 332 380
#     4  11  21  45  69  92 129 176 222 268 320 399
#     4  12  24  43  65  97 132 174 225 265 323 392
#     4  10  22  41  70  94 130 174 219 265 326 397
#     4  10  20  41  71  94 128 168 223 266 321 400
#
# _framework density 22.219356999999999
#
# number of rings (size 3 to 8) (size 9 to 14) (size 15 to 20)
#    0.000    1.000    2.500    6.000    1.750    3.000 
#    2.250    0.000    0.000    0.000    0.000    0.000 
#    0.000    0.000    0.000    0.000    0.000    0.000 
#
# Total GULP energy -89530.807199 kJ/mol
# GULP energy per Si atom -5595.675450 kJ/mol
# Density = 2.216878 g / cm^3
# Si number density = 22.219357 Si / 1000 Ang^3
#
#
#
# Elastic Constant Matrix: (Units=GPa)
#
#
# Indices 1 2 3 4 5 6 
#
# 1 99.1339 10.1427 22.9927 6.2978 1.2299 -22.7591
# 2 10.1427 73.1045 -19.5743 5.3323 -8.1366 -10.5283
# 3 22.9927 -19.5743 49.5328 1.6226 -0.3468 -1.1103
# 4 6.2978 5.3323 1.6226 28.8611 -11.7080 0.3030
# 5 1.2299 -8.1366 -0.3468 -11.7080 17.6523 -3.1875
# 6 -22.7591 -10.5283 -1.1103 0.3030 -3.1875 25.6288
#
#
#
# Elastic Compliance Matrix: (Units=1/GPa)
#
#
# Indices 1 2 3 4 5 6 
#
# 1 0.015059 -0.002457 -0.007599 -0.003575 -0.002579 0.011756
# 2 -0.002457 0.018492 0.008653 0.000925 0.010764 0.007117
# 3 -0.007599 0.008653 0.027119 0.000681 0.005254 -0.001373
# 4 -0.003575 0.000925 0.000681 0.048633 0.033085 0.000775
# 5 -0.002579 0.010764 0.005254 0.033085 0.086128 0.012680
# 6 0.011756 0.007117 -0.001373 0.000775 0.012680 0.053890
#
#
# Mechanical properties :
#
#
# Convention : Reuss Voigt Hill
#
# Bulk Modulus (GPa) = 17.28168 27.65482 22.46825
# Shear Modulus (GPa) = 18.42187 28.30909 23.36548
#
# Velocity S-wave (km/s) = 2.88252 3.57329 3.24633
# Velocity P-wave (km/s) = 4.34433 5.43119 4.91788
#
# Compressibility (1/GPa) = 0.05786474
#
# Stress axis : x y z
#
# Youngs Moduli (GPa) = 66.40452 54.07600 36.87420
#
# Poissons Ratio (x) = 0.13288 0.28020
# Poissons Ratio (y) = 0.16318 -0.31908
# Poissons Ratio (z) = 0.50460 -0.46793
#
# Static dielectric constant tensor:
#      x y z
#    x 1.785380 -0.015850 -0.005950 
#    y -0.015850 1.841630 0.005510 
#    z -0.005950 0.005510 1.803430 
# 
# From -- ./inp_files/190167.got.cif
#   From: 2010.05.17/outbox.cif.g08.bks.cpg/sg2_96_cif.got.tgz:190167.got - 2010.06.03 11:33:40.
