data_PCOD9110695
_publ_section_title
;
Structure prediction by ZEFSAII (Michael W. Deem and Ramdas Pophale) SiO2 
 PCOD9110695
Probable space group: P -1
;
_chemical_formula_sum "Si O2"
_cell_formula_units_Z 16
_cell_length_a 21.847874
_cell_length_b 5.652500
_cell_length_c 9.604530
_cell_angle_alpha 122.986899
_cell_angle_beta 44.358209
_cell_angle_gamma 114.678434
_cell_volume 694.772303
_symmetry_space_group_name_H-M "P -1"
_symmetry_group_IT_number 2
_symmetry_cell_setting 'triclinic'
loop_
_space_group_symop_operation_xyz
x,y,z
-x,-y,-z
loop_
_atom_site_type_symbol
_atom_site_label
_atom_site_fract_x
_atom_site_fract_y
_atom_site_fract_z
Si Si1 0.641588 0.097065 0.040131
Si Si2 0.522676 0.373599 0.138666
Si Si3 0.221671 0.378285 0.390017
Si Si4 0.031969 0.386549 0.265684
Si Si5 0.617550 0.911603 0.306766
Si Si6 0.966909 0.746320 0.230838
Si Si7 0.620361 0.328679 0.669555
Si Si8 0.217437 0.401210 0.084799
O O1 0.714551 0.342354 0.974995
O O2 0.698686 0.829351 0.829642
O O3 0.558319 0.110783 0.079493
O O4 0.606655 0.117650 0.259874
O O5 0.562566 0.633805 0.253092
O O6 0.423666 0.440108 0.284863
O O7 0.574855 0.360433 0.903434
O O8 0.138118 0.263367 0.575922
O O9 0.275577 0.631964 0.460973
O O10 0.190237 0.435575 0.301860
O O11 0.136718 0.385099 0.107575
O O12 0.000000 0.500000 0.500000
O O13 0.006023 0.625852 0.273707
O O14 0.996366 0.055010 0.218623
O O15 0.598861 0.040751 0.527394
O O16 0.721259 0.860590 0.115118
O O17 0.000000 0.500000 0.000000
#
# Coordination Sequence:
#
# PCOD9110695 Si02
#       8
#     2   2   2   2   2   2   2   2
#     4  10  20  42  65  92 135 167 224 287 333 411
#     4  10  22  44  61  96 134 175 222 276 340 413
#     4  11  23  43  66  94 134 178 221 285 352 415
#     4  12  25  46  75 101 133 198 239 287 365 430
#     4  10  22  41  63  97 131 172 224 282 332 417
#     4  12  29  47  69 108 150 182 238 308 356 426
#     4  11  22  41  67  93 134 177 219 277 350 413
#     4  10  22  41  68  94 130 174 231 282 340 422
#
# _framework density 23.029126000000002
#
# number of rings (size 3 to 8) (size 9 to 14) (size 15 to 20)
#    0.000    1.250    5.000    1.875    5.250    1.000 
#    6.750    0.000    0.000    0.000    0.000    0.000 
#    0.000    0.000    0.000    0.000    0.000    0.000 
#
# Total GULP energy -89247.271490 kJ/mol
# GULP energy per Si atom -5577.954468 kJ/mol
# Density = 2.297671 g / cm^3
# Si number density = 23.029126 Si / 1000 Ang^3
#
#
#
# Elastic Constant Matrix: (Units=GPa)
#
#
# Indices 1 2 3 4 5 6 
#
# 1 117.1631 4.6081 21.8523 -4.3128 -17.0162 -0.1955
# 2 4.6081 67.3622 5.7653 0.6021 1.8728 13.5980
# 3 21.8523 5.7653 84.0582 14.6140 5.8909 11.1879
# 4 -4.3128 0.6021 14.6140 26.9664 15.4467 -0.5364
# 5 -17.0162 1.8728 5.8909 15.4467 33.8338 -4.0497
# 6 -0.1955 13.5980 11.1879 -0.5364 -4.0497 37.9397
#
#
#
# Elastic Compliance Matrix: (Units=1/GPa)
#
#
# Indices 1 2 3 4 5 6 
#
# 1 0.010034 -0.000974 -0.003225 0.000047 0.005877 0.001980
# 2 -0.000974 0.016198 -0.000015 0.000783 -0.002466 -0.006058
# 3 -0.003225 -0.000015 0.014819 -0.008010 -0.001096 -0.004612
# 4 0.000047 0.000783 -0.008010 0.054992 -0.023692 0.000330
# 5 0.005877 -0.002466 -0.001096 -0.023692 0.044330 0.005634
# 6 0.001980 -0.006058 -0.004612 0.000330 0.005634 0.030505
#
#
# Mechanical properties :
#
#
# Convention : Reuss Voigt Hill
#
# Bulk Modulus (GPa) = 30.65327 37.00387 33.82857
# Shear Modulus (GPa) = 26.29106 35.50518 30.89812
#
# Velocity S-wave (km/s) = 3.38249 3.93077 3.66689
# Velocity P-wave (km/s) = 5.34738 6.05842 5.71397
#
# Compressibility (1/GPa) = 0.03262295
#
# Stress axis : x y z
#
# Youngs Moduli (GPa) = 99.66572 61.73791 67.47995
#
# Poissons Ratio (x) = 0.06012 0.21763
# Poissons Ratio (y) = 0.09705 0.00099
# Poissons Ratio (z) = 0.32144 0.00091
#
# Static dielectric constant tensor:
#      x y z
#    x 1.699250 -0.200080 0.144950 
#    y -0.200080 1.895140 0.139980 
#    z 0.144950 0.139980 1.797670 
# 
# From -- ./inp_files/340621.got.cif
#   From: 2010.05.17/outbox.cif.g08.bks.cpg/sg2_171_cif.got.tgz:340621.got - 2010.06.03 11:33:40.
