data_PCOD9110885
_publ_section_title
;
Structure prediction by ZEFSAII (Michael W. Deem and Ramdas Pophale) SiO2 
 PCOD9110885
Probable space group: P -1
;
_chemical_formula_sum "Si O2"
_cell_formula_units_Z 14
_cell_length_a 15.367762
_cell_length_b 7.191314
_cell_length_c 18.452362
_cell_angle_alpha 43.460278
_cell_angle_beta 157.030782
_cell_angle_gamma 137.652498
_cell_volume 528.017995
_symmetry_space_group_name_H-M "P -1"
_symmetry_group_IT_number 2
_symmetry_cell_setting 'triclinic'
loop_
_space_group_symop_operation_xyz
x,y,z
-x,-y,-z
loop_
_atom_site_type_symbol
_atom_site_label
_atom_site_fract_x
_atom_site_fract_y
_atom_site_fract_z
Si Si1 0.809059 0.629085 0.389891
Si Si2 0.322239 0.222308 0.045840
Si Si3 0.960567 0.745764 0.848557
Si Si4 0.525492 0.390343 0.459281
Si Si5 0.131077 0.262218 0.753911
Si Si6 0.695328 0.918731 0.358186
Si Si7 0.269524 0.109204 0.196270
O O1 0.737947 0.633100 0.250140
O O2 0.681139 0.771770 0.310322
O O3 0.884456 0.341904 0.545449
O O4 0.067508 0.843521 0.524860
O O5 0.376694 0.272906 0.157659
O O6 0.485449 0.039626 0.189757
O O7 0.277540 0.418060 0.891309
O O8 0.056723 0.016409 0.897332
O O9 0.697122 0.625561 0.657527
O O10 0.090854 0.924234 0.828415
O O11 0.000000 0.500000 0.000000
O O12 0.696676 0.675514 0.485116
O O13 0.379420 0.293482 0.298220
O O14 0.644980 0.164582 0.644694
O O15 0.000000 0.000000 0.000000
#
# Coordination Sequence:
#
# PCOD9110885 Si02
#       7
#     2   2   2   2   2   2   2
#     4  10  24  45  68  93 138 187 250 273 340 406
#     4  10  23  40  66  98 138 174 226 286 347 410
#     4  10  20  42  67 105 136 168 222 290 356 411
#     4  11  24  41  72 100 143 180 224 292 362 410
#     4   9  22  44  72  91 131 186 225 297 331 410
#     4  11  25  43  63 103 136 187 230 291 344 409
#     4  11  24  41  66 107 139 179 228 281 353 431
#
# _framework density 26.514247999999998
#
# number of rings (size 3 to 8) (size 9 to 14) (size 15 to 20)
#    0.857    0.857    2.857    0.000    8.000    4.000 
#    2.571    0.000    0.000    0.000    0.000    0.000 
#    0.000    0.000    0.000    0.000    0.000    0.000 
#
# Total GULP energy -78001.934906 kJ/mol
# GULP energy per Si atom -5571.566779 kJ/mol
# Density = 2.645390 g / cm^3
# Si number density = 26.514248 Si / 1000 Ang^3
#
#
#
# Elastic Constant Matrix: (Units=GPa)
#
#
# Indices 1 2 3 4 5 6 
#
# 1 142.5796 3.9697 29.2203 -13.3194 -36.7547 -4.9770
# 2 3.9697 77.5179 5.7338 -10.6453 -4.9558 15.5840
# 3 29.2203 5.7338 133.9540 -0.4691 -23.6900 5.4926
# 4 -13.3194 -10.6453 -0.4691 38.9308 6.0873 -17.4745
# 5 -36.7547 -4.9558 -23.6900 6.0873 49.3393 3.2133
# 6 -4.9770 15.5840 5.4926 -17.4745 3.2133 44.6582
#
#
#
# Elastic Compliance Matrix: (Units=1/GPa)
#
#
# Indices 1 2 3 4 5 6 
#
# 1 0.009059 0.000015 -0.001026 0.003048 0.005757 0.001909
# 2 0.000015 0.014108 -0.000172 0.001690 0.001420 -0.004341
# 3 -0.001026 -0.000172 0.008413 -0.001779 0.003610 -0.002045
# 4 0.003048 0.001690 -0.001779 0.033731 -0.003449 0.013416
# 5 0.005757 0.001420 0.003610 -0.003449 0.027092 -0.003597
# 6 0.001909 -0.004341 -0.002045 0.013416 -0.003597 0.029880
#
#
# Mechanical properties :
#
#
# Convention : Reuss Voigt Hill
#
# Bulk Modulus (GPa) = 34.23238 47.98878 41.11058
# Shear Modulus (GPa) = 37.20610 47.59416 42.40013
#
# Velocity S-wave (km/s) = 3.75006 4.24139 4.00327
# Velocity P-wave (km/s) = 5.62935 6.49033 6.07511
#
# Compressibility (1/GPa) = 0.02921211
#
# Stress axis : x y z
#
# Youngs Moduli (GPa) = 110.38916 70.88280 118.87000
#
# Poissons Ratio (x) = -0.00105 0.12199
# Poissons Ratio (y) = -0.00163 0.02046
# Poissons Ratio (z) = 0.11328 0.01220
#
# Static dielectric constant tensor:
#      x y z
#    x 2.408870 0.048040 -0.049170 
#    y 0.048040 2.125640 0.086090 
#    z -0.049170 0.086090 2.156930 
# 
# From -- ./inp_files/599714.got.cif
#   From: 2010.05.17/outbox.cif.g08.bks.cpg/sg2_300_cif.got.tgz:599714.got - 2010.06.03 11:33:40.
