data_PCOD9110000
_publ_section_title
;
Structure prediction by ZEFSAII (Michael W. Deem and Ramdas Pophale) SiO2 
 PCOD9110000
Probable space group: P -1
;
_chemical_formula_sum "Si O2"
_cell_formula_units_Z 16
_cell_length_a 9.013506
_cell_length_b 15.504017
_cell_length_c 8.844371
_cell_angle_alpha 61.154919
_cell_angle_beta 60.018334
_cell_angle_gamma 104.255531
_cell_volume 718.724165
_symmetry_space_group_name_H-M "P -1"
_symmetry_group_IT_number 2
_symmetry_cell_setting 'triclinic'
loop_
_space_group_symop_operation_xyz
x,y,z
-x,-y,-z
loop_
_atom_site_type_symbol
_atom_site_label
_atom_site_fract_x
_atom_site_fract_y
_atom_site_fract_z
Si Si1 0.558679 0.691394 0.855417
Si Si2 0.748003 0.305231 0.195046
Si Si3 0.693365 0.589883 0.659301
Si Si4 0.918186 0.547645 0.376354
Si Si5 0.730198 0.074906 0.408098
Si Si6 0.435867 0.620363 0.542690
Si Si7 0.245009 0.075910 0.242863
Si Si8 0.108158 0.099727 0.997120
O O1 0.482005 0.747162 0.728510
O O2 0.737773 0.690291 0.675992
O O3 0.626182 0.778040 0.893543
O O4 0.378267 0.539941 0.116523
O O5 0.791470 0.209721 0.300266
O O6 0.733573 0.368227 0.295562
O O7 0.918149 0.389163 0.901899
O O8 0.896394 0.640848 0.401816
O O9 0.484498 0.550043 0.696169
O O10 0.677626 0.444927 0.504377
O O11 0.000000 0.500000 0.500000
O O12 0.500000 0.000000 0.500000
O O13 0.675005 0.990831 0.655526
O O14 0.921696 0.093722 0.190954
O O15 0.681667 0.756966 0.281784
O O16 0.218256 0.063563 0.089326
O O17 0.000000 0.000000 0.500000
O O18 0.000000 0.000000 0.000000
#
# Coordination Sequence:
#
# PCOD9110000 Si02
#       8
#     2   2   2   2   2   2   2   2
#     4  10  20  41  68  98 133 177 225 275 337 417
#     4  11  23  42  68  97 138 178 225 283 348 398
#     4  10  22  39  70  95 131 180 223 274 338 413
#     4  12  24  43  66 104 139 178 228 291 349 398
#     4  11  22  43  72 100 134 183 229 288 348 398
#     4  11  25  44  68  97 141 184 228 280 340 425
#     4  10  23  41  68 100 136 180 232 278 340 414
#     4  11  25  45  70 100 137 186 233 280 340 415
#
# _framework density 22.261669000000001
#
# number of rings (size 3 to 8) (size 9 to 14) (size 15 to 20)
#    0.000    1.250    2.500    3.000    5.250    2.000 
#    4.500    2.500    0.000    0.000    0.000    0.000 
#    0.000    0.000    0.000    0.000    0.000    0.000 
#
# Total GULP energy -89270.548190 kJ/mol
# GULP energy per Si atom -5579.409262 kJ/mol
# Density = 2.221100 g / cm^3
# Si number density = 22.261669 Si / 1000 Ang^3
#
#
#
# Elastic Constant Matrix: (Units=GPa)
#
#
# Indices 1 2 3 4 5 6 
#
# 1 105.6335 44.2260 21.8509 2.5227 34.5326 -12.4969
# 2 44.2260 111.1984 33.2079 22.9026 17.7189 -18.8574
# 3 21.8509 33.2079 85.2629 13.6348 9.8956 -15.2353
# 4 2.5227 22.9026 13.6348 30.9490 -7.0893 -0.5634
# 5 34.5326 17.7189 9.8956 -7.0893 41.3485 7.9457
# 6 -12.4969 -18.8574 -15.2353 -0.5634 7.9457 42.1372
#
#
#
# Elastic Compliance Matrix: (Units=1/GPa)
#
#
# Indices 1 2 3 4 5 6 
#
# 1 0.015786 -0.002581 0.000015 -0.002402 -0.013661 0.006076
# 2 -0.002581 0.015234 -0.001247 -0.012099 -0.007464 0.006847
# 3 0.000015 -0.001247 0.014941 -0.006775 -0.005322 0.005761
# 4 -0.002402 -0.012099 -0.006775 0.048674 0.019383 -0.011581
# 5 -0.013661 -0.007464 -0.005322 0.019383 0.046827 -0.017887
# 6 0.006076 0.006847 0.005761 -0.011581 -0.017887 0.033899
#
#
# Mechanical properties :
#
#
# Convention : Reuss Voigt Hill
#
# Bulk Modulus (GPa) = 26.08609 55.62940 40.85775
# Shear Modulus (GPa) = 25.54051 36.40761 30.97406
#
# Velocity S-wave (km/s) = 3.39084 4.04844 3.73414
# Velocity P-wave (km/s) = 5.20324 6.84809 6.08153
#
# Compressibility (1/GPa) = 0.03833460
#
# Stress axis : x y z
#
# Youngs Moduli (GPa) = 63.34576 65.64060 66.92988
#
# Poissons Ratio (x) = 0.16943 -0.00100
# Poissons Ratio (y) = 0.16350 0.08349
# Poissons Ratio (z) = -0.00094 0.08188
#
# Static dielectric constant tensor:
#      x y z
#    x 1.871500 -0.037070 0.025060 
#    y -0.037070 1.802340 -0.007340 
#    z 0.025060 -0.007340 1.888340 
# 
# From -- ./inp_files/205869.got.cif
#   From: 2010.05.17/outbox.cif.g08.bks.cpg/sg2_103_cif.got.tgz:205869.got - 2010.06.03 11:33:40.
