data_PCOD9110578
_publ_section_title
;
Structure prediction by ZEFSAII (Michael W. Deem and Ramdas Pophale) SiO2 
 PCOD9110578
Probable space group: P -1
;
_chemical_formula_sum "Si O2"
_cell_formula_units_Z 16
_cell_length_a 7.650010
_cell_length_b 14.464716
_cell_length_c 12.243369
_cell_angle_alpha 47.198357
_cell_angle_beta 63.967003
_cell_angle_gamma 101.075101
_cell_volume 597.090189
_symmetry_space_group_name_H-M "P -1"
_symmetry_group_IT_number 2
_symmetry_cell_setting 'triclinic'
loop_
_space_group_symop_operation_xyz
x,y,z
-x,-y,-z
loop_
_atom_site_type_symbol
_atom_site_label
_atom_site_fract_x
_atom_site_fract_y
_atom_site_fract_z
Si Si1 0.236992 0.710318 0.812903
Si Si2 0.291620 0.452704 0.259882
Si Si3 0.309055 0.987448 0.228108
Si Si4 0.049558 0.964341 0.132187
Si Si5 0.734583 0.563164 0.472787
Si Si6 0.067431 0.476459 0.753109
Si Si7 0.544587 0.879157 0.384741
Si Si8 0.322511 0.200931 0.230520
O O1 0.372057 0.850184 0.561226
O O2 0.501625 0.751970 0.748109
O O3 0.000000 0.500000 0.000000
O O4 0.082494 0.687869 0.984017
O O5 0.372625 0.522522 0.307765
O O6 0.041297 0.222392 0.501386
O O7 0.112531 0.481404 0.232790
O O8 0.597212 0.619258 0.976870
O O9 0.491955 0.953210 0.242146
O O10 0.336792 0.066192 0.038737
O O11 0.403268 0.140412 0.162203
O O12 0.936650 0.772691 0.286473
O O13 0.864221 0.978813 0.240693
O O14 0.000000 0.000000 0.000000
O O15 0.500000 0.500000 0.500000
O O16 0.906582 0.551319 0.356928
O O17 0.379845 0.670917 0.558141
O O18 0.000000 0.000000 0.500000
#
# Coordination Sequence:
#
# PCOD9110578 Si02
#       8
#     2   2   2   2   2   2   2   2
#     4   9  20  40  68  96 130 183 229 281 350 405
#     4   9  22  41  64  94 136 179 223 288 344 416
#     4  10  24  43  66  99 134 185 237 278 361 414
#     4  11  25  41  63  99 140 175 224 296 350 414
#     4  11  21  38  62  97 126 175 231 275 355 414
#     4   9  18  38  66  92 125 175 228 278 336 417
#     4  10  20  42  64  89 137 174 226 289 338 413
#     4  11  23  42  69 105 140 181 237 293 344 421
#
# _framework density 26.796620000000001
#
# number of rings (size 3 to 8) (size 9 to 14) (size 15 to 20)
#    0.000    2.000    1.250    1.875    1.750    3.500 
#    2.250    2.500    0.000    0.000    0.000    0.000 
#    0.000    0.000    0.000    0.000    0.000    0.000 
#
# Total GULP energy -89182.388164 kJ/mol
# GULP energy per Si atom -5573.899260 kJ/mol
# Density = 2.673563 g / cm^3
# Si number density = 26.796620 Si / 1000 Ang^3
#
#
#
# Elastic Constant Matrix: (Units=GPa)
#
#
# Indices 1 2 3 4 5 6 
#
# 1 77.3235 19.1474 7.7206 14.2508 11.2376 28.1427
# 2 19.1474 125.3178 24.0317 -0.1586 7.1489 21.3810
# 3 7.7206 24.0317 92.4269 10.1017 15.1510 9.0493
# 4 14.2508 -0.1586 10.1017 46.5337 12.3568 6.8122
# 5 11.2376 7.1489 15.1510 12.3568 32.1339 0.4371
# 6 28.1427 21.3810 9.0493 6.8122 0.4371 49.2528
#
#
#
# Elastic Compliance Matrix: (Units=1/GPa)
#
#
# Indices 1 2 3 4 5 6 
#
# 1 0.017821 -0.000980 0.000858 -0.002885 -0.005180 -0.009470
# 2 -0.000980 0.009134 -0.001926 0.001584 -0.001346 -0.003258
# 3 0.000858 -0.001926 0.012412 -0.001337 -0.005186 -0.001703
# 4 -0.002885 0.001584 -0.001337 0.025217 -0.008380 -0.002207
# 5 -0.005180 -0.001346 -0.005186 -0.008380 0.038826 0.005312
# 6 -0.009470 -0.003258 -0.001703 -0.002207 0.005312 0.027700
#
#
# Mechanical properties :
#
#
# Convention : Reuss Voigt Hill
#
# Bulk Modulus (GPa) = 28.35320 44.09641 36.22480
# Shear Modulus (GPa) = 34.02221 41.86200 37.94210
#
# Velocity S-wave (km/s) = 3.56707 3.95677 3.76696
# Velocity P-wave (km/s) = 5.25064 6.11281 5.69805
#
# Compressibility (1/GPa) = 0.03526939
#
# Stress axis : x y z
#
# Youngs Moduli (GPa) = 56.11362 109.48692 80.56963
#
# Poissons Ratio (x) = 0.10727 -0.06912
# Poissons Ratio (y) = 0.05498 0.15521
# Poissons Ratio (z) = -0.04814 0.21092
#
# Static dielectric constant tensor:
#      x y z
#    x 2.078000 -0.125810 -0.126360 
#    y -0.125810 1.899850 -0.012140 
#    z -0.126360 -0.012140 2.409170 
# 
# From -- ./inp_files/402997.got.cif
#   From: 2010.05.17/outbox.cif.g08.bks.cpg/sg2_202_cif.got.tgz:402997.got - 2010.06.03 11:33:40.
