data_PCOD9110088
_publ_section_title
;
Structure prediction by ZEFSAII (Michael W. Deem and Ramdas Pophale) SiO2 
 PCOD9110088
Probable space group: P -1
;
_chemical_formula_sum "Si O2"
_cell_formula_units_Z 14
_cell_length_a 8.710410
_cell_length_b 19.903943
_cell_length_c 13.138849
_cell_angle_alpha 143.039261
_cell_angle_beta 146.974779
_cell_angle_gamma 30.499606
_cell_volume 605.428486
_symmetry_space_group_name_H-M "P -1"
_symmetry_group_IT_number 2
_symmetry_cell_setting 'triclinic'
loop_
_space_group_symop_operation_xyz
x,y,z
-x,-y,-z
loop_
_atom_site_type_symbol
_atom_site_label
_atom_site_fract_x
_atom_site_fract_y
_atom_site_fract_z
Si Si1 0.518750 0.084515 0.791978
Si Si2 0.242977 0.914323 0.867258
Si Si3 0.189821 0.515012 0.533107
Si Si4 0.059163 0.984284 0.391544
Si Si5 0.647736 0.691476 0.280659
Si Si6 0.694480 0.342399 0.459284
Si Si7 0.606548 0.626866 0.963948
O O1 0.436059 0.234572 0.921475
O O2 0.242688 0.061375 0.569748
O O3 0.572798 0.051170 0.903716
O O4 0.863494 0.990576 0.801298
O O5 0.402837 0.752494 0.758620
O O6 0.211709 0.959772 0.786974
O O7 0.548402 0.372179 0.528191
O O8 0.000000 0.500000 0.500000
O O9 0.903951 0.571739 0.355090
O O10 0.312189 0.614317 0.738969
O O11 0.332197 0.822658 0.321225
O O12 0.000000 0.000000 0.500000
O O13 0.551677 0.635972 0.066044
O O14 0.902534 0.726890 0.416855
O O15 0.500000 0.500000 0.500000
O O16 0.000000 0.500000 0.000000
#
# Coordination Sequence:
#
# PCOD9110088 Si02
#       7
#     2   2   2   2   2   2   2
#     4  11  24  43  72  99 131 182 237 286 342 422
#     4  11  23  42  69  97 132 183 240 279 345 419
#     4  11  27  44  68 104 141 181 226 296 361 406
#     4  12  27  44  67 103 147 182 227 295 354 409
#     4  11  23  45  69  98 139 183 237 280 346 430
#     4  10  20  41  69  95 131 180 230 282 337 419
#     4  12  25  43  75 103 132 183 242 286 346 428
#
# _framework density 23.124117999999999
#
# number of rings (size 3 to 8) (size 9 to 14) (size 15 to 20)
#    0.000    0.857    4.286    3.000    6.000    1.143 
#    2.571    0.000    0.000    0.000    0.000    0.000 
#    0.000    0.000    0.000    0.000    0.000    0.000 
#
# Total GULP energy -78136.829069 kJ/mol
# GULP energy per Si atom -5581.202076 kJ/mol
# Density = 2.307149 g / cm^3
# Si number density = 23.124118 Si / 1000 Ang^3
#
#
#
# Elastic Constant Matrix: (Units=GPa)
#
#
# Indices 1 2 3 4 5 6 
#
# 1 94.4344 15.3744 8.7550 3.5931 -40.1090 -3.5952
# 2 15.3744 80.5145 6.9301 20.8766 -17.6376 -10.7565
# 3 8.7550 6.9301 102.5460 -2.9605 -33.1648 -0.1541
# 4 3.5931 20.8766 -2.9605 39.2530 3.2563 -16.3263
# 5 -40.1090 -17.6376 -33.1648 3.2563 50.2884 1.1908
# 6 -3.5952 -10.7565 -0.1541 -16.3263 1.1908 26.8399
#
#
#
# Elastic Compliance Matrix: (Units=1/GPa)
#
#
# Indices 1 2 3 4 5 6 
#
# 1 0.017397 0.000877 0.003835 -0.003160 0.016917 0.000031
# 2 0.000877 0.016270 0.001044 -0.008926 0.007652 0.000875
# 3 0.003835 0.001044 0.013289 -0.000974 0.012255 -0.000128
# 4 -0.003160 -0.008926 -0.000974 0.039788 -0.009357 0.020611
# 5 0.016917 0.007652 0.012255 -0.009357 0.044803 -0.002277
# 6 0.000031 0.000875 -0.000128 0.020611 -0.002277 0.050251
#
#
# Mechanical properties :
#
#
# Convention : Reuss Voigt Hill
#
# Bulk Modulus (GPa) = 17.10303 37.73489 27.41896
# Shear Modulus (GPa) = 26.34698 39.70531 33.02614
#
# Velocity S-wave (km/s) = 3.37912 4.14823 3.78327
# Velocity P-wave (km/s) = 4.75782 6.26878 5.56482
#
# Compressibility (1/GPa) = 0.05846916
#
# Stress axis : x y z
#
# Youngs Moduli (GPa) = 57.47979 61.46206 75.25082
#
# Poissons Ratio (x) = -0.05391 -0.28861
# Poissons Ratio (y) = -0.05042 -0.07855
# Poissons Ratio (z) = -0.22045 -0.06416
#
# Static dielectric constant tensor:
#      x y z
#    x 1.944150 0.033140 -0.078270 
#    y 0.033140 1.918650 -0.049000 
#    z -0.078270 -0.049000 1.894000 
# 
# From -- ./inp_files/404969.got.cif
#   From: 2010.05.17/outbox.cif.g08.bks.cpg/sg2_203_cif.got.tgz:404969.got - 2010.06.03 11:33:40.
