data_PCOD9110887
_publ_section_title
;
Structure prediction by ZEFSAII (Michael W. Deem and Ramdas Pophale) SiO2 
 PCOD9110887
Probable space group: P -1
;
_chemical_formula_sum "Si O2"
_cell_formula_units_Z 12
_cell_length_a 19.371952
_cell_length_b 14.712530
_cell_length_c 8.961156
_cell_angle_alpha 137.938827
_cell_angle_beta 144.934931
_cell_angle_gamma 19.343806
_cell_volume 480.000910
_symmetry_space_group_name_H-M "P -1"
_symmetry_group_IT_number 2
_symmetry_cell_setting 'triclinic'
loop_
_space_group_symop_operation_xyz
x,y,z
-x,-y,-z
loop_
_atom_site_type_symbol
_atom_site_label
_atom_site_fract_x
_atom_site_fract_y
_atom_site_fract_z
Si Si1 0.602683 0.952040 0.781626
Si Si2 0.376464 0.255268 0.167598
Si Si3 0.192423 0.960271 0.358006
Si Si4 0.416032 0.567363 0.763438
Si Si5 0.115280 0.535669 0.769982
Si Si6 0.943677 0.863684 0.329342
O O1 0.639179 0.780699 0.735406
O O2 0.500000 0.000000 0.500000
O O3 0.381114 0.261697 0.831553
O O4 0.840243 0.813523 0.060003
O O5 0.576956 0.167932 0.376972
O O6 0.140787 0.523141 0.977070
O O7 0.500000 0.000000 0.000000
O O8 0.076789 0.070505 0.451915
O O9 0.026768 0.201790 0.238244
O O10 0.665632 0.307761 0.789376
O O11 0.221956 0.631334 0.491796
O O12 0.247765 0.855411 0.759535
O O13 0.500000 0.500000 0.000000
O O14 0.000000 0.500000 0.500000
#
# Coordination Sequence:
#
# PCOD9110887 Si02
#       6
#     2   2   2   2   2   2
#     4  11  24  44  75 112 149 190 240 300 373 436
#     4  10  20  42  67 107 142 182 236 285 366 448
#     4  12  24  46  79 103 147 194 241 305 373 437
#     4  11  30  50  74 106 144 196 260 307 359 429
#     4  11  21  40  71 103 146 189 233 284 366 446
#     4  11  26  53  73 106 150 193 251 303 364 442
#
# _framework density 24.999953000000001
#
# number of rings (size 3 to 8) (size 9 to 14) (size 15 to 20)
#    0.000    1.000    6.667    0.500    4.667    4.667 
#    0.000    2.500    0.000    0.000    0.000    0.000 
#    0.000    0.000    0.000    0.000    0.000    0.000 
#
# Total GULP energy -67100.512209 kJ/mol
# GULP energy per Si atom -5591.709351 kJ/mol
# Density = 2.494305 g / cm^3
# Si number density = 24.999953 Si / 1000 Ang^3
#
#
#
# Elastic Constant Matrix: (Units=GPa)
#
#
# Indices 1 2 3 4 5 6 
#
# 1 107.5889 13.1686 38.2735 -7.8860 -32.6997 -3.1623
# 2 13.1686 95.5474 -10.2835 -27.4709 -15.0645 -10.1221
# 3 38.2735 -10.2835 126.2919 -4.3837 -23.9648 4.2309
# 4 -7.8860 -27.4709 -4.3837 37.3371 9.6013 -3.2261
# 5 -32.6997 -15.0645 -23.9648 9.6013 64.7989 -7.3286
# 6 -3.1623 -10.1221 4.2309 -3.2261 -7.3286 57.5890
#
#
#
# Elastic Compliance Matrix: (Units=1/GPa)
#
#
# Indices 1 2 3 4 5 6 
#
# 1 0.011955 -0.000932 -0.002806 0.000372 0.004875 0.001340
# 2 -0.000932 0.014573 0.002207 0.010407 0.002560 0.003257
# 3 -0.002806 0.002207 0.009451 0.001528 0.002358 -0.000075
# 4 0.000372 0.010407 0.001528 0.035434 -0.001681 0.003508
# 5 0.004875 0.002560 0.002358 -0.001681 0.019947 0.002989
# 6 0.001340 0.003257 -0.000075 0.003508 0.002989 0.018593
#
#
# Mechanical properties :
#
#
# Convention : Reuss Voigt Hill
#
# Bulk Modulus (GPa) = 30.37925 45.74949 38.06437
# Shear Modulus (GPa) = 40.32683 51.16298 45.74490
#
# Velocity S-wave (km/s) = 4.02067 4.52876 4.28226
# Velocity P-wave (km/s) = 5.80797 6.75912 6.30152
#
# Compressibility (1/GPa) = 0.03291720
#
# Stress axis : x y z
#
# Youngs Moduli (GPa) = 83.64538 68.62039 105.80722
#
# Poissons Ratio (x) = 0.06397 0.29689
# Poissons Ratio (y) = 0.07797 -0.23352
# Poissons Ratio (z) = 0.23470 -0.15145
#
# Static dielectric constant tensor:
#      x y z
#    x 1.964440 -0.088670 0.015900 
#    y -0.088670 2.139560 0.144130 
#    z 0.015900 0.144130 2.091610 
# 
# From -- ./inp_files/196705.got.cif
#   From: 2010.05.17/outbox.cif.g08.bks.cpg/sg2_99_cif.got.tgz:196705.got - 2010.06.03 11:33:40.
