data_PCOD9110891
_publ_section_title
;
Structure prediction by ZEFSAII (Michael W. Deem and Ramdas Pophale) SiO2 
 PCOD9110891
Probable space group: P -1
;
_chemical_formula_sum "Si O2"
_cell_formula_units_Z 16
_cell_length_a 9.359613
_cell_length_b 16.530839
_cell_length_c 11.133038
_cell_angle_alpha 137.281416
_cell_angle_beta 99.057661
_cell_angle_gamma 114.620775
_cell_volume 700.762491
_symmetry_space_group_name_H-M "P -1"
_symmetry_group_IT_number 2
_symmetry_cell_setting 'triclinic'
loop_
_space_group_symop_operation_xyz
x,y,z
-x,-y,-z
loop_
_atom_site_type_symbol
_atom_site_label
_atom_site_fract_x
_atom_site_fract_y
_atom_site_fract_z
Si Si1 0.279322 0.643428 0.338537
Si Si2 0.940087 0.058113 0.700762
Si Si3 0.278329 0.930838 0.099347
Si Si4 0.397345 0.472491 0.276137
Si Si5 0.539372 0.209376 0.977745
Si Si6 0.216329 0.563957 0.972766
Si Si7 0.790488 0.588533 0.549934
Si Si8 0.012574 0.842135 0.453798
O O1 0.336734 0.544129 0.263693
O O2 0.013094 0.512101 0.187650
O O3 0.473226 0.845206 0.657764
O O4 0.296222 0.671872 0.227932
O O5 0.820915 0.053158 0.786921
O O6 0.912788 0.102682 0.616838
O O7 0.872425 0.874691 0.490772
O O8 0.225103 0.252223 0.974569
O O9 0.340108 0.840672 0.055061
O O10 0.073074 0.786635 0.814923
O O11 0.667470 0.605468 0.465343
O O12 0.312522 0.454702 0.378169
O O13 0.582078 0.292238 0.942069
O O14 0.685618 0.393232 0.283884
O O15 0.258545 0.006911 0.740916
O O16 0.130379 0.371967 0.772320
#
# Coordination Sequence:
#
# PCOD9110891 Si02
#       8
#     2   2   2   2   2   2   2   2
#     4  11  23  41  63 100 128 167 221 264 325 390
#     4  10  21  40  64  94 129 171 208 267 325 383
#     4  11  24  41  66  93 130 175 218 265 321 377
#     4  10  20  42  67  86 132 172 214 266 321 376
#     4  12  24  43  66  99 133 170 215 266 324 384
#     4  11  24  40  67  98 134 167 208 273 325 390
#     4  10  23  42  64  90 124 180 216 264 318 376
#     4  11  22  41  66  97 132 167 212 262 329 389
#
# _framework density 22.832272
#
# number of rings (size 3 to 8) (size 9 to 14) (size 15 to 20)
#    0.000    1.250    3.750    2.625    1.750    2.500 
#    2.250    3.750    0.000    0.000    0.000    0.000 
#    0.000    0.000    0.000    0.000    0.000    0.000 
#
# Total GULP energy -89478.255687 kJ/mol
# GULP energy per Si atom -5592.390980 kJ/mol
# Density = 2.278030 g / cm^3
# Si number density = 22.832272 Si / 1000 Ang^3
#
#
#
# Elastic Constant Matrix: (Units=GPa)
#
#
# Indices 1 2 3 4 5 6 
#
# 1 77.3425 12.9611 17.4405 5.9609 4.3112 -24.6159
# 2 12.9611 21.4321 -0.0687 6.8981 9.7468 -13.5168
# 3 17.4405 -0.0687 121.2783 10.7035 13.1213 -1.8788
# 4 5.9609 6.8981 10.7035 24.3147 -2.7288 -7.5225
# 5 4.3112 9.7468 13.1213 -2.7288 32.7150 -5.6265
# 6 -24.6159 -13.5168 -1.8788 -7.5225 -5.6265 26.5711
#
#
#
# Elastic Compliance Matrix: (Units=1/GPa)
#
#
# Indices 1 2 3 4 5 6 
#
# 1 0.019362 -0.002852 -0.003109 0.003261 0.002879 0.017799
# 2 -0.002852 0.083929 0.005051 -0.018544 -0.022992 0.030291
# 3 -0.003109 0.005051 0.009890 -0.006560 -0.006083 -0.002757
# 4 0.003261 -0.018544 -0.006560 0.053552 0.014133 0.011278
# 5 0.002879 -0.022992 -0.006083 0.014133 0.041219 0.003270
# 6 0.017799 0.030291 -0.002757 0.011278 0.003270 0.073223
#
#
# Mechanical properties :
#
#
# Convention : Reuss Voigt Hill
#
# Bulk Modulus (GPa) = 8.97991 31.19096 20.08544
# Shear Modulus (GPa) = 15.61934 29.36816 22.49375
#
# Velocity S-wave (km/s) = 2.61835 3.59033 3.14215
# Velocity P-wave (km/s) = 3.61698 5.55679 4.68831
#
# Compressibility (1/GPa) = 0.11135963
#
# Stress axis : x y z
#
# Youngs Moduli (GPa) = 51.64815 11.91482 101.11304
#
# Poissons Ratio (x) = 0.03399 0.31441
# Poissons Ratio (y) = 0.14732 -0.51075
# Poissons Ratio (z) = 0.16060 -0.06018
#
# Static dielectric constant tensor:
#      x y z
#    x 1.859080 -0.000360 0.028720 
#    y -0.000360 1.828380 -0.009060 
#    z 0.028720 -0.009060 1.875960 
# 
# From -- ./inp_files/258015.got.cif
#   From: 2010.05.17/outbox.cif.g08.bks.cpg/sg2_130_cif.got.tgz:258015.got - 2010.06.03 11:33:40.
