data_PCOD9110090
_publ_section_title
;
Structure prediction by ZEFSAII (Michael W. Deem and Ramdas Pophale) SiO2 
 PCOD9110090
Probable space group: P -1
;
_chemical_formula_sum "Si O2"
_cell_formula_units_Z 16
_cell_length_a 8.382237
_cell_length_b 16.129066
_cell_length_c 15.773809
_cell_angle_alpha 32.425949
_cell_angle_beta 49.703050
_cell_angle_gamma 74.157325
_cell_volume 649.554609
_symmetry_space_group_name_H-M "P -1"
_symmetry_group_IT_number 2
_symmetry_cell_setting 'triclinic'
loop_
_space_group_symop_operation_xyz
x,y,z
-x,-y,-z
loop_
_atom_site_type_symbol
_atom_site_label
_atom_site_fract_x
_atom_site_fract_y
_atom_site_fract_z
Si Si1 0.136461 0.726130 0.787266
Si Si2 0.410400 0.764216 0.191572
Si Si3 0.159129 0.337870 0.572548
Si Si4 0.958198 0.911102 0.327205
Si Si5 0.040865 0.719774 0.005099
Si Si6 0.470924 0.961540 0.772026
Si Si7 0.518775 0.735074 0.376803
Si Si8 0.912011 0.939324 0.678310
O O1 0.358126 0.889568 0.498542
O O2 0.913907 0.757086 0.848282
O O3 0.226891 0.758259 0.826833
O O4 0.000000 0.500000 0.000000
O O5 0.356213 0.578169 0.320510
O O6 0.442231 0.733054 0.307310
O O7 0.150543 0.742629 0.268597
O O8 0.718868 0.985124 0.877891
O O9 0.214694 0.243294 0.711554
O O10 0.216880 0.270642 0.523820
O O11 0.882061 0.878622 0.480715
O O12 0.971210 0.100011 0.138745
O O13 0.744979 0.489593 0.300978
O O14 0.187370 0.749057 0.017241
O O15 0.448095 0.091645 0.731474
O O16 0.631995 0.899316 0.811949
O O17 0.000000 0.000000 0.500000
#
# Coordination Sequence:
#
# PCOD9110090 Si02
#       8
#     2   2   2   2   2   2   2   2
#     4  10  20  41  69  95 134 173 221 275 338 405
#     4  11  26  42  65  98 136 172 232 285 333 405
#     4  11  24  43  65  95 130 182 221 280 344 393
#     4  11  22  43  67  92 131 177 222 275 338 404
#     4  11  23  39  64  97 128 175 224 271 333 408
#     4  11  22  42  68  95 133 177 220 278 340 400
#     4  12  24  43  65  98 138 175 231 281 335 404
#     4   9  22  42  69 100 135 170 222 280 333 408
#
# _framework density 24.632262000000001
#
# number of rings (size 3 to 8) (size 9 to 14) (size 15 to 20)
#    0.000    1.250    3.750    1.875    0.000    3.500 
#    0.000    0.625    0.000    0.000    0.000    0.000 
#    0.000    0.000    0.000    0.000    0.000    0.000 
#
# Total GULP energy -89417.221430 kJ/mol
# GULP energy per Si atom -5588.576339 kJ/mol
# Density = 2.457620 g / cm^3
# Si number density = 24.632262 Si / 1000 Ang^3
#
#
#
# Elastic Constant Matrix: (Units=GPa)
#
#
# Indices 1 2 3 4 5 6 
#
# 1 149.9557 63.5019 21.9199 -2.9207 -6.7619 7.1267
# 2 63.5019 199.8180 54.0226 -33.3245 1.4683 22.9328
# 3 21.9199 54.0226 73.3098 -1.8126 3.4639 16.7900
# 4 -2.9207 -33.3245 -1.8126 41.9558 9.6123 4.2853
# 5 -6.7619 1.4683 3.4639 9.6123 28.7680 3.2886
# 6 7.1267 22.9328 16.7900 4.2853 3.2886 54.8176
#
#
#
# Elastic Compliance Matrix: (Units=1/GPa)
#
#
# Indices 1 2 3 4 5 6 
#
# 1 0.008031 -0.002867 -0.000564 -0.002437 0.002877 0.000346
# 2 -0.002867 0.008699 -0.004730 0.007364 -0.002754 -0.002228
# 3 -0.000564 -0.004730 0.018011 -0.002493 -0.000859 -0.003218
# 4 -0.002437 0.007364 -0.002493 0.032323 -0.011006 -0.003867
# 5 0.002877 -0.002754 -0.000859 -0.011006 0.039411 -0.000463
# 6 0.000346 -0.002228 -0.003218 -0.003867 -0.000463 0.020445
#
#
# Mechanical properties :
#
#
# Convention : Reuss Voigt Hill
#
# Bulk Modulus (GPa) = 54.29466 77.99692 66.14579
# Shear Modulus (GPa) = 33.47128 44.01756 38.74442
#
# Velocity S-wave (km/s) = 3.69024 4.23186 3.97030
# Velocity P-wave (km/s) = 6.34406 7.45731 6.92310
#
# Compressibility (1/GPa) = 0.01841802
#
# Stress axis : x y z
#
# Youngs Moduli (GPa) = 124.51783 114.96139 55.52108
#
# Poissons Ratio (x) = 0.32960 0.03131
# Poissons Ratio (y) = 0.35699 0.26264
# Poissons Ratio (z) = 0.07023 0.54381
#
# Static dielectric constant tensor:
#      x y z
#    x 2.099170 0.005670 0.015950 
#    y 0.005670 1.987110 0.110410 
#    z 0.015950 0.110410 1.972920 
# 
# From -- ./inp_files/505239.got.cif
#   From: 2010.05.17/outbox.cif.g08.bks.cpg/sg2_253_cif.got.tgz:505239.got - 2010.06.03 11:33:40.
