data_PCOD9110177
_publ_section_title
;
Structure prediction by ZEFSAII (Michael W. Deem and Ramdas Pophale) SiO2 
 PCOD9110177
Probable space group: P -1
;
_chemical_formula_sum "Si O2"
_cell_formula_units_Z 14
_cell_length_a 11.007637
_cell_length_b 7.701373
_cell_length_c 13.514873
_cell_angle_alpha 62.751752
_cell_angle_beta 147.205847
_cell_angle_gamma 114.716510
_cell_volume 550.363697
_symmetry_space_group_name_H-M "P -1"
_symmetry_group_IT_number 2
_symmetry_cell_setting 'triclinic'
loop_
_space_group_symop_operation_xyz
x,y,z
-x,-y,-z
loop_
_atom_site_type_symbol
_atom_site_label
_atom_site_fract_x
_atom_site_fract_y
_atom_site_fract_z
Si Si1 0.315818 0.188877 0.245434
Si Si2 0.900145 0.983774 0.543285
Si Si3 0.860242 0.319887 0.902307
Si Si4 0.305975 0.957621 0.962729
Si Si5 0.528702 0.788306 0.440779
Si Si6 0.777536 0.398049 0.449465
Si Si7 0.258977 0.394961 0.829314
O O1 0.309277 0.198401 0.357331
O O2 0.527236 0.345698 0.331154
O O3 0.390070 0.980821 0.315038
O O4 0.072018 0.217699 0.027796
O O5 0.831671 0.194307 0.483042
O O6 0.091007 0.906665 0.761912
O O7 0.687424 0.831794 0.444751
O O8 0.000000 0.000000 0.500000
O O9 0.672689 0.370340 0.680835
O O10 0.000000 0.500000 0.000000
O O11 0.725365 0.195378 0.928729
O O12 0.279603 0.172789 0.933392
O O13 0.500000 0.000000 0.000000
O O14 0.751391 0.566438 0.306379
O O15 0.996793 0.444584 0.658201
O O16 0.500000 0.500000 0.000000
#
# Coordination Sequence:
#
# PCOD9110177 Si02
#       7
#     2   2   2   2   2   2   2
#     4  10  22  44  71  97 132 174 234 279 336 405
#     4  10  20  41  70  95 136 176 217 281 341 395
#     4  12  27  45  65 100 141 180 227 277 344 411
#     4  11  25  44  64  99 137 173 227 277 334 406
#     4  10  22  43  71  96 127 183 226 281 338 399
#     4   9  22  42  65 103 131 169 228 277 330 404
#     4  10  23  41  67  97 133 171 224 275 333 395
#
# _framework density 25.437722999999998
#
# number of rings (size 3 to 8) (size 9 to 14) (size 15 to 20)
#    0.000    1.714    1.429    1.286   10.000    1.714 
#    2.571    0.000    0.000    0.000    0.000    0.000 
#    0.000    0.000    0.000    0.000    0.000    0.000 
#
# Total GULP energy -78108.273917 kJ/mol
# GULP energy per Si atom -5579.162423 kJ/mol
# Density = 2.537983 g / cm^3
# Si number density = 25.437723 Si / 1000 Ang^3
#
#
#
# Elastic Constant Matrix: (Units=GPa)
#
#
# Indices 1 2 3 4 5 6 
#
# 1 110.7187 -9.2454 30.0921 10.9088 25.8038 29.0649
# 2 -9.2454 42.7174 24.8265 21.5952 12.7906 15.2214
# 3 30.0921 24.8265 176.5040 44.5103 21.8177 13.6576
# 4 10.9088 21.5952 44.5103 52.7230 10.0996 8.9997
# 5 25.8038 12.7906 21.8177 10.0996 31.9012 7.8178
# 6 29.0649 15.2214 13.6576 8.9997 7.8178 35.4819
#
#
#
# Elastic Compliance Matrix: (Units=1/GPa)
#
#
# Indices 1 2 3 4 5 6 
#
# 1 0.021025 0.020233 -0.001546 -0.004486 -0.017672 -0.020275
# 2 0.020233 0.054647 -0.001952 -0.015048 -0.024831 -0.029978
# 3 -0.001546 -0.001952 0.007656 -0.005149 -0.001783 0.000855
# 4 -0.004486 -0.015048 -0.005149 0.029144 0.002960 0.004068
# 5 -0.017672 -0.024831 -0.001783 0.002960 0.052576 0.013480
# 6 -0.020275 -0.029978 0.000855 0.004068 0.013480 0.053321
#
#
# Mechanical properties :
#
#
# Convention : Reuss Voigt Hill
#
# Bulk Modulus (GPa) = 8.56176 46.80958 27.68567
# Shear Modulus (GPa) = 22.33812 42.97235 32.65523
#
# Velocity S-wave (km/s) = 2.96657 4.11459 3.58681
# Velocity P-wave (km/s) = 3.88679 6.40427 5.29726
#
# Compressibility (1/GPa) = 0.11679848
#
# Stress axis : x y z
#
# Youngs Moduli (GPa) = 47.56294 18.29912 130.61147
#
# Poissons Ratio (x) = -0.37025 0.20188
# Poissons Ratio (y) = -0.96234 0.25500
# Poissons Ratio (z) = 0.07352 0.03573
#
# Static dielectric constant tensor:
#      x y z
#    x 2.139960 0.025070 -0.014750 
#    y 0.025070 1.983710 0.066140 
#    z -0.014750 0.066140 1.948340 
# 
# From -- ./inp_files/514151.got.cif
#   From: 2010.05.17/outbox.cif.g08.bks.cpg/sg2_258_cif.got.tgz:514151.got - 2010.06.03 11:33:40.
