data_PCOD9110981
_publ_section_title
;
Structure prediction by ZEFSAII (Michael W. Deem and Ramdas Pophale) SiO2 
 PCOD9110981
Probable space group: P -1
;
_chemical_formula_sum "Si O2"
_cell_formula_units_Z 14
_cell_length_a 15.063853
_cell_length_b 8.629366
_cell_length_c 9.483398
_cell_angle_alpha 84.870301
_cell_angle_beta 133.349566
_cell_angle_gamma 125.433549
_cell_volume 623.540403
_symmetry_space_group_name_H-M "P -1"
_symmetry_group_IT_number 2
_symmetry_cell_setting 'triclinic'
loop_
_space_group_symop_operation_xyz
x,y,z
-x,-y,-z
loop_
_atom_site_type_symbol
_atom_site_label
_atom_site_fract_x
_atom_site_fract_y
_atom_site_fract_z
Si Si1 0.794025 0.658062 0.492613
Si Si2 0.624020 0.994267 0.552728
Si Si3 0.731169 0.127890 0.114111
Si Si4 0.504161 0.433004 0.665958
Si Si5 0.313443 0.286034 0.889663
Si Si6 0.065695 0.698015 0.949791
Si Si7 0.325912 0.787765 0.670778
O O1 0.672196 0.665625 0.444005
O O2 0.827358 0.767196 0.367414
O O3 0.691493 0.410142 0.353499
O O4 0.934382 0.711793 0.749019
O O5 0.731839 0.182419 0.536148
O O6 0.500000 0.000000 0.500000
O O7 0.512429 0.763147 0.370401
O O8 0.768185 0.066966 0.813645
O O9 0.855143 0.296459 0.110378
O O10 0.776308 0.238423 0.306208
O O11 0.721049 0.930300 0.122903
O O12 0.533261 0.006463 0.887178
O O13 0.500000 0.500000 0.500000
O O14 0.657834 0.619645 0.928408
O O15 0.500000 0.500000 0.000000
O O16 0.000000 0.500000 0.000000
#
# Coordination Sequence:
#
# PCOD9110981 Si02
#       7
#     2   2   2   2   2   2   2
#     4  11  24  44  66  99 146 179 220 291 349 409
#     4  12  24  43  71  99 134 183 234 287 341 417
#     4  11  23  40  72 103 134 180 231 287 339 413
#     4  11  23  40  70 103 130 179 235 281 339 405
#     4  10  20  42  68 101 134 171 227 284 339 402
#     4  12  27  46  65 100 149 183 229 286 351 412
#     4  11  21  40  71 103 129 176 241 285 338 400
#
# _framework density 22.452434
#
# number of rings (size 3 to 8) (size 9 to 14) (size 15 to 20)
#    0.000    0.857    5.714    3.429    2.000    1.714 
#    0.000    0.000    0.000    0.000    0.000    0.000 
#    0.000    0.000    0.000    0.000    0.000    0.000 
#
# Total GULP energy -78093.479175 kJ/mol
# GULP energy per Si atom -5578.105655 kJ/mol
# Density = 2.240133 g / cm^3
# Si number density = 22.452434 Si / 1000 Ang^3
#
#
#
# Elastic Constant Matrix: (Units=GPa)
#
#
# Indices 1 2 3 4 5 6 
#
# 1 109.0065 30.3477 31.8551 -2.4700 -32.9497 -2.7269
# 2 30.3477 96.4804 17.8823 -22.5218 -13.0660 0.1315
# 3 31.8551 17.8823 129.2594 -36.7107 -9.9555 -4.2691
# 4 -2.4700 -22.5218 -36.7107 37.5940 1.1316 -7.6634
# 5 -32.9497 -13.0660 -9.9555 1.1316 40.5501 -1.8319
# 6 -2.7269 0.1315 -4.2691 -7.6634 -1.8319 43.1036
#
#
#
# Elastic Compliance Matrix: (Units=1/GPa)
#
#
# Indices 1 2 3 4 5 6 
#
# 1 0.014001 -0.003641 -0.003676 -0.005131 0.009445 0.000022
# 2 -0.003641 0.013795 0.002163 0.010465 0.001810 0.001879
# 3 -0.003676 0.002163 0.012449 0.013905 0.000536 0.003489
# 4 -0.005131 0.010465 0.013905 0.048023 0.001712 0.009632
# 5 0.009445 0.001810 0.000536 0.001712 0.033109 0.002357
# 6 0.000022 0.001879 0.003489 0.009632 0.002357 0.025354
#
#
# Mechanical properties :
#
#
# Convention : Reuss Voigt Hill
#
# Bulk Modulus (GPa) = 33.40441 54.99072 44.19757
# Shear Modulus (GPa) = 29.93694 41.22695 35.58194
#
# Velocity S-wave (km/s) = 3.65547 4.28973 3.98524
# Velocity P-wave (km/s) = 5.72073 7.00578 6.39561
#
# Compressibility (1/GPa) = 0.02993616
#
# Stress axis : x y z
#
# Youngs Moduli (GPa) = 71.42370 72.49088 80.32912
#
# Poissons Ratio (x) = 0.26396 0.29526
# Poissons Ratio (y) = 0.26007 -0.17372
# Poissons Ratio (z) = 0.26253 -0.15677
#
# Static dielectric constant tensor:
#      x y z
#    x 1.818160 -0.011270 -0.015240 
#    y -0.011270 1.997660 0.114440 
#    z -0.015240 0.114440 1.988980 
# 
# From -- ./inp_files/295676.got.cif
#   From: 2010.05.17/outbox.cif.g08.bks.cpg/sg2_148_cif.got.tgz:295676.got - 2010.06.03 11:33:40.
