data_PCOD9110876
_publ_section_title
;
Structure prediction by ZEFSAII (Michael W. Deem and Ramdas Pophale) SiO2 
 PCOD9110876
Probable space group: P -1
;
_chemical_formula_sum "Si O2"
_cell_formula_units_Z 14
_cell_length_a 7.940081
_cell_length_b 11.315704
_cell_length_c 8.689508
_cell_angle_alpha 109.638379
_cell_angle_beta 115.172011
_cell_angle_gamma 46.080396
_cell_volume 507.956069
_symmetry_space_group_name_H-M "P -1"
_symmetry_group_IT_number 2
_symmetry_cell_setting 'triclinic'
loop_
_space_group_symop_operation_xyz
x,y,z
-x,-y,-z
loop_
_atom_site_type_symbol
_atom_site_label
_atom_site_fract_x
_atom_site_fract_y
_atom_site_fract_z
Si Si1 0.762893 0.203847 0.281720
Si Si2 0.682144 0.739512 0.504427
Si Si3 0.651044 0.343633 0.601861
Si Si4 0.256249 0.460524 0.082833
Si Si5 0.604187 0.925029 0.264299
Si Si6 0.128164 0.615785 0.809306
Si Si7 0.166447 0.063769 0.952906
O O1 0.818578 0.197019 0.479550
O O2 0.475894 0.293453 0.182852
O O3 0.775442 0.331556 0.257884
O O4 0.927638 0.030715 0.182070
O O5 0.527887 0.679919 0.402561
O O6 0.735893 0.782076 0.380272
O O7 0.925305 0.619060 0.648722
O O8 0.514125 0.909762 0.611288
O O9 0.500000 0.500000 0.500000
O O10 0.767272 0.394532 0.780283
O O11 0.000000 0.500000 0.000000
O O12 0.310091 0.462803 0.924769
O O13 0.742235 0.917260 0.165030
O O14 0.385577 0.944707 0.106525
O O15 0.992565 0.769530 0.941112
#
# Coordination Sequence:
#
# PCOD9110876 Si02
#       7
#     2   2   2   2   2   2   2
#     4  11  23  45  66 100 142 180 227 285 342 408
#     4  10  20  42  67 101 141 177 228 281 345 409
#     4  10  22  43  69  96 135 182 227 286 339 412
#     4  11  26  46  70  96 134 181 235 286 352 408
#     4   9  20  36  70 101 136 184 220 284 344 400
#     4  11  24  42  66 104 137 183 228 278 338 416
#     4  10  21  40  69 102 139 179 233 279 339 403
#
# _framework density 27.561437000000002
#
# number of rings (size 3 to 8) (size 9 to 14) (size 15 to 20)
#    0.000    1.714    1.429    2.571    6.000    1.143 
#    2.571    5.000    0.000    0.000    0.000    0.000 
#    0.000    0.000    0.000    0.000    0.000    0.000 
#
# Total GULP energy -78455.091101 kJ/mol
# GULP energy per Si atom -5603.935079 kJ/mol
# Density = 2.749871 g / cm^3
# Si number density = 27.561437 Si / 1000 Ang^3
#
#
#
# Elastic Constant Matrix: (Units=GPa)
#
#
# Indices 1 2 3 4 5 6 
#
# 1 126.8930 7.6125 57.7613 5.0909 -4.0816 24.3882
# 2 7.6125 84.7992 62.8412 15.2580 5.5437 9.0797
# 3 57.7613 62.8412 202.4071 11.9127 -2.1130 10.9655
# 4 5.0909 15.2580 11.9127 71.8843 10.3656 -0.8165
# 5 -4.0816 5.5437 -2.1130 10.3656 53.9900 2.1663
# 6 24.3882 9.0797 10.9655 -0.8165 2.1663 36.2135
#
#
#
# Elastic Compliance Matrix: (Units=1/GPa)
#
#
# Indices 1 2 3 4 5 6 
#
# 1 0.010630 0.002349 -0.003331 -0.000903 0.000879 -0.006812
# 2 0.002349 0.016619 -0.005462 -0.002682 -0.001064 -0.004092
# 3 -0.003331 -0.005462 0.007517 0.000087 0.000534 0.001307
# 4 -0.000903 -0.002682 0.000087 0.014943 -0.002729 0.001755
# 5 0.000879 -0.001064 0.000534 -0.002729 0.019311 -0.001704
# 6 -0.006812 -0.004092 0.001307 0.001755 -0.001704 0.032973
#
#
# Mechanical properties :
#
#
# Convention : Reuss Voigt Hill
#
# Bulk Modulus (GPa) = 45.70899 74.50325 60.10612
# Shear Modulus (GPa) = 40.92529 51.47652 46.20090
#
# Velocity S-wave (km/s) = 3.85759 4.32638 4.09869
# Velocity P-wave (km/s) = 6.03835 7.21437 6.65240
#
# Compressibility (1/GPa) = 0.02187753
#
# Stress axis : x y z
#
# Youngs Moduli (GPa) = 94.07443 60.17081 133.04007
#
# Poissons Ratio (x) = -0.14134 0.44320
# Poissons Ratio (y) = -0.22098 0.72663
# Poissons Ratio (z) = 0.31340 0.32864
#
# Static dielectric constant tensor:
#      x y z
#    x 2.190740 -0.072590 -0.002300 
#    y -0.072590 2.203550 0.060310 
#    z -0.002300 0.060310 2.149980 
# 
# From -- ./inp_files/189514.got.cif
#   From: 2010.05.17/outbox.cif.g08.bks.cpg/sg2_95_cif.got.tgz:189514.got - 2010.06.03 11:33:40.
