data_PCOD9110367
_publ_section_title
;
Structure prediction by ZEFSAII (Michael W. Deem and Ramdas Pophale) SiO2 
 PCOD9110367
Probable space group: P -1
;
_chemical_formula_sum "Si O2"
_cell_formula_units_Z 14
_cell_length_a 11.508072
_cell_length_b 11.962385
_cell_length_c 11.405531
_cell_angle_alpha 39.270241
_cell_angle_beta 39.962256
_cell_angle_gamma 40.002419
_cell_volume 577.925337
_symmetry_space_group_name_H-M "P -1"
_symmetry_group_IT_number 2
_symmetry_cell_setting 'triclinic'
loop_
_space_group_symop_operation_xyz
x,y,z
-x,-y,-z
loop_
_atom_site_type_symbol
_atom_site_label
_atom_site_fract_x
_atom_site_fract_y
_atom_site_fract_z
Si Si1 0.280238 0.018078 0.090872
Si Si2 0.695648 0.035574 0.137169
Si Si3 0.827057 0.111943 0.295843
Si Si4 0.882771 0.293481 0.866426
Si Si5 0.094521 0.325934 0.159492
Si Si6 0.747266 0.731762 0.658984
Si Si7 0.318029 0.705437 0.493639
O O1 0.351812 0.825936 0.265367
O O2 0.269901 0.171324 0.072046
O O3 0.368575 0.013436 0.899345
O O4 0.047848 0.077458 0.191691
O O5 0.490116 0.148071 0.273063
O O6 0.792919 0.191373 0.925596
O O7 0.877307 0.838162 0.203287
O O8 0.690908 0.214355 0.431447
O O9 0.821268 0.903675 0.445620
O O10 0.794783 0.244879 0.096254
O O11 0.823341 0.521292 0.706878
O O12 0.185575 0.344467 0.197474
O O13 0.905463 0.277779 0.369903
O O14 0.000000 0.500000 0.000000
O O15 0.500000 0.500000 0.500000
#
# Coordination Sequence:
#
# PCOD9110367 Si02
#       7
#     2   2   2   2   2   2   2
#     4  10  20  42  59  85 131 159 197 255 315 371
#     4  10  24  42  66  92 122 170 213 259 309 380
#     4  10  21  42  64  89 125 166 204 261 311 372
#     4  10  24  47  63  88 132 164 213 264 313 362
#     4  11  22  38  61  90 127 163 200 259 313 370
#     4  12  22  41  68  94 123 167 215 256 318 367
#     4  11  22  37  60  93 126 163 201 252 321 373
#
# _framework density 24.224582000000002
#
# number of rings (size 3 to 8) (size 9 to 14) (size 15 to 20)
#    0.000    1.429    2.857    3.857    4.000    3.429 
#    0.000    6.429    0.000    0.000    0.000    0.000 
#    0.000    0.000    0.000    0.000    0.000    0.000 
#
# Total GULP energy -78171.943477 kJ/mol
# GULP energy per Si atom -5583.710248 kJ/mol
# Density = 2.416945 g / cm^3
# Si number density = 24.224582 Si / 1000 Ang^3
#
#
#
# Elastic Constant Matrix: (Units=GPa)
#
#
# Indices 1 2 3 4 5 6 
#
# 1 77.8624 9.9475 17.1301 20.9601 -6.2287 1.4533
# 2 9.9475 109.2699 22.9506 -2.1770 -7.6100 4.1654
# 3 17.1301 22.9506 78.4607 1.8997 -13.8273 -8.8977
# 4 20.9601 -2.1770 1.8997 32.8550 -1.3930 -2.2608
# 5 -6.2287 -7.6100 -13.8273 -1.3930 41.9016 2.7587
# 6 1.4533 4.1654 -8.8977 -2.2608 2.7587 31.9193
#
#
#
# Elastic Compliance Matrix: (Units=1/GPa)
#
#
# Indices 1 2 3 4 5 6 
#
# 1 0.016647 -0.000890 -0.003200 -0.010613 0.001061 -0.002377
# 2 -0.000890 0.009995 -0.002829 0.001293 0.000927 -0.002041
# 3 -0.003200 -0.002829 0.015435 0.001440 0.003850 0.004587
# 4 -0.010613 0.001293 0.001440 0.037447 0.000157 0.003355
# 5 0.001061 0.000927 0.003850 0.000157 0.025552 -0.001293
# 6 -0.002377 -0.002041 0.004587 0.003355 -0.001293 0.033331
#
#
# Mechanical properties :
#
#
# Convention : Reuss Voigt Hill
#
# Bulk Modulus (GPa) = 35.41149 40.62769 38.01959
# Shear Modulus (GPa) = 30.92943 35.70618 33.31780
#
# Velocity S-wave (km/s) = 3.57708 3.84339 3.71262
# Velocity P-wave (km/s) = 5.63120 6.04179 5.84010
#
# Compressibility (1/GPa) = 0.02823942
#
# Stress axis : x y z
#
# Youngs Moduli (GPa) = 60.07106 100.05080 64.78778
#
# Poissons Ratio (x) = 0.08908 0.20730
# Poissons Ratio (y) = 0.05348 0.18326
# Poissons Ratio (z) = 0.19221 0.28301
#
# Static dielectric constant tensor:
#      x y z
#    x 1.937590 0.064580 -0.076540 
#    y 0.064580 1.918530 0.063390 
#    z -0.076540 0.063390 1.796520 
# 
# From -- ./inp_files/176999.got.cif
#   From: 2010.05.17/outbox.cif.g08.bks.cpg/sg2_89_cif.got.tgz:176999.got - 2010.06.03 11:33:40.
