data_PCOD9110889
_publ_section_title
;
Structure prediction by ZEFSAII (Michael W. Deem and Ramdas Pophale) SiO2 
 PCOD9110889
Probable space group: P -1
;
_chemical_formula_sum "Si O2"
_cell_formula_units_Z 16
_cell_length_a 8.714582
_cell_length_b 11.779333
_cell_length_c 9.538559
_cell_angle_alpha 82.568510
_cell_angle_beta 70.320297
_cell_angle_gamma 51.754859
_cell_volume 719.922057
_symmetry_space_group_name_H-M "P -1"
_symmetry_group_IT_number 2
_symmetry_cell_setting 'triclinic'
loop_
_space_group_symop_operation_xyz
x,y,z
-x,-y,-z
loop_
_atom_site_type_symbol
_atom_site_label
_atom_site_fract_x
_atom_site_fract_y
_atom_site_fract_z
Si Si1 0.268091 0.885697 0.584071
Si Si2 0.482352 0.290670 0.701696
Si Si3 0.274316 0.556575 0.874855
Si Si4 0.092341 0.556111 0.362270
Si Si5 0.504049 0.665602 0.900530
Si Si6 0.140996 0.271827 0.882293
Si Si7 0.092885 0.801711 0.458229
Si Si8 0.214224 0.971180 0.904022
O O1 0.483028 0.776111 0.453845
O O2 0.150420 0.816685 0.595747
O O3 0.278000 0.914555 0.734852
O O4 0.126190 0.046604 0.533210
O O5 0.363365 0.463474 0.720408
O O6 0.343053 0.261948 0.832514
O O7 0.721905 0.212132 0.680760
O O8 0.327566 0.663267 0.881484
O O9 0.409279 0.432501 0.971885
O O10 0.036049 0.630561 0.962777
O O11 0.307817 0.417641 0.253544
O O12 0.111681 0.663401 0.430717
O O13 0.000000 0.500000 0.500000
O O14 0.960188 0.650588 0.249848
O O15 0.401213 0.829172 0.949487
O O16 0.191888 0.116000 0.899992
O O17 0.000000 0.000000 0.000000
#
# Coordination Sequence:
#
# PCOD9110889 Si02
#       8
#     2   2   2   2   2   2   2   2
#     4   9  21  38  64  94 122 171 209 253 323 368
#     4  10  21  39  68  90 128 167 206 266 321 365
#     4  10  20  42  67  86 128 166 217 249 322 372
#     4  11  23  41  65  94 128 167 213 258 316 379
#     4  10  22  38  65  94 117 177 207 256 311 382
#     4  11  24  41  63  98 128 164 210 272 308 371
#     4   9  19  41  64  89 124 171 205 254 318 377
#     4  12  24  39  65  96 128 162 217 259 310 376
#
# _framework density 22.224629
#
# number of rings (size 3 to 8) (size 9 to 14) (size 15 to 20)
#    0.750    1.000    3.750    0.375    3.500    1.500 
#    2.250    3.750    0.000    0.000    0.000    0.000 
#    0.000    0.000    0.000    0.000    0.000    0.000 
#
# Total GULP energy -89265.822318 kJ/mol
# GULP energy per Si atom -5579.113895 kJ/mol
# Density = 2.217404 g / cm^3
# Si number density = 22.224629 Si / 1000 Ang^3
#
#
#
# Elastic Constant Matrix: (Units=GPa)
#
#
# Indices 1 2 3 4 5 6 
#
# 1 68.9916 28.3938 15.9858 4.2087 -16.5670 15.8130
# 2 28.3938 134.8007 26.3770 19.2694 -8.3858 14.5139
# 3 15.9858 26.3770 62.5137 30.6855 -7.4715 1.6503
# 4 4.2087 19.2694 30.6855 36.3462 5.9240 2.5429
# 5 -16.5670 -8.3858 -7.4715 5.9240 26.2346 -7.2322
# 6 15.8130 14.5139 1.6503 2.5429 -7.2322 23.9858
#
#
#
# Elastic Compliance Matrix: (Units=1/GPa)
#
#
# Indices 1 2 3 4 5 6 
#
# 1 0.020308 -0.002213 -0.003617 0.001198 0.008211 -0.009452
# 2 -0.002213 0.009043 -0.001492 -0.003190 0.000877 -0.003308
# 3 -0.003617 -0.001492 0.034830 -0.031597 0.016864 0.009325
# 4 0.001198 -0.003190 -0.031597 0.060747 -0.026002 -0.010966
# 5 0.008211 0.000877 0.016864 -0.026002 0.057869 0.013101
# 6 -0.009452 -0.003308 0.009325 -0.010966 0.013101 0.054395
#
#
# Mechanical properties :
#
#
# Convention : Reuss Voigt Hill
#
# Bulk Modulus (GPa) = 20.18617 45.31325 32.74971
# Shear Modulus (GPa) = 18.63259 30.34996 24.49127
#
# Velocity S-wave (km/s) = 2.89861 3.69941 3.32322
# Velocity P-wave (km/s) = 4.50612 6.21937 5.43073
#
# Compressibility (1/GPa) = 0.04953887
#
# Stress axis : x y z
#
# Youngs Moduli (GPa) = 49.24120 110.58194 28.71116
#
# Poissons Ratio (x) = 0.24468 0.10384
# Poissons Ratio (y) = 0.10896 0.04283
# Poissons Ratio (z) = 0.17809 0.16496
#
# Static dielectric constant tensor:
#      x y z
#    x 1.853050 -0.034940 0.050690 
#    y -0.034940 1.928490 -0.067320 
#    z 0.050690 -0.067320 1.869690 
# 
# From -- ./inp_files/305053.got.cif
#   From: 2010.05.17/outbox.cif.g08.bks.cpg/sg2_153_cif.got.tgz:305053.got - 2010.06.03 11:33:40.
