data_PCOD9110182
_publ_section_title
;
Structure prediction by ZEFSAII (Michael W. Deem and Ramdas Pophale) SiO2 
 PCOD9110182
Probable space group: P -1
;
_chemical_formula_sum "Si O2"
_cell_formula_units_Z 14
_cell_length_a 7.961865
_cell_length_b 12.045208
_cell_length_c 16.124723
_cell_angle_alpha 151.440090
_cell_angle_beta 123.824938
_cell_angle_gamma 55.076523
_cell_volume 600.419089
_symmetry_space_group_name_H-M "P -1"
_symmetry_group_IT_number 2
_symmetry_cell_setting 'triclinic'
loop_
_space_group_symop_operation_xyz
x,y,z
-x,-y,-z
loop_
_atom_site_type_symbol
_atom_site_label
_atom_site_fract_x
_atom_site_fract_y
_atom_site_fract_z
Si Si1 0.394748 0.429466 0.160707
Si Si2 0.013841 0.168605 0.690030
Si Si3 0.142535 0.604962 0.733777
Si Si4 0.562572 0.714789 0.111633
Si Si5 0.829502 0.260725 0.435620
Si Si6 0.799875 0.998206 0.865410
Si Si7 0.413804 0.291277 0.248514
O O1 0.197483 0.641070 0.236888
O O2 0.617123 0.493137 0.283172
O O3 0.370577 0.258897 0.118761
O O4 0.419130 0.315301 0.002188
O O5 0.210640 0.275790 0.791962
O O6 0.000000 0.000000 0.500000
O O7 0.075473 0.001192 0.676989
O O8 0.014094 0.399017 0.562656
O O9 0.145772 0.761195 0.922810
O O10 0.007637 0.813084 0.776400
O O11 0.370320 0.938262 0.211554
O O12 0.500000 0.500000 0.000000
O O13 0.654428 0.256438 0.315798
O O14 0.692220 0.431854 0.579847
O O15 0.696314 0.864688 0.822321
#
# Coordination Sequence:
#
# PCOD9110182 Si02
#       7
#     2   2   2   2   2   2   2
#     4  11  25  43  69 101 136 175 229 274 330 400
#     4  12  25  44  70  98 135 184 221 271 345 399
#     4   9  21  37  63  96 130 167 217 275 319 389
#     4  11  26  47  68  97 137 178 226 278 332 402
#     4  10  21  41  66  97 137 175 216 274 340 389
#     4   9  19  41  66  90 127 176 222 264 335 383
#     4  10  20  41  70  96 129 174 228 276 322 400
#
# _framework density 23.317046999999999
#
# number of rings (size 3 to 8) (size 9 to 14) (size 15 to 20)
#    0.000    1.714    2.857    0.429    4.000    4.571 
#    2.571    0.000    0.000    0.000    0.000    0.000 
#    0.000    0.000    0.000    0.000    0.000    0.000 
#
# Total GULP energy -78197.457726 kJ/mol
# GULP energy per Si atom -5585.532695 kJ/mol
# Density = 2.326398 g / cm^3
# Si number density = 23.317047 Si / 1000 Ang^3
#
#
#
# Elastic Constant Matrix: (Units=GPa)
#
#
# Indices 1 2 3 4 5 6 
#
# 1 85.8415 62.3150 44.3691 -5.0796 33.4613 -43.8509
# 2 62.3150 154.1981 32.1305 16.3635 10.7068 -40.0677
# 3 44.3691 32.1305 78.0834 -0.5105 29.1303 -10.1804
# 4 -5.0796 16.3635 -0.5105 35.5757 1.4759 -4.0134
# 5 33.4613 10.7068 29.1303 1.4759 33.6593 -8.8289
# 6 -43.8509 -40.0677 -10.1804 -4.0134 -8.8289 64.0319
#
#
#
# Elastic Compliance Matrix: (Units=1/GPa)
#
#
# Indices 1 2 3 4 5 6 
#
# 1 0.049741 -0.012326 -0.007577 0.016500 -0.034058 0.021485
# 2 -0.012326 0.011848 -0.001810 -0.007705 0.010290 -0.000379
# 3 -0.007577 -0.001810 0.021690 0.000045 -0.011846 -0.004504
# 4 0.016500 -0.007705 0.000045 0.035348 -0.013756 0.006804
# 5 -0.034058 0.010290 -0.011846 -0.013756 0.068477 -0.010189
# 6 0.021485 -0.000379 -0.004504 0.006804 -0.010189 0.028399
#
#
# Mechanical properties :
#
#
# Convention : Reuss Voigt Hill
#
# Bulk Modulus (GPa) = 25.09248 66.19470 45.64359
# Shear Modulus (GPa) = 18.36791 38.60727 28.48759
#
# Velocity S-wave (km/s) = 2.80973 4.07351 3.49915
# Velocity P-wave (km/s) = 4.61637 7.11163 5.99525
#
# Compressibility (1/GPa) = 0.03985257
#
# Stress axis : x y z
#
# Youngs Moduli (GPa) = 20.10404 84.40068 46.10486
#
# Poissons Ratio (x) = 1.04033 0.34935
# Poissons Ratio (y) = 0.24780 0.08344
# Poissons Ratio (z) = 0.15233 0.15276
#
# Static dielectric constant tensor:
#      x y z
#    x 1.673570 0.084550 0.013200 
#    y 0.084550 1.932500 -0.036100 
#    z 0.013200 -0.036100 1.889450 
# 
# From -- ./inp_files/559446.got.cif
#   From: 2010.05.17/outbox.cif.g08.bks.cpg/sg2_280_cif.got.tgz:559446.got - 2010.06.03 11:33:40.
