data_PCOD9110004
_publ_section_title
;
Structure prediction by ZEFSAII (Michael W. Deem and Ramdas Pophale) SiO2 
 PCOD9110004
Probable space group: P -1
;
_chemical_formula_sum "Si O2"
_cell_formula_units_Z 16
_cell_length_a 8.457569
_cell_length_b 11.624672
_cell_length_c 7.988257
_cell_angle_alpha 63.838472
_cell_angle_beta 80.546567
_cell_angle_gamma 67.182418
_cell_volume 649.733396
_symmetry_space_group_name_H-M "P -1"
_symmetry_group_IT_number 2
_symmetry_cell_setting 'triclinic'
loop_
_space_group_symop_operation_xyz
x,y,z
-x,-y,-z
loop_
_atom_site_type_symbol
_atom_site_label
_atom_site_fract_x
_atom_site_fract_y
_atom_site_fract_z
Si Si1 0.033169 0.516417 0.785287
Si Si2 0.289474 0.225410 0.350978
Si Si3 0.393109 0.553812 0.721312
Si Si4 0.128071 0.989607 0.829591
Si Si5 0.437615 0.710192 0.943862
Si Si6 0.804183 0.780856 0.159786
Si Si7 0.480320 0.775989 0.382706
Si Si8 0.161936 0.041350 0.276241
O O1 0.207261 0.548839 0.716921
O O2 0.063709 0.372835 0.781050
O O3 0.870613 0.638556 0.664432
O O4 0.000000 0.500000 0.000000
O O5 0.386295 0.270695 0.152389
O O6 0.434270 0.183821 0.493448
O O7 0.220178 0.108079 0.381112
O O8 0.376207 0.644674 0.835609
O O9 0.464336 0.631567 0.521712
O O10 0.523931 0.403752 0.845877
O O11 0.162073 0.130670 0.750450
O O12 0.298781 0.858384 0.909600
O O13 0.027941 0.962152 0.704555
O O14 0.000000 0.000000 0.000000
O O15 0.614741 0.776577 0.216968
O O16 0.818909 0.861592 0.939707
O O17 0.295395 0.889715 0.318495
#
# Coordination Sequence:
#
# PCOD9110004 Si02
#       8
#     2   2   2   2   2   2   2   2
#     4  12  23  44  75 103 131 182 240 278 342 420
#     4  11  23  43  74 102 136 182 233 288 334 411
#     4  10  23  40  70 102 135 181 225 285 335 410
#     4  10  24  40  69 102 134 179 231 289 336 404
#     4  10  20  41  68  98 138 177 230 277 342 407
#     4  11  25  45  71  99 141 184 228 287 349 412
#     4  11  26  43  65 108 145 179 225 288 352 400
#     4  11  22  44  72  98 140 186 233 276 338 421
#
# _framework density 24.625485999999999
#
# number of rings (size 3 to 8) (size 9 to 14) (size 15 to 20)
#    0.000    1.250    2.500    2.250    1.750    6.000 
#    0.000    3.750    0.000    0.000    0.000    0.000 
#    0.000    0.000    0.000    0.000    0.000    0.000 
#
# Total GULP energy -89684.591221 kJ/mol
# GULP energy per Si atom -5605.286951 kJ/mol
# Density = 2.456944 g / cm^3
# Si number density = 24.625486 Si / 1000 Ang^3
#
#
#
# Elastic Constant Matrix: (Units=GPa)
#
#
# Indices 1 2 3 4 5 6 
#
# 1 142.3944 65.7007 45.5862 -28.3263 -9.4874 6.9014
# 2 65.7007 177.3996 26.9197 -33.6186 4.4586 -0.5743
# 3 45.5862 26.9197 67.4763 -2.0738 -17.6919 4.0289
# 4 -28.3263 -33.6186 -2.0738 33.8845 6.8386 14.6129
# 5 -9.4874 4.4586 -17.6919 6.8386 43.2560 -6.5781
# 6 6.9014 -0.5743 4.0289 14.6129 -6.5781 53.4798
#
#
#
# Elastic Compliance Matrix: (Units=1/GPa)
#
#
# Indices 1 2 3 4 5 6 
#
# 1 0.012393 -0.001194 -0.008046 0.011168 -0.002886 -0.004413
# 2 -0.001194 0.008387 -0.003228 0.009071 -0.004263 -0.002516
# 3 -0.008046 -0.003228 0.023772 -0.012353 0.010840 0.003922
# 4 0.011168 0.009071 -0.012353 0.058057 -0.015481 -0.018181
# 5 -0.002886 -0.004263 0.010840 -0.015481 0.030954 0.007548
# 6 -0.004413 -0.002516 0.003922 -0.018181 0.007548 0.024842
#
#
# Mechanical properties :
#
#
# Convention : Reuss Voigt Hill
#
# Bulk Modulus (GPa) = 50.98045 73.74262 62.36153
# Shear Modulus (GPa) = 26.33241 42.72832 34.53036
#
# Velocity S-wave (km/s) = 3.27359 4.17000 3.74869
# Velocity P-wave (km/s) = 5.91910 7.29355 6.64197
#
# Compressibility (1/GPa) = 0.01961536
#
# Stress axis : x y z
#
# Youngs Moduli (GPa) = 80.69172 119.23129 42.06577
#
# Poissons Ratio (x) = 0.14236 0.33847
# Poissons Ratio (y) = 0.09635 0.13580
# Poissons Ratio (z) = 0.64926 0.38490
#
# Static dielectric constant tensor:
#      x y z
#    x 1.903400 0.061170 0.003450 
#    y 0.061170 1.947070 0.083320 
#    z 0.003450 0.083320 1.995850 
# 
# From -- ./inp_files/185042.got.cif
#   From: 2010.05.17/outbox.cif.g08.bks.cpg/sg2_93_cif.got.tgz:185042.got - 2010.06.03 11:33:40.
