data_PCOD9110045
_publ_section_title
;
Structure prediction by ZEFSAII (Michael W. Deem and Ramdas Pophale) SiO2 
 PCOD9110045
Probable space group: P -1
;
_chemical_formula_sum "Si O2"
_cell_formula_units_Z 14
_cell_length_a 24.410947
_cell_length_b 5.032405
_cell_length_c 7.518467
_cell_angle_alpha 89.927446
_cell_angle_beta 143.047145
_cell_angle_gamma 87.181716
_cell_volume 553.298169
_symmetry_space_group_name_H-M "P -1"
_symmetry_group_IT_number 2
_symmetry_cell_setting 'triclinic'
loop_
_space_group_symop_operation_xyz
x,y,z
-x,-y,-z
loop_
_atom_site_type_symbol
_atom_site_label
_atom_site_fract_x
_atom_site_fract_y
_atom_site_fract_z
Si Si1 0.734530 0.169797 0.954927
Si Si2 0.823855 0.647646 0.332405
Si Si3 0.982639 0.147197 0.269267
Si Si4 0.530838 0.722466 0.899484
Si Si5 0.918515 0.633200 0.916339
Si Si6 0.405842 0.788925 0.119466
Si Si7 0.346161 0.677255 0.613577
O O1 0.809649 0.351197 0.231305
O O2 0.640927 0.256475 0.816370
O O3 0.751442 0.860469 0.052054
O O4 0.724880 0.239067 0.723028
O O5 0.918280 0.758385 0.518531
O O6 0.829194 0.652279 0.560478
O O7 0.000000 0.000000 0.500000
O O8 0.917784 0.421727 0.076058
O O9 0.945225 0.921063 0.046392
O O10 0.526188 0.452129 0.774396
O O11 0.618144 0.632410 0.254561
O O12 0.550288 0.940634 0.806167
O O13 0.441206 0.783313 0.784887
O O14 0.000000 0.500000 0.000000
O O15 0.326481 0.789586 0.759201
#
# Coordination Sequence:
#
# PCOD9110045 Si02
#       7
#     2   2   2   2   2   2   2
#     4  12  25  39  61  88 134 164 198 248 312 392
#     4  11  24  43  58  92 124 162 199 238 320 368
#     4  11  22  42  69  98 117 155 216 259 297 360
#     4   9  20  40  64  85 119 156 218 266 298 345
#     4  10  20  41  69  84 124 160 198 258 293 357
#     4  10  21  40  58  89 116 162 211 249 305 370
#     4   9  23  39  63  87 123 160 207 265 306 346
#
# _framework density 25.302810999999998
#
# number of rings (size 3 to 8) (size 9 to 14) (size 15 to 20)
#    0.857    0.857    0.000    6.000    2.000    1.143 
#    7.714    0.000    0.000    0.000    0.000    0.000 
#    0.000    0.000    0.000    0.000    0.000    0.000 
#
# Total GULP energy -78202.282573 kJ/mol
# GULP energy per Si atom -5585.877327 kJ/mol
# Density = 2.524522 g / cm^3
# Si number density = 25.302811 Si / 1000 Ang^3
#
#
#
# Elastic Constant Matrix: (Units=GPa)
#
#
# Indices 1 2 3 4 5 6 
#
# 1 52.9943 2.0241 10.2801 -10.5453 -5.7183 24.8901
# 2 2.0241 129.4913 3.7390 -4.0016 3.2941 29.5978
# 3 10.2801 3.7390 78.6816 -17.2040 -26.5206 16.3635
# 4 -10.5453 -4.0016 -17.2040 39.8465 10.5730 0.2879
# 5 -5.7183 3.2941 -26.5206 10.5730 33.3742 -2.8424
# 6 24.8901 29.5978 16.3635 0.2879 -2.8424 31.3662
#
#
#
# Elastic Compliance Matrix: (Units=1/GPa)
#
#
# Indices 1 2 3 4 5 6 
#
# 1 0.043020 0.010497 0.008758 0.015433 0.004286 -0.048365
# 2 0.010497 0.012780 0.003973 0.005970 -0.000116 -0.022528
# 3 0.008758 0.003973 0.022596 0.008787 0.014470 -0.021256
# 4 0.015433 0.005970 0.008787 0.034791 -0.003955 -0.023142
# 5 0.004286 -0.000116 0.014470 -0.003955 0.042871 -0.006919
# 6 -0.048365 -0.022528 -0.021256 -0.023142 -0.006919 0.102193
#
#
# Mechanical properties :
#
#
# Convention : Reuss Voigt Hill
#
# Bulk Modulus (GPa) = 8.00950 32.58374 20.29662
# Shear Modulus (GPa) = 19.73079 37.25898 28.49489
#
# Velocity S-wave (km/s) = 2.79550 3.84151 3.35946
# Velocity P-wave (km/s) = 3.68674 5.70804 4.80488
#
# Compressibility (1/GPa) = 0.12485172
#
# Stress axis : x y z
#
# Youngs Moduli (GPa) = 23.24523 78.24541 44.25660
#
# Poissons Ratio (x) = -0.82137 -0.38761
# Poissons Ratio (y) = -0.24401 -0.17581
# Poissons Ratio (z) = -0.20359 -0.31083
#
# Static dielectric constant tensor:
#      x y z
#    x 2.024360 0.016910 -0.023950 
#    y 0.016910 2.000050 -0.051850 
#    z -0.023950 -0.051850 2.202790 
# 
# From -- ./inp_files/358089.got.cif
#   From: 2010.05.17/outbox.cif.g08.bks.cpg/sg2_180_cif.got.tgz:358089.got - 2010.06.03 11:33:40.
