data_PCOD9110199
_publ_section_title
;
Structure prediction by ZEFSAII (Michael W. Deem and Ramdas Pophale) SiO2 
 PCOD9110199
Probable space group: P -1
;
_chemical_formula_sum "Si O2"
_cell_formula_units_Z 16
_cell_length_a 12.700198
_cell_length_b 10.813423
_cell_length_c 5.648217
_cell_angle_alpha 117.838473
_cell_angle_beta 86.196373
_cell_angle_gamma 73.074915
_cell_volume 637.167181
_symmetry_space_group_name_H-M "P -1"
_symmetry_group_IT_number 2
_symmetry_cell_setting 'triclinic'
loop_
_space_group_symop_operation_xyz
x,y,z
-x,-y,-z
loop_
_atom_site_type_symbol
_atom_site_label
_atom_site_fract_x
_atom_site_fract_y
_atom_site_fract_z
Si Si1 0.656127 0.432486 0.630868
Si Si2 0.222462 0.128377 0.037199
Si Si3 0.020611 0.206680 0.761004
Si Si4 0.894989 0.049194 0.876831
Si Si5 0.510656 0.748023 0.444845
Si Si6 0.082552 0.406481 0.605991
Si Si7 0.441791 0.201778 0.012497
Si Si8 0.741074 0.458862 0.139781
O O1 0.567540 0.350747 0.605397
O O2 0.600188 0.614608 0.800595
O O3 0.712376 0.388702 0.324622
O O4 0.732994 0.394113 0.821768
O O5 0.211997 0.974333 0.003044
O O6 0.177232 0.255071 0.357341
O O7 0.337645 0.143926 0.948525
O O8 0.122803 0.182532 0.906388
O O9 0.068639 0.070078 0.447163
O O10 0.008222 0.351408 0.742909
O O11 0.909271 0.195552 0.892025
O O12 0.000000 0.000000 0.000000
O O13 0.504690 0.840824 0.770721
O O14 0.637418 0.624319 0.293559
O O15 0.485995 0.835551 0.275053
O O16 0.151314 0.499244 0.785488
O O17 0.000000 0.500000 0.500000
#
# Coordination Sequence:
#
# PCOD9110199 Si02
#       8
#     2   2   2   2   2   2   2   2
#     4  10  17  28  45  61  85 120 157 194 241 288
#     4  10  18  30  46  66  91 126 164 197 241 284
#     4   9  17  31  47  63  87 118 164 201 241 281
#     4   8  16  29  48  67  83 112 158 201 248 288
#     4  10  17  27  43  64  86 121 152 191 243 291
#     4  11  22  32  44  64  95 136 173 200 227 272
#     4  10  17  25  41  63  93 116 152 185 232 292
#     4  10  18  30  42  62  87 121 165 196 231 274
#
# _framework density 25.111148
#
# number of rings (size 3 to 8) (size 9 to 14) (size 15 to 20)
#    0.000    2.250    2.500    5.250    1.750    0.500 
#    0.000    0.000    0.000    0.000    0.000    0.000 
#    0.000    0.000    0.000   12.375    6.000    0.500 
#
# Total GULP energy -89423.501727 kJ/mol
# GULP energy per Si atom -5588.968858 kJ/mol
# Density = 2.505399 g / cm^3
# Si number density = 25.111148 Si / 1000 Ang^3
#
#
#
# Elastic Constant Matrix: (Units=GPa)
#
#
# Indices 1 2 3 4 5 6 
#
# 1 88.3525 48.1353 28.8374 3.6114 10.4743 30.6503
# 2 48.1353 129.8180 29.2366 -10.9465 -3.8139 43.1799
# 3 28.8374 29.2366 144.1494 -21.8499 10.5937 12.4774
# 4 3.6114 -10.9465 -21.8499 40.0966 9.7576 4.2363
# 5 10.4743 -3.8139 10.5937 9.7576 42.5724 -0.3764
# 6 30.6503 43.1799 12.4774 4.2363 -0.3764 41.4029
#
#
#
# Elastic Compliance Matrix: (Units=1/GPa)
#
#
# Indices 1 2 3 4 5 6 
#
# 1 0.017291 -0.003382 -0.002034 -0.001785 -0.003717 -0.008512
# 2 -0.003382 0.013415 -0.000357 0.004803 0.000917 -0.011863
# 3 -0.002034 -0.000357 0.008604 0.005638 -0.002977 -0.001319
# 4 -0.001785 0.004803 0.005638 0.032365 -0.008029 -0.008771
# 5 -0.003717 0.000917 -0.002977 -0.008029 0.027100 0.003760
# 6 -0.008512 -0.011863 -0.001319 -0.008771 0.003760 0.044155
#
#
# Mechanical properties :
#
#
# Convention : Reuss Voigt Hill
#
# Bulk Modulus (GPa) = 36.01670 63.85982 49.93826
# Shear Modulus (GPa) = 30.53801 41.88842 36.21321
#
# Velocity S-wave (km/s) = 3.49107 4.08869 3.80164
# Velocity P-wave (km/s) = 5.53390 6.91202 6.26099
#
# Compressibility (1/GPa) = 0.02776490
#
# Stress axis : x y z
#
# Youngs Moduli (GPa) = 57.83356 74.54251 116.22452
#
# Poissons Ratio (x) = 0.25210 0.23638
# Poissons Ratio (y) = 0.19559 0.04148
# Poissons Ratio (z) = 0.11762 0.02661
#
# Static dielectric constant tensor:
#      x y z
#    x 2.002990 -0.051640 -0.023060 
#    y -0.051640 2.061160 -0.004220 
#    z -0.023060 -0.004220 2.092290 
# 
# From -- ./inp_files/66869.got.cif
#   From: 2010.05.17/outbox.cif.g08.bks.cpg/sg2_34_cif.got.tgz:66869.got - 2010.06.03 11:33:40.
