data_PCOD9110953
_publ_section_title
;
Structure prediction by ZEFSAII (Michael W. Deem and Ramdas Pophale) SiO2 
 PCOD9110953
Probable space group: P -1
;
_chemical_formula_sum "Si O2"
_cell_formula_units_Z 16
_cell_length_a 12.174861
_cell_length_b 15.630874
_cell_length_c 9.377449
_cell_angle_alpha 48.543118
_cell_angle_beta 113.516804
_cell_angle_gamma 149.386001
_cell_volume 609.125246
_symmetry_space_group_name_H-M "P -1"
_symmetry_group_IT_number 2
_symmetry_cell_setting 'triclinic'
loop_
_space_group_symop_operation_xyz
x,y,z
-x,-y,-z
loop_
_atom_site_type_symbol
_atom_site_label
_atom_site_fract_x
_atom_site_fract_y
_atom_site_fract_z
Si Si1 0.842978 0.376932 0.908454
Si Si2 0.808487 0.090088 0.182539
Si Si3 0.565020 0.191951 0.462106
Si Si4 0.590560 0.950821 0.758005
Si Si5 0.285993 0.569411 0.456991
Si Si6 0.229575 0.254557 0.197909
Si Si7 0.498896 0.512429 0.654012
Si Si8 0.180886 0.076077 0.101969
O O1 0.868355 0.499402 0.671475
O O2 0.849881 0.256203 0.976245
O O3 0.578949 0.180900 0.050232
O O4 0.000000 0.500000 0.000000
O O5 0.043072 0.206070 0.152704
O O6 0.700693 0.014756 0.373018
O O7 0.569820 0.835294 0.271861
O O8 0.545018 0.218239 0.262098
O O9 0.742873 0.393892 0.445421
O O10 0.636759 0.120121 0.562384
O O11 0.812837 0.052057 0.781599
O O12 0.303828 0.451469 0.633871
O O13 0.279819 0.264082 0.378157
O O14 0.140949 0.080684 0.239156
O O15 0.500000 0.500000 0.000000
O O16 0.500000 0.500000 0.500000
O O17 0.431547 0.335259 0.883799
O O18 0.000000 0.000000 0.000000
#
# Coordination Sequence:
#
# PCOD9110953 Si02
#       8
#     2   2   2   2   2   2   2   2
#     4  11  24  39  70 101 130 180 220 294 342 401
#     4   9  22  41  71  94 134 176 234 266 351 403
#     4   8  20  40  70  96 123 176 216 290 325 393
#     4  10  20  42  67  96 137 160 232 272 338 397
#     4  10  22  44  66  98 134 175 233 275 345 403
#     4  10  24  43  66  96 138 180 222 275 334 411
#     4  11  25  43  65  94 142 178 225 288 332 400
#     4  11  26  42  68 101 135 187 221 274 346 418
#
# _framework density 26.267175000000002
#
# number of rings (size 3 to 8) (size 9 to 14) (size 15 to 20)
#    0.750    1.250    0.000    1.875    8.750    1.500 
#    4.500    0.625    0.000    0.000    0.000    0.000 
#    0.000    0.000    0.000    0.000    0.000    0.000 
#
# Total GULP energy -89340.864240 kJ/mol
# GULP energy per Si atom -5583.804015 kJ/mol
# Density = 2.620739 g / cm^3
# Si number density = 26.267175 Si / 1000 Ang^3
#
#
#
# Elastic Constant Matrix: (Units=GPa)
#
#
# Indices 1 2 3 4 5 6 
#
# 1 193.9674 51.1758 40.0177 19.1276 16.7258 36.5589
# 2 51.1758 84.3863 26.8436 21.1998 -13.4865 26.3083
# 3 40.0177 26.8436 98.2518 25.2718 12.2106 17.2608
# 4 19.1276 21.1998 25.2718 41.1297 -1.1643 -4.6860
# 5 16.7258 -13.4865 12.2106 -1.1643 43.6016 -0.0127
# 6 36.5589 26.3083 17.2608 -4.6860 -0.0127 39.2799
#
#
#
# Elastic Compliance Matrix: (Units=1/GPa)
#
#
# Indices 1 2 3 4 5 6 
#
# 1 0.007527 -0.002741 -0.000215 -0.002677 -0.003748 -0.005396
# 2 -0.002741 0.021697 -0.000739 -0.010711 0.007680 -0.012932
# 3 -0.000215 -0.000739 0.014664 -0.009440 -0.004507 -0.006876
# 4 -0.002677 -0.010711 -0.009440 0.039023 0.001405 0.018469
# 5 -0.003748 0.007680 -0.004507 0.001405 0.028048 0.000502
# 6 -0.005396 -0.012932 -0.006876 0.018469 0.000502 0.044367
#
#
# Mechanical properties :
#
#
# Convention : Reuss Voigt Hill
#
# Bulk Modulus (GPa) = 27.39822 68.07552 47.73687
# Shear Modulus (GPa) = 28.59068 42.04014 35.31541
#
# Velocity S-wave (km/s) = 3.30276 4.00494 3.67068
# Velocity P-wave (km/s) = 4.99975 6.88178 6.01483
#
# Compressibility (1/GPa) = 0.03649872
#
# Stress axis : x y z
#
# Youngs Moduli (GPa) = 132.85216 46.08883 68.19596
#
# Poissons Ratio (x) = 0.12631 0.01463
# Poissons Ratio (y) = 0.36410 0.05042
# Poissons Ratio (z) = 0.02851 0.03408
#
# Static dielectric constant tensor:
#      x y z
#    x 1.906780 0.095860 0.069080 
#    y 0.095860 2.116810 -0.161930 
#    z 0.069080 -0.161930 2.069030 
# 
# From -- ./inp_files/279102.got.cif
#   From: 2010.05.17/outbox.cif.g08.bks.cpg/sg2_140_cif.got.tgz:279102.got - 2010.06.03 11:33:40.
