data_PCOD9110101
_publ_section_title
;
Structure prediction by ZEFSAII (Michael W. Deem and Ramdas Pophale) SiO2 
 PCOD9110101
Probable space group: P -1
;
_chemical_formula_sum "Si O2"
_cell_formula_units_Z 16
_cell_length_a 10.966718
_cell_length_b 10.682018
_cell_length_c 6.769283
_cell_angle_alpha 84.305560
_cell_angle_beta 111.004840
_cell_angle_gamma 67.673804
_cell_volume 658.877089
_symmetry_space_group_name_H-M "P -1"
_symmetry_group_IT_number 2
_symmetry_cell_setting 'triclinic'
loop_
_space_group_symop_operation_xyz
x,y,z
-x,-y,-z
loop_
_atom_site_type_symbol
_atom_site_label
_atom_site_fract_x
_atom_site_fract_y
_atom_site_fract_z
Si Si1 0.887659 0.159605 0.961892
Si Si2 0.638706 0.980425 0.454264
Si Si3 0.342148 0.212869 0.848516
Si Si4 0.353239 0.732758 0.506427
Si Si5 0.842278 0.308462 0.283286
Si Si6 0.869261 0.747111 0.911864
Si Si7 0.091717 0.378099 0.422386
Si Si8 0.589307 0.572847 0.935900
O O1 0.729643 0.225116 0.756371
O O2 0.855791 0.181799 0.171740
O O3 0.981987 0.244212 0.954122
O O4 0.000000 0.000000 0.000000
O O5 0.615117 0.929703 0.230344
O O6 0.772633 0.870714 0.681336
O O7 0.500000 0.000000 0.500000
O O8 0.655162 0.122059 0.439327
O O9 0.253760 0.319420 0.605683
O O10 0.228419 0.230270 0.955587
O O11 0.436857 0.283190 0.989158
O O12 0.249752 0.686053 0.580845
O O13 0.519645 0.618334 0.669335
O O14 0.005097 0.284478 0.422752
O O15 0.755133 0.454688 0.086040
O O16 0.900429 0.613928 0.809694
O O17 0.000000 0.500000 0.500000
O O18 0.500000 0.500000 0.000000
#
# Coordination Sequence:
#
# PCOD9110101 Si02
#       8
#     2   2   2   2   2   2   2   2
#     4  11  23  42  66  97 137 170 216 277 318 391
#     4  11  25  42  66  97 130 172 222 270 330 390
#     4  11  23  43  69  94 134 172 216 279 328 389
#     4  11  24  42  67  94 130 177 220 266 333 390
#     4  10  23  43  66  99 135 171 219 267 329 393
#     4  10  23  41  64 102 127 168 223 263 332 394
#     4  10  20  41  69  96 134 169 214 277 324 390
#     4  10  23  44  65  95 128 174 225 266 329 391
#
# _framework density 24.283739000000001
#
# number of rings (size 3 to 8) (size 9 to 14) (size 15 to 20)
#    0.000    1.500    2.500    1.500    1.750    5.500 
#    2.250    1.250    0.000    0.000    0.000    0.000 
#    0.000    0.000    0.000    0.000    0.000    0.000 
#
# Total GULP energy -89224.531858 kJ/mol
# GULP energy per Si atom -5576.533241 kJ/mol
# Density = 2.422847 g / cm^3
# Si number density = 24.283739 Si / 1000 Ang^3
#
#
#
# Elastic Constant Matrix: (Units=GPa)
#
#
# Indices 1 2 3 4 5 6 
#
# 1 77.7408 -1.0031 14.0643 13.9638 1.6810 11.8056
# 2 -1.0031 53.4761 26.7159 15.2703 1.2436 3.8962
# 3 14.0643 26.7159 113.2194 15.1952 19.6165 8.2217
# 4 13.9638 15.2703 15.1952 53.1313 -9.7458 3.1996
# 5 1.6810 1.2436 19.6165 -9.7458 47.1240 10.2067
# 6 11.8056 3.8962 8.2217 3.1996 10.2067 23.8148
#
#
#
# Elastic Compliance Matrix: (Units=1/GPa)
#
#
# Indices 1 2 3 4 5 6 
#
# 1 0.014906 0.002621 -0.001617 -0.003618 0.000872 -0.007148
# 2 0.002621 0.022999 -0.004939 -0.005551 0.000852 -0.002976
# 3 -0.001617 -0.004939 0.011381 -0.002351 -0.005073 0.000170
# 4 -0.003618 -0.005551 -0.002351 0.023405 0.006630 -0.002473
# 5 0.000872 0.000852 -0.005073 0.006630 0.027103 -0.011327
# 6 -0.007148 -0.002976 0.000170 -0.002473 -0.011327 0.051149
#
#
# Mechanical properties :
#
#
# Convention : Reuss Voigt Hill
#
# Bulk Modulus (GPa) = 24.14530 35.99894 30.07212
# Shear Modulus (GPa) = 28.96582 38.45797 33.71190
#
# Velocity S-wave (km/s) = 3.45745 3.98388 3.72996
# Velocity P-wave (km/s) = 5.08952 6.00152 5.56423
#
# Compressibility (1/GPa) = 0.04141593
#
# Stress axis : x y z
#
# Youngs Moduli (GPa) = 67.08722 43.48091 87.86792
#
# Poissons Ratio (x) = -0.11396 0.14204
# Poissons Ratio (y) = -0.17583 0.43398
# Poissons Ratio (z) = 0.10845 0.21475
#
# Static dielectric constant tensor:
#      x y z
#    x 1.830590 -0.011870 0.023450 
#    y -0.011870 2.064970 -0.003020 
#    z 0.023450 -0.003020 1.975730 
# 
# From -- ./inp_files/70767.got.cif
#   From: 2010.05.17/outbox.cif.g08.bks.cpg/sg2_36_cif.got.tgz:70767.got - 2010.06.03 11:33:40.
