data_PCOD9110226
_publ_section_title
;
Structure prediction by ZEFSAII (Michael W. Deem and Ramdas Pophale) SiO2 
 PCOD9110226
Probable space group: P -1
;
_chemical_formula_sum "Si O2"
_cell_formula_units_Z 13
_cell_length_a 11.590467
_cell_length_b 7.013672
_cell_length_c 10.665017
_cell_angle_alpha 72.305138
_cell_angle_beta 141.526637
_cell_angle_gamma 86.458318
_cell_volume 443.322844
_symmetry_space_group_name_H-M "P -1"
_symmetry_group_IT_number 2
_symmetry_cell_setting 'triclinic'
loop_
_space_group_symop_operation_xyz
x,y,z
-x,-y,-z
loop_
_atom_site_type_symbol
_atom_site_label
_atom_site_fract_x
_atom_site_fract_y
_atom_site_fract_z
Si Si1 0.500000 0.500000 0.500000
Si Si2 0.111696 0.983724 0.731639
Si Si3 0.808361 0.670775 0.687425
Si Si4 0.214238 0.302103 0.626187
Si Si5 0.653593 0.334304 0.367463
Si Si6 0.762820 0.076462 0.744783
Si Si7 0.206417 0.486269 0.913149
O O1 0.723032 0.512094 0.702070
O O2 0.459999 0.309956 0.151004
O O3 0.252403 0.100338 0.795398
O O4 0.904149 0.134347 0.611220
O O5 0.216621 0.717348 0.904971
O O6 0.000000 0.000000 0.500000
O O7 0.739729 0.775844 0.466037
O O8 0.058804 0.480751 0.899513
O O9 0.754075 0.885809 0.690127
O O10 0.333839 0.447483 0.715134
O O11 0.949748 0.467769 0.348024
O O12 0.623738 0.326341 0.494596
O O13 0.618256 0.205279 0.714377
O O14 0.000000 0.000000 0.000000
#
# Coordination Sequence:
#
# PCOD9110226 Si02
#       7
#     1   2   2   2   2   2   2
#     4  12  26  48  74  98 140 190 242 298 374 410
#     4  10  20  41  71 105 144 180 233 289 346 430
#     4  10  23  50  68 106 144 182 242 304 349 431
#     4   9  21  42  69 106 143 181 232 290 348 431
#     4  12  22  45  71  99 145 189 229 293 362 415
#     4  12  27  46  73 103 138 190 245 299 356 424
#     4   9  22  42  69  95 144 180 231 286 352 420
#
# _framework density 29.324005
#
# number of rings (size 3 to 8) (size 9 to 14) (size 15 to 20)
#    0.923    0.615    3.077    0.923    2.154    3.692 
#    8.308    3.077    0.000    0.000    0.000    0.000 
#    0.000    0.000    0.000    0.000    0.000    0.000 
#
# Total GULP energy -72448.641025 kJ/mol
# GULP energy per Si atom -5572.972387 kJ/mol
# Density = 2.925726 g / cm^3
# Si number density = 29.324005 Si / 1000 Ang^3
#
#
#
# Elastic Constant Matrix: (Units=GPa)
#
#
# Indices 1 2 3 4 5 6 
#
# 1 171.2700 47.2593 46.5549 5.1420 35.0731 37.1205
# 2 47.2593 114.0230 -0.9665 14.6850 12.2644 14.5212
# 3 46.5549 -0.9665 114.8942 21.4473 20.0888 8.7916
# 4 5.1420 14.6850 21.4473 47.6566 -1.0328 6.9035
# 5 35.0731 12.2644 20.0888 -1.0328 53.2340 9.3826
# 6 37.1205 14.5212 8.7916 6.9035 9.3826 58.1735
#
#
#
# Elastic Compliance Matrix: (Units=1/GPa)
#
#
# Indices 1 2 3 4 5 6 
#
# 1 0.009112 -0.003163 -0.003187 0.001970 -0.003285 -0.004247
# 2 -0.003163 0.010808 0.002385 -0.004041 -0.001323 -0.000347
# 3 -0.003187 0.002385 0.011568 -0.005790 -0.003081 0.000874
# 4 0.001970 -0.004041 -0.005790 0.025089 0.002799 -0.002802
# 5 -0.003285 -0.001323 -0.003081 0.002799 0.022664 -0.001095
# 6 -0.004247 -0.000347 0.000874 -0.002802 -0.001095 0.020364
#
#
# Mechanical properties :
#
#
# Convention : Reuss Voigt Hill
#
# Bulk Modulus (GPa) = 42.44937 65.09806 53.77372
# Shear Modulus (GPa) = 43.33200 52.30212 47.81706
#
# Velocity S-wave (km/s) = 3.84825 4.22784 4.04251
# Velocity P-wave (km/s) = 5.85259 6.78827 6.33772
#
# Compressibility (1/GPa) = 0.02355748
#
# Stress axis : x y z
#
# Youngs Moduli (GPa) = 109.74579 92.52097 86.44612
#
# Poissons Ratio (x) = 0.29266 0.27551
# Poissons Ratio (y) = 0.34714 -0.20616
# Poissons Ratio (z) = 0.34977 -0.22065
#
# Static dielectric constant tensor:
#      x y z
#    x 2.736600 -0.276260 0.212710 
#    y -0.276260 2.578320 -0.142900 
#    z 0.212710 -0.142900 2.989830 
# 
# From -- ./inp_files/412511.got.cif
#   From: 2010.05.17/outbox.cif.g08.bks.cpg/sg2_207_cif.got.tgz:412511.got - 2010.06.03 11:33:40.
