data_PCOD9110244
_publ_section_title
;
Structure prediction by ZEFSAII (Michael W. Deem and Ramdas Pophale) SiO2 
 PCOD9110244
Probable space group: P -1
;
_chemical_formula_sum "Si O2"
_cell_formula_units_Z 16
_cell_length_a 9.445458
_cell_length_b 26.495200
_cell_length_c 15.153894
_cell_angle_alpha 18.348330
_cell_angle_beta 50.510532
_cell_angle_gamma 39.085552
_cell_volume 648.363708
_symmetry_space_group_name_H-M "P -1"
_symmetry_group_IT_number 2
_symmetry_cell_setting 'triclinic'
loop_
_space_group_symop_operation_xyz
x,y,z
-x,-y,-z
loop_
_atom_site_type_symbol
_atom_site_label
_atom_site_fract_x
_atom_site_fract_y
_atom_site_fract_z
Si Si1 0.761038 0.708387 0.144694
Si Si2 0.548864 0.496589 0.207233
Si Si3 0.757373 0.514686 0.777278
Si Si4 0.697717 0.965746 0.911789
Si Si5 0.006664 0.029107 0.079400
Si Si6 0.298886 0.108620 0.557988
Si Si7 0.566038 0.411308 0.520961
Si Si8 0.934468 0.449178 0.004407
O O1 0.598690 0.649408 0.327035
O O2 0.041219 0.505740 0.326388
O O3 0.775024 0.806596 0.063835
O O4 0.591407 0.912093 0.801595
O O5 0.310876 0.592418 0.080853
O O6 0.497524 0.577939 0.193382
O O7 0.712779 0.231903 0.604659
O O8 0.734375 0.489398 0.085807
O O9 0.485574 0.771631 0.481916
O O10 0.890744 0.402231 0.004537
O O11 0.942436 0.882482 0.006840
O O12 0.500000 0.000000 0.000000
O O13 0.815015 0.999588 0.221837
O O14 0.879993 0.196362 0.768404
O O15 0.146129 0.314243 0.349441
O O16 0.217965 0.239760 0.280232
O O17 0.500000 0.500000 0.500000
#
# Coordination Sequence:
#
# PCOD9110244 Si02
#       8
#     2   2   2   2   2   2   2   2
#     4  11  24  43  67 100 137 166 229 271 334 402
#     4  10  22  41  66  97 132 176 223 270 332 401
#     4  11  24  41  68  99 134 179 219 276 333 392
#     4  11  24  41  68  97 135 179 217 274 340 395
#     4   9  21  41  65  90 131 173 217 271 334 391
#     4   9  20  41  68  95 130 174 221 277 322 392
#     4  11  25  41  64 101 135 170 216 282 338 389
#     4  10  20  41  71  95 130 179 232 264 330 399
#
# _framework density 24.677506999999999
#
# number of rings (size 3 to 8) (size 9 to 14) (size 15 to 20)
#    0.000    1.750    1.250    2.250    3.500    6.500 
#    0.000    3.125    0.000    0.000    0.000    0.000 
#    0.000    0.000    0.000    0.000    0.000    0.000 
#
# Total GULP energy -89402.391872 kJ/mol
# GULP energy per Si atom -5587.649492 kJ/mol
# Density = 2.462134 g / cm^3
# Si number density = 24.677507 Si / 1000 Ang^3
#
#
#
# Elastic Constant Matrix: (Units=GPa)
#
#
# Indices 1 2 3 4 5 6 
#
# 1 203.2628 55.7096 41.7899 19.0361 22.3501 16.8515
# 2 55.7096 114.5409 26.1438 15.1578 1.5067 12.7150
# 3 41.7899 26.1438 68.3131 4.0881 11.2226 3.7517
# 4 19.0361 15.1578 4.0881 33.2593 -1.1478 5.0439
# 5 22.3501 1.5067 11.2226 -1.1478 41.1496 8.9374
# 6 16.8515 12.7150 3.7517 5.0439 8.9374 33.3364
#
#
#
# Elastic Compliance Matrix: (Units=1/GPa)
#
#
# Indices 1 2 3 4 5 6 
#
# 1 0.006662 -0.002160 -0.002606 -0.002421 -0.002641 -0.001176
# 2 -0.002160 0.011147 -0.002955 -0.002960 0.002129 -0.002950
# 3 -0.002606 -0.002955 0.017868 0.000310 -0.003637 0.001362
# 4 -0.002421 -0.002960 0.000310 0.033407 0.003042 -0.003552
# 5 -0.002641 0.002129 -0.003637 0.003042 0.028279 -0.007110
# 6 -0.001176 -0.002950 0.001362 -0.003552 -0.007110 0.034007
#
#
# Mechanical properties :
#
#
# Convention : Reuss Voigt Hill
#
# Bulk Modulus (GPa) = 49.41938 70.37815 59.89876
# Shear Modulus (GPa) = 32.56148 39.04729 35.80439
#
# Velocity S-wave (km/s) = 3.63641 3.98213 3.81319
# Velocity P-wave (km/s) = 6.14010 7.05154 6.61154
#
# Compressibility (1/GPa) = 0.02023498
#
# Stress axis : x y z
#
# Youngs Moduli (GPa) = 150.10469 89.71292 55.96748
#
# Poissons Ratio (x) = 0.19376 0.14583
# Poissons Ratio (y) = 0.32419 0.16540
# Poissons Ratio (z) = 0.39110 0.26513
#
# Static dielectric constant tensor:
#      x y z
#    x 1.999360 0.100520 -0.015600 
#    y 0.100520 2.081250 -0.098080 
#    z -0.015600 -0.098080 2.079820 
# 
# From -- ./inp_files/508955.got.cif
#   From: 2010.05.17/outbox.cif.g08.bks.cpg/sg2_255_cif.got.tgz:508955.got - 2010.06.03 11:33:40.
