data_PCOD9110583
_publ_section_title
;
Structure prediction by ZEFSAII (Michael W. Deem and Ramdas Pophale) SiO2 
 PCOD9110583
Probable space group: P -1
;
_chemical_formula_sum "Si O2"
_cell_formula_units_Z 16
_cell_length_a 23.643928
_cell_length_b 8.480272
_cell_length_c 5.371922
_cell_angle_alpha 59.793093
_cell_angle_beta 105.089327
_cell_angle_gamma 136.654390
_cell_volume 628.736230
_symmetry_space_group_name_H-M "P -1"
_symmetry_group_IT_number 2
_symmetry_cell_setting 'triclinic'
loop_
_space_group_symop_operation_xyz
x,y,z
-x,-y,-z
loop_
_atom_site_type_symbol
_atom_site_label
_atom_site_fract_x
_atom_site_fract_y
_atom_site_fract_z
Si Si1 0.672415 0.780374 0.868828
Si Si2 0.391233 0.953714 0.350104
Si Si3 0.869675 0.707501 0.146519
Si Si4 0.440069 0.772262 0.919435
Si Si5 0.979700 0.796410 0.825315
Si Si6 0.741523 0.618929 0.402936
Si Si7 0.856259 0.286682 0.644507
Si Si8 0.894517 0.173411 0.292961
O O1 0.631834 0.885707 0.797539
O O2 0.761123 0.031853 0.657376
O O3 0.617889 0.525717 0.834312
O O4 0.690295 0.683834 0.200421
O O5 0.388773 0.824987 0.699061
O O6 0.322358 0.679365 0.334523
O O7 0.489511 0.158668 0.235464
O O8 0.790091 0.645215 0.193364
O O9 0.868958 0.531167 0.470054
O O10 0.948706 0.019492 0.023306
O O11 0.890675 0.646032 0.965250
O O12 0.500000 0.000000 0.000000
O O13 0.017181 0.713548 0.778083
O O14 0.000000 0.000000 0.500000
O O15 0.819865 0.855442 0.478469
O O16 0.906123 0.307343 0.456186
O O17 0.864130 0.221634 0.980465
#
# Coordination Sequence:
#
# PCOD9110583 Si02
#       8
#     2   2   2   2   2   2   2   2
#     4  10  21  40  65  92 131 170 221 274 330 399
#     4  10  20  42  64  90 128 172 216 269 333 397
#     4  10  22  42  65  94 130 174 228 276 347 397
#     4  10  23  39  62  96 129 170 215 272 330 397
#     4  10  24  41  66  91 132 186 218 283 342 409
#     4   9  20  42  63  94 127 174 221 280 331 400
#     4  11  24  44  67 102 131 175 230 286 333 399
#     4  10  25  42  66  96 137 173 226 288 336 403
#
# _framework density 25.447872
#
# number of rings (size 3 to 8) (size 9 to 14) (size 15 to 20)
#    0.000    2.000    1.250    0.375   10.500    1.500 
#    4.500    0.000    0.000    0.000    0.000    0.000 
#    0.000    0.000    0.000    0.000    0.000    0.000 
#
# Total GULP energy -89282.580945 kJ/mol
# GULP energy per Si atom -5580.161309 kJ/mol
# Density = 2.538995 g / cm^3
# Si number density = 25.447872 Si / 1000 Ang^3
#
#
#
# Elastic Constant Matrix: (Units=GPa)
#
#
# Indices 1 2 3 4 5 6 
#
# 1 135.9462 19.7367 39.8094 -2.9470 28.5921 -8.0003
# 2 19.7367 152.3493 10.5060 -29.1392 9.7058 -4.6733
# 3 39.8094 10.5060 73.2721 -7.9731 11.0429 -17.2531
# 4 -2.9470 -29.1392 -7.9731 36.3820 -16.1419 0.4020
# 5 28.5921 9.7058 11.0429 -16.1419 43.1474 -13.9546
# 6 -8.0003 -4.6733 -17.2531 0.4020 -13.9546 40.3938
#
#
#
# Elastic Compliance Matrix: (Units=1/GPa)
#
#
# Indices 1 2 3 4 5 6 
#
# 1 0.010692 -0.001579 -0.005686 -0.005305 -0.008333 -0.003320
# 2 -0.001579 0.008062 0.000532 0.007503 0.002424 0.001610
# 3 -0.005686 0.000532 0.018626 0.005539 0.003562 0.008066
# 4 -0.005305 0.007503 0.005539 0.042645 0.019063 0.008344
# 5 -0.008333 0.002424 0.003562 0.019063 0.038683 0.013325
# 6 -0.003320 0.001610 0.008066 0.008344 0.013325 0.032251
#
#
# Mechanical properties :
#
#
# Convention : Reuss Voigt Hill
#
# Bulk Modulus (GPa) = 41.81486 55.74131 48.77809
# Shear Modulus (GPa) = 29.00304 43.41900 36.21102
#
# Velocity S-wave (km/s) = 3.37961 4.13509 3.77629
# Velocity P-wave (km/s) = 5.62995 6.68957 6.18250
#
# Compressibility (1/GPa) = 0.02391494
#
# Stress axis : x y z
#
# Youngs Moduli (GPa) = 93.52473 124.04195 53.68873
#
# Poissons Ratio (x) = 0.19582 0.30527
# Poissons Ratio (y) = 0.14765 -0.02856
# Poissons Ratio (z) = 0.53177 -0.06599
#
# Static dielectric constant tensor:
#      x y z
#    x 2.087740 -0.034630 -0.021260 
#    y -0.034630 2.252450 0.058820 
#    z -0.021260 0.058820 2.092430 
# 
# From -- ./inp_files/122402.got.cif
#   From: 2010.05.17/outbox.cif.g08.bks.cpg/sg2_62_cif.got.tgz:122402.got - 2010.06.03 11:33:40.
