data_PCOD9110399
_publ_section_title
;
Structure prediction by ZEFSAII (Michael W. Deem and Ramdas Pophale) SiO2 
 PCOD9110399
Probable space group: P -1
;
_chemical_formula_sum "Si O2"
_cell_formula_units_Z 15
_cell_length_a 13.540497
_cell_length_b 5.295586
_cell_length_c 11.312449
_cell_angle_alpha 79.819755
_cell_angle_beta 52.133781
_cell_angle_gamma 98.801729
_cell_volume 593.516445
_symmetry_space_group_name_H-M "P -1"
_symmetry_group_IT_number 2
_symmetry_cell_setting 'triclinic'
loop_
_space_group_symop_operation_xyz
x,y,z
-x,-y,-z
loop_
_atom_site_type_symbol
_atom_site_label
_atom_site_fract_x
_atom_site_fract_y
_atom_site_fract_z
Si Si1 0.000000 0.500000 0.000000
Si Si2 0.960560 0.413059 0.319054
Si Si3 0.793593 0.132203 0.817376
Si Si4 0.349805 0.441928 0.156932
Si Si5 0.512766 0.137930 0.606577
Si Si6 0.276699 0.073908 0.441206
Si Si7 0.790316 0.956583 0.097161
Si Si8 0.246145 0.347278 0.650192
O O1 0.990990 0.606338 0.849874
O O2 0.110173 0.788707 0.929713
O O3 0.854296 0.561129 0.359796
O O4 0.070566 0.608471 0.308455
O O5 0.868622 0.131177 0.469977
O O6 0.690043 0.297950 0.871496
O O7 0.740812 0.856933 0.801763
O O8 0.809818 0.004853 0.942210
O O9 0.324761 0.368071 0.319974
O O10 0.500000 0.500000 0.000000
O O11 0.609113 0.439431 0.483172
O O12 0.500000 0.000000 0.500000
O O13 0.596411 0.027046 0.649006
O O14 0.365651 0.098380 0.761888
O O15 0.256675 0.088686 0.595810
O O16 0.811810 0.698387 0.170171
#
# Coordination Sequence:
#
# PCOD9110399 Si02
#       8
#     1   2   2   2   2   2   2   2
#     4  10  20  42  60  98 142 174 210 288 350 422
#     4  10  24  43  70 105 141 181 237 285 367 422
#     4  11  29  47  74 105 137 197 239 297 343 428
#     4  12  29  51  74 102 144 191 247 294 354 409
#     4  11  22  39  64 106 136 174 232 291 363 431
#     4  11  25  44  71  98 143 183 231 300 354 424
#     4  11  22  40  69 101 143 176 239 285 363 426
#     4  11  23  40  68 105 136 182 224 299 367 421
#
# _framework density 25.273102000000002
#
# number of rings (size 3 to 8) (size 9 to 14) (size 15 to 20)
#    0.000    1.067    2.667    2.400    7.467    6.400 
#    0.000    0.000    0.000    0.000    0.000    0.000 
#    0.000    0.000    0.000    0.000    0.000    0.000 
#
# Total GULP energy -83537.253612 kJ/mol
# GULP energy per Si atom -5569.150241 kJ/mol
# Density = 2.521558 g / cm^3
# Si number density = 25.273102 Si / 1000 Ang^3
#
#
#
# Elastic Constant Matrix: (Units=GPa)
#
#
# Indices 1 2 3 4 5 6 
#
# 1 66.6203 21.3720 15.8606 -2.7520 -6.6035 8.7381
# 2 21.3720 71.5032 2.9201 -9.6485 12.8753 15.1616
# 3 15.8606 2.9201 115.1260 -16.5434 7.1892 14.2084
# 4 -2.7520 -9.6485 -16.5434 25.4787 2.7891 -2.2828
# 5 -6.6035 12.8753 7.1892 2.7891 37.6547 -10.6863
# 6 8.7381 15.1616 14.2084 -2.2828 -10.6863 43.9263
#
#
#
# Elastic Compliance Matrix: (Units=1/GPa)
#
#
# Indices 1 2 3 4 5 6 
#
# 1 0.018660 -0.007622 -0.003594 -0.003857 0.007322 0.001662
# 2 -0.007622 0.022104 0.004123 0.010779 -0.013357 -0.010136
# 3 -0.003594 0.004123 0.011424 0.008802 -0.006438 -0.005512
# 4 -0.003857 0.010779 0.008802 0.049338 -0.011403 -0.006010
# 5 0.007322 -0.013357 -0.006438 -0.011403 0.038455 0.013999
# 6 0.001662 -0.010136 -0.005512 -0.006010 0.013999 0.030810
#
#
# Mechanical properties :
#
#
# Convention : Reuss Voigt Hill
#
# Bulk Modulus (GPa) = 26.31424 37.06167 31.68796
# Shear Modulus (GPa) = 25.29815 35.61840 30.45827
#
# Velocity S-wave (km/s) = 3.16728 3.75819 3.47532
# Velocity P-wave (km/s) = 4.87956 5.79036 5.35436
#
# Compressibility (1/GPa) = 0.03800224
#
# Stress axis : x y z
#
# Youngs Moduli (GPa) = 53.59155 45.24051 87.53690
#
# Poissons Ratio (x) = 0.34482 0.31461
# Poissons Ratio (y) = 0.40847 -0.36095
# Poissons Ratio (z) = 0.19261 -0.18654
#
# Static dielectric constant tensor:
#      x y z
#    x 2.039520 0.026920 0.072390 
#    y 0.026920 2.081980 -0.020580 
#    z 0.072390 -0.020580 1.971380 
# 
# From -- ./inp_files/75404.got.cif
#   From: 2010.05.17/outbox.cif.g08.bks.cpg/sg2_38_cif.got.tgz:75404.got - 2010.06.03 11:33:40.
