data_PCOD9110703
_publ_section_title
;
Structure prediction by ZEFSAII (Michael W. Deem and Ramdas Pophale) SiO2 
 PCOD9110703
Probable space group: P -1
;
_chemical_formula_sum "Si O2"
_cell_formula_units_Z 12
_cell_length_a 15.451974
_cell_length_b 7.153395
_cell_length_c 8.407950
_cell_angle_alpha 78.784912
_cell_angle_beta 141.369616
_cell_angle_gamma 81.205118
_cell_volume 493.594036
_symmetry_space_group_name_H-M "P -1"
_symmetry_group_IT_number 2
_symmetry_cell_setting 'triclinic'
loop_
_space_group_symop_operation_xyz
x,y,z
-x,-y,-z
loop_
_atom_site_type_symbol
_atom_site_label
_atom_site_fract_x
_atom_site_fract_y
_atom_site_fract_z
Si Si1 0.287585 0.181102 0.217915
Si Si2 0.339094 0.804058 0.600910
Si Si3 0.158058 0.856783 0.642554
Si Si4 0.052047 0.533056 0.398267
Si Si5 0.635945 0.649539 0.261998
Si Si6 0.427555 0.852678 0.211513
O O1 0.225817 0.922981 0.572638
O O2 0.422103 0.248800 0.433596
O O3 0.309358 0.977160 0.391733
O O4 0.314782 0.086373 0.093213
O O5 0.322869 0.589868 0.566109
O O6 0.522315 0.690359 0.941977
O O7 0.307901 0.768395 0.995543
O O8 0.892493 0.628937 0.050111
O O9 0.114817 0.696579 0.512631
O O10 0.000000 0.000000 0.500000
O O11 0.204626 0.350236 0.556241
O O12 0.000000 0.500000 0.500000
O O13 0.527671 0.834061 0.201752
#
# Coordination Sequence:
#
# PCOD9110703 Si02
#       6
#     2   2   2   2   2   2
#     4  11  24  42  65  97 129 162 217 267 308 371
#     4   9  21  40  68  92 128 167 213 258 313 381
#     4  10  20  42  65  94 123 170 210 251 321 381
#     4  11  25  43  65  94 132 166 211 267 318 370
#     4   9  21  42  65  92 127 170 207 255 324 380
#     4  10  23  42  63  98 125 167 213 255 322 375
#
# _framework density 24.311478000000001
#
# number of rings (size 3 to 8) (size 9 to 14) (size 15 to 20)
#    0.000    2.000    1.667    1.000    4.667    8.000 
#    3.000    0.000    0.000    0.000    0.000    0.000 
#    0.000    0.000    0.000    0.000    0.000    0.000 
#
# Total GULP energy -66846.720245 kJ/mol
# GULP energy per Si atom -5570.560020 kJ/mol
# Density = 2.425614 g / cm^3
# Si number density = 24.311478 Si / 1000 Ang^3
#
#
#
# Elastic Constant Matrix: (Units=GPa)
#
#
# Indices 1 2 3 4 5 6 
#
# 1 125.9422 35.4882 35.4678 -44.0468 18.3983 -35.0445
# 2 35.4882 63.7151 14.9835 0.0607 8.8495 -17.8779
# 3 35.4678 14.9835 103.6370 -14.3502 35.8343 -6.2288
# 4 -44.0468 0.0607 -14.3502 35.4873 -6.0720 5.3972
# 5 18.3983 8.8495 35.8343 -6.0720 48.3089 -11.3291
# 6 -35.0445 -17.8779 -6.2288 5.3972 -11.3291 46.5157
#
#
#
# Elastic Compliance Matrix: (Units=1/GPa)
#
#
# Indices 1 2 3 4 5 6 
#
# 1 0.023704 -0.009673 -0.002528 0.026862 0.000532 0.010815
# 2 -0.009673 0.022175 -0.001422 -0.013061 -0.000387 0.002466
# 3 -0.002528 -0.001422 0.014111 0.001366 -0.009801 -0.003107
# 4 0.026862 -0.013061 0.001366 0.060936 0.000808 0.008527
# 5 0.000532 -0.000387 -0.009801 0.000808 0.029345 0.005994
# 6 0.010815 0.002466 -0.003107 0.008527 0.005994 0.030648
#
#
# Mechanical properties :
#
#
# Convention : Reuss Voigt Hill
#
# Bulk Modulus (GPa) = 30.54074 51.68593 41.11333
# Shear Modulus (GPa) = 22.82250 39.88603 31.35427
#
# Velocity S-wave (km/s) = 3.06723 4.05486 3.59512
# Velocity P-wave (km/s) = 5.01333 6.57484 5.84645
#
# Compressibility (1/GPa) = 0.03274315
#
# Stress axis : x y z
#
# Youngs Moduli (GPa) = 42.18661 45.09548 70.86584
#
# Poissons Ratio (x) = 0.43622 0.17918
# Poissons Ratio (y) = 0.40808 0.10078
# Poissons Ratio (z) = 0.10666 0.06413
#
# Static dielectric constant tensor:
#      x y z
#    x 2.036940 -0.064010 -0.025320 
#    y -0.064010 1.998370 -0.020030 
#    z -0.025320 -0.020030 1.945230 
# 
# From -- ./inp_files/290878.got.cif
#   From: 2010.05.17/outbox.cif.g08.bks.cpg/sg2_146_cif.got.tgz:290878.got - 2010.06.03 11:33:40.
