data_PCOD9110194
_publ_section_title
;
Structure prediction by ZEFSAII (Michael W. Deem and Ramdas Pophale) SiO2 
 PCOD9110194
Probable space group: P -1
;
_chemical_formula_sum "Si O2"
_cell_formula_units_Z 16
_cell_length_a 8.826488
_cell_length_b 10.970694
_cell_length_c 27.890898
_cell_angle_alpha 149.560760
_cell_angle_beta 148.254048
_cell_angle_gamma 49.078957
_cell_volume 688.276308
_symmetry_space_group_name_H-M "P -1"
_symmetry_group_IT_number 2
_symmetry_cell_setting 'triclinic'
loop_
_space_group_symop_operation_xyz
x,y,z
-x,-y,-z
loop_
_atom_site_type_symbol
_atom_site_label
_atom_site_fract_x
_atom_site_fract_y
_atom_site_fract_z
Si Si1 0.574801 0.870219 0.745238
Si Si2 0.741932 0.950938 0.012036
Si Si3 0.062880 0.690991 0.467370
Si Si4 0.339801 0.528143 0.114420
Si Si5 0.735967 0.196130 0.662923
Si Si6 0.496808 0.316395 0.230406
Si Si7 0.582682 0.628195 0.116986
Si Si8 0.620341 0.986937 0.410725
O O1 0.322604 0.752605 0.597976
O O2 0.473601 0.748653 0.728474
O O3 0.588076 0.162014 0.852051
O O4 0.918435 0.877815 0.829093
O O5 0.692898 0.659745 0.914077
O O6 0.675506 0.929091 0.930012
O O7 0.500000 0.000000 0.000000
O O8 0.816739 0.436452 0.330602
O O9 0.860301 0.886565 0.471807
O O10 0.230732 0.735587 0.476008
O O11 0.499348 0.466633 0.088522
O O12 0.521704 0.801229 0.275734
O O13 0.000000 0.500000 0.000000
O O14 0.670012 0.464913 0.739460
O O15 0.675765 0.065573 0.654587
O O16 0.064276 0.237385 0.744847
O O17 0.500000 0.000000 0.500000
O O18 0.500000 0.500000 0.000000
#
# Coordination Sequence:
#
# PCOD9110194 Si02
#       8
#     2   2   2   2   2   2   2   2
#     4  12  25  46  67  99 141 181 225 284 344 406
#     4  12  27  46  69  99 136 187 230 277 345 406
#     4  10  20  41  72  93 126 181 222 272 341 392
#     4  12  22  44  73  97 134 177 233 289 332 397
#     4  11  24  41  69 103 132 176 225 278 343 405
#     4  11  25  47  68  97 144 182 220 282 348 409
#     4  12  25  39  69 103 134 174 231 284 337 399
#     4  10  20  41  70  97 137 172 224 281 344 390
#
# _framework density 23.246479000000001
#
# number of rings (size 3 to 8) (size 9 to 14) (size 15 to 20)
#    0.000    0.750    5.000    3.750    5.250    0.000 
#    0.000    0.625    0.000    0.000    0.000    0.000 
#    0.000    0.000    0.000    0.000    0.000    0.000 
#
# Total GULP energy -89402.787087 kJ/mol
# GULP energy per Si atom -5587.674193 kJ/mol
# Density = 2.319357 g / cm^3
# Si number density = 23.246479 Si / 1000 Ang^3
#
#
#
# Elastic Constant Matrix: (Units=GPa)
#
#
# Indices 1 2 3 4 5 6 
#
# 1 112.7034 24.0764 47.4923 -23.4123 7.1299 23.5028
# 2 24.0764 40.6404 22.7790 -13.5493 1.4446 13.2583
# 3 47.4923 22.7790 126.6717 -40.6182 9.4260 -9.8294
# 4 -23.4123 -13.5493 -40.6182 35.7458 2.7555 2.6775
# 5 7.1299 1.4446 9.4260 2.7555 47.6273 8.1609
# 6 23.5028 13.2583 -9.8294 2.6775 8.1609 42.1897
#
#
#
# Elastic Compliance Matrix: (Units=1/GPa)
#
#
# Indices 1 2 3 4 5 6 
#
# 1 0.013533 -0.001640 -0.004053 0.004254 -0.000009 -0.008236
# 2 -0.001640 0.034227 -0.003920 0.008196 0.001491 -0.011564
# 3 -0.004053 -0.003920 0.015076 0.012789 -0.004198 0.007003
# 4 0.004254 0.008196 0.012789 0.049130 -0.005573 -0.004006
# 5 -0.000009 0.001491 -0.004198 -0.005573 0.023056 -0.005548
# 6 -0.008236 -0.011564 0.007003 -0.004006 -0.005548 0.034884
#
#
# Mechanical properties :
#
#
# Convention : Reuss Voigt Hill
#
# Bulk Modulus (GPa) = 22.93116 52.07899 37.50507
# Shear Modulus (GPa) = 24.54966 37.49042 31.02004
#
# Velocity S-wave (km/s) = 3.25323 4.02024 3.65690
# Velocity P-wave (km/s) = 4.89869 6.63336 5.83089
#
# Compressibility (1/GPa) = 0.04360879
#
# Stress axis : x y z
#
# Youngs Moduli (GPa) = 73.89356 29.21654 66.33191
#
# Poissons Ratio (x) = 0.04791 0.26887
# Poissons Ratio (y) = 0.12118 0.26003
# Poissons Ratio (z) = 0.29952 0.11453
#
# Static dielectric constant tensor:
#      x y z
#    x 1.942770 0.039640 -0.008840 
#    y 0.039640 1.958680 -0.009100 
#    z -0.008840 -0.009100 1.880200 
# 
# From -- ./inp_files/622503.got.cif
#   From: 2010.05.17/outbox.cif.g08.bks.cpg/sg2_312_cif.got.tgz:622503.got - 2010.06.03 11:33:40.
