data_PCOD9110193
_publ_section_title
;
Structure prediction by ZEFSAII (Michael W. Deem and Ramdas Pophale) SiO2 
 PCOD9110193
Probable space group: P -1
;
_chemical_formula_sum "Si O2"
_cell_formula_units_Z 16
_cell_length_a 12.931819
_cell_length_b 8.514479
_cell_length_c 18.501303
_cell_angle_alpha 44.174553
_cell_angle_beta 133.839736
_cell_angle_gamma 147.693574
_cell_volume 737.964070
_symmetry_space_group_name_H-M "P -1"
_symmetry_group_IT_number 2
_symmetry_cell_setting 'triclinic'
loop_
_space_group_symop_operation_xyz
x,y,z
-x,-y,-z
loop_
_atom_site_type_symbol
_atom_site_label
_atom_site_fract_x
_atom_site_fract_y
_atom_site_fract_z
Si Si1 0.439751 0.600119 0.002286
Si Si2 0.508828 0.254254 0.383212
Si Si3 0.320054 0.787680 0.643075
Si Si4 0.229077 0.225323 0.164782
Si Si5 0.361432 0.299153 0.431911
Si Si6 0.759760 0.345948 0.740590
Si Si7 0.105307 0.441925 0.801297
Si Si8 0.777403 0.292688 0.934089
O O1 0.281393 0.602679 0.891005
O O2 0.626573 0.945129 0.007458
O O3 0.500000 0.500000 0.000000
O O4 0.341270 0.354303 0.100383
O O5 0.670234 0.402185 0.348874
O O6 0.310294 0.116335 0.291348
O O7 0.509111 0.427132 0.392817
O O8 0.500000 0.000000 0.500000
O O9 0.188913 0.602707 0.710836
O O10 0.260220 0.950588 0.517480
O O11 0.547661 0.068951 0.689996
O O12 0.271895 0.508075 0.130489
O O13 0.001107 0.917576 0.140238
O O14 0.500000 0.500000 0.500000
O O15 0.222126 0.363911 0.336184
O O16 0.759242 0.249185 0.853286
O O17 0.939708 0.431949 0.755065
O O18 0.000000 0.500000 0.000000
#
# Coordination Sequence:
#
# PCOD9110193 Si02
#       8
#     2   2   2   2   2   2   2   2
#     4  12  25  46  72 100 139 188 235 289 357 421
#     4  10  20  41  70  97 136 183 231 288 347 408
#     4  10  21  42  69  99 137 188 236 288 347 410
#     4  12  24  42  68 102 142 182 234 289 349 412
#     4   9  20  39  70  98 135 187 230 290 355 410
#     4  11  21  42  68  97 143 181 236 292 344 414
#     4  12  24  42  71 104 139 186 237 285 349 425
#     4  12  25  44  67 101 143 182 235 291 352 420
#
# _framework density 21.681272
#
# number of rings (size 3 to 8) (size 9 to 14) (size 15 to 20)
#    0.000    1.000    3.750    3.750    0.000    0.500 
#    0.000    5.000    5.500    0.000    0.000    0.000 
#    0.000    0.000    0.000    0.000    0.000    0.000 
#
# Total GULP energy -89376.191038 kJ/mol
# GULP energy per Si atom -5586.011940 kJ/mol
# Density = 2.163192 g / cm^3
# Si number density = 21.681272 Si / 1000 Ang^3
#
#
#
# Elastic Constant Matrix: (Units=GPa)
#
#
# Indices 1 2 3 4 5 6 
#
# 1 165.2515 29.3096 32.8413 -1.9880 -10.3537 2.8324
# 2 29.3096 84.3445 13.9728 -12.2379 2.9099 7.2647
# 3 32.8413 13.9728 89.9175 -4.3973 -6.7458 13.1135
# 4 -1.9880 -12.2379 -4.3973 13.6779 -1.7820 -4.0633
# 5 -10.3537 2.9099 -6.7458 -1.7820 41.6894 -2.7059
# 6 2.8324 7.2647 13.1135 -4.0633 -2.7059 31.9342
#
#
#
# Elastic Compliance Matrix: (Units=1/GPa)
#
#
# Indices 1 2 3 4 5 6 
#
# 1 0.006986 -0.002379 -0.002252 -0.001401 0.001529 0.000798
# 2 -0.002379 0.014710 -0.000721 0.011989 -0.001314 -0.001425
# 3 -0.002252 -0.000721 0.012924 0.002002 0.001371 -0.004572
# 4 -0.001401 0.011989 0.002002 0.087076 0.003377 0.007940
# 5 0.001529 -0.001314 0.001371 0.003377 0.024964 0.002145
# 6 0.000798 -0.001425 -0.004572 0.007940 0.002145 0.034637
#
#
# Mechanical properties :
#
#
# Convention : Reuss Voigt Hill
#
# Bulk Modulus (GPa) = 41.81603 54.64010 48.22807
# Shear Modulus (GPa) = 25.00321 35.01963 30.01142
#
# Velocity S-wave (km/s) = 3.39959 4.02332 3.72453
# Velocity P-wave (km/s) = 5.89391 6.84390 6.38659
#
# Compressibility (1/GPa) = 0.02391427
#
# Stress axis : x y z
#
# Youngs Moduli (GPa) = 143.13921 67.98055 77.37831
#
# Poissons Ratio (x) = 0.16175 0.17426
# Poissons Ratio (y) = 0.34058 0.05581
# Poissons Ratio (z) = 0.32236 0.04904
#
# Static dielectric constant tensor:
#      x y z
#    x 1.823600 -0.031580 0.028900 
#    y -0.031580 1.779960 -0.010270 
#    z 0.028900 -0.010270 1.802970 
# 
# From -- ./inp_files/566555.got.cif
#   From: 2010.05.17/outbox.cif.g08.bks.cpg/sg2_284_cif.got.tgz:566555.got - 2010.06.03 11:33:40.
