data_PCOD9110797
_publ_section_title
;
Structure prediction by ZEFSAII (Michael W. Deem and Ramdas Pophale) SiO2 
 PCOD9110797
Probable space group: P -1
;
_chemical_formula_sum "Si O2"
_cell_formula_units_Z 16
_cell_length_a 8.268715
_cell_length_b 17.783001
_cell_length_c 11.629388
_cell_angle_alpha 150.417300
_cell_angle_beta 124.972141
_cell_angle_gamma 55.129659
_cell_volume 680.324576
_symmetry_space_group_name_H-M "P -1"
_symmetry_group_IT_number 2
_symmetry_cell_setting 'triclinic'
loop_
_space_group_symop_operation_xyz
x,y,z
-x,-y,-z
loop_
_atom_site_type_symbol
_atom_site_label
_atom_site_fract_x
_atom_site_fract_y
_atom_site_fract_z
Si Si1 0.015745 0.678385 0.726386
Si Si2 0.907027 0.870045 0.356581
Si Si3 0.390793 0.366066 0.831538
Si Si4 0.682642 0.359761 0.414746
Si Si5 0.234935 0.611573 0.261707
Si Si6 0.475174 0.113049 0.908245
Si Si7 0.710016 0.128556 0.786298
Si Si8 0.393103 0.227106 0.417415
O O1 0.158542 0.671813 0.665006
O O2 0.000000 0.500000 0.500000
O O3 0.792482 0.771380 0.739584
O O4 0.121862 0.765688 0.982537
O O5 0.745987 0.815929 0.133427
O O6 0.078321 0.736362 0.295279
O O7 0.792826 0.965176 0.543587
O O8 0.000000 0.000000 0.500000
O O9 0.551382 0.230586 0.773030
O O10 0.297450 0.295248 0.590406
O O11 0.500000 0.500000 0.000000
O O12 0.252184 0.448998 0.986863
O O13 0.500000 0.500000 0.500000
O O14 0.794675 0.390834 0.617904
O O15 0.572047 0.211585 0.171836
O O16 0.454056 0.662878 0.412202
O O17 0.610741 0.104399 0.836357
O O18 0.483068 0.942175 0.732808
#
# Coordination Sequence:
#
# PCOD9110797 Si02
#       8
#     2   2   2   2   2   2   2   2
#     4  11  25  44  71  96 130 185 231 269 339 417
#     4  12  24  43  65 105 133 174 223 283 343 390
#     4  10  20  42  66  92 132 179 223 270 326 405
#     4  11  26  46  67 101 142 172 223 291 345 396
#     4  11  24  42  69 102 139 173 227 286 341 391
#     4  11  25  44  68  95 138 179 225 278 338 412
#     4  11  24  43  69  93 135 178 225 277 334 411
#     4  11  23  42  68  97 132 183 229 268 337 410
#
# _framework density 23.518186
#
# number of rings (size 3 to 8) (size 9 to 14) (size 15 to 20)
#    0.000    1.000    2.500    4.875    3.500    4.500 
#    0.000    1.875    0.000    0.000    0.000    0.000 
#    0.000    0.000    0.000    0.000    0.000    0.000 
#
# Total GULP energy -89617.416883 kJ/mol
# GULP energy per Si atom -5601.088555 kJ/mol
# Density = 2.346466 g / cm^3
# Si number density = 23.518186 Si / 1000 Ang^3
#
#
#
# Elastic Constant Matrix: (Units=GPa)
#
#
# Indices 1 2 3 4 5 6 
#
# 1 57.2021 5.9062 0.7021 -7.7657 0.8470 -10.1361
# 2 5.9062 74.9490 -1.1471 -14.6000 3.3776 -25.6481
# 3 0.7021 -1.1471 86.9173 -14.4438 3.2621 -6.6751
# 4 -7.7657 -14.6000 -14.4438 26.6395 -3.1228 -0.6913
# 5 0.8470 3.3776 3.2621 -3.1228 37.6446 -0.2362
# 6 -10.1361 -25.6481 -6.6751 -0.6913 -0.2362 36.2268
#
#
#
# Elastic Compliance Matrix: (Units=1/GPa)
#
#
# Indices 1 2 3 4 5 6 
#
# 1 0.019768 0.002941 0.001941 0.008625 -0.000110 0.008135
# 2 0.002941 0.022372 0.004297 0.015788 -0.001025 0.017748
# 3 0.001941 0.004297 0.013801 0.010484 -0.000716 0.006323
# 4 0.008625 0.015788 0.010484 0.055073 0.002153 0.016588
# 5 -0.000110 -0.001025 -0.000716 0.002153 0.026895 -0.000672
# 6 0.008135 0.017748 0.006323 0.016588 -0.000672 0.043923
#
#
# Mechanical properties :
#
#
# Convention : Reuss Voigt Hill
#
# Bulk Modulus (GPa) = 13.45920 25.55452 19.50686
# Shear Modulus (GPa) = 26.56189 34.34267 30.45228
#
# Velocity S-wave (km/s) = 3.36433 3.82548 3.60229
# Velocity P-wave (km/s) = 4.56365 5.51379 5.06107
#
# Compressibility (1/GPa) = 0.07429861
#
# Stress axis : x y z
#
# Youngs Moduli (GPa) = 50.58564 44.69955 72.45912
#
# Poissons Ratio (x) = -0.13145 -0.14067
# Poissons Ratio (y) = -0.14876 -0.31133
# Poissons Ratio (z) = -0.09820 -0.19206
#
# Static dielectric constant tensor:
#      x y z
#    x 1.988370 0.023270 -0.006100 
#    y 0.023270 1.827360 -0.007350 
#    z -0.006100 -0.007350 1.880250 
# 
# From -- ./inp_files/272703.got.cif
#   From: 2010.05.17/outbox.cif.g08.bks.cpg/sg2_137_cif.got.tgz:272703.got - 2010.06.03 11:33:40.
