data_PCOD9110450
_publ_section_title
;
Structure prediction by ZEFSAII (Michael W. Deem and Ramdas Pophale) SiO2 
 PCOD9110450
Probable space group: P -1
;
_chemical_formula_sum "Si O2"
_cell_formula_units_Z 16
_cell_length_a 7.569502
_cell_length_b 11.989263
_cell_length_c 19.221662
_cell_angle_alpha 146.984316
_cell_angle_beta 124.008854
_cell_angle_gamma 77.866778
_cell_volume 645.715264
_symmetry_space_group_name_H-M "P -1"
_symmetry_group_IT_number 2
_symmetry_cell_setting 'triclinic'
loop_
_space_group_symop_operation_xyz
x,y,z
-x,-y,-z
loop_
_atom_site_type_symbol
_atom_site_label
_atom_site_fract_x
_atom_site_fract_y
_atom_site_fract_z
Si Si1 0.875441 0.720287 0.013554
Si Si2 0.705369 0.438751 0.535826
Si Si3 0.107575 0.551067 0.784274
Si Si4 0.390021 0.184173 0.886804
Si Si5 0.426461 0.869235 0.231395
Si Si6 0.921424 0.742462 0.620166
Si Si7 0.631611 0.623080 0.360415
Si Si8 0.811526 0.046984 0.526530
O O1 0.701935 0.660619 0.013692
O O2 0.118280 0.708004 0.072165
O O3 0.667982 0.557517 0.823379
O O4 0.011096 0.019407 0.193070
O O5 0.500000 0.500000 0.500000
O O6 0.888460 0.541708 0.561274
O O7 0.906935 0.589045 0.721861
O O8 0.554704 0.150302 0.375196
O O9 0.216446 0.458595 0.698317
O O10 0.362361 0.769859 0.993486
O O11 0.953949 0.338705 0.698365
O O12 0.451960 0.233533 0.846069
O O13 0.157064 0.900358 0.701059
O O14 0.538385 0.909384 0.353793
O O15 0.676960 0.620310 0.450517
O O16 0.753305 0.909839 0.515096
O O17 0.000000 0.000000 0.500000
#
# Coordination Sequence:
#
# PCOD9110450 Si02
#       8
#     2   2   2   2   2   2   2   2
#     4   9  22  41  60  92 129 158 208 260 294 374
#     4  11  21  38  62  87 127 164 205 260 306 366
#     4   9  20  37  61  91 126 161 206 256 308 366
#     4   9  20  39  60  92 124 160 211 246 306 377
#     4  11  21  41  64  88 129 163 204 258 312 361
#     4  10  21  40  61  88 124 163 201 251 310 359
#     4  10  20  42  62  89 129 160 206 260 305 368
#     4   9  19  37  65  91 122 165 204 257 307 363
#
# _framework density 24.778725000000001
#
# number of rings (size 3 to 8) (size 9 to 14) (size 15 to 20)
#    0.750    1.500    1.250    2.250    0.000    4.000 
#    4.500    4.375    0.000    0.000    0.000    0.000 
#    0.000    0.000    0.000    0.000    0.000    0.000 
#
# Total GULP energy -89342.325955 kJ/mol
# GULP energy per Si atom -5583.895372 kJ/mol
# Density = 2.472233 g / cm^3
# Si number density = 24.778725 Si / 1000 Ang^3
#
#
#
# Elastic Constant Matrix: (Units=GPa)
#
#
# Indices 1 2 3 4 5 6 
#
# 1 53.8273 -3.9989 25.0234 -2.0603 5.4056 -4.9961
# 2 -3.9989 107.5483 23.7964 0.4748 0.3794 10.8366
# 3 25.0234 23.7964 101.7263 -22.6497 28.5128 -6.4142
# 4 -2.0603 0.4748 -22.6497 31.5551 -11.5845 3.0261
# 5 5.4056 0.3794 28.5128 -11.5845 30.0938 -6.1212
# 6 -4.9961 10.8366 -6.4142 3.0261 -6.1212 25.8203
#
#
#
# Elastic Compliance Matrix: (Units=1/GPa)
#
#
# Indices 1 2 3 4 5 6 
#
# 1 0.021884 0.002115 -0.006961 -0.003124 0.001932 0.002442
# 2 0.002115 0.010783 -0.004294 -0.001987 0.001871 -0.004507
# 3 -0.006961 -0.004294 0.017805 0.007749 -0.012371 0.001037
# 4 -0.003124 -0.001987 0.007749 0.040305 0.008654 -0.000518
# 5 0.001932 0.001871 -0.012371 0.008654 0.049378 0.007207
# 6 0.002442 -0.004507 0.001037 -0.000518 0.007207 0.043120
#
#
# Mechanical properties :
#
#
# Convention : Reuss Voigt Hill
#
# Bulk Modulus (GPa) = 31.06261 39.19376 35.12818
# Shear Modulus (GPa) = 23.55310 32.04592 27.79951
#
# Velocity S-wave (km/s) = 3.08642 3.60013 3.35313
# Velocity P-wave (km/s) = 5.02639 5.75613 5.40359
#
# Compressibility (1/GPa) = 0.03219305
#
# Stress axis : x y z
#
# Youngs Moduli (GPa) = 45.69512 92.73821 56.16289
#
# Poissons Ratio (x) = -0.19613 0.39095
# Poissons Ratio (y) = -0.09664 0.24114
# Poissons Ratio (z) = 0.31809 0.39818
#
# Static dielectric constant tensor:
#      x y z
#    x 2.142430 -0.032560 -0.004760 
#    y -0.032560 1.894480 0.032520 
#    z -0.004760 0.032520 1.932740 
# 
# From -- ./inp_files/589644.got.cif
#   From: 2010.05.17/outbox.cif.g08.bks.cpg/sg2_295_cif.got.tgz:589644.got - 2010.06.03 11:33:40.
