data_PCOD9110549
_publ_section_title
;
Structure prediction by ZEFSAII (Michael W. Deem and Ramdas Pophale) SiO2 
 PCOD9110549
Probable space group: P -1
;
_chemical_formula_sum "Si O2"
_cell_formula_units_Z 16
_cell_length_a 14.544697
_cell_length_b 8.208162
_cell_length_c 18.930849
_cell_angle_alpha 59.041012
_cell_angle_beta 151.386583
_cell_angle_gamma 136.610709
_cell_volume 689.110138
_symmetry_space_group_name_H-M "P -1"
_symmetry_group_IT_number 2
_symmetry_cell_setting 'triclinic'
loop_
_space_group_symop_operation_xyz
x,y,z
-x,-y,-z
loop_
_atom_site_type_symbol
_atom_site_label
_atom_site_fract_x
_atom_site_fract_y
_atom_site_fract_z
Si Si1 0.569687 0.379807 0.625793
Si Si2 0.920798 0.353671 0.358967
Si Si3 0.646928 0.873149 0.200315
Si Si4 0.153505 0.055665 0.998757
Si Si5 0.157649 0.730106 0.961168
Si Si6 0.366644 0.835986 0.639137
Si Si7 0.642129 0.525191 0.795739
Si Si8 0.380369 0.554872 0.965176
O O1 0.500000 0.500000 0.500000
O O2 0.871168 0.528467 0.782995
O O3 0.527260 0.447687 0.658412
O O4 0.415491 0.080466 0.589230
O O5 0.758208 0.231568 0.350586
O O6 0.798104 0.419996 0.205000
O O7 0.190378 0.608555 0.514361
O O8 0.885875 0.135002 0.340251
O O9 0.567135 0.641443 0.247293
O O10 0.623084 0.792502 0.122202
O O11 0.399694 0.853568 0.045403
O O12 0.214650 0.312252 0.961321
O O13 0.370598 0.103286 0.182988
O O14 0.171803 0.935928 0.966982
O O15 0.866891 0.827994 0.885263
O O16 0.207551 0.579339 0.077701
O O17 0.500000 0.500000 0.000000
#
# Coordination Sequence:
#
# PCOD9110549 Si02
#       8
#     2   2   2   2   2   2   2   2
#     4  11  19  31  63 102 125 159 207 256 303 373
#     4  11  23  37  61  84 126 171 202 246 311 372
#     4  10  20  42  64  84 125 167 215 249 318 367
#     4  11  18  37  63  92 120 156 211 251 304 373
#     4   9  17  36  64  86 119 165 201 243 313 374
#     4  11  19  38  59  87 132 167 194 245 315 382
#     4   9  18  36  65  87 121 167 201 245 316 373
#     4  12  25  38  63  94 118 158 224 273 289 370
#
# _framework density 23.218349
#
# number of rings (size 3 to 8) (size 9 to 14) (size 15 to 20)
#    0.750    0.750    6.250    1.125    3.500    0.500 
#    0.000    0.625    2.750    1.500    0.000    0.000 
#    0.000    0.000    0.000    0.000    0.000    0.000 
#
# Total GULP energy -89337.304695 kJ/mol
# GULP energy per Si atom -5583.581543 kJ/mol
# Density = 2.316550 g / cm^3
# Si number density = 23.218349 Si / 1000 Ang^3
#
#
#
# Elastic Constant Matrix: (Units=GPa)
#
#
# Indices 1 2 3 4 5 6 
#
# 1 64.4940 18.5354 46.1166 9.0204 -25.9255 -10.8004
# 2 18.5354 167.7754 78.5188 5.6664 -25.1305 19.9796
# 3 46.1166 78.5188 126.6862 17.9065 -42.0425 7.1645
# 4 9.0204 5.6664 17.9065 55.2797 -1.4902 -14.8521
# 5 -25.9255 -25.1305 -42.0425 -1.4902 34.4395 5.6225
# 6 -10.8004 19.9796 7.1645 -14.8521 5.6225 29.2138
#
#
#
# Elastic Compliance Matrix: (Units=1/GPa)
#
#
# Indices 1 2 3 4 5 6 
#
# 1 0.025865 0.000923 -0.007490 0.000890 0.009507 0.009390
# 2 0.000923 0.009163 -0.004685 -0.001064 0.002565 -0.005811
# 3 -0.007490 -0.004685 0.021853 -0.008314 0.019363 -0.012878
# 4 0.000890 -0.001064 -0.008314 0.025341 -0.012150 0.018318
# 5 0.009507 0.002565 0.019363 -0.012150 0.064706 -0.021618
# 6 0.009390 -0.005811 -0.012878 0.018318 -0.021618 0.058308
#
#
# Mechanical properties :
#
#
# Convention : Reuss Voigt Hill
#
# Bulk Modulus (GPa) = 29.08781 71.69969 50.39375
# Shear Modulus (GPa) = 20.90315 38.17226 29.53771
#
# Velocity S-wave (km/s) = 3.00373 4.05909 3.57062
# Velocity P-wave (km/s) = 4.95833 7.27434 6.22499
#
# Compressibility (1/GPa) = 0.03437866
#
# Stress axis : x y z
#
# Youngs Moduli (GPa) = 38.66202 109.13370 45.76009
#
# Poissons Ratio (x) = -0.10076 0.34272
# Poissons Ratio (y) = -0.03570 0.21439
# Poissons Ratio (z) = 0.28956 0.51130
#
# Static dielectric constant tensor:
#      x y z
#    x 1.958760 0.021020 0.003420 
#    y 0.021020 1.805110 0.190880 
#    z 0.003420 0.190880 1.646020 
# 
# From -- ./inp_files/599215.got.cif
#   From: 2010.05.17/outbox.cif.g08.bks.cpg/sg2_300_cif.got.tgz:599215.got - 2010.06.03 11:33:40.
