data_PCOD9110163
_publ_section_title
;
Structure prediction by ZEFSAII (Michael W. Deem and Ramdas Pophale) SiO2 
 PCOD9110163
Probable space group: P -1
;
_chemical_formula_sum "Si O2"
_cell_formula_units_Z 16
_cell_length_a 11.525561
_cell_length_b 15.319915
_cell_length_c 7.816299
_cell_angle_alpha 84.067358
_cell_angle_beta 111.815452
_cell_angle_gamma 145.818921
_cell_volume 662.459415
_symmetry_space_group_name_H-M "P -1"
_symmetry_group_IT_number 2
_symmetry_cell_setting 'triclinic'
loop_
_space_group_symop_operation_xyz
x,y,z
-x,-y,-z
loop_
_atom_site_type_symbol
_atom_site_label
_atom_site_fract_x
_atom_site_fract_y
_atom_site_fract_z
Si Si1 0.555249 0.292800 0.794259
Si Si2 0.547613 0.433758 0.169141
Si Si3 0.988510 0.139891 0.912584
Si Si4 0.506106 0.781762 0.822641
Si Si5 0.826071 0.069875 0.446299
Si Si6 0.072100 0.380376 0.938710
Si Si7 0.320282 0.337153 0.558312
Si Si8 0.711218 0.180060 0.484087
O O1 0.406805 0.290126 0.651013
O O2 0.427200 0.132622 0.670750
O O3 0.540050 0.257068 0.993706
O O4 0.831387 0.493598 0.893980
O O5 0.588456 0.363470 0.291331
O O6 0.687150 0.508946 0.051311
O O7 0.660596 0.585147 0.287864
O O8 0.261738 0.272771 0.044017
O O9 0.908636 0.098804 0.679517
O O10 0.962983 0.221798 0.967054
O O11 0.792011 0.960079 0.924335
O O12 0.385361 0.793662 0.671165
O O13 0.809555 0.165259 0.410651
O O14 0.031916 0.160687 0.408621
O O15 0.904335 0.317658 0.709974
O O16 0.500000 0.500000 0.500000
O O17 0.500000 0.000000 0.500000
#
# Coordination Sequence:
#
# PCOD9110163 Si02
#       8
#     2   2   2   2   2   2   2   2
#     4  11  26  43  66 104 138 171 224 281 348 399
#     4  11  22  39  66 103 129 172 226 281 332 397
#     4  11  20  41  72  98 134 172 225 277 337 402
#     4  11  25  39  74 102 130 179 231 275 331 404
#     4  11  24  44  69  99 141 179 219 282 338 401
#     4  10  20  41  70  93 134 174 224 274 329 393
#     4  12  26  42  68 100 145 178 217 281 353 399
#     4  11  22  45  73  98 131 181 235 272 326 403
#
# _framework density 24.152422000000001
#
# number of rings (size 3 to 8) (size 9 to 14) (size 15 to 20)
#    0.000    1.000    6.250    2.625    3.500    2.500 
#    0.000    0.625    0.000    0.000    0.000    0.000 
#    0.000    0.000    0.000    0.000    0.000    0.000 
#
# Total GULP energy -89322.725950 kJ/mol
# GULP energy per Si atom -5582.670372 kJ/mol
# Density = 2.409745 g / cm^3
# Si number density = 24.152422 Si / 1000 Ang^3
#
#
#
# Elastic Constant Matrix: (Units=GPa)
#
#
# Indices 1 2 3 4 5 6 
#
# 1 56.1229 11.2223 32.4865 -4.0354 25.1486 -23.5449
# 2 11.2223 98.8068 27.6054 8.6363 7.5517 -31.3483
# 3 32.4865 27.6054 80.4186 13.6358 13.7919 -23.6423
# 4 -4.0354 8.6363 13.6358 53.6458 -13.2430 2.1452
# 5 25.1486 7.5517 13.7919 -13.2430 31.4683 -3.5776
# 6 -23.5449 -31.3483 -23.6423 2.1452 -3.5776 46.0323
#
#
#
# Elastic Compliance Matrix: (Units=1/GPa)
#
#
# Indices 1 2 3 4 5 6 
#
# 1 0.044151 0.006689 -0.007412 -0.004940 -0.033336 0.020970
# 2 0.006689 0.014687 -0.002233 -0.003775 -0.008136 0.011820
# 3 -0.007412 -0.002233 0.019327 -0.006318 -0.004149 0.004586
# 4 -0.004940 -0.003775 -0.006318 0.025066 0.017242 -0.008170
# 5 -0.033336 -0.008136 -0.004149 0.017242 0.067137 -0.020308
# 6 0.020970 0.011820 0.004586 -0.008170 -0.020308 0.041657
#
#
# Mechanical properties :
#
#
# Convention : Reuss Voigt Hill
#
# Bulk Modulus (GPa) = 13.84046 41.99741 27.91893
# Shear Modulus (GPa) = 20.65932 37.16488 28.91210
#
# Velocity S-wave (km/s) = 2.92785 3.92696 3.46362
# Velocity P-wave (km/s) = 4.14399 6.16341 5.25168
#
# Compressibility (1/GPa) = 0.07225193
#
# Stress axis : x y z
#
# Youngs Moduli (GPa) = 22.64962 68.08840 51.74131
#
# Poissons Ratio (x) = -0.45544 0.38350
# Poissons Ratio (y) = -0.15150 0.11556
# Poissons Ratio (z) = 0.16788 0.15207
#
# Static dielectric constant tensor:
#      x y z
#    x 2.048660 0.000670 -0.046670 
#    y 0.000670 1.967450 0.027820 
#    z -0.046670 0.027820 1.994640 
# 
# From -- ./inp_files/270237.got.cif
#   From: 2010.05.17/outbox.cif.g08.bks.cpg/sg2_136_cif.got.tgz:270237.got - 2010.06.03 11:33:40.
