data_PCOD9110679
_publ_section_title
;
Structure prediction by ZEFSAII (Michael W. Deem and Ramdas Pophale) SiO2 
 PCOD9110679
Probable space group: P -1
;
_chemical_formula_sum "Si O2"
_cell_formula_units_Z 16
_cell_length_a 9.227583
_cell_length_b 16.516968
_cell_length_c 9.597326
_cell_angle_alpha 60.689260
_cell_angle_beta 44.910551
_cell_angle_gamma 86.815297
_cell_volume 793.421641
_symmetry_space_group_name_H-M "P -1"
_symmetry_group_IT_number 2
_symmetry_cell_setting 'triclinic'
loop_
_space_group_symop_operation_xyz
x,y,z
-x,-y,-z
loop_
_atom_site_type_symbol
_atom_site_label
_atom_site_fract_x
_atom_site_fract_y
_atom_site_fract_z
Si Si1 0.946071 0.535794 0.862335
Si Si2 0.772788 0.095487 0.356960
Si Si3 0.919628 0.803181 0.426010
Si Si4 0.397906 0.549037 0.410543
Si Si5 0.563878 0.575815 0.763058
Si Si6 0.858525 0.732919 0.833311
Si Si7 0.703397 0.933211 0.316416
Si Si8 0.587126 0.027990 0.075175
O O1 0.928440 0.643355 0.808937
O O2 0.162180 0.552359 0.605859
O O3 0.692227 0.438986 0.081834
O O4 0.000000 0.500000 0.000000
O O5 0.574191 0.124894 0.415477
O O6 0.974797 0.189790 0.225026
O O7 0.817112 0.041564 0.237746
O O8 0.629878 0.002304 0.647284
O O9 0.769617 0.686606 0.570782
O O10 0.874290 0.798734 0.627498
O O11 0.821359 0.867587 0.348924
O O12 0.196923 0.855652 0.170466
O O13 0.500000 0.500000 0.500000
O O14 0.355728 0.472041 0.375756
O O15 0.602134 0.663671 0.130061
O O16 0.500000 0.500000 0.000000
O O17 0.696001 0.958729 0.135540
O O18 0.500000 0.000000 0.000000
#
# Coordination Sequence:
#
# PCOD9110679 Si02
#       8
#     2   2   2   2   2   2   2   2
#     4  11  23  45  68  96 136 178 224 282 338 402
#     4   9  21  44  61  94 132 167 224 274 329 400
#     4  12  22  42  64  98 134 176 218 278 341 391
#     4  11  23  44  68  98 130 177 229 275 336 404
#     4  11  24  45  66  99 142 167 226 289 326 406
#     4  11  23  43  67  97 138 177 225 279 341 401
#     4   9  22  40  64  92 131 170 223 269 329 400
#     4  10  20  42  65  89 131 170 214 269 331 395
#
# _framework density 20.165824000000001
#
# number of rings (size 3 to 8) (size 9 to 14) (size 15 to 20)
#    0.750    0.750    6.250    0.375    1.750    2.000 
#    6.750    0.000    0.000    0.000    0.000    0.000 
#    0.000    0.000    0.000    0.000    0.000    0.000 
#
# Total GULP energy -89085.074823 kJ/mol
# GULP energy per Si atom -5567.817176 kJ/mol
# Density = 2.011993 g / cm^3
# Si number density = 20.165824 Si / 1000 Ang^3
#
#
#
# Elastic Constant Matrix: (Units=GPa)
#
#
# Indices 1 2 3 4 5 6 
#
# 1 111.5939 49.9457 35.6167 -3.1421 3.6087 28.7298
# 2 49.9457 75.4389 38.9207 -3.6769 -19.5119 26.2080
# 3 35.6167 38.9207 106.4115 0.8743 -21.2342 5.6263
# 4 -3.1421 -3.6769 0.8743 35.3871 8.0344 -7.3032
# 5 3.6087 -19.5119 -21.2342 8.0344 54.0060 -7.1778
# 6 28.7298 26.2080 5.6263 -7.3032 -7.1778 35.0333
#
#
#
# Elastic Compliance Matrix: (Units=1/GPa)
#
#
# Indices 1 2 3 4 5 6 
#
# 1 0.015581 -0.007458 -0.003303 0.000470 -0.006145 -0.007829
# 2 -0.007458 0.026771 -0.005297 -0.001768 0.006750 -0.012046
# 3 -0.003303 -0.005297 0.013027 -0.001057 0.004282 0.005236
# 4 0.000470 -0.001768 -0.001057 0.030568 -0.004769 0.006503
# 5 -0.006145 0.006750 0.004282 -0.004769 0.024193 0.003265
# 6 -0.007829 -0.012046 0.005236 0.006503 0.003265 0.045159
#
#
# Mechanical properties :
#
#
# Convention : Reuss Voigt Hill
#
# Bulk Modulus (GPa) = 42.98907 60.26783 51.62845
# Shear Modulus (GPa) = 25.61897 36.14937 30.88417
#
# Velocity S-wave (km/s) = 3.56816 4.23851 3.91770
# Velocity P-wave (km/s) = 6.19191 7.34195 6.79132
#
# Compressibility (1/GPa) = 0.02326173
#
# Stress axis : x y z
#
# Youngs Moduli (GPa) = 64.18198 37.35439 76.76473
#
# Poissons Ratio (x) = 0.27859 0.25358
# Poissons Ratio (y) = 0.47867 0.40662
# Poissons Ratio (z) = 0.21201 0.19787
#
# Static dielectric constant tensor:
#      x y z
#    x 1.754770 -0.074730 -0.039740 
#    y -0.074730 1.792460 0.085950 
#    z -0.039740 0.085950 1.822290 
# 
# From -- ./inp_files/214699.got.cif
#   From: 2010.05.17/outbox.cif.g08.bks.cpg/sg2_108_cif.got.tgz:214699.got - 2010.06.03 11:33:40.
