data_PCOD9110251
_publ_section_title
;
Structure prediction by ZEFSAII (Michael W. Deem and Ramdas Pophale) SiO2 
 PCOD9110251
Probable space group: P -1
;
_chemical_formula_sum "Si O2"
_cell_formula_units_Z 16
_cell_length_a 13.985847
_cell_length_b 17.970076
_cell_length_c 18.031582
_cell_angle_alpha 23.664095
_cell_angle_beta 154.859970
_cell_angle_gamma 138.749952
_cell_volume 688.756575
_symmetry_space_group_name_H-M "P -1"
_symmetry_group_IT_number 2
_symmetry_cell_setting 'triclinic'
loop_
_space_group_symop_operation_xyz
x,y,z
-x,-y,-z
loop_
_atom_site_type_symbol
_atom_site_label
_atom_site_fract_x
_atom_site_fract_y
_atom_site_fract_z
Si Si1 0.650988 0.836845 0.189832
Si Si2 0.922363 0.292494 0.224415
Si Si3 0.145763 0.780282 0.514630
Si Si4 0.101843 0.566173 0.197019
Si Si5 0.512056 0.788161 0.971228
Si Si6 0.721666 0.616202 0.128781
Si Si7 0.798660 0.859335 0.840582
Si Si8 0.999781 0.127627 0.273141
O O1 0.564795 0.862412 0.019837
O O2 0.672207 0.614860 0.434379
O O3 0.500000 0.000000 0.000000
O O4 0.698297 0.003286 0.407162
O O5 0.016825 0.439259 0.196256
O O6 0.955927 0.280239 0.171636
O O7 0.062658 0.052041 0.572661
O O8 0.634748 0.348502 0.989723
O O9 0.168405 0.607584 0.628614
O O10 0.076424 0.992541 0.227631
O O11 0.937132 0.808357 0.404336
O O12 0.420237 0.709170 0.810164
O O13 0.886439 0.686174 0.996486
O O14 0.133900 0.741492 0.012387
O O15 0.723152 0.656681 0.180134
O O16 0.845976 0.743360 0.057451
O O17 0.500000 0.000000 0.500000
#
# Coordination Sequence:
#
# PCOD9110251 Si02
#       8
#     2   2   2   2   2   2   2   2
#     4  12  27  44  66  99 147 181 216 270 349 411
#     4   9  21  38  66  92 129 170 229 276 323 380
#     4  10  22  42  69  98 131 181 220 279 337 387
#     4  12  22  39  70  95 126 178 230 274 328 398
#     4  10  22  41  64  97 136 178 212 281 340 393
#     4  10  20  41  71  96 127 171 237 280 322 392
#     4  10  22  36  66 103 125 158 231 285 318 383
#     4   9  20  39  66  92 126 169 236 279 314 388
#
# _framework density 23.230267999999999
#
# number of rings (size 3 to 8) (size 9 to 14) (size 15 to 20)
#    0.750    1.000    1.250    3.375    5.250    0.500 
#    0.000    4.375    0.000    0.000    0.000    0.000 
#    0.000    0.000    0.000    0.000    0.000    0.000 
#
# Total GULP energy -89291.839820 kJ/mol
# GULP energy per Si atom -5580.739989 kJ/mol
# Density = 2.317740 g / cm^3
# Si number density = 23.230268 Si / 1000 Ang^3
#
#
#
# Elastic Constant Matrix: (Units=GPa)
#
#
# Indices 1 2 3 4 5 6 
#
# 1 150.9693 50.9952 47.1747 -19.4509 4.8777 -40.7079
# 2 50.9952 83.6027 26.5144 -7.5167 3.0364 -28.8912
# 3 47.1747 26.5144 93.4210 -22.3054 -16.8912 -15.5095
# 4 -19.4509 -7.5167 -22.3054 30.2872 -5.5831 8.1799
# 5 4.8777 3.0364 -16.8912 -5.5831 38.2849 -7.9461
# 6 -40.7079 -28.8912 -15.5095 8.1799 -7.9461 50.2214
#
#
#
# Elastic Compliance Matrix: (Units=1/GPa)
#
#
# Indices 1 2 3 4 5 6 
#
# 1 0.010403 -0.003385 -0.003218 0.001908 -0.001161 0.004997
# 2 -0.003385 0.016925 -0.002679 -0.001842 -0.001054 0.006299
# 3 -0.003218 -0.002679 0.018136 0.012282 0.010651 0.001136
# 4 0.001908 -0.001842 0.012282 0.045321 0.011670 -0.001255
# 5 -0.001161 -0.001054 0.010651 0.011670 0.033830 0.005193
# 6 0.004997 0.006299 0.001136 -0.001255 0.005193 0.028963
#
#
# Mechanical properties :
#
#
# Convention : Reuss Voigt Hill
#
# Bulk Modulus (GPa) = 37.17178 64.15127 50.66153
# Shear Modulus (GPa) = 27.60763 37.31263 32.46013
#
# Velocity S-wave (km/s) = 3.45111 4.01210 3.74213
# Velocity P-wave (km/s) = 5.64946 7.00984 6.36609
#
# Compressibility (1/GPa) = 0.02690212
#
# Stress axis : x y z
#
# Youngs Moduli (GPa) = 96.12239 59.08423 55.13817
#
# Poissons Ratio (x) = 0.19998 0.17741
# Poissons Ratio (y) = 0.32534 0.14772
# Poissons Ratio (z) = 0.30927 0.15829
#
# Static dielectric constant tensor:
#      x y z
#    x 1.874900 0.038970 0.034170 
#    y 0.038970 1.905000 0.072980 
#    z 0.034170 0.072980 1.988070 
# 
# From -- ./inp_files/533172.got.cif
#   From: 2010.05.17/outbox.cif.g08.bks.cpg/sg2_267_cif.got.tgz:533172.got - 2010.06.03 11:33:40.
