data_PCOD9110754
_publ_section_title
;
Structure prediction by ZEFSAII (Michael W. Deem and Ramdas Pophale) SiO2 
 PCOD9110754
Probable space group: P -1
;
_chemical_formula_sum "Si O2"
_cell_formula_units_Z 16
_cell_length_a 9.548442
_cell_length_b 9.415178
_cell_length_c 16.584057
_cell_angle_alpha 50.471079
_cell_angle_beta 126.963314
_cell_angle_gamma 135.959979
_cell_volume 770.120652
_symmetry_space_group_name_H-M "P -1"
_symmetry_group_IT_number 2
_symmetry_cell_setting 'triclinic'
loop_
_space_group_symop_operation_xyz
x,y,z
-x,-y,-z
loop_
_atom_site_type_symbol
_atom_site_label
_atom_site_fract_x
_atom_site_fract_y
_atom_site_fract_z
Si Si1 0.359501 0.636835 0.627866
Si Si2 0.265268 0.543311 0.915710
Si Si3 0.847234 0.480037 0.729518
Si Si4 0.203970 0.151540 0.356529
Si Si5 0.559677 0.571969 0.126433
Si Si6 0.799129 0.847441 0.253768
Si Si7 0.877995 0.190914 0.430342
Si Si8 0.431792 0.016061 0.750699
O O1 0.564747 0.798058 0.589705
O O2 0.450328 0.613940 0.753292
O O3 0.243121 0.386822 0.646187
O O4 0.204415 0.712123 0.566480
O O5 0.307428 0.409765 0.912325
O O6 0.036392 0.493768 0.839063
O O7 0.421933 0.801901 0.856162
O O8 0.337190 0.512879 0.038523
O O9 0.773650 0.619624 0.701393
O O10 0.659418 0.232128 0.742226
O O11 0.938934 0.608580 0.630132
O O12 0.086651 0.981669 0.450747
O O13 0.045943 0.026796 0.273263
O O14 0.683480 0.784074 0.150245
O O15 0.693335 0.931188 0.246986
O O16 0.694789 0.054219 0.351087
#
# Coordination Sequence:
#
# PCOD9110754 Si02
#       8
#     2   2   2   2   2   2   2   2
#     4  10  22  43  56  91 124 156 199 254 300 354
#     4  10  20  42  66  88 120 159 201 246 304 362
#     4  11  21  39  61  93 120 155 208 249 294 357
#     4  12  23  39  64  88 124 165 201 249 303 354
#     4   9  20  43  62  88 127 154 192 261 298 354
#     4  10  21  39  59  88 126 155 196 253 298 352
#     4  11  24  40  63  88 123 163 206 248 299 354
#     4  11  21  39  63  90 123 158 202 251 296 362
#
# _framework density 20.775967000000001
#
# number of rings (size 3 to 8) (size 9 to 14) (size 15 to 20)
#    0.750    0.750    6.250    0.750    0.000    4.500 
#    2.250    2.500    0.000    0.000    0.000    0.000 
#    0.000    0.000    0.000    0.000    0.000    0.000 
#
# Total GULP energy -89263.335394 kJ/mol
# GULP energy per Si atom -5578.958462 kJ/mol
# Density = 2.072868 g / cm^3
# Si number density = 20.775967 Si / 1000 Ang^3
#
#
#
# Elastic Constant Matrix: (Units=GPa)
#
#
# Indices 1 2 3 4 5 6 
#
# 1 57.8062 29.9332 -12.9178 9.4640 12.9593 -9.6544
# 2 29.9332 96.8471 -5.4078 9.4721 0.9287 9.2459
# 3 -12.9178 -5.4078 56.0558 -3.4330 1.8524 -2.6012
# 4 9.4640 9.4721 -3.4330 11.8983 -5.4061 0.5698
# 5 12.9593 0.9287 1.8524 -5.4061 18.0867 -0.9011
# 6 -9.6544 9.2459 -2.6012 0.5698 -0.9011 40.1442
#
#
#
# Elastic Compliance Matrix: (Units=1/GPa)
#
#
# Indices 1 2 3 4 5 6 
#
# 1 0.043726 -0.009357 0.008442 -0.045858 -0.044781 0.012864
# 2 -0.009357 0.013706 -0.001332 -0.001076 0.005549 -0.005354
# 3 0.008442 -0.001332 0.019860 -0.004228 -0.009105 0.003479
# 4 -0.045858 -0.001076 -0.004228 0.156908 0.079673 -0.011493
# 5 -0.044781 0.005549 -0.009105 0.079673 0.111276 -0.011270
# 6 0.012864 -0.005354 0.003479 -0.011493 -0.011270 0.029372
#
#
# Mechanical properties :
#
#
# Convention : Reuss Voigt Hill
#
# Bulk Modulus (GPa) = 13.73636 25.99160 19.86398
# Shear Modulus (GPa) = 12.38826 27.29928 19.84377
#
# Velocity S-wave (km/s) = 2.44453 3.62882 3.09387
# Velocity P-wave (km/s) = 3.82016 5.48593 4.72700
#
# Compressibility (1/GPa) = 0.07279950
#
# Stress axis : x y z
#
# Youngs Moduli (GPa) = 22.86952 72.95922 50.35311
#
# Poissons Ratio (x) = 0.68267 -0.42509
# Poissons Ratio (y) = 0.21399 0.06705
# Poissons Ratio (z) = -0.19307 0.09716
#
# Static dielectric constant tensor:
#      x y z
#    x 1.775790 -0.004710 -0.010150 
#    y -0.004710 1.718990 0.006490 
#    z -0.010150 0.006490 1.763260 
# 
# From -- ./inp_files/557048.got.cif
#   From: 2010.05.17/outbox.cif.g08.bks.cpg/sg2_279_cif.got.tgz:557048.got - 2010.06.03 11:33:40.
