data_PCOD9110154
_publ_section_title
;
Structure prediction by ZEFSAII (Michael W. Deem and Ramdas Pophale) SiO2 
 PCOD9110154
Probable space group: P -1
;
_chemical_formula_sum "Si O2"
_cell_formula_units_Z 16
_cell_length_a 15.882436
_cell_length_b 12.198883
_cell_length_c 21.158732
_cell_angle_alpha 35.422092
_cell_angle_beta 155.942051
_cell_angle_gamma 156.876801
_cell_volume 648.323696
_symmetry_space_group_name_H-M "P -1"
_symmetry_group_IT_number 2
_symmetry_cell_setting 'triclinic'
loop_
_space_group_symop_operation_xyz
x,y,z
-x,-y,-z
loop_
_atom_site_type_symbol
_atom_site_label
_atom_site_fract_x
_atom_site_fract_y
_atom_site_fract_z
Si Si1 0.343610 0.594226 0.866157
Si Si2 0.864227 0.207578 0.438153
Si Si3 0.793773 0.685527 0.983155
Si Si4 0.699905 0.410976 0.719286
Si Si5 0.959092 0.216117 0.032697
Si Si6 0.911916 0.864404 0.263420
Si Si7 0.701916 0.697302 0.407393
Si Si8 0.274659 0.991453 0.818417
O O1 0.197991 0.613494 0.700582
O O2 0.500000 0.500000 0.000000
O O3 0.122750 0.411658 0.860397
O O4 0.610084 0.906591 0.929322
O O5 0.911993 0.181031 0.556348
O O6 0.150179 0.350153 0.518925
O O7 0.569589 0.885861 0.361927
O O8 0.875044 0.695278 0.962569
O O9 0.420559 0.442412 0.842944
O O10 0.000000 0.000000 0.000000
O O11 0.538693 0.469911 0.621197
O O12 0.966036 0.676011 0.732218
O O13 0.889030 0.394601 0.902877
O O14 0.067315 0.117357 0.200558
O O15 0.831045 0.946781 0.226977
O O16 0.562279 0.766018 0.234294
O O17 0.000000 0.000000 0.500000
O O18 0.500000 0.000000 0.000000
#
# Coordination Sequence:
#
# PCOD9110154 Si02
#       8
#     2   2   2   2   2   2   2   2
#     4  10  20  41  70  88 115 160 215 269 321 382
#     4   9  21  41  62  95 133 169 208 268 323 377
#     4  11  22  41  68  87 119 164 217 269 322 378
#     4  10  21  38  64  89 129 181 214 246 314 381
#     4  10  21  38  63  94 121 165 215 259 313 382
#     4  10  23  38  58  93 133 160 206 271 318 370
#     4   9  20  37  57  88 132 169 212 255 307 375
#     4  11  22  37  59  93 129 172 217 258 302 375
#
# _framework density 24.679030000000001
#
# number of rings (size 3 to 8) (size 9 to 14) (size 15 to 20)
#    0.000    2.000    1.250    1.500    0.000   12.500 
#    0.000    9.375    0.000    0.000    0.000    0.000 
#    0.000    0.000    0.000    0.000    0.000    0.000 
#
# Total GULP energy -89181.802289 kJ/mol
# GULP energy per Si atom -5573.862643 kJ/mol
# Density = 2.462286 g / cm^3
# Si number density = 24.679030 Si / 1000 Ang^3
#
#
#
# Elastic Constant Matrix: (Units=GPa)
#
#
# Indices 1 2 3 4 5 6 
#
# 1 79.8312 16.4023 21.9645 -12.5350 -5.9858 21.0093
# 2 16.4023 114.8495 35.1769 -5.3185 0.6766 19.4055
# 3 21.9645 35.1769 139.6980 -35.6949 -20.0541 7.4048
# 4 -12.5350 -5.3185 -35.6949 49.8794 5.1380 -13.7821
# 5 -5.9858 0.6766 -20.0541 5.1380 40.0290 -4.0760
# 6 21.0093 19.4055 7.4048 -13.7821 -4.0760 39.0091
#
#
#
# Elastic Compliance Matrix: (Units=1/GPa)
#
#
# Indices 1 2 3 4 5 6 
#
# 1 0.015138 -0.000371 -0.001694 0.000437 0.000609 -0.007429
# 2 -0.000371 0.010607 -0.003297 -0.002654 -0.002117 -0.005610
# 3 -0.001694 -0.003297 0.010587 0.007328 0.004533 0.003606
# 4 0.000437 -0.002654 0.007328 0.027644 0.001210 0.009587
# 5 0.000609 -0.002117 0.004533 0.001210 0.027547 0.003171
# 6 -0.007429 -0.005610 0.003606 0.009587 0.003171 0.035460
#
#
# Mechanical properties :
#
#
# Convention : Reuss Voigt Hill
#
# Bulk Modulus (GPa) = 39.05076 53.49623 46.27349
# Shear Modulus (GPa) = 34.18923 43.17251 38.68087
#
# Velocity S-wave (km/s) = 3.72607 4.18707 3.96328
# Velocity P-wave (km/s) = 5.86253 6.71560 6.30352
#
# Compressibility (1/GPa) = 0.02560770
#
# Stress axis : x y z
#
# Youngs Moduli (GPa) = 66.05871 94.27344 94.45530
#
# Poissons Ratio (x) = 0.03501 0.15998
# Poissons Ratio (y) = 0.02453 0.31145
# Poissons Ratio (z) = 0.11188 0.31085
#
# Static dielectric constant tensor:
#      x y z
#    x 2.075360 0.031020 -0.179980 
#    y 0.031020 1.965840 -0.016170 
#    z -0.179980 -0.016170 2.129910 
# 
# From -- ./inp_files/613247.got.cif
#   From: 2010.05.17/outbox.cif.g08.bks.cpg/sg2_307_cif.got.tgz:613247.got - 2010.06.03 11:33:40.
