data_PCOD9110266
_publ_section_title
;
Structure prediction by ZEFSAII (Michael W. Deem and Ramdas Pophale) SiO2 
 PCOD9110266
Probable space group: P -1
;
_chemical_formula_sum "Si O2"
_cell_formula_units_Z 14
_cell_length_a 9.719147
_cell_length_b 7.071526
_cell_length_c 10.026583
_cell_angle_alpha 120.357743
_cell_angle_beta 95.646869
_cell_angle_gamma 81.824101
_cell_volume 588.304003
_symmetry_space_group_name_H-M "P -1"
_symmetry_group_IT_number 2
_symmetry_cell_setting 'triclinic'
loop_
_space_group_symop_operation_xyz
x,y,z
-x,-y,-z
loop_
_atom_site_type_symbol
_atom_site_label
_atom_site_fract_x
_atom_site_fract_y
_atom_site_fract_z
Si Si1 0.318341 0.450781 0.112176
Si Si2 0.493004 0.094838 0.380201
Si Si3 0.920586 0.262212 0.349755
Si Si4 0.796206 0.721838 0.520963
Si Si5 0.853710 0.940440 0.026619
Si Si6 0.760138 0.189662 0.542310
Si Si7 0.407699 0.775590 0.028788
O O1 0.289919 0.645561 0.285422
O O2 0.344104 0.567349 0.015089
O O3 0.467669 0.301994 0.089622
O O4 0.190345 0.304364 0.052977
O O5 0.355233 0.265282 0.423248
O O6 0.636802 0.197420 0.424415
O O7 0.500000 0.000000 0.500000
O O8 0.474948 0.909084 0.202612
O O9 0.839941 0.489712 0.370517
O O10 0.866380 0.046049 0.210561
O O11 0.085491 0.257386 0.349263
O O12 0.207545 0.058285 0.489153
O O13 0.891765 0.263485 0.505373
O O14 0.722496 0.074573 0.989895
O O15 0.000000 0.000000 0.000000
#
# Coordination Sequence:
#
# PCOD9110266 Si02
#       7
#     2   2   2   2   2   2   2
#     4  11  26  44  74 103 140 186 228 290 351 406
#     4  10  20  41  71  99 131 171 229 283 335 404
#     4  11  26  44  69  98 136 186 228 282 340 415
#     4  10  23  44  69 100 133 172 234 287 339 396
#     4  12  29  47  69 102 147 187 232 279 354 419
#     4  11  24  43  73 104 132 176 236 285 347 403
#     4  11  24  48  70 103 146 179 233 287 347 417
#
# _framework density 23.797219999999999
#
# number of rings (size 3 to 8) (size 9 to 14) (size 15 to 20)
#    0.000    1.143    2.857    2.571    8.000    3.429 
#    0.000    0.000    0.000    0.000    0.000    0.000 
#    0.000    0.000    0.000    0.000    0.000    0.000 
#
# Total GULP energy -78257.215890 kJ/mol
# GULP energy per Si atom -5589.801135 kJ/mol
# Density = 2.374306 g / cm^3
# Si number density = 23.797220 Si / 1000 Ang^3
#
#
#
# Elastic Constant Matrix: (Units=GPa)
#
#
# Indices 1 2 3 4 5 6 
#
# 1 128.1401 37.8519 19.4031 7.8227 -3.4832 -0.6466
# 2 37.8519 98.6001 5.0246 19.2887 8.2533 8.2591
# 3 19.4031 5.0246 32.9880 0.9624 4.9044 -1.0627
# 4 7.8227 19.2887 0.9624 21.6809 11.6453 0.2605
# 5 -3.4832 8.2533 4.9044 11.6453 35.0365 3.8399
# 6 -0.6466 8.2591 -1.0627 0.2605 3.8399 43.6754
#
#
#
# Elastic Compliance Matrix: (Units=1/GPa)
#
#
# Indices 1 2 3 4 5 6 
#
# 1 0.009887 -0.003413 -0.005702 -0.002006 0.003210 0.000383
# 2 -0.003413 0.013841 0.000080 -0.011284 0.000429 -0.002636
# 3 -0.005702 0.000080 0.034612 0.004174 -0.006964 0.001330
# 4 -0.002006 -0.011284 0.004174 0.068007 -0.021131 0.003658
# 5 0.003210 0.000429 -0.006964 -0.021131 0.037124 -0.003341
# 6 0.000383 -0.002636 0.001330 0.003658 -0.003341 0.023705
#
#
# Mechanical properties :
#
#
# Convention : Reuss Voigt Hill
#
# Bulk Modulus (GPa) = 24.83271 42.69860 33.76566
# Shear Modulus (GPa) = 22.86552 33.24179 28.05365
#
# Velocity S-wave (km/s) = 3.10312 3.74154 3.43718
# Velocity P-wave (km/s) = 4.82669 6.05368 5.47467
#
# Compressibility (1/GPa) = 0.04026947
#
# Stress axis : x y z
#
# Youngs Moduli (GPa) = 101.13934 72.25092 28.89156
#
# Poissons Ratio (x) = 0.24662 0.16474
# Poissons Ratio (y) = 0.34523 -0.00231
# Poissons Ratio (z) = 0.57671 -0.00579
#
# Static dielectric constant tensor:
#      x y z
#    x 1.955160 -0.000340 -0.020500 
#    y -0.000340 1.935930 -0.011880 
#    z -0.020500 -0.011880 1.919030 
# 
# From -- ./inp_files/380394.got.cif
#   From: 2010.05.17/outbox.cif.g08.bks.cpg/sg2_191_cif.got.tgz:380394.got - 2010.06.03 11:33:40.
