data_PCOD9110218
_publ_section_title
;
Structure prediction by ZEFSAII (Michael W. Deem and Ramdas Pophale) SiO2 
 PCOD9110218
Probable space group: P -1
;
_chemical_formula_sum "Si O2"
_cell_formula_units_Z 14
_cell_length_a 11.301181
_cell_length_b 10.866381
_cell_length_c 7.195885
_cell_angle_alpha 89.784868
_cell_angle_beta 140.645369
_cell_angle_gamma 88.173168
_cell_volume 559.507582
_symmetry_space_group_name_H-M "P -1"
_symmetry_group_IT_number 2
_symmetry_cell_setting 'triclinic'
loop_
_space_group_symop_operation_xyz
x,y,z
-x,-y,-z
loop_
_atom_site_type_symbol
_atom_site_label
_atom_site_fract_x
_atom_site_fract_y
_atom_site_fract_z
Si Si1 0.148961 0.811074 0.737417
Si Si2 0.314301 0.536335 0.024695
Si Si3 0.774560 0.729784 0.162000
Si Si4 0.259078 0.484736 0.400605
Si Si5 0.982460 0.698241 0.048451
Si Si6 0.818861 0.077442 0.852083
Si Si7 0.414547 0.900670 0.763753
O O1 0.228791 0.856273 0.639075
O O2 0.927198 0.796427 0.467745
O O3 0.238339 0.673042 0.880237
O O4 0.205085 0.911944 0.957107
O O5 0.283153 0.516200 0.209048
O O6 0.537665 0.525154 0.266686
O O7 0.226881 0.418727 0.821139
O O8 0.845939 0.755098 0.038772
O O9 0.567454 0.787936 0.934223
O O10 0.113893 0.589163 0.300569
O O11 0.151170 0.359827 0.265565
O O12 0.125863 0.784482 0.129386
O O13 0.645661 0.049489 0.512278
O O14 0.000000 0.000000 0.000000
O O15 0.500000 0.000000 0.000000
#
# Coordination Sequence:
#
# PCOD9110218 Si02
#       7
#     2   2   2   2   2   2   2
#     4  12  27  48  75 108 148 187 239 299 354 428
#     4  10  21  39  70 109 147 186 237 285 362 425
#     4  11  25  46  74 104 152 191 230 298 357 428
#     4   9  19  37  68 108 148 185 232 294 348 435
#     4  10  20  41  71 101 146 189 229 292 362 412
#     4  12  27  48  78 104 140 191 245 297 360 422
#     4  12  30  53  72 105 145 189 246 300 356 422
#
# _framework density 25.022003999999999
#
# number of rings (size 3 to 8) (size 9 to 14) (size 15 to 20)
#    0.000    1.143    2.857    2.143    6.000    4.571 
#    0.000    0.000    0.000    0.000    0.000    0.000 
#    0.000    0.000    0.000    0.000    0.000    0.000 
#
# Total GULP energy -78433.561063 kJ/mol
# GULP energy per Si atom -5602.397219 kJ/mol
# Density = 2.496505 g / cm^3
# Si number density = 25.022004 Si / 1000 Ang^3
#
#
#
# Elastic Constant Matrix: (Units=GPa)
#
#
# Indices 1 2 3 4 5 6 
#
# 1 94.7391 -0.6717 22.1343 0.6894 -0.1438 -15.8922
# 2 -0.6717 59.0601 24.6292 8.6044 0.3514 -29.8829
# 3 22.1343 24.6292 123.5826 17.4919 15.0068 -16.9706
# 4 0.6894 8.6044 17.4919 37.9001 -4.2731 4.2572
# 5 -0.1438 0.3514 15.0068 -4.2731 38.2993 1.2156
# 6 -15.8922 -29.8829 -16.9706 4.2572 1.2156 34.7459
#
#
#
# Elastic Compliance Matrix: (Units=1/GPa)
#
#
# Indices 1 2 3 4 5 6 
#
# 1 0.012939 0.006924 -0.001857 -0.002199 0.000111 0.011231
# 2 0.006924 0.038109 -0.001799 -0.012307 -0.002155 0.036647
# 3 -0.001857 -0.001799 0.010644 -0.005429 -0.004882 0.003638
# 4 -0.002199 -0.012307 -0.005429 0.034581 0.006684 -0.018713
# 5 0.000111 -0.002155 -0.004882 0.006684 0.028980 -0.006020
# 6 0.011231 0.036647 0.003638 -0.018713 -0.006020 0.069716
#
#
# Mechanical properties :
#
#
# Convention : Reuss Voigt Hill
#
# Bulk Modulus (GPa) = 14.65683 41.06282 27.85982
# Shear Modulus (GPa) = 23.67711 37.60838 30.64275
#
# Velocity S-wave (km/s) = 3.07946 3.88108 3.50327
# Velocity P-wave (km/s) = 4.30283 6.04400 5.24616
#
# Compressibility (1/GPa) = 0.06822759
#
# Stress axis : x y z
#
# Youngs Moduli (GPa) = 77.28862 26.24041 93.95138
#
# Poissons Ratio (x) = -0.18169 0.17448
# Poissons Ratio (y) = -0.53516 0.16902
# Poissons Ratio (z) = 0.14354 0.04721
#
# Static dielectric constant tensor:
#      x y z
#    x 1.986660 0.016300 -0.074530 
#    y 0.016300 2.013720 0.013230 
#    z -0.074530 0.013230 1.980440 
# 
# From -- ./inp_files/307638.got.cif
#   From: 2010.05.17/outbox.cif.g08.bks.cpg/sg2_154_cif.got.tgz:307638.got - 2010.06.03 11:33:40.
