data_PCOD9110240
_publ_section_title
;
Structure prediction by ZEFSAII (Michael W. Deem and Ramdas Pophale) SiO2 
 PCOD9110240
Probable space group: P -1
;
_chemical_formula_sum "Si O2"
_cell_formula_units_Z 16
_cell_length_a 8.460202
_cell_length_b 23.668265
_cell_length_c 7.097916
_cell_angle_alpha 84.392409
_cell_angle_beta 84.589485
_cell_angle_gamma 27.210933
_cell_volume 646.707468
_symmetry_space_group_name_H-M "P -1"
_symmetry_group_IT_number 2
_symmetry_cell_setting 'triclinic'
loop_
_space_group_symop_operation_xyz
x,y,z
-x,-y,-z
loop_
_atom_site_type_symbol
_atom_site_label
_atom_site_fract_x
_atom_site_fract_y
_atom_site_fract_z
Si Si1 0.581830 0.852582 0.122377
Si Si2 0.806995 0.433183 0.233861
Si Si3 0.316742 0.268161 0.524272
Si Si4 0.712360 0.345130 0.058690
Si Si5 0.334713 0.924046 0.722940
Si Si6 0.308038 0.114074 0.564131
Si Si7 0.336476 0.357459 0.069240
Si Si8 0.748268 0.208281 0.693371
O O1 0.684374 0.766413 0.267105
O O2 0.466663 0.932234 0.273145
O O3 0.364952 0.904209 0.948344
O O4 0.902807 0.783468 0.018439
O O5 0.728227 0.396247 0.169884
O O6 0.924930 0.389713 0.450753
O O7 0.511958 0.565294 0.130630
O O8 0.163820 0.353393 0.159241
O O9 0.621630 0.144488 0.394445
O O10 0.442382 0.290780 0.556564
O O11 0.555890 0.336595 0.161526
O O12 0.673473 0.847557 0.620195
O O13 0.020995 0.068675 0.691721
O O14 0.940430 0.206210 0.632449
O O15 0.500000 0.000000 0.500000
O O16 0.586073 0.262540 0.900039
O O17 0.000000 0.500000 0.000000
#
# Coordination Sequence:
#
# PCOD9110240 Si02
#       8
#     2   2   2   2   2   2   2   2
#     4  11  21  41  65  91 133 171 227 269 329 402
#     4  10  22  42  65  99 133 172 223 281 333 389
#     4  11  24  41  63  98 137 169 226 280 328 408
#     4  10  20  41  71  93 130 179 217 274 342 388
#     4  10  23  42  65  96 134 177 219 275 331 407
#     4   9  21  40  61  94 129 166 224 270 324 404
#     4  10  22  43  69 100 133 175 230 276 328 408
#     4  11  22  41  64  96 138 175 217 277 345 390
#
# _framework density 24.740705999999999
#
# number of rings (size 3 to 8) (size 9 to 14) (size 15 to 20)
#    0.000    1.750    2.500    1.125    0.000    4.000 
#    6.750    2.500    0.000    0.000    0.000    0.000 
#    0.000    0.000    0.000    0.000    0.000    0.000 
#
# Total GULP energy -89143.605694 kJ/mol
# GULP energy per Si atom -5571.475356 kJ/mol
# Density = 2.468439 g / cm^3
# Si number density = 24.740706 Si / 1000 Ang^3
#
#
#
# Elastic Constant Matrix: (Units=GPa)
#
#
# Indices 1 2 3 4 5 6 
#
# 1 137.3608 -9.2386 31.9122 3.9818 13.6205 -18.7950
# 2 -9.2386 30.4745 -4.9087 -10.0093 -6.1943 -5.0515
# 3 31.9122 -4.9087 112.7117 -24.1575 10.5097 -2.2861
# 4 3.9818 -10.0093 -24.1575 29.2232 -6.6162 5.0486
# 5 13.6205 -6.1943 10.5097 -6.6162 28.2809 8.0595
# 6 -18.7950 -5.0515 -2.2861 5.0486 8.0595 32.4925
#
#
#
# Elastic Compliance Matrix: (Units=1/GPa)
#
#
# Indices 1 2 3 4 5 6 
#
# 1 0.010383 -0.000214 -0.003715 -0.007932 -0.008072 0.008946
# 2 -0.000214 0.043664 0.005588 0.022409 0.012712 0.000423
# 3 -0.003715 0.005588 0.012919 0.014203 0.002442 -0.003184
# 4 -0.007932 0.022409 0.014203 0.062454 0.022443 -0.015376
# 5 -0.008072 0.012712 0.002442 0.022443 0.051744 -0.018843
# 6 0.008946 0.000423 -0.003184 -0.015376 -0.018843 0.042856
#
#
# Mechanical properties :
#
#
# Convention : Reuss Voigt Hill
#
# Bulk Modulus (GPa) = 14.22776 35.11967 24.67371
# Shear Modulus (GPa) = 20.48087 35.51811 27.99949
#
# Velocity S-wave (km/s) = 2.88031 3.79306 3.36775
# Velocity P-wave (km/s) = 4.10180 5.78005 5.01168
#
# Compressibility (1/GPa) = 0.07028516
#
# Stress axis : x y z
#
# Youngs Moduli (GPa) = 96.30848 22.90227 77.40380
#
# Poissons Ratio (x) = 0.00490 0.28757
# Poissons Ratio (y) = 0.02059 -0.43256
# Poissons Ratio (z) = 0.35780 -0.12798
#
# Static dielectric constant tensor:
#      x y z
#    x 2.685880 0.272030 0.368000 
#    y 0.272030 2.147060 0.166070 
#    z 0.368000 0.166070 2.274280 
# 
# From -- ./inp_files/56423.got.cif
#   From: 2010.05.17/outbox.cif.g08.bks.cpg/sg2_29_cif.got.tgz:56423.got - 2010.06.03 11:33:40.
