data_PCOD9110579
_publ_section_title
;
Structure prediction by ZEFSAII (Michael W. Deem and Ramdas Pophale) SiO2 
 PCOD9110579
Probable space group: P -1
;
_chemical_formula_sum "Si O2"
_cell_formula_units_Z 14
_cell_length_a 11.067308
_cell_length_b 7.515393
_cell_length_c 7.919556
_cell_angle_alpha 83.116946
_cell_angle_beta 92.163121
_cell_angle_gamma 120.551019
_cell_volume 562.970906
_symmetry_space_group_name_H-M "P -1"
_symmetry_group_IT_number 2
_symmetry_cell_setting 'triclinic'
loop_
_space_group_symop_operation_xyz
x,y,z
-x,-y,-z
loop_
_atom_site_type_symbol
_atom_site_label
_atom_site_fract_x
_atom_site_fract_y
_atom_site_fract_z
Si Si1 0.589164 0.424283 0.616428
Si Si2 0.806100 0.382464 0.060402
Si Si3 0.058253 0.092595 0.735655
Si Si4 0.793935 0.983746 0.937375
Si Si5 0.100420 0.360672 0.279223
Si Si6 0.188953 0.555729 0.571477
Si Si7 0.495912 0.782309 0.014447
O O1 0.500000 0.500000 0.500000
O O2 0.739577 0.594162 0.690009
O O3 0.649145 0.322386 0.496696
O O4 0.501284 0.283978 0.785077
O O5 0.838312 0.374543 0.259006
O O6 0.904982 0.576494 0.922057
O O7 0.655676 0.370117 0.054964
O O8 0.792681 0.184601 0.986501
O O9 0.906373 0.053086 0.787648
O O10 0.016263 0.876497 0.665264
O O11 0.145515 0.315377 0.630623
O O12 0.145399 0.097837 0.903713
O O13 0.631027 0.816795 0.916626
O O14 0.107388 0.529331 0.394463
O O15 0.500000 0.000000 0.000000
#
# Coordination Sequence:
#
# PCOD9110579 Si02
#       7
#     2   2   2   2   2   2   2
#     4   9  19  36  61  91 124 155 209 262 303 363
#     4  10  20  42  64  90 120 166 200 261 309 364
#     4  11  21  39  58  92 126 164 202 253 305 374
#     4  10  22  36  65  91 122 163 210 245 311 372
#     4   9  22  38  62  86 127 158 207 248 307 371
#     4  10  22  38  63  88 126 155 208 254 304 367
#     4   9  19  39  64  88 125 161 207 257 310 373
#
# _framework density 24.868068999999998
#
# number of rings (size 3 to 8) (size 9 to 14) (size 15 to 20)
#    0.857    1.429    0.000    3.000    0.000    3.429 
#    0.000   10.714    0.000    0.000    0.000    0.000 
#    0.000    0.000    0.000    0.000    0.000    0.000 
#
# Total GULP energy -78138.162417 kJ/mol
# GULP energy per Si atom -5581.297315 kJ/mol
# Density = 2.481147 g / cm^3
# Si number density = 24.868069 Si / 1000 Ang^3
#
#
#
# Elastic Constant Matrix: (Units=GPa)
#
#
# Indices 1 2 3 4 5 6 
#
# 1 124.9748 5.0002 25.2797 -5.2412 -2.1023 17.5278
# 2 5.0002 55.8597 1.9411 -13.1771 -0.9521 -4.8876
# 3 25.2797 1.9411 90.2523 -4.2335 -2.7629 -9.5281
# 4 -5.2412 -13.1771 -4.2335 35.9569 -7.1783 -5.3105
# 5 -2.1023 -0.9521 -2.7629 -7.1783 47.7934 -0.4156
# 6 17.5278 -4.8876 -9.5281 -5.3105 -0.4156 31.3313
#
#
#
# Elastic Compliance Matrix: (Units=1/GPa)
#
#
# Indices 1 2 3 4 5 6 
#
# 1 0.009680 -0.001460 -0.003417 -0.000513 0.000063 -0.006768
# 2 -0.001460 0.020581 0.001043 0.008665 0.001758 0.005837
# 3 -0.003417 0.001043 0.012845 0.002556 0.001053 0.006428
# 4 -0.000513 0.008665 0.002556 0.033497 0.005400 0.008165
# 5 0.000063 0.001758 0.001053 0.005400 0.021848 0.001764
# 6 -0.006768 0.005837 0.006428 0.008165 0.001764 0.039976
#
#
# Mechanical properties :
#
#
# Convention : Reuss Voigt Hill
#
# Bulk Modulus (GPa) = 28.21765 37.28096 32.74930
# Shear Modulus (GPa) = 31.66400 38.94070 35.30235
#
# Velocity S-wave (km/s) = 3.57218 3.96143 3.77183
# Velocity P-wave (km/s) = 5.32780 5.99566 5.67157
#
# Compressibility (1/GPa) = 0.03543881
#
# Stress axis : x y z
#
# Youngs Moduli (GPa) = 103.30671 48.58804 77.84932
#
# Poissons Ratio (x) = 0.07094 0.26598
# Poissons Ratio (y) = 0.15082 -0.08118
# Poissons Ratio (z) = 0.35296 -0.05067
#
# Static dielectric constant tensor:
#      x y z
#    x 1.974470 -0.038230 0.017330 
#    y -0.038230 1.947150 0.032390 
#    z 0.017330 0.032390 2.024360 
# 
# From -- ./inp_files/234818.got.cif
#   From: 2010.05.17/outbox.cif.g08.bks.cpg/sg2_118_cif.got.tgz:234818.got - 2010.06.03 11:33:40.
