data_PCOD9110332
_publ_section_title
;
Structure prediction by ZEFSAII (Michael W. Deem and Ramdas Pophale) SiO2 
 PCOD9110332
Probable space group: P -1
;
_chemical_formula_sum "Si O2"
_cell_formula_units_Z 16
_cell_length_a 11.336200
_cell_length_b 8.067006
_cell_length_c 10.539080
_cell_angle_alpha 121.234911
_cell_angle_beta 125.780210
_cell_angle_gamma 67.626633
_cell_volume 664.372974
_symmetry_space_group_name_H-M "P -1"
_symmetry_group_IT_number 2
_symmetry_cell_setting 'triclinic'
loop_
_space_group_symop_operation_xyz
x,y,z
-x,-y,-z
loop_
_atom_site_type_symbol
_atom_site_label
_atom_site_fract_x
_atom_site_fract_y
_atom_site_fract_z
Si Si1 0.638804 0.403901 0.289703
Si Si2 0.210997 0.778464 0.193589
Si Si3 0.063932 0.419178 0.160096
Si Si4 0.370123 0.237413 0.176846
Si Si5 0.056174 0.771962 0.467443
Si Si6 0.272757 0.836142 0.967131
Si Si7 0.509246 0.781280 0.472085
Si Si8 0.945946 0.814447 0.679031
O O1 0.485681 0.324636 0.194621
O O2 0.774011 0.284731 0.404922
O O3 0.670871 0.362153 0.146477
O O4 0.620168 0.630666 0.402878
O O5 0.350704 0.701820 0.333676
O O6 0.158040 0.985924 0.304726
O O7 0.278321 0.818274 0.113671
O O8 0.076000 0.657772 0.026649
O O9 0.207867 0.348412 0.141195
O O10 0.037244 0.643570 0.278965
O O11 0.085437 0.312976 0.269281
O O12 0.440677 0.228873 0.356924
O O13 0.352022 0.015837 0.040038
O O14 0.962783 0.718927 0.512391
O O15 0.000000 0.000000 0.500000
O O16 0.104445 0.879528 0.838735
O O17 0.500000 0.000000 0.500000
#
# Coordination Sequence:
#
# PCOD9110332 Si02
#       8
#     2   2   2   2   2   2   2   2
#     4  11  27  44  68 101 143 182 225 282 355 407
#     4  11  22  42  71 107 130 176 238 286 332 405
#     4  11  21  44  73  97 134 182 233 283 339 404
#     4  12  22  45  72  97 139 189 223 280 351 410
#     4  11  26  45  67 100 139 182 230 286 340 413
#     4  10  20  44  69  99 135 179 228 285 338 407
#     4  12  25  45  71 102 139 182 231 285 337 409
#     4  10  20  41  73  99 133 173 234 285 340 397
#
# _framework density 24.082858999999999
#
# number of rings (size 3 to 8) (size 9 to 14) (size 15 to 20)
#    0.000    1.000    5.000    1.875    1.750    0.500 
#    6.750    1.250    0.000    0.000    0.000    0.000 
#    0.000    0.000    0.000    0.000    0.000    0.000 
#
# Total GULP energy -89560.831664 kJ/mol
# GULP energy per Si atom -5597.551979 kJ/mol
# Density = 2.402805 g / cm^3
# Si number density = 24.082859 Si / 1000 Ang^3
#
#
#
# Elastic Constant Matrix: (Units=GPa)
#
#
# Indices 1 2 3 4 5 6 
#
# 1 91.6606 23.4317 26.5143 -1.5304 5.3946 -14.6903
# 2 23.4317 111.7098 20.9438 13.7589 9.6752 -22.3570
# 3 26.5143 20.9438 94.5071 7.7001 11.2839 -20.4555
# 4 -1.5304 13.7589 7.7001 39.7291 -3.9465 -3.0129
# 5 5.3946 9.6752 11.2839 -3.9465 47.5053 3.9877
# 6 -14.6903 -22.3570 -20.4555 -3.0129 3.9877 35.1556
#
#
#
# Elastic Compliance Matrix: (Units=1/GPa)
#
#
# Indices 1 2 3 4 5 6 
#
# 1 0.012635 -0.001759 -0.002616 0.001765 -0.000548 0.002853
# 2 -0.001759 0.011344 0.000059 -0.003810 -0.002989 0.006526
# 3 -0.002616 0.000059 0.013466 -0.002571 -0.003713 0.006981
# 4 0.001765 -0.003810 -0.002571 0.027315 0.003560 -0.001244
# 5 -0.000548 -0.002989 -0.003713 0.003560 0.023457 -0.006646
# 6 0.002853 0.006526 0.006981 -0.001244 -0.006646 0.038496
#
#
# Mechanical properties :
#
#
# Convention : Reuss Voigt Hill
#
# Bulk Modulus (GPa) = 34.70578 48.85078 41.77828
# Shear Modulus (GPa) = 34.49511 39.61052 37.05281
#
# Velocity S-wave (km/s) = 3.78875 4.05996 3.92670
# Velocity P-wave (km/s) = 5.79498 6.50432 6.15987
#
# Compressibility (1/GPa) = 0.02881364
#
# Stress axis : x y z
#
# Youngs Moduli (GPa) = 79.14507 88.15404 74.26307
#
# Poissons Ratio (x) = 0.15505 0.19427
# Poissons Ratio (y) = 0.13920 -0.00441
# Poissons Ratio (z) = 0.20704 -0.00523
#
# Static dielectric constant tensor:
#      x y z
#    x 1.955990 0.040660 0.033180 
#    y 0.040660 1.970280 0.024850 
#    z 0.033180 0.024850 1.893430 
# 
# From -- ./inp_files/262824.got.cif
#   From: 2010.05.17/outbox.cif.g08.bks.cpg/sg2_132_cif.got.tgz:262824.got - 2010.06.03 11:33:40.
