data_PCOD9110799
_publ_section_title
;
Structure prediction by ZEFSAII (Michael W. Deem and Ramdas Pophale) SiO2 
 PCOD9110799
Probable space group: P -1
;
_chemical_formula_sum "Si O2"
_cell_formula_units_Z 16
_cell_length_a 10.255904
_cell_length_b 13.314986
_cell_length_c 13.686763
_cell_angle_alpha 158.607303
_cell_angle_beta 72.618088
_cell_angle_gamma 108.360888
_cell_volume 646.955916
_symmetry_space_group_name_H-M "P -1"
_symmetry_group_IT_number 2
_symmetry_cell_setting 'triclinic'
loop_
_space_group_symop_operation_xyz
x,y,z
-x,-y,-z
loop_
_atom_site_type_symbol
_atom_site_label
_atom_site_fract_x
_atom_site_fract_y
_atom_site_fract_z
Si Si1 0.868376 0.620425 0.029384
Si Si2 0.959923 0.783735 0.450069
Si Si3 0.338086 0.896259 0.947461
Si Si4 0.911233 0.597476 0.787570
Si Si5 0.686945 0.720809 0.531645
Si Si6 0.194595 0.868474 0.744550
Si Si7 0.518766 0.010676 0.301132
Si Si8 0.420308 0.419810 0.845148
O O1 0.966663 0.373059 0.794313
O O2 0.816855 0.561496 0.874751
O O3 0.739846 0.619892 0.127554
O O4 0.957221 0.919457 0.280375
O O5 0.968808 0.567883 0.344105
O O6 0.799156 0.801850 0.495712
O O7 0.329708 0.596702 0.726016
O O8 0.259555 0.882544 0.849735
O O9 0.500000 0.000000 0.000000
O O10 0.270692 0.100257 0.220478
O O11 0.857725 0.434359 0.556163
O O12 0.919634 0.919088 0.051896
O O13 0.544433 0.813268 0.609685
O O14 0.319539 0.965739 0.730663
O O15 0.474838 0.157097 0.542611
O O16 0.453839 0.694739 0.021584
O O17 0.500000 0.500000 0.000000
#
# Coordination Sequence:
#
# PCOD9110799 Si02
#       8
#     2   2   2   2   2   2   2   2
#     4  10  20  42  66  92 133 173 219 253 336 384
#     4  10  22  43  70  89 131 190 210 265 321 393
#     4  12  26  44  69  97 135 169 220 276 332 393
#     4  10  21  39  67  92 128 175 220 254 332 387
#     4  12  26  48  67  97 132 176 224 265 326 392
#     4  12  22  40  65  99 127 174 212 278 332 388
#     4  12  26  40  67  97 136 167 221 263 334 391
#     4  12  25  41  65 105 134 166 214 279 326 383
#
# _framework density 24.731206
#
# number of rings (size 3 to 8) (size 9 to 14) (size 15 to 20)
#    0.750    0.000    2.500    6.000    1.750    0.000 
#    0.000    7.500    0.000    0.000    0.000    0.000 
#    0.000    0.000    0.000    0.000    0.000    0.000 
#
# Total GULP energy -89530.300793 kJ/mol
# GULP energy per Si atom -5595.643800 kJ/mol
# Density = 2.467492 g / cm^3
# Si number density = 24.731206 Si / 1000 Ang^3
#
#
#
# Elastic Constant Matrix: (Units=GPa)
#
#
# Indices 1 2 3 4 5 6 
#
# 1 59.8866 7.4548 19.2210 -8.3388 5.8661 22.4173
# 2 7.4548 59.8525 40.0717 -4.6189 0.4729 -8.8809
# 3 19.2210 40.0717 165.4541 9.4275 -8.4158 -16.3040
# 4 -8.3388 -4.6189 9.4275 64.4628 -22.1819 -13.1623
# 5 5.8661 0.4729 -8.4158 -22.1819 53.5703 27.8745
# 6 22.4173 -8.8809 -16.3040 -13.1623 27.8745 95.6424
#
#
#
# Elastic Compliance Matrix: (Units=1/GPa)
#
#
# Indices 1 2 3 4 5 6 
#
# 1 0.019840 -0.001380 -0.002554 0.002132 0.001039 -0.005223
# 2 -0.001380 0.020545 -0.004787 0.002069 -0.000955 0.001978
# 3 -0.002554 -0.004787 0.007715 -0.001451 0.000321 0.001176
# 4 0.002132 0.002069 -0.001451 0.018636 0.007298 -0.000117
# 5 0.001039 -0.000955 0.000321 0.007298 0.025056 -0.006575
# 6 -0.005223 0.001978 0.001176 -0.000117 -0.006575 0.013964
#
#
# Mechanical properties :
#
#
# Convention : Reuss Voigt Hill
#
# Bulk Modulus (GPa) = 32.61760 46.52092 39.56926
# Shear Modulus (GPa) = 37.47620 57.29815 47.38717
#
# Velocity S-wave (km/s) = 3.89696 4.81857 4.38206
# Velocity P-wave (km/s) = 5.78497 7.05760 6.45273
#
# Compressibility (1/GPa) = 0.03065829
#
# Stress axis : x y z
#
# Youngs Moduli (GPa) = 50.40328 48.67276 129.61786
#
# Poissons Ratio (x) = 0.06716 0.33104
# Poissons Ratio (y) = 0.06955 0.62050
# Poissons Ratio (z) = 0.12873 0.23300
#
# Static dielectric constant tensor:
#      x y z
#    x 1.973370 -0.020710 -0.017770 
#    y -0.020710 1.983450 -0.045290 
#    z -0.017770 -0.045290 1.918690 
# 
# From -- ./inp_files/522716.got.cif
#   From: 2010.05.17/outbox.cif.g08.bks.cpg/sg2_262_cif.got.tgz:522716.got - 2010.06.03 11:33:40.
