data_PCOD9110622
_publ_section_title
;
Structure prediction by ZEFSAII (Michael W. Deem and Ramdas Pophale) SiO2 
 PCOD9110622
Probable space group: P -1
;
_chemical_formula_sum "Si O2"
_cell_formula_units_Z 15
_cell_length_a 9.320151
_cell_length_b 13.776398
_cell_length_c 9.075596
_cell_angle_alpha 49.854728
_cell_angle_beta 94.403470
_cell_angle_gamma 129.602474
_cell_volume 565.123039
_symmetry_space_group_name_H-M "P -1"
_symmetry_group_IT_number 2
_symmetry_cell_setting 'triclinic'
loop_
_space_group_symop_operation_xyz
x,y,z
-x,-y,-z
loop_
_atom_site_type_symbol
_atom_site_label
_atom_site_fract_x
_atom_site_fract_y
_atom_site_fract_z
Si Si1 0.797923 0.937692 0.439253
Si Si2 0.747258 0.810808 0.955741
Si Si3 0.500000 0.500000 0.000000
Si Si4 0.836526 0.691602 0.325966
Si Si5 0.620346 0.337907 0.494726
Si Si6 0.111012 0.853446 0.461394
Si Si7 0.242686 0.783541 0.165397
Si Si8 0.040793 0.515646 0.816554
O O1 0.870416 0.086679 0.426828
O O2 0.664069 0.728053 0.708870
O O3 0.021621 0.055999 0.250203
O O4 0.620534 0.872562 0.371827
O O5 0.707831 0.934161 0.816319
O O6 0.557038 0.601654 0.063658
O O7 0.800371 0.797906 0.134581
O O8 0.628109 0.465271 0.473352
O O9 0.886670 0.725296 0.469691
O O10 0.058511 0.767321 0.204210
O O11 0.765472 0.337804 0.600426
O O12 0.766351 0.454789 0.241351
O O13 0.500000 0.000000 0.000000
O O14 0.136844 0.721120 0.587220
O O15 0.173668 0.675619 0.108162
O O16 0.000000 0.500000 0.000000
#
# Coordination Sequence:
#
# PCOD9110622 Si02
#       8
#     2   2   1   2   2   2   2   2
#     4  11  25  41  71  97 133 178 228 270 333 404
#     4  11  24  43  72  97 130 181 227 270 337 401
#     4  10  20  42  64  96 130 170 220 274 324 388
#     4  11  21  44  67  94 134 175 220 273 340 390
#     4  11  22  44  69  91 136 182 218 276 338 400
#     4  11  23  42  65  96 136 166 222 279 329 393
#     4  11  23  42  67  95 134 179 225 272 334 406
#     4  11  25  41  66  99 133 174 221 283 334 396
#
# _framework density 26.542891999999998
#
# number of rings (size 3 to 8) (size 9 to 14) (size 15 to 20)
#    0.000    1.067    4.000    3.600    5.600    2.667 
#    0.000    3.333    0.000    0.000    0.000    0.000 
#    0.000    0.000    0.000    0.000    0.000    0.000 
#
# Total GULP energy -83633.178651 kJ/mol
# GULP energy per Si atom -5575.545243 kJ/mol
# Density = 2.648248 g / cm^3
# Si number density = 26.542892 Si / 1000 Ang^3
#
#
#
# Elastic Constant Matrix: (Units=GPa)
#
#
# Indices 1 2 3 4 5 6 
#
# 1 65.8016 57.0301 38.3602 0.2213 -14.6441 8.1078
# 2 57.0301 270.6880 36.5815 -20.9082 -13.1248 0.6004
# 3 38.3602 36.5815 87.9797 -13.7615 -0.0620 -8.5542
# 4 0.2213 -20.9082 -13.7615 42.1454 -1.3032 8.1419
# 5 -14.6441 -13.1248 -0.0620 -1.3032 36.7537 -2.2666
# 6 8.1078 0.6004 -8.5542 8.1419 -2.2666 44.4917
#
#
#
# Elastic Compliance Matrix: (Units=1/GPa)
#
#
# Indices 1 2 3 4 5 6 
#
# 1 0.028919 -0.004352 -0.012144 -0.004790 0.009396 -0.006191
# 2 -0.004352 0.004756 0.000334 0.002425 0.000073 0.000353
# 3 -0.012144 0.000334 0.017741 0.005025 -0.004235 0.004484
# 4 -0.004790 0.002425 0.005025 0.027204 -0.000266 -0.003186
# 5 0.009396 0.000073 -0.004235 -0.000266 0.030906 -0.000904
# 6 -0.006191 0.000353 0.004484 -0.003186 -0.000904 0.024999
#
#
# Mechanical properties :
#
#
# Convention : Reuss Voigt Hill
#
# Bulk Modulus (GPa) = 52.37858 76.49031 64.43445
# Shear Modulus (GPa) = 28.86629 44.17800 36.52214
#
# Velocity S-wave (km/s) = 3.30136 4.08413 3.71343
# Velocity P-wave (km/s) = 5.85733 7.14985 6.53562
#
# Compressibility (1/GPa) = 0.01909177
#
# Stress axis : x y z
#
# Youngs Moduli (GPa) = 34.57970 210.25060 56.36559
#
# Poissons Ratio (x) = 0.91507 0.68449
# Poissons Ratio (y) = 0.15050 -0.01881
# Poissons Ratio (z) = 0.41993 -0.07018
#
# Static dielectric constant tensor:
#      x y z
#    x 2.146750 -0.018490 0.059160 
#    y -0.018490 2.091180 0.015650 
#    z 0.059160 0.015650 2.258210 
# 
# From -- ./inp_files/314683.got.cif
#   From: 2010.05.17/outbox.cif.g08.bks.cpg/sg2_158_cif.got.tgz:314683.got - 2010.06.03 11:33:40.
