data_PCOD9110345
_publ_section_title
;
Structure prediction by ZEFSAII (Michael W. Deem and Ramdas Pophale) SiO2 
 PCOD9110345
Probable space group: P -1
;
_chemical_formula_sum "Si O2"
_cell_formula_units_Z 12
_cell_length_a 15.044300
_cell_length_b 11.909739
_cell_length_c 8.842437
_cell_angle_alpha 131.989753
_cell_angle_beta 37.675080
_cell_angle_gamma 150.011614
_cell_volume 483.279005
_symmetry_space_group_name_H-M "P -1"
_symmetry_group_IT_number 2
_symmetry_cell_setting 'triclinic'
loop_
_space_group_symop_operation_xyz
x,y,z
-x,-y,-z
loop_
_atom_site_type_symbol
_atom_site_label
_atom_site_fract_x
_atom_site_fract_y
_atom_site_fract_z
Si Si1 0.545433 0.884734 0.428696
Si Si2 0.155828 0.149841 0.067955
Si Si3 0.699420 0.171473 0.770163
Si Si4 0.385413 0.547055 0.908683
Si Si5 0.169822 0.212367 0.606906
Si Si6 0.070663 0.413860 0.723546
O O1 0.698299 0.885913 0.138718
O O2 0.322040 0.630966 0.541345
O O3 0.500000 0.000000 0.500000
O O4 0.662320 0.027767 0.554030
O O5 0.307721 0.401911 0.033703
O O6 0.000000 0.000000 0.000000
O O7 0.998579 0.035533 0.319094
O O8 0.919768 0.309066 0.685830
O O9 0.685317 0.333786 0.880798
O O10 0.500000 0.000000 0.000000
O O11 0.272550 0.380046 0.764480
O O12 0.638004 0.717113 0.683339
O O13 0.054074 0.252541 0.702457
O O14 0.000000 0.500000 0.000000
#
# Coordination Sequence:
#
# PCOD9110345 Si02
#       6
#     2   2   2   2   2   2
#     4  12  27  49  73 110 152 193 248 309 368 440
#     4  10  23  42  74 104 144 200 240 297 376 430
#     4  12  27  45  78 112 144 197 252 299 373 446
#     4  10  21  43  71 108 146 191 246 303 364 440
#     4  10  20  41  75 101 145 197 238 302 370 432
#     4  12  22  45  74 106 148 191 241 303 370 432
#
# _framework density 24.830376000000001
#
# number of rings (size 3 to 8) (size 9 to 14) (size 15 to 20)
#    0.000    1.000    5.000    1.000    7.000    0.667 
#    0.000    3.333    0.000    0.000    0.000    0.000 
#    0.000    0.000    0.000    0.000    0.000    0.000 
#
# Total GULP energy -67362.867603 kJ/mol
# GULP energy per Si atom -5613.572300 kJ/mol
# Density = 2.477386 g / cm^3
# Si number density = 24.830376 Si / 1000 Ang^3
#
#
#
# Elastic Constant Matrix: (Units=GPa)
#
#
# Indices 1 2 3 4 5 6 
#
# 1 160.4432 78.8357 50.1958 -2.6669 -14.9376 -16.8900
# 2 78.8357 124.6342 76.1877 -19.7196 11.2330 -14.7085
# 3 50.1958 76.1877 119.6784 -14.2539 -11.4166 -11.7228
# 4 -2.6669 -19.7196 -14.2539 40.5641 -2.5690 13.1072
# 5 -14.9376 11.2330 -11.4166 -2.5690 44.3361 8.0215
# 6 -16.8900 -14.7085 -11.7228 13.1072 8.0215 71.5740
#
#
#
# Elastic Compliance Matrix: (Units=1/GPa)
#
#
# Indices 1 2 3 4 5 6 
#
# 1 0.010431 -0.008071 0.001039 -0.002805 0.005507 0.000870
# 2 -0.008071 0.021556 -0.010649 0.005185 -0.010811 0.001043
# 3 0.001039 -0.010649 0.015451 0.000895 0.007147 -0.000377
# 4 -0.002805 0.005185 0.000895 0.028886 0.000514 -0.004797
# 5 0.005507 -0.010811 0.007147 0.000514 0.029592 -0.003162
# 6 0.000870 0.001043 -0.000377 -0.004797 -0.003162 0.015562
#
#
# Mechanical properties :
#
#
# Convention : Reuss Voigt Hill
#
# Bulk Modulus (GPa) = 82.80677 90.57713 86.69195
# Shear Modulus (GPa) = 31.08220 44.59729 37.83975
#
# Velocity S-wave (km/s) = 3.54189 4.24261 3.90799
# Velocity P-wave (km/s) = 7.08153 7.78185 7.43994
#
# Compressibility (1/GPa) = 0.01207631
#
# Stress axis : x y z
#
# Youngs Moduli (GPa) = 95.86960 46.39044 64.72245
#
# Poissons Ratio (x) = 0.37440 -0.06727
# Poissons Ratio (y) = 0.77374 0.68925
# Poissons Ratio (z) = -0.09965 0.49403
#
# Static dielectric constant tensor:
#      x y z
#    x 1.950220 -0.060460 -0.044380 
#    y -0.060460 1.727370 -0.125500 
#    z -0.044380 -0.125500 1.852050 
# 
# From -- ./inp_files/149803.got.cif
#   From: 2010.05.17/outbox.cif.g08.bks.cpg/sg2_75_cif.got.tgz:149803.got - 2010.06.03 11:33:40.
