data_PCOD9110282
_publ_section_title
;
Structure prediction by ZEFSAII (Michael W. Deem and Ramdas Pophale) SiO2 
 PCOD9110282
Probable space group: P -1
;
_chemical_formula_sum "Si O2"
_cell_formula_units_Z 12
_cell_length_a 8.176932
_cell_length_b 8.051414
_cell_length_c 13.930089
_cell_angle_alpha 127.607492
_cell_angle_beta 97.326809
_cell_angle_gamma 119.682009
_cell_volume 493.062629
_symmetry_space_group_name_H-M "P -1"
_symmetry_group_IT_number 2
_symmetry_cell_setting 'triclinic'
loop_
_space_group_symop_operation_xyz
x,y,z
-x,-y,-z
loop_
_atom_site_type_symbol
_atom_site_label
_atom_site_fract_x
_atom_site_fract_y
_atom_site_fract_z
Si Si1 0.430459 0.166659 0.513993
Si Si2 0.762642 0.707170 0.138310
Si Si3 0.376144 0.872858 0.050075
Si Si4 0.345708 0.732440 0.618179
Si Si5 0.083124 0.853502 0.533195
Si Si6 0.150575 0.117158 0.150271
O O1 0.451453 0.176432 0.403840
O O2 0.630953 0.515670 0.691244
O O3 0.500000 0.000000 0.500000
O O4 0.168883 0.963090 0.469673
O O5 0.781035 0.851669 0.288498
O O6 0.500000 0.500000 0.000000
O O7 0.788226 0.483756 0.081953
O O8 0.967461 0.972695 0.174050
O O9 0.564281 0.032060 0.208189
O O10 0.248635 0.972359 0.099595
O O11 0.500000 0.000000 0.000000
O O12 0.182323 0.718000 0.528675
O O13 0.193420 0.415967 0.550991
O O14 0.000000 0.000000 0.000000
#
# Coordination Sequence:
#
# PCOD9110282 Si02
#       6
#     2   2   2   2   2   2
#     4  10  22  42  70 103 135 183 235 285 358 421
#     4  12  23  46  72 103 143 187 235 294 354 424
#     4  12  27  46  69 106 142 189 244 291 354 426
#     4  10  22  42  68 101 142 179 234 293 345 424
#     4  10  20  41  72 103 136 185 227 286 361 416
#     4  12  27  46  70 103 144 190 240 297 355 422
#
# _framework density 24.337679000000001
#
# number of rings (size 3 to 8) (size 9 to 14) (size 15 to 20)
#    0.000    1.000    3.333    3.500    2.333    0.667 
#    3.000    1.667    0.000    0.000    0.000    0.000 
#    0.000    0.000    0.000    0.000    0.000    0.000 
#
# Total GULP energy -67199.089540 kJ/mol
# GULP energy per Si atom -5599.924128 kJ/mol
# Density = 2.428229 g / cm^3
# Si number density = 24.337679 Si / 1000 Ang^3
#
#
#
# Elastic Constant Matrix: (Units=GPa)
#
#
# Indices 1 2 3 4 5 6 
#
# 1 85.9512 39.5784 17.6954 10.0974 -12.8004 0.4471
# 2 39.5784 195.8434 54.4956 5.7448 -4.0716 44.9989
# 3 17.6954 54.4956 104.7029 12.1247 -18.9270 9.7300
# 4 10.0974 5.7448 12.1247 43.6783 -5.9978 -13.6650
# 5 -12.8004 -4.0716 -18.9270 -5.9978 39.5402 1.8857
# 6 0.4471 44.9989 9.7300 -13.6650 1.8857 58.2859
#
#
#
# Elastic Compliance Matrix: (Units=1/GPa)
#
#
# Indices 1 2 3 4 5 6 
#
# 1 0.013803 -0.003051 -0.000018 -0.001722 0.003802 0.001726
# 2 -0.003051 0.007985 -0.003213 -0.001529 -0.001654 -0.005910
# 3 -0.000018 -0.003213 0.012496 -0.002423 0.005294 -0.000344
# 4 -0.001722 -0.001529 -0.002423 0.026870 0.001827 0.007839
# 5 0.003802 -0.001654 0.005294 0.001827 0.029170 -0.000151
# 6 0.001726 -0.005910 -0.000344 0.007839 -0.000151 0.023607
#
#
# Mechanical properties :
#
#
# Convention : Reuss Voigt Hill
#
# Bulk Modulus (GPa) = 46.04395 67.78181 56.91288
# Shear Modulus (GPa) = 37.38738 46.61610 42.00174
#
# Velocity S-wave (km/s) = 3.92368 4.38126 4.15877
# Velocity P-wave (km/s) = 6.28386 7.31471 6.81879
#
# Compressibility (1/GPa) = 0.02171838
#
# Stress axis : x y z
#
# Youngs Moduli (GPa) = 72.44823 125.22966 80.02715
#
# Poissons Ratio (x) = 0.38213 0.00146
# Poissons Ratio (y) = 0.22107 0.25714
# Poissons Ratio (z) = 0.00132 0.40238
#
# Static dielectric constant tensor:
#      x y z
#    x 2.082610 -0.023090 0.038540 
#    y -0.023090 1.945210 -0.019220 
#    z 0.038540 -0.019220 1.919930 
# 
# From -- ./inp_files/152334.got.cif
#   From: 2010.05.17/outbox.cif.g08.bks.cpg/sg2_77_cif.got.tgz:152334.got - 2010.06.03 11:33:40.
