data_PCOD9110373
_publ_section_title
;
Structure prediction by ZEFSAII (Michael W. Deem and Ramdas Pophale) SiO2 
 PCOD9110373
Probable space group: P -1
;
_chemical_formula_sum "Si O2"
_cell_formula_units_Z 14
_cell_length_a 27.330720
_cell_length_b 14.812459
_cell_length_c 5.443872
_cell_angle_alpha 101.885287
_cell_angle_beta 108.554433
_cell_angle_gamma 17.395459
_cell_volume 586.349309
_symmetry_space_group_name_H-M "P -1"
_symmetry_group_IT_number 2
_symmetry_cell_setting 'triclinic'
loop_
_space_group_symop_operation_xyz
x,y,z
-x,-y,-z
loop_
_atom_site_type_symbol
_atom_site_label
_atom_site_fract_x
_atom_site_fract_y
_atom_site_fract_z
Si Si1 0.118695 0.391530 0.319519
Si Si2 0.341164 0.269669 0.198421
Si Si3 0.108719 0.613614 0.410941
Si Si4 0.689673 0.364100 0.237657
Si Si5 0.646797 0.639587 0.131913
Si Si6 0.387771 0.598092 0.364584
Si Si7 0.904207 0.759141 0.682927
O O1 0.190695 0.371641 0.454408
O O2 0.214676 0.130028 0.388988
O O3 0.966100 0.649613 0.436853
O O4 0.054318 0.495725 0.991265
O O5 0.154828 0.554221 0.166320
O O6 0.500000 0.000000 0.500000
O O7 0.439674 0.026328 0.047194
O O8 0.322883 0.403320 0.134656
O O9 0.213076 0.520347 0.650079
O O10 0.899853 0.974916 0.344694
O O11 0.681190 0.487260 0.239836
O O12 0.603168 0.480462 0.421557
O O13 0.594331 0.481432 0.913993
O O14 0.500000 0.500000 0.500000
O O15 0.189316 0.984115 0.274095
#
# Coordination Sequence:
#
# PCOD9110373 Si02
#       7
#     2   2   2   2   2   2   2
#     4  10  21  36  67  91 128 168 213 285 329 383
#     4   9  22  43  65  92 145 175 230 275 333 409
#     4  11  22  40  70 104 137 179 227 281 342 407
#     4  12  27  44  74 101 141 181 233 283 349 403
#     4  10  24  44  66 104 142 182 224 279 344 428
#     4  12  26  47  69  97 138 184 230 288 342 414
#     4  10  20  42  59  93 127 167 225 272 332 387
#
# _framework density 23.876553000000001
#
# number of rings (size 3 to 8) (size 9 to 14) (size 15 to 20)
#    0.000    1.429    2.857    0.857    8.000    1.714 
#    5.143    0.000    0.000    0.000    0.000    0.000 
#    0.000    0.000    0.000    0.000    0.000    0.000 
#
# Total GULP energy -78004.651942 kJ/mol
# GULP energy per Si atom -5571.760853 kJ/mol
# Density = 2.382221 g / cm^3
# Si number density = 23.876553 Si / 1000 Ang^3
#
#
#
# Elastic Constant Matrix: (Units=GPa)
#
#
# Indices 1 2 3 4 5 6 
#
# 1 201.9570 11.4086 59.4172 2.7993 -20.2538 15.4069
# 2 11.4086 26.2475 10.3094 3.2549 -5.7188 -12.7302
# 3 59.4172 10.3094 122.5864 8.4974 5.8101 -2.0971
# 4 2.7993 3.2549 8.4974 19.8416 -4.5177 1.7637
# 5 -20.2538 -5.7188 5.8101 -4.5177 48.3575 4.5800
# 6 15.4069 -12.7302 -2.0971 1.7637 4.5800 45.1695
#
#
#
# Elastic Compliance Matrix: (Units=1/GPa)
#
#
# Indices 1 2 3 4 5 6 
#
# 1 0.006702 -0.002888 -0.003374 0.002078 0.003414 -0.003684
# 2 -0.002888 0.048783 -0.002069 -0.007390 0.002730 0.014650
# 3 -0.003374 -0.002069 0.010480 -0.004610 -0.003498 0.001589
# 4 0.002078 -0.007390 -0.004610 0.055233 0.006260 -0.005797
# 5 0.003414 0.002730 -0.003498 0.006260 0.023741 -0.003209
# 6 -0.003684 0.014650 0.001589 -0.005797 -0.003209 0.028150
#
#
# Mechanical properties :
#
#
# Convention : Reuss Voigt Hill
#
# Bulk Modulus (GPa) = 20.28350 57.00680 38.64515
# Shear Modulus (GPa) = 24.24980 40.65076 32.45028
#
# Velocity S-wave (km/s) = 3.19036 4.13066 3.69058
# Velocity P-wave (km/s) = 4.69944 6.83208 5.86353
#
# Compressibility (1/GPa) = 0.04930115
#
# Stress axis : x y z
#
# Youngs Moduli (GPa) = 149.20605 20.49876 95.42252
#
# Poissons Ratio (x) = 0.05921 0.32200
# Poissons Ratio (y) = 0.43096 0.19745
# Poissons Ratio (z) = 0.50349 0.04242
#
# Static dielectric constant tensor:
#      x y z
#    x 1.948710 -0.022800 -0.060430 
#    y -0.022800 2.047950 0.149290 
#    z -0.060430 0.149290 2.184900 
# 
# From -- ./inp_files/127191.got.cif
#   From: 2010.05.17/outbox.cif.g08.bks.cpg/sg2_64_cif.got.tgz:127191.got - 2010.06.03 11:33:40.
