data_PCOD9110683
_publ_section_title
;
Structure prediction by ZEFSAII (Michael W. Deem and Ramdas Pophale) SiO2 
 PCOD9110683
Probable space group: P -1
;
_chemical_formula_sum "Si O2"
_cell_formula_units_Z 14
_cell_length_a 8.947394
_cell_length_b 15.454229
_cell_length_c 7.996274
_cell_angle_alpha 94.905342
_cell_angle_beta 67.177325
_cell_angle_gamma 45.946825
_cell_volume 618.229966
_symmetry_space_group_name_H-M "P -1"
_symmetry_group_IT_number 2
_symmetry_cell_setting 'triclinic'
loop_
_space_group_symop_operation_xyz
x,y,z
-x,-y,-z
loop_
_atom_site_type_symbol
_atom_site_label
_atom_site_fract_x
_atom_site_fract_y
_atom_site_fract_z
Si Si1 0.926427 0.578244 0.868311
Si Si2 0.673595 0.318349 0.551946
Si Si3 0.623476 0.714710 0.474893
Si Si4 0.243711 0.077619 0.260046
Si Si5 0.699921 0.859585 0.277017
Si Si6 0.786424 0.365974 0.161211
Si Si7 0.506780 0.843348 0.891458
O O1 0.102680 0.452267 0.635819
O O2 0.052228 0.619426 0.839525
O O3 0.632620 0.720505 0.947184
O O4 0.000000 0.500000 0.000000
O O5 0.541064 0.281339 0.570973
O O6 0.722828 0.333444 0.343128
O O7 0.486959 0.469617 0.747653
O O8 0.961815 0.187806 0.488974
O O9 0.709772 0.763014 0.344772
O O10 0.477875 0.807070 0.721340
O O11 0.291336 0.160124 0.226753
O O12 0.514320 0.932660 0.207080
O O13 0.248834 0.006819 0.092300
O O14 0.500000 0.000000 0.500000
O O15 0.998048 0.763916 0.084701
#
# Coordination Sequence:
#
# PCOD9110683 Si02
#       7
#     2   2   2   2   2   2   2
#     4  11  19  37  66  92 123 166 222 268 305 374
#     4  10  23  39  67  95 133 171 209 271 333 380
#     4  11  24  38  64 101 127 167 220 274 320 376
#     4  11  21  40  66  92 127 177 215 257 329 392
#     4  12  23  42  69  95 128 172 223 269 314 391
#     4  10  20  42  65  90 128 176 211 255 331 391
#     4  11  21  38  65  95 126 171 228 259 309 401
#
# _framework density 22.645298
#
# number of rings (size 3 to 8) (size 9 to 14) (size 15 to 20)
#    0.000    1.143    5.714    1.286    0.000    1.143 
#    0.000    0.714    0.000    0.000    0.000    0.000 
#    0.000    0.000    0.000    0.000    0.000    0.000 
#
# Total GULP energy -77957.887384 kJ/mol
# GULP energy per Si atom -5568.420527 kJ/mol
# Density = 2.259376 g / cm^3
# Si number density = 22.645298 Si / 1000 Ang^3
#
#
#
# Elastic Constant Matrix: (Units=GPa)
#
#
# Indices 1 2 3 4 5 6 
#
# 1 16.5108 5.3474 15.9585 7.6375 -3.6777 3.1783
# 2 5.3474 46.3066 6.9962 15.9599 1.3185 -9.5951
# 3 15.9585 6.9962 115.2851 35.5436 -1.1613 -5.7622
# 4 7.6375 15.9599 35.5436 50.7045 -0.3027 -4.4017
# 5 -3.6777 1.3185 -1.1613 -0.3027 33.2077 9.1175
# 6 3.1783 -9.5951 -5.7622 -4.4017 9.1175 28.5027
#
#
#
# Elastic Compliance Matrix: (Units=1/GPa)
#
#
# Indices 1 2 3 4 5 6 
#
# 1 0.083513 -0.011679 -0.010797 -0.003041 0.014988 -0.020691
# 2 -0.011679 0.027903 0.002956 -0.008102 -0.005623 0.011841
# 3 -0.010797 0.002956 0.012573 -0.007764 -0.002101 0.004214
# 4 -0.003041 -0.008102 -0.007764 0.028211 -0.000152 0.000448
# 5 0.014988 -0.005623 -0.002101 -0.000152 0.036203 -0.015593
# 6 -0.020691 0.011841 0.004214 0.000448 -0.015593 0.047287
#
#
# Mechanical properties :
#
#
# Convention : Reuss Voigt Hill
#
# Bulk Modulus (GPa) = 11.77162 26.07852 18.92507
# Shear Modulus (GPa) = 16.49918 32.46967 24.48443
#
# Velocity S-wave (km/s) = 2.70217 3.79071 3.29175
# Velocity P-wave (km/s) = 3.86590 5.54080 4.77732
#
# Compressibility (1/GPa) = 0.08495006
#
# Stress axis : x y z
#
# Youngs Moduli (GPa) = 11.97413 35.83836 79.53793
#
# Poissons Ratio (x) = 0.41854 0.85879
# Poissons Ratio (y) = 0.13984 -0.23514
# Poissons Ratio (z) = 0.12929 -0.10595
#
# Static dielectric constant tensor:
#      x y z
#    x 1.884500 -0.052470 0.057910 
#    y -0.052470 1.899550 -0.006000 
#    z 0.057910 -0.006000 2.088370 
# 
# From -- ./inp_files/202469.got.cif
#   From: 2010.05.17/outbox.cif.g08.bks.cpg/sg2_102_cif.got.tgz:202469.got - 2010.06.03 11:33:40.
