data_PCOD9110469
_publ_section_title
;
Structure prediction by ZEFSAII (Michael W. Deem and Ramdas Pophale) SiO2 
 PCOD9110469
Probable space group: P -1
;
_chemical_formula_sum "Si O2"
_cell_formula_units_Z 16
_cell_length_a 15.406486
_cell_length_b 5.694258
_cell_length_c 12.065554
_cell_angle_alpha 91.984988
_cell_angle_beta 137.548030
_cell_angle_gamma 101.977227
_cell_volume 670.047146
_symmetry_space_group_name_H-M "P -1"
_symmetry_group_IT_number 2
_symmetry_cell_setting 'triclinic'
loop_
_space_group_symop_operation_xyz
x,y,z
-x,-y,-z
loop_
_atom_site_type_symbol
_atom_site_label
_atom_site_fract_x
_atom_site_fract_y
_atom_site_fract_z
Si Si1 0.814017 0.685777 0.107280
Si Si2 0.321642 0.881630 0.239735
Si Si3 0.306717 0.952536 0.622470
Si Si4 0.533254 0.391982 0.778494
Si Si5 0.079081 0.144867 0.363035
Si Si6 0.956389 0.389758 0.077696
Si Si7 0.157851 0.527629 0.637585
Si Si8 0.414186 0.680580 0.527623
O O1 0.891557 0.566358 0.089008
O O2 0.795221 0.526777 0.199711
O O3 0.656703 0.649177 0.927292
O O4 0.924214 0.960515 0.238741
O O5 0.381700 0.770433 0.193092
O O6 0.318171 0.698233 0.336817
O O7 0.434841 0.148770 0.370984
O O8 0.170652 0.868934 0.068334
O O9 0.247730 0.789493 0.672488
O O10 0.369745 0.802193 0.595030
O O11 0.426174 0.218954 0.762119
O O12 0.178134 0.986731 0.436884
O O13 0.435928 0.436158 0.591747
O O14 0.148342 0.313608 0.535807
O O15 0.066914 0.322283 0.254518
O O16 0.000000 0.500000 0.000000
O O17 0.000000 0.500000 0.500000
#
# Coordination Sequence:
#
# PCOD9110469 Si02
#       8
#     2   2   2   2   2   2   2   2
#     4  11  25  45  69 102 132 175 224 272 336 392
#     4   9  21  37  63  91 128 180 217 264 329 387
#     4  11  25  40  68  99 129 179 220 272 332 391
#     4  10  22  42  65  96 133 171 222 273 330 392
#     4  12  24  44  70  97 132 178 222 272 334 397
#     4  11  25  41  64 101 140 168 215 277 326 395
#     4  12  24  45  71  96 133 174 226 276 328 395
#     4  10  20  42  62  91 134 173 223 266 323 394
#
# _framework density 23.878916
#
# number of rings (size 3 to 8) (size 9 to 14) (size 15 to 20)
#    0.000    1.250    2.500    2.250    5.250    1.000 
#    4.500    2.500    0.000    0.000    0.000    0.000 
#    0.000    0.000    0.000    0.000    0.000    0.000 
#
# Total GULP energy -89420.737401 kJ/mol
# GULP energy per Si atom -5588.796088 kJ/mol
# Density = 2.382457 g / cm^3
# Si number density = 23.878916 Si / 1000 Ang^3
#
#
#
# Elastic Constant Matrix: (Units=GPa)
#
#
# Indices 1 2 3 4 5 6 
#
# 1 97.3259 44.2193 31.5191 -13.9478 -3.8031 24.8074
# 2 44.2193 84.9404 18.1068 -1.2120 4.9680 34.2190
# 3 31.5191 18.1068 75.0480 -15.9738 -0.4096 11.2157
# 4 -13.9478 -1.2120 -15.9738 40.6261 8.9446 3.4240
# 5 -3.8031 4.9680 -0.4096 8.9446 28.3606 -0.2172
# 6 24.8074 34.2190 11.2157 3.4240 -0.2172 43.2956
#
#
#
# Elastic Compliance Matrix: (Units=1/GPa)
#
#
# Indices 1 2 3 4 5 6 
#
# 1 0.015749 -0.006010 -0.003862 0.003578 0.001953 -0.003547
# 2 -0.006010 0.020337 -0.000433 0.000449 -0.004612 -0.012576
# 3 -0.003862 -0.000433 0.016614 0.005834 -0.002059 -0.002221
# 4 0.003578 0.000449 0.005834 0.030727 -0.009254 -0.006392
# 5 0.001953 -0.004612 -0.002059 -0.009254 0.039250 0.003988
# 6 -0.003547 -0.012576 -0.002221 -0.006392 0.003988 0.036169
#
#
# Mechanical properties :
#
#
# Convention : Reuss Voigt Hill
#
# Bulk Modulus (GPa) = 31.16281 49.44495 40.30388
# Shear Modulus (GPa) = 26.29485 33.35441 29.82463
#
# Velocity S-wave (km/s) = 3.32199 3.74145 3.53795
# Velocity P-wave (km/s) = 5.27189 6.27822 5.79694
#
# Compressibility (1/GPa) = 0.03208954
#
# Stress axis : x y z
#
# Youngs Moduli (GPa) = 63.49524 49.17264 60.19158
#
# Poissons Ratio (x) = 0.29553 0.23247
# Poissons Ratio (y) = 0.38161 0.02604
# Poissons Ratio (z) = 0.24523 0.02128
#
# Static dielectric constant tensor:
#      x y z
#    x 1.912480 -0.040170 0.098020 
#    y -0.040170 2.005080 0.132790 
#    z 0.098020 0.132790 1.362650 
# 
# From -- ./inp_files/442010.got.cif
#   From: 2010.05.17/outbox.cif.g08.bks.cpg/sg2_222_cif.got.tgz:442010.got - 2010.06.03 11:33:40.
