data_PCOD9110564
_publ_section_title
;
Structure prediction by ZEFSAII (Michael W. Deem and Ramdas Pophale) SiO2 
 PCOD9110564
Probable space group: P -1
;
_chemical_formula_sum "Si O2"
_cell_formula_units_Z 14
_cell_length_a 32.208658
_cell_length_b 6.430180
_cell_length_c 9.527430
_cell_angle_alpha 51.551547
_cell_angle_beta 152.384434
_cell_angle_gamma 138.791055
_cell_volume 596.060378
_symmetry_space_group_name_H-M "P -1"
_symmetry_group_IT_number 2
_symmetry_cell_setting 'triclinic'
loop_
_space_group_symop_operation_xyz
x,y,z
-x,-y,-z
loop_
_atom_site_type_symbol
_atom_site_label
_atom_site_fract_x
_atom_site_fract_y
_atom_site_fract_z
Si Si1 0.843158 0.857135 0.490119
Si Si2 0.039746 0.479947 0.974979
Si Si3 0.110974 0.765735 0.794662
Si Si4 0.369541 0.743378 0.202219
Si Si5 0.292150 0.642901 0.321813
Si Si6 0.664255 0.766301 0.196839
Si Si7 0.548429 0.661487 0.425741
O O1 0.869494 0.594631 0.703568
O O2 0.734885 0.780122 0.270925
O O3 0.848613 0.932306 0.310461
O O4 0.938228 0.174900 0.721444
O O5 0.085765 0.771939 0.880443
O O6 0.000000 0.500000 0.000000
O O7 0.000000 0.500000 0.500000
O O8 0.189766 0.641904 0.065934
O O9 0.308152 0.699611 0.180621
O O10 0.362687 0.419781 0.294706
O O11 0.500000 0.000000 0.500000
O O12 0.330094 0.905386 0.909232
O O13 0.295890 0.346033 0.508112
O O14 0.396151 0.963606 0.562142
O O15 0.541798 0.505297 0.893856
O O16 0.500000 0.500000 0.500000
#
# Coordination Sequence:
#
# PCOD9110564 Si02
#       7
#     2   2   2   2   2   2   2
#     4  10  20  42  64  88 131 171 208 273 328 384
#     4  10  22  41  64  95 125 165 222 270 324 390
#     4  10  21  41  69  90 129 175 212 267 332 382
#     4  10  22  42  63  90 128 170 214 260 325 378
#     4  12  22  43  66  95 129 169 221 266 320 386
#     4  11  22  41  68  93 128 173 211 268 324 380
#     4  11  22  43  64  93 134 168 211 267 322 385
#
# _framework density 23.487552999999998
#
# number of rings (size 3 to 8) (size 9 to 14) (size 15 to 20)
#    0.000    1.429    5.714    0.429    0.000    2.857 
#   10.286    0.000    0.000    0.000    0.000    0.000 
#    0.000    0.000    0.000    0.000    0.000    0.000 
#
# Total GULP energy -78264.793299 kJ/mol
# GULP energy per Si atom -5590.342378 kJ/mol
# Density = 2.343409 g / cm^3
# Si number density = 23.487553 Si / 1000 Ang^3
#
#
#
# Elastic Constant Matrix: (Units=GPa)
#
#
# Indices 1 2 3 4 5 6 
#
# 1 112.7339 9.6577 23.1618 -10.8931 -7.0641 12.2402
# 2 9.6577 46.4340 23.9913 -30.6483 -8.6207 10.9030
# 3 23.1618 23.9913 103.1527 -15.5999 -3.9643 13.9286
# 4 -10.8931 -30.6483 -15.5999 44.0584 4.4295 -4.1027
# 5 -7.0641 -8.6207 -3.9643 4.4295 37.1102 -7.9780
# 6 12.2402 10.9030 13.9286 -4.1027 -7.9780 30.6249
#
#
#
# Elastic Compliance Matrix: (Units=1/GPa)
#
#
# Indices 1 2 3 4 5 6 
#
# 1 0.009721 0.001265 -0.001685 0.002303 0.001047 -0.002988
# 2 0.001265 0.046555 -0.005182 0.029483 0.004944 -0.009486
# 3 -0.001685 -0.005182 0.011638 -0.000090 -0.000921 -0.003027
# 4 0.002303 0.029483 -0.000090 0.043148 0.000979 -0.005340
# 5 0.001047 0.004944 -0.000921 0.000979 0.029374 0.006024
# 6 -0.002988 -0.009486 -0.003027 -0.005340 0.006024 0.039455
#
#
# Mechanical properties :
#
#
# Convention : Reuss Voigt Hill
#
# Bulk Modulus (GPa) = 17.63382 41.77135 29.70258
# Shear Modulus (GPa) = 23.80971 36.05935 29.93453
#
# Velocity S-wave (km/s) = 3.18734 3.92248 3.57387
# Velocity P-wave (km/s) = 4.59016 6.19173 5.45010
#
# Compressibility (1/GPa) = 0.05670922
#
# Stress axis : x y z
#
# Youngs Moduli (GPa) = 102.87188 21.47983 85.92810
#
# Poissons Ratio (x) = -0.02717 0.14478
# Poissons Ratio (y) = -0.13013 0.44531
# Poissons Ratio (z) = 0.17333 0.11132
#
# Static dielectric constant tensor:
#      x y z
#    x 1.904280 -0.002550 -0.015020 
#    y -0.002550 1.831860 -0.051530 
#    z -0.015020 -0.051530 1.819070 
# 
# From -- ./inp_files/358193.got.cif
#   From: 2010.05.17/outbox.cif.g08.bks.cpg/sg2_180_cif.got.tgz:358193.got - 2010.06.03 11:33:40.
