data_PCOD9110840
_publ_section_title
;
Structure prediction by ZEFSAII (Michael W. Deem and Ramdas Pophale) SiO2 
 PCOD9110840
Probable space group: P -1
;
_chemical_formula_sum "Si O2"
_cell_formula_units_Z 13
_cell_length_a 8.694332
_cell_length_b 10.408574
_cell_length_c 10.500223
_cell_angle_alpha 42.117630
_cell_angle_beta 85.471217
_cell_angle_gamma 107.576428
_cell_volume 534.984601
_symmetry_space_group_name_H-M "P -1"
_symmetry_group_IT_number 2
_symmetry_cell_setting 'triclinic'
loop_
_space_group_symop_operation_xyz
x,y,z
-x,-y,-z
loop_
_atom_site_type_symbol
_atom_site_label
_atom_site_fract_x
_atom_site_fract_y
_atom_site_fract_z
Si Si1 0.309930 0.460196 0.496672
Si Si2 0.500000 0.500000 0.000000
Si Si3 0.959129 0.038080 0.724645
Si Si4 0.318135 0.828383 0.367990
Si Si5 0.771650 0.011454 0.516008
Si Si6 0.952939 0.295406 0.060420
Si Si7 0.654422 0.280667 0.952824
O O1 0.500000 0.500000 0.500000
O O2 0.249248 0.575835 0.519638
O O3 0.349248 0.606080 0.259430
O O4 0.146637 0.205411 0.661355
O O5 0.362035 0.254458 0.258565
O O6 0.409120 0.619029 0.004079
O O7 0.806116 0.084314 0.748149
O O8 0.951157 0.090672 0.536008
O O9 0.903506 0.776531 0.928687
O O10 0.310596 0.860224 0.496895
O O11 0.517810 0.008895 0.169115
O O12 0.812186 0.082856 0.315865
O O13 0.855398 0.328553 0.925344
O O14 0.000000 0.500000 0.000000
#
# Coordination Sequence:
#
# PCOD9110840 Si02
#       7
#     2   1   2   2   2   2   2
#     4  12  24  44  68  90 128 180 229 276 325 393
#     4  10  20  42  66  96 130 172 216 274 330 392
#     4  10  22  43  63  96 129 170 218 271 332 386
#     4   9  23  42  64  94 130 170 222 273 329 388
#     4   9  21  39  68  94 137 168 219 267 333 395
#     4  12  23  39  67 103 135 174 216 272 340 400
#     4  11  24  40  65  94 135 168 226 268 336 393
#
# _framework density 24.299762000000001
#
# number of rings (size 3 to 8) (size 9 to 14) (size 15 to 20)
#    0.923    0.615    0.000    5.077    0.000    3.692 
#    0.000    1.538    0.000    0.000    0.000    0.000 
#    0.000    0.000    0.000    0.000    0.000    0.000 
#
# Total GULP energy -72385.479193 kJ/mol
# GULP energy per Si atom -5568.113784 kJ/mol
# Density = 2.424445 g / cm^3
# Si number density = 24.299762 Si / 1000 Ang^3
#
#
#
# Elastic Constant Matrix: (Units=GPa)
#
#
# Indices 1 2 3 4 5 6 
#
# 1 86.5494 20.2922 6.6199 2.1326 31.5316 1.2899
# 2 20.2922 75.7244 16.5239 -25.0958 21.2885 -11.7145
# 3 6.6199 16.5239 61.7010 -5.8231 14.7759 -1.5730
# 4 2.1326 -25.0958 -5.8231 40.0933 1.1248 18.8945
# 5 31.5316 21.2885 14.7759 1.1248 33.5358 -0.0819
# 6 1.2899 -11.7145 -1.5730 18.8945 -0.0819 45.2561
#
#
#
# Elastic Compliance Matrix: (Units=1/GPa)
#
#
# Indices 1 2 3 4 5 6 
#
# 1 0.017898 -0.000536 0.002390 -0.000208 -0.017536 -0.000511
# 2 -0.000536 0.022042 -0.001313 0.014127 -0.013384 -0.000247
# 3 0.002390 -0.001313 0.018861 0.002436 -0.009807 -0.000787
# 4 -0.000208 0.014127 0.002436 0.040720 -0.011244 -0.013274
# 5 -0.017536 -0.013384 -0.009807 -0.011244 0.059505 0.001497
# 6 -0.000511 -0.000247 -0.000787 -0.013274 0.001497 0.027564
#
#
# Mechanical properties :
#
#
# Convention : Reuss Voigt Hill
#
# Bulk Modulus (GPa) = 16.69923 34.53854 25.61889
# Shear Modulus (GPa) = 24.33445 35.81294 30.07369
#
# Velocity S-wave (km/s) = 3.16797 3.84317 3.52179
# Velocity P-wave (km/s) = 4.50205 5.82561 5.20606
#
# Compressibility (1/GPa) = 0.05988300
#
# Stress axis : x y z
#
# Youngs Moduli (GPa) = 55.87126 45.36756 53.01965
#
# Poissons Ratio (x) = 0.02431 -0.12671
# Poissons Ratio (y) = 0.02993 0.06964
# Poissons Ratio (z) = -0.13353 0.05959
#
# Static dielectric constant tensor:
#      x y z
#    x 2.075840 -0.058620 -0.003200 
#    y -0.058620 2.035410 -0.016410 
#    z -0.003200 -0.016410 1.871570 
# 
# From -- ./inp_files/386577.got.cif
#   From: 2010.05.17/outbox.cif.g08.bks.cpg/sg2_194_cif.got.tgz:386577.got - 2010.06.03 11:33:40.
