data_PCOD9110908
_publ_section_title
;
Structure prediction by ZEFSAII (Michael W. Deem and Ramdas Pophale) SiO2 
 PCOD9110908
Probable space group: P -1
;
_chemical_formula_sum "Si O2"
_cell_formula_units_Z 16
_cell_length_a 9.941695
_cell_length_b 19.647437
_cell_length_c 5.741443
_cell_angle_alpha 128.627269
_cell_angle_beta 124.499209
_cell_angle_gamma 67.526154
_cell_volume 721.321580
_symmetry_space_group_name_H-M "P -1"
_symmetry_group_IT_number 2
_symmetry_cell_setting 'triclinic'
loop_
_space_group_symop_operation_xyz
x,y,z
-x,-y,-z
loop_
_atom_site_type_symbol
_atom_site_label
_atom_site_fract_x
_atom_site_fract_y
_atom_site_fract_z
Si Si1 0.823392 0.782919 0.136390
Si Si2 0.448441 0.957434 0.610065
Si Si3 0.532263 0.767751 0.139497
Si Si4 0.082980 0.019158 0.373648
Si Si5 0.335506 0.468154 0.560509
Si Si6 0.977307 0.622962 0.161449
Si Si7 0.659410 0.382191 0.455115
Si Si8 0.772553 0.641870 0.398484
O O1 0.637979 0.789071 0.062011
O O2 0.883051 0.878369 0.367342
O O3 0.935293 0.725952 0.303717
O O4 0.823577 0.719221 0.781602
O O5 0.512095 0.856727 0.451673
O O6 0.500000 0.000000 0.500000
O O7 0.253929 0.964813 0.427716
O O8 0.500000 0.000000 0.000000
O O9 0.641179 0.692015 0.212194
O O10 0.366728 0.720407 0.819986
O O11 0.000000 0.000000 0.500000
O O12 0.000000 0.000000 0.000000
O O13 0.500753 0.419434 0.519895
O O14 0.338109 0.565485 0.675325
O O15 0.317258 0.437647 0.741305
O O16 0.168569 0.427571 0.210686
O O17 0.935361 0.606341 0.353651
O O18 0.162722 0.602761 0.231011
#
# Coordination Sequence:
#
# PCOD9110908 Si02
#       8
#     2   2   2   2   2   2   2   2
#     4  10  22  44  67  90 138 180 220 288 358 416
#     4  12  26  47  75 103 140 193 243 293 361 438
#     4  11  23  42  69  97 130 180 231 287 347 418
#     4  12  28  46  69 106 143 187 234 303 367 431
#     4  10  22  44  61  96 136 180 220 285 350 406
#     4  10  22  41  65  95 132 179 223 284 344 414
#     4  11  22  41  66  96 136 173 232 281 341 430
#     4  10  20  42  67  90 134 177 223 280 356 407
#
# _framework density 22.181508999999998
#
# number of rings (size 3 to 8) (size 9 to 14) (size 15 to 20)
#    0.000    1.250    5.000    1.875    5.250    1.000 
#    6.750    0.000    0.000    0.000    0.000    0.000 
#    0.000    0.000    0.000    0.000    0.000    0.000 
#
# Total GULP energy -89272.197315 kJ/mol
# GULP energy per Si atom -5579.512332 kJ/mol
# Density = 2.213102 g / cm^3
# Si number density = 22.181509 Si / 1000 Ang^3
#
#
#
# Elastic Constant Matrix: (Units=GPa)
#
#
# Indices 1 2 3 4 5 6 
#
# 1 145.8436 51.9638 53.4995 -8.6715 16.7831 4.9591
# 2 51.9638 85.9528 26.5799 18.5294 10.5509 15.3886
# 3 53.4995 26.5799 129.9656 6.1027 8.5039 2.5268
# 4 -8.6715 18.5294 6.1027 41.6584 1.9829 9.4577
# 5 16.7831 10.5509 8.5039 1.9829 31.1283 0.0203
# 6 4.9591 15.3886 2.5268 9.4577 0.0203 50.7395
#
#
#
# Elastic Compliance Matrix: (Units=1/GPa)
#
#
# Indices 1 2 3 4 5 6 
#
# 1 0.011136 -0.006577 -0.003302 0.005888 -0.003248 -0.000025
# 2 -0.006577 0.018466 -0.000465 -0.008664 -0.002032 -0.003319
# 3 -0.003302 -0.000465 0.009262 -0.001896 -0.000472 0.000356
# 4 0.005888 -0.008664 -0.001896 0.030232 -0.001643 -0.003488
# 5 -0.003248 -0.002032 -0.000472 -0.001643 0.034797 0.001249
# 6 -0.000025 -0.003319 0.000356 -0.003488 0.001249 0.021349
#
#
# Mechanical properties :
#
#
# Convention : Reuss Voigt Hill
#
# Bulk Modulus (GPa) = 55.02142 69.53870 62.28006
# Shear Modulus (GPa) = 32.89691 40.01984 36.45838
#
# Velocity S-wave (km/s) = 3.85525 4.25219 4.05858
# Velocity P-wave (km/s) = 6.68403 7.45158 7.07822
#
# Compressibility (1/GPa) = 0.01817474
#
# Stress axis : x y z
#
# Youngs Moduli (GPa) = 89.79662 54.15418 107.97060
#
# Poissons Ratio (x) = 0.35619 0.35657
# Poissons Ratio (y) = 0.59063 0.05017
# Poissons Ratio (z) = 0.29655 0.02516
#
# Static dielectric constant tensor:
#      x y z
#    x 1.834610 0.042430 -0.022080 
#    y 0.042430 1.863000 -0.084590 
#    z -0.022080 -0.084590 1.888480 
# 
# From -- ./inp_files/54014.got.cif
#   From: 2010.05.17/outbox.cif.g08.bks.cpg/sg2_28_cif.got.tgz:54014.got - 2010.06.03 11:33:40.
