data_PCOD9110031
_publ_section_title
;
Structure prediction by ZEFSAII (Michael W. Deem and Ramdas Pophale) SiO2 
 PCOD9110031
Probable space group: P -1
;
_chemical_formula_sum "Si O2"
_cell_formula_units_Z 16
_cell_length_a 14.209082
_cell_length_b 21.552592
_cell_length_c 8.864975
_cell_angle_alpha 43.008630
_cell_angle_beta 26.507533
_cell_angle_gamma 30.953961
_cell_volume 615.434666
_symmetry_space_group_name_H-M "P -1"
_symmetry_group_IT_number 2
_symmetry_cell_setting 'triclinic'
loop_
_space_group_symop_operation_xyz
x,y,z
-x,-y,-z
loop_
_atom_site_type_symbol
_atom_site_label
_atom_site_fract_x
_atom_site_fract_y
_atom_site_fract_z
Si Si1 0.129462 0.819061 0.209364
Si Si2 0.298822 0.960577 0.137737
Si Si3 0.171917 0.273151 0.071252
Si Si4 0.287918 0.624082 0.933632
Si Si5 0.908445 0.457580 0.379231
Si Si6 0.757601 0.826804 0.156373
Si Si7 0.282024 0.439347 0.110404
Si Si8 0.234498 0.980543 0.855336
O O1 0.978227 0.777766 0.575472
O O2 0.457807 0.696571 0.964814
O O3 0.081921 0.926466 0.176868
O O4 0.985220 0.883643 0.140392
O O5 0.517217 0.827734 0.129216
O O6 0.361332 0.964163 0.865548
O O7 0.000000 0.000000 0.500000
O O8 0.297511 0.059285 0.040865
O O9 0.008668 0.395471 0.182761
O O10 0.191324 0.265510 0.877069
O O11 0.585165 0.588465 0.604304
O O12 0.155171 0.611784 0.294063
O O13 0.357838 0.521383 0.897338
O O14 0.041341 0.751532 0.982454
O O15 0.167366 0.440129 0.111114
O O16 0.486294 0.889313 0.538236
O O17 0.000000 0.500000 0.500000
#
# Coordination Sequence:
#
# PCOD9110031 Si02
#       8
#     2   2   2   2   2   2   2   2
#     4  11  23  41  73  99 140 187 227 290 351 411
#     4  12  27  46  68 101 142 182 234 288 358 419
#     4  12  25  45  68  97 147 183 228 291 364 407
#     4  10  22  42  70 100 135 180 239 284 347 407
#     4  10  22  42  70  99 136 185 231 287 345 420
#     4  12  26  44  69 103 141 181 233 295 345 422
#     4  10  20  41  69 102 138 179 236 289 348 412
#     4  11  25  43  72 103 135 182 243 283 345 430
#
# _framework density 25.997885
#
# number of rings (size 3 to 8) (size 9 to 14) (size 15 to 20)
#    0.000    1.000    2.500    4.500    5.250    0.500 
#    2.250    0.625    0.000    0.000    0.000    0.000 
#    0.000    0.000    0.000    0.000    0.000    0.000 
#
# Total GULP energy -89637.349435 kJ/mol
# GULP energy per Si atom -5602.334340 kJ/mol
# Density = 2.593871 g / cm^3
# Si number density = 25.997885 Si / 1000 Ang^3
#
#
#
# Elastic Constant Matrix: (Units=GPa)
#
#
# Indices 1 2 3 4 5 6 
#
# 1 141.6422 29.3673 32.0341 21.8282 14.2326 -6.2685
# 2 29.3673 112.0033 28.9283 20.9352 -1.7331 -19.2802
# 3 32.0341 28.9283 97.6560 22.0691 -7.9104 -10.7085
# 4 21.8282 20.9352 22.0691 41.1358 -4.5360 -20.9971
# 5 14.2326 -1.7331 -7.9104 -4.5360 48.0079 8.3440
# 6 -6.2685 -19.2802 -10.7085 -20.9971 8.3440 55.8523
#
#
#
# Elastic Compliance Matrix: (Units=1/GPa)
#
#
# Indices 1 2 3 4 5 6 
#
# 1 0.008601 -0.001248 -0.001975 -0.003584 -0.003133 -0.000723
# 2 -0.001248 0.010615 -0.001920 -0.002605 -0.000193 0.002205
# 3 -0.001975 -0.001920 0.012664 -0.004832 0.002252 -0.000609
# 4 -0.003584 -0.002605 -0.004832 0.035946 0.001650 0.011039
# 5 -0.003133 -0.000193 0.002252 0.001650 0.022760 -0.002766
# 6 -0.000723 0.002205 -0.000609 0.011039 -0.002766 0.023031
#
#
# Mechanical properties :
#
#
# Convention : Reuss Voigt Hill
#
# Bulk Modulus (GPa) = 46.30906 59.10675 52.70791
# Shear Modulus (GPa) = 38.13868 46.39733 42.26800
#
# Velocity S-wave (km/s) = 3.83429 4.22910 4.03653
# Velocity P-wave (km/s) = 6.11994 6.82874 6.48403
#
# Compressibility (1/GPa) = 0.02159405
#
# Stress axis : x y z
#
# Youngs Moduli (GPa) = 116.27169 94.20509 78.96337
#
# Poissons Ratio (x) = 0.11758 0.15593
# Poissons Ratio (y) = 0.14513 0.15161
# Poissons Ratio (z) = 0.22960 0.18087
#
# Static dielectric constant tensor:
#      x y z
#    x 2.285820 0.026600 -0.039780 
#    y 0.026600 2.042210 -0.073080 
#    z -0.039780 -0.073080 2.042820 
# 
# From -- ./inp_files/320259.got.cif
#   From: 2010.05.17/outbox.cif.g08.bks.cpg/sg2_161_cif.got.tgz:320259.got - 2010.06.03 11:33:40.
