data_PCOD9110735
_publ_section_title
;
Structure prediction by ZEFSAII (Michael W. Deem and Ramdas Pophale) SiO2 
 PCOD9110735
Probable space group: P -1
;
_chemical_formula_sum "Si O2"
_cell_formula_units_Z 14
_cell_length_a 9.832807
_cell_length_b 17.078748
_cell_length_c 7.050868
_cell_angle_alpha 42.641768
_cell_angle_beta 130.578635
_cell_angle_gamma 118.058894
_cell_volume 609.131213
_symmetry_space_group_name_H-M "P -1"
_symmetry_group_IT_number 2
_symmetry_cell_setting 'triclinic'
loop_
_space_group_symop_operation_xyz
x,y,z
-x,-y,-z
loop_
_atom_site_type_symbol
_atom_site_label
_atom_site_fract_x
_atom_site_fract_y
_atom_site_fract_z
Si Si1 0.546555 0.134647 0.290605
Si Si2 0.231284 0.295800 0.751786
Si Si3 0.012199 0.862793 0.719483
Si Si4 0.937711 0.130654 0.694307
Si Si5 0.346866 0.730815 0.224134
Si Si6 0.075215 0.532526 0.219920
Si Si7 0.740902 0.678152 0.729791
O O1 0.500000 0.000000 0.500000
O O2 0.264484 0.853189 0.461993
O O3 0.403567 0.221474 0.097177
O O4 0.575726 0.178134 0.022802
O O5 0.182119 0.416957 0.584334
O O6 0.253999 0.313525 0.512358
O O7 0.064563 0.213598 0.773070
O O8 0.042241 0.845831 0.551727
O O9 0.830084 0.790875 0.706591
O O10 0.193179 0.801985 0.073243
O O11 0.000000 0.000000 0.500000
O O12 0.000000 0.000000 0.000000
O O13 0.226945 0.631122 0.192231
O O14 0.527160 0.675449 0.581516
O O15 0.000000 0.500000 0.000000
O O16 0.893978 0.577533 0.080674
#
# Coordination Sequence:
#
# PCOD9110735 Si02
#       7
#     2   2   2   2   2   2   2
#     4  10  17  26  41  62  92 125 151 181 223 278
#     4   9  17  27  42  66  92 124 151 187 231 281
#     4   9  18  31  46  68  95 123 158 195 231 279
#     4  10  18  30  46  66  96 128 150 185 235 279
#     4   9  18  29  44  66  92 127 153 193 239 276
#     4   9  16  27  42  64  94 123 156 191 234 285
#     4   8  16  28  43  63  92 120 152 192 234 272
#
# _framework density 22.983554999999999
#
# number of rings (size 3 to 8) (size 9 to 14) (size 15 to 20)
#    0.000    2.857    1.429    2.571    0.000    6.857 
#    0.000    0.000    0.000    0.000    0.000    4.000 
#    0.000    6.857    0.000    0.000    0.000    0.000 
#
# Total GULP energy -78014.890003 kJ/mol
# GULP energy per Si atom -5572.492143 kJ/mol
# Density = 2.293124 g / cm^3
# Si number density = 22.983555 Si / 1000 Ang^3
#
#
#
# Elastic Constant Matrix: (Units=GPa)
#
#
# Indices 1 2 3 4 5 6 
#
# 1 69.6283 50.1027 38.5322 15.5868 18.1459 0.5584
# 2 50.1027 122.1146 70.3534 -10.2368 31.7165 13.5192
# 3 38.5322 70.3534 194.3293 -11.7903 59.7723 27.3782
# 4 15.5868 -10.2368 -11.7903 47.6383 11.9579 5.7568
# 5 18.1459 31.7165 59.7723 11.9579 39.3491 18.1189
# 6 0.5584 13.5192 27.3782 5.7568 18.1189 38.7885
#
#
#
# Elastic Compliance Matrix: (Units=1/GPa)
#
#
# Indices 1 2 3 4 5 6 
#
# 1 0.027392 -0.011988 -0.004628 -0.014873 0.005501 0.006688
# 2 -0.011988 0.016789 0.000825 0.010903 -0.011393 -0.002558
# 3 -0.004628 0.000825 0.012934 0.010243 -0.020748 -0.001179
# 4 -0.014873 0.010903 0.010243 0.038048 -0.027355 -0.003685
# 5 0.005501 -0.011393 -0.020748 -0.027355 0.078334 -0.013995
# 6 0.006688 -0.002558 -0.001179 -0.003685 -0.013995 0.034492
#
#
# Mechanical properties :
#
#
# Convention : Reuss Voigt Hill
#
# Bulk Modulus (GPa) = 39.16624 78.22765 58.69694
# Shear Modulus (GPa) = 20.15471 40.29411 30.22441
#
# Velocity S-wave (km/s) = 2.96449 4.19163 3.63029
# Velocity P-wave (km/s) = 5.36615 7.58529 6.57009
#
# Compressibility (1/GPa) = 0.02553219
#
# Stress axis : x y z
#
# Youngs Moduli (GPa) = 36.50745 59.56433 77.31462
#
# Poissons Ratio (x) = 0.71408 0.35780
# Poissons Ratio (y) = 0.43767 -0.06380
# Poissons Ratio (z) = 0.16895 -0.04915
#
# Static dielectric constant tensor:
#      x y z
#    x 1.581630 0.284250 0.094120 
#    y 0.284250 1.610910 -0.076750 
#    z 0.094120 -0.076750 1.875640 
# 
# From -- ./inp_files/431347.got.cif
#   From: 2010.05.17/outbox.cif.g08.bks.cpg/sg2_216_cif.got.tgz:431347.got - 2010.06.03 11:33:40.
