data_PCOD9110481
_publ_section_title
;
Structure prediction by ZEFSAII (Michael W. Deem and Ramdas Pophale) SiO2 
 PCOD9110481
Probable space group: P -1
;
_chemical_formula_sum "Si O2"
_cell_formula_units_Z 16
_cell_length_a 11.423312
_cell_length_b 14.049304
_cell_length_c 7.303277
_cell_angle_alpha 112.661989
_cell_angle_beta 70.746145
_cell_angle_gamma 149.604044
_cell_volume 547.255264
_symmetry_space_group_name_H-M "P -1"
_symmetry_group_IT_number 2
_symmetry_cell_setting 'triclinic'
loop_
_space_group_symop_operation_xyz
x,y,z
-x,-y,-z
loop_
_atom_site_type_symbol
_atom_site_label
_atom_site_fract_x
_atom_site_fract_y
_atom_site_fract_z
Si Si1 0.825909 0.047559 0.785317
Si Si2 0.676039 0.963973 0.376913
Si Si3 0.704926 0.749989 0.669203
Si Si4 0.716578 0.536289 0.585426
Si Si5 0.510627 0.379954 0.935335
Si Si6 0.342996 0.776898 0.978082
Si Si7 0.054939 0.386192 0.820572
Si Si8 0.207705 0.727813 0.590852
O O1 0.756218 0.001643 0.573194
O O2 0.877986 0.966129 0.738990
O O3 0.609551 0.933927 0.935450
O O4 0.046806 0.275094 0.853889
O O5 0.659213 0.839087 0.195335
O O6 0.417039 0.827135 0.437469
O O7 0.801257 0.153557 0.360152
O O8 0.816977 0.720474 0.637746
O O9 0.549772 0.639068 0.483281
O O10 0.523977 0.645375 0.847591
O O11 0.706236 0.494251 0.766347
O O12 0.834645 0.546596 0.384607
O O13 0.500000 0.500000 0.000000
O O14 0.201420 0.579024 0.976465
O O15 0.271581 0.760094 0.797044
O O16 0.217765 0.776144 0.162277
O O17 0.000000 0.500000 0.500000
#
# Coordination Sequence:
#
# PCOD9110481 Si02
#       8
#     2   2   2   2   2   2   2   2
#     4  11  21  40  64  91 125 169 205 264 320 382
#     4  10  21  38  62  91 124 163 215 257 314 384
#     4  10  21  37  70  90 124 172 206 263 327 367
#     4  10  20  42  62  95 125 164 218 261 313 382
#     4  10  21  39  68  94 122 170 217 261 318 380
#     4  10  22  39  57  93 127 163 213 259 315 386
#     4  11  22  37  64  87 126 165 207 264 318 376
#     4  10  21  38  60  88 126 167 207 261 316 375
#
# _framework density 29.236813999999999
#
# number of rings (size 3 to 8) (size 9 to 14) (size 15 to 20)
#    0.000    1.750    2.500    1.875    1.750    1.500 
#    2.250    0.000    0.000    2.250    0.000    0.000 
#    0.000    0.000    0.000    0.000    0.000    0.000 
#
# Total GULP energy -89487.214144 kJ/mol
# GULP energy per Si atom -5592.950884 kJ/mol
# Density = 2.917027 g / cm^3
# Si number density = 29.236814 Si / 1000 Ang^3
#
#
#
# Elastic Constant Matrix: (Units=GPa)
#
#
# Indices 1 2 3 4 5 6 
#
# 1 104.2795 42.6902 42.1561 5.6649 -4.4838 -38.5207
# 2 42.6902 216.7779 31.4789 18.5690 -19.4200 -52.2421
# 3 42.1561 31.4789 156.6795 6.7474 -5.1275 -4.3032
# 4 5.6649 18.5690 6.7474 51.9731 -6.9060 -24.0083
# 5 -4.4838 -19.4200 -5.1275 -6.9060 60.7410 0.3098
# 6 -38.5207 -52.2421 -4.3032 -24.0083 0.3098 64.4781
#
#
#
# Elastic Compliance Matrix: (Units=1/GPa)
#
#
# Indices 1 2 3 4 5 6 
#
# 1 0.014591 -0.000228 -0.003735 0.003549 0.001043 0.009599
# 2 -0.000228 0.006116 -0.000992 0.000496 0.001886 0.004929
# 3 -0.003735 -0.000992 0.007569 -0.001699 -0.000131 -0.003162
# 4 0.003549 0.000496 -0.001699 0.024643 0.003020 0.011570
# 5 0.001043 0.001886 -0.000131 0.003020 0.017459 0.003183
# 6 0.009599 0.004929 -0.003162 0.011570 0.003183 0.029319
#
#
# Mechanical properties :
#
#
# Convention : Reuss Voigt Hill
#
# Bulk Modulus (GPa) = 54.44835 78.93193 66.69014
# Shear Modulus (GPa) = 43.20432 59.53257 51.36845
#
# Velocity S-wave (km/s) = 3.84830 4.51734 4.19618
# Velocity P-wave (km/s) = 6.19755 7.36645 6.80713
#
# Compressibility (1/GPa) = 0.01836603
#
# Stress axis : x y z
#
# Youngs Moduli (GPa) = 68.53545 163.49990 132.12323
#
# Poissons Ratio (x) = 0.03731 0.49349
# Poissons Ratio (y) = 0.01564 0.13102
# Poissons Ratio (z) = 0.25598 0.16214
#
# Static dielectric constant tensor:
#      x y z
#    x 2.525510 0.061340 0.026560 
#    y 0.061340 2.312230 0.073250 
#    z 0.026560 0.073250 2.223920 
# 
# From -- ./inp_files/315735.got.cif
#   From: 2010.05.17/outbox.cif.g08.bks.cpg/sg2_158_cif.got.tgz:315735.got - 2010.06.03 11:33:40.
