data_PCOD9110160
_publ_section_title
;
Structure prediction by ZEFSAII (Michael W. Deem and Ramdas Pophale) SiO2 
 PCOD9110160
Probable space group: P -1
;
_chemical_formula_sum "Si O2"
_cell_formula_units_Z 16
_cell_length_a 9.910042
_cell_length_b 12.272046
_cell_length_c 10.793248
_cell_angle_alpha 35.732209
_cell_angle_beta 89.514743
_cell_angle_gamma 72.688668
_cell_volume 664.833213
_symmetry_space_group_name_H-M "P -1"
_symmetry_group_IT_number 2
_symmetry_cell_setting 'triclinic'
loop_
_space_group_symop_operation_xyz
x,y,z
-x,-y,-z
loop_
_atom_site_type_symbol
_atom_site_label
_atom_site_fract_x
_atom_site_fract_y
_atom_site_fract_z
Si Si1 0.815242 0.937036 0.346400
Si Si2 0.574292 0.881934 0.236693
Si Si3 0.665508 0.415567 0.640884
Si Si4 0.072866 0.504458 0.819580
Si Si5 0.602304 0.374468 0.960603
Si Si6 0.336628 0.347534 0.124471
Si Si7 0.715256 0.970963 0.714080
Si Si8 0.857202 0.216335 0.594613
O O1 0.684358 0.949182 0.245498
O O2 0.732888 0.153213 0.228199
O O3 0.958369 0.936514 0.275390
O O4 0.898891 0.703906 0.628731
O O5 0.681426 0.627034 0.451670
O O6 0.500000 0.000000 0.000000
O O7 0.426303 0.941356 0.269446
O O8 0.500000 0.500000 0.500000
O O9 0.646521 0.356424 0.834051
O O10 0.789515 0.238891 0.710845
O O11 0.157101 0.512609 0.937788
O O12 0.130129 0.253612 0.038342
O O13 0.157777 0.559447 0.657188
O O14 0.444145 0.375788 0.993813
O O15 0.608538 0.580615 0.821785
O O16 0.344160 0.118333 0.317130
O O17 0.771224 0.144209 0.561909
#
# Coordination Sequence:
#
# PCOD9110160 Si02
#       8
#     2   2   2   2   2   2   2   2
#     4  10  23  42  65  99 135 175 223 270 350 394
#     4  12  24  41  67  96 136 181 224 273 337 409
#     4  12  24  39  68  99 137 170 229 277 330 405
#     4   8  20  41  66  91 134 171 220 268 341 382
#     4  11  22  42  66 102 133 179 222 282 333 400
#     4   9  21  42  71  91 138 178 227 274 335 399
#     4  10  20  41  70  92 129 178 223 275 327 396
#     4  10  22  41  65 102 130 174 220 278 334 403
#
# _framework density 24.066188
#
# number of rings (size 3 to 8) (size 9 to 14) (size 15 to 20)
#    1.500    0.250    2.500    2.250    0.000    2.500 
#    0.000    2.500    0.000    0.000    0.000    0.000 
#    0.000    0.000    0.000    0.000    0.000    0.000 
#
# Total GULP energy -89237.468483 kJ/mol
# GULP energy per Si atom -5577.341780 kJ/mol
# Density = 2.401141 g / cm^3
# Si number density = 24.066188 Si / 1000 Ang^3
#
#
#
# Elastic Constant Matrix: (Units=GPa)
#
#
# Indices 1 2 3 4 5 6 
#
# 1 78.2493 22.6714 13.9717 -2.5113 6.7393 -4.3711
# 2 22.6714 83.6161 25.4340 -10.3360 -6.0597 2.2610
# 3 13.9717 25.4340 81.5037 -8.1754 3.7345 -7.5836
# 4 -2.5113 -10.3360 -8.1754 38.9842 2.4227 -5.9384
# 5 6.7393 -6.0597 3.7345 2.4227 39.0210 -10.4886
# 6 -4.3711 2.2610 -7.5836 -5.9384 -10.4886 27.4975
#
#
#
# Elastic Compliance Matrix: (Units=1/GPa)
#
#
# Indices 1 2 3 4 5 6 
#
# 1 0.014366 -0.003800 -0.001026 0.000068 -0.002620 0.001328
# 2 -0.003800 0.014735 -0.003950 0.002461 0.002821 -0.001298
# 3 -0.001026 -0.003950 0.014386 0.002622 -0.000795 0.004392
# 4 0.000068 0.002461 0.002622 0.027855 0.000167 0.006611
# 5 -0.002620 0.002821 -0.000795 0.000167 0.029371 0.010372
# 6 0.001328 -0.001298 0.004392 0.006611 0.010372 0.043280
#
#
# Mechanical properties :
#
#
# Convention : Reuss Voigt Hill
#
# Bulk Modulus (GPa) = 38.55960 40.83594 39.69777
# Shear Modulus (GPa) = 29.37871 33.18666 31.28269
#
# Velocity S-wave (km/s) = 3.49771 3.71748 3.60927
# Velocity P-wave (km/s) = 5.68938 5.95242 5.82238
#
# Compressibility (1/GPa) = 0.02593388
#
# Stress axis : x y z
#
# Youngs Moduli (GPa) = 69.60839 67.86550 69.51185
#
# Poissons Ratio (x) = 0.25792 0.07134
# Poissons Ratio (y) = 0.26454 0.27457
# Poissons Ratio (z) = 0.07144 0.26806
#
# Static dielectric constant tensor:
#      x y z
#    x 1.943660 0.061750 -0.074930 
#    y 0.061750 2.034880 -0.111440 
#    z -0.074930 -0.111440 2.114170 
# 
# From -- ./inp_files/422837.got.cif
#   From: 2010.05.17/outbox.cif.g08.bks.cpg/sg2_212_cif.got.tgz:422837.got - 2010.06.03 11:33:40.
