data_PCOD9110201
_publ_section_title
;
Structure prediction by ZEFSAII (Michael W. Deem and Ramdas Pophale) SiO2 
 PCOD9110201
Probable space group: P -1
;
_chemical_formula_sum "Si O2"
_cell_formula_units_Z 16
_cell_length_a 28.705903
_cell_length_b 17.046757
_cell_length_c 5.290782
_cell_angle_alpha 124.036653
_cell_angle_beta 122.179675
_cell_angle_gamma 19.002005
_cell_volume 698.509054
_symmetry_space_group_name_H-M "P -1"
_symmetry_group_IT_number 2
_symmetry_cell_setting 'triclinic'
loop_
_space_group_symop_operation_xyz
x,y,z
-x,-y,-z
loop_
_atom_site_type_symbol
_atom_site_label
_atom_site_fract_x
_atom_site_fract_y
_atom_site_fract_z
Si Si1 0.800466 0.609577 0.113740
Si Si2 0.069763 0.789026 0.855085
Si Si3 0.499592 0.386962 0.293714
Si Si4 0.339434 0.576298 0.674659
Si Si5 0.014233 0.594851 0.341847
Si Si6 0.752479 0.494644 0.643733
Si Si7 0.087923 0.099784 0.725741
Si Si8 0.796462 0.817002 0.244834
O O1 0.758424 0.783784 0.236690
O O2 0.873776 0.504481 0.409526
O O3 0.690036 0.699128 0.902826
O O4 0.938093 0.363418 0.899750
O O5 0.196627 0.582318 0.639204
O O6 0.121916 0.703267 0.138177
O O7 0.945723 0.917155 0.632177
O O8 0.000000 0.000000 0.000000
O O9 0.500000 0.500000 0.500000
O O10 0.401562 0.502982 0.446943
O O11 0.653969 0.098423 0.277754
O O12 0.442410 0.443890 0.960110
O O13 0.315779 0.500476 0.498372
O O14 0.198911 0.868158 0.803656
O O15 0.920048 0.695008 0.470727
O O16 0.890059 0.836195 0.239216
O O17 0.121251 0.355940 0.072974
#
# Coordination Sequence:
#
# PCOD9110201 Si02
#       8
#     2   2   2   2   2   2   2   2
#     4  10  22  38  68 100 133 174 214 293 345 398
#     4  11  20  34  59  95 142 182 207 283 335 392
#     4  12  29  51  71  97 134 189 230 281 330 404
#     4  12  27  44  70 102 141 187 228 274 331 412
#     4  10  20  41  70  98 130 171 220 294 350 395
#     4  11  23  39  64 101 140 177 226 269 347 404
#     4  10  22  34  63 103 136 173 224 270 349 404
#     4  10  24  43  66  98 130 173 235 283 340 399
#
# _framework density 22.905930000000001
#
# number of rings (size 3 to 8) (size 9 to 14) (size 15 to 20)
#    0.000    1.250    2.500    2.625    7.000    0.000 
#    0.000    1.250    0.000    0.000    0.000    0.000 
#    0.000    0.000    0.000    0.000    0.000    0.000 
#
# Total GULP energy -89130.751785 kJ/mol
# GULP energy per Si atom -5570.671987 kJ/mol
# Density = 2.285380 g / cm^3
# Si number density = 22.905930 Si / 1000 Ang^3
#
#
#
# Elastic Constant Matrix: (Units=GPa)
#
#
# Indices 1 2 3 4 5 6 
#
# 1 133.2198 28.1134 6.7701 2.5917 25.4946 26.6905
# 2 28.1134 72.9669 6.4925 6.5405 9.0562 18.6675
# 3 6.7701 6.4925 66.1583 -2.1141 19.0877 7.4689
# 4 2.5917 6.5405 -2.1141 22.3914 7.0120 0.3014
# 5 25.4946 9.0562 19.0877 7.0120 46.2965 2.3694
# 6 26.6905 18.6675 7.4689 0.3014 2.3694 31.2500
#
#
#
# Elastic Compliance Matrix: (Units=1/GPa)
#
#
# Indices 1 2 3 4 5 6 
#
# 1 0.010460 -0.001519 0.001753 0.001381 -0.005985 -0.008005
# 2 -0.001519 0.017090 -0.000309 -0.004328 -0.001278 -0.008699
# 3 0.001753 -0.000309 0.018226 0.004443 -0.008834 -0.005042
# 4 0.001381 -0.004328 0.004443 0.049059 -0.009205 0.000569
# 5 -0.005985 -0.001278 -0.008834 -0.009205 0.029885 0.005810
# 6 -0.008005 -0.008699 -0.005042 0.000569 0.005810 0.044793
#
#
# Mechanical properties :
#
#
# Convention : Reuss Voigt Hill
#
# Bulk Modulus (GPa) = 21.91707 39.45522 30.68615
# Shear Modulus (GPa) = 27.04588 35.38551 31.21569
#
# Velocity S-wave (km/s) = 3.43991 3.93468 3.69559
# Velocity P-wave (km/s) = 5.03651 6.15667 5.62454
#
# Compressibility (1/GPa) = 0.04562654
#
# Stress axis : x y z
#
# Youngs Moduli (GPa) = 95.59955 58.51490 54.86596
#
# Poissons Ratio (x) = 0.08889 -0.09620
# Poissons Ratio (y) = 0.14523 0.01696
# Poissons Ratio (z) = -0.16762 0.01809
#
# Static dielectric constant tensor:
#      x y z
#    x 1.867320 -0.022410 0.023730 
#    y -0.022410 1.840090 -0.008060 
#    z 0.023730 -0.008060 1.920300 
# 
# From -- ./inp_files/128766.got.cif
#   From: 2010.05.17/outbox.cif.g08.bks.cpg/sg2_65_cif.got.tgz:128766.got - 2010.06.03 11:33:40.
