data_PCOD9110224
_publ_section_title
;
Structure prediction by ZEFSAII (Michael W. Deem and Ramdas Pophale) SiO2 
 PCOD9110224
Probable space group: P -1
;
_chemical_formula_sum "Si O2"
_cell_formula_units_Z 14
_cell_length_a 11.645592
_cell_length_b 12.730723
_cell_length_c 8.229448
_cell_angle_alpha 102.667259
_cell_angle_beta 99.539645
_cell_angle_gamma 30.213530
_cell_volume 598.322955
_symmetry_space_group_name_H-M "P -1"
_symmetry_group_IT_number 2
_symmetry_cell_setting 'triclinic'
loop_
_space_group_symop_operation_xyz
x,y,z
-x,-y,-z
loop_
_atom_site_type_symbol
_atom_site_label
_atom_site_fract_x
_atom_site_fract_y
_atom_site_fract_z
Si Si1 0.377346 0.358043 0.319595
Si Si2 0.967844 0.227523 0.417737
Si Si3 0.080969 0.102868 0.038338
Si Si4 0.977477 0.641581 0.095474
Si Si5 0.375055 0.022811 0.601715
Si Si6 0.683155 0.274216 0.886050
Si Si7 0.699566 0.255372 0.502596
O O1 0.621769 0.223167 0.349583
O O2 0.213372 0.542017 0.479417
O O3 0.225251 0.484990 0.165951
O O4 0.436107 0.190079 0.322109
O O5 0.954644 0.223663 0.221710
O O6 0.216826 0.069182 0.474380
O O7 0.918035 0.154052 0.470798
O O8 0.291999 0.857913 0.055242
O O9 0.111955 0.194031 0.992194
O O10 0.918428 0.154821 0.912982
O O11 0.800911 0.781841 0.250994
O O12 0.000000 0.500000 0.000000
O O13 0.500000 0.000000 0.500000
O O14 0.658752 0.267571 0.687990
O O15 0.500000 0.500000 0.000000
O O16 0.500000 0.500000 0.500000
#
# Coordination Sequence:
#
# PCOD9110224 Si02
#       7
#     2   2   2   2   2   2   2
#     4  10  23  44  71 101 137 185 236 291 349 428
#     4  10  23  42  71 103 143 181 232 296 354 423
#     4  11  25  41  66 103 139 185 231 283 360 420
#     4  11  28  49  70 100 147 192 236 302 354 412
#     4  11  26  45  72 103 130 189 249 288 347 425
#     4  11  23  41  68 104 143 178 224 294 353 426
#     4  10  20  41  71 103 136 182 226 279 361 423
#
# _framework density 23.398734999999999
#
# number of rings (size 3 to 8) (size 9 to 14) (size 15 to 20)
#    0.000    1.429    0.000    5.143    4.000    9.714 
#    0.000    0.000    0.000    0.857    0.000    0.000 
#    0.000    0.000    0.000    0.000    0.000    0.000 
#
# Total GULP energy -78277.699752 kJ/mol
# GULP energy per Si atom -5591.264268 kJ/mol
# Density = 2.334548 g / cm^3
# Si number density = 23.398735 Si / 1000 Ang^3
#
#
#
# Elastic Constant Matrix: (Units=GPa)
#
#
# Indices 1 2 3 4 5 6 
#
# 1 143.4518 61.0224 61.1393 -3.4358 -20.9145 17.7374
# 2 61.0224 114.5437 50.9303 -0.4457 -5.8630 21.9588
# 3 61.1393 50.9303 130.1511 -1.5807 -0.1393 11.2231
# 4 -3.4358 -0.4457 -1.5807 40.7459 4.4729 -1.4044
# 5 -20.9145 -5.8630 -0.1393 4.4729 33.2889 0.3034
# 6 17.7374 21.9588 11.2231 -1.4044 0.3034 44.5623
#
#
#
# Elastic Compliance Matrix: (Units=1/GPa)
#
#
# Indices 1 2 3 4 5 6 
#
# 1 0.011273 -0.003694 -0.003689 -0.000001 0.006433 -0.001781
# 2 -0.003694 0.012782 -0.002917 -0.000428 0.000013 -0.004107
# 3 -0.003689 -0.002917 0.010535 0.000388 -0.002842 0.000284
# 4 -0.000001 -0.000428 0.000388 0.024962 -0.003436 0.000923
# 5 0.006433 0.000013 -0.002842 -0.003436 0.034554 -0.002194
# 6 -0.001781 -0.004107 0.000284 0.000923 -0.002194 0.025146
#
#
# Mechanical properties :
#
#
# Convention : Reuss Voigt Hill
#
# Bulk Modulus (GPa) = 71.49073 81.59229 76.54151
# Shear Modulus (GPa) = 34.59815 38.05639 36.32727
#
# Velocity S-wave (km/s) = 3.84947 4.03728 3.94449
# Velocity P-wave (km/s) = 7.09771 7.52854 7.31630
#
# Compressibility (1/GPa) = 0.01398783
#
# Stress axis : x y z
#
# Youngs Moduli (GPa) = 88.70673 78.23532 94.91938
#
# Poissons Ratio (x) = 0.28904 0.35020
# Poissons Ratio (y) = 0.32773 0.27691
# Poissons Ratio (z) = 0.32728 0.22824
#
# Static dielectric constant tensor:
#      x y z
#    x 1.978820 -0.018390 0.003270 
#    y -0.018390 2.039970 -0.043850 
#    z 0.003270 -0.043850 1.853240 
# 
# From -- ./inp_files/26977.got.cif
#   From: 2010.05.17/outbox.cif.g08.bks.cpg/sg2_14_cif.got.tgz:26977.got - 2010.06.03 11:33:40.
