data_PCOD9110524
_publ_section_title
;
Structure prediction by ZEFSAII (Michael W. Deem and Ramdas Pophale) SiO2 
 PCOD9110524
Probable space group: P -1
;
_chemical_formula_sum "Si O2"
_cell_formula_units_Z 14
_cell_length_a 14.084386
_cell_length_b 15.062050
_cell_length_c 6.995079
_cell_angle_alpha 64.757848
_cell_angle_beta 101.046015
_cell_angle_gamma 152.328596
_cell_volume 558.842547
_symmetry_space_group_name_H-M "P -1"
_symmetry_group_IT_number 2
_symmetry_cell_setting 'triclinic'
loop_
_space_group_symop_operation_xyz
x,y,z
-x,-y,-z
loop_
_atom_site_type_symbol
_atom_site_label
_atom_site_fract_x
_atom_site_fract_y
_atom_site_fract_z
Si Si1 0.551430 0.221474 0.743934
Si Si2 0.165706 0.369716 0.333669
Si Si3 0.538646 0.529390 0.716709
Si Si4 0.732794 0.241866 0.473502
Si Si5 0.900659 0.759451 0.144494
Si Si6 0.217695 0.070943 0.646737
Si Si7 0.929955 0.295048 0.811829
O O1 0.733664 0.430102 0.774009
O O2 0.655856 0.241986 0.617804
O O3 0.460448 0.240479 0.602422
O O4 0.317988 0.959465 0.969357
O O5 0.366100 0.491075 0.196417
O O6 0.094061 0.249548 0.615726
O O7 0.946847 0.155945 0.314466
O O8 0.500000 0.500000 0.500000
O O9 0.312670 0.366768 0.871552
O O10 0.741964 0.794192 0.581644
O O11 0.859400 0.266768 0.597639
O O12 0.929307 0.489636 0.226632
O O13 0.500000 0.000000 0.500000
O O14 0.912261 0.655993 0.180192
O O15 0.114669 0.997438 0.885705
#
# Coordination Sequence:
#
# PCOD9110524 Si02
#       7
#     2   2   2   2   2   2   2
#     4  11  23  44  60  94 133 156 214 268 303 391
#     4  11  23  42  66  91 134 172 210 269 314 368
#     4  10  20  42  63  93 134 169 216 268 303 371
#     4  11  24  41  68  94 122 161 209 257 324 387
#     4  10  22  43  63  93 131 163 218 262 306 382
#     4  11  23  40  66  94 128 178 214 254 328 363
#     4  10  23  42  63  91 124 164 203 260 323 367
#
# _framework density 25.051779
#
# number of rings (size 3 to 8) (size 9 to 14) (size 15 to 20)
#    0.000    1.429    4.286    0.857    2.000    5.714 
#    5.143    0.000    0.000    0.000    0.000    0.000 
#    0.000    0.000    0.000    0.000    0.000    0.000 
#
# Total GULP energy -78215.655527 kJ/mol
# GULP energy per Si atom -5586.832538 kJ/mol
# Density = 2.499476 g / cm^3
# Si number density = 25.051779 Si / 1000 Ang^3
#
#
#
# Elastic Constant Matrix: (Units=GPa)
#
#
# Indices 1 2 3 4 5 6 
#
# 1 100.3690 11.7252 32.6960 -8.8871 -10.9324 -5.8866
# 2 11.7252 150.1688 29.2572 -28.9174 2.0373 -15.0826
# 3 32.6960 29.2572 105.0853 -15.0007 -13.6096 -5.9846
# 4 -8.8871 -28.9174 -15.0007 39.5644 -2.4846 3.3926
# 5 -10.9324 2.0373 -13.6096 -2.4846 39.9374 -9.2437
# 6 -5.8866 -15.0826 -5.9846 3.3926 -9.2437 33.9797
#
#
#
# Elastic Compliance Matrix: (Units=1/GPa)
#
#
# Indices 1 2 3 4 5 6 
#
# 1 0.011453 0.000151 -0.002907 0.001570 0.002726 0.002124
# 2 0.000151 0.008230 -0.001397 0.005276 0.000156 0.002949
# 3 -0.002907 -0.001397 0.011826 0.002906 0.003886 0.001726
# 4 0.001570 0.005276 0.002906 0.030710 0.003282 0.000952
# 5 0.002726 0.000156 0.003886 0.003282 0.029362 0.008886
# 6 0.002124 0.002949 0.001726 0.000952 0.008886 0.033732
#
#
# Mechanical properties :
#
#
# Convention : Reuss Voigt Hill
#
# Bulk Modulus (GPa) = 43.10037 55.88665 49.49351
# Shear Modulus (GPa) = 35.37204 41.49261 38.43233
#
# Velocity S-wave (km/s) = 3.76168 4.07415 3.92103
# Velocity P-wave (km/s) = 6.00906 6.66997 6.34812
#
# Compressibility (1/GPa) = 0.02320166
#
# Stress axis : x y z
#
# Youngs Moduli (GPa) = 87.31177 121.51270 84.56009
#
# Poissons Ratio (x) = -0.01832 0.24586
# Poissons Ratio (y) = -0.01316 0.11812
# Poissons Ratio (z) = 0.25386 0.16973
#
# Static dielectric constant tensor:
#      x y z
#    x 1.983860 -0.015520 0.041970 
#    y -0.015520 1.981590 -0.015140 
#    z 0.041970 -0.015140 2.111220 
# 
# From -- ./inp_files/314924.got.cif
#   From: 2010.05.17/outbox.cif.g08.bks.cpg/sg2_158_cif.got.tgz:314924.got - 2010.06.03 11:33:40.
