data_PCOD9110774
_publ_section_title
;
Structure prediction by ZEFSAII (Michael W. Deem and Ramdas Pophale) SiO2 
 PCOD9110774
Probable space group: P -1
;
_chemical_formula_sum "Si O2"
_cell_formula_units_Z 16
_cell_length_a 16.241588
_cell_length_b 8.802405
_cell_length_c 8.643914
_cell_angle_alpha 117.565294
_cell_angle_beta 57.457942
_cell_angle_gamma 77.145298
_cell_volume 716.578730
_symmetry_space_group_name_H-M "P -1"
_symmetry_group_IT_number 2
_symmetry_cell_setting 'triclinic'
loop_
_space_group_symop_operation_xyz
x,y,z
-x,-y,-z
loop_
_atom_site_type_symbol
_atom_site_label
_atom_site_fract_x
_atom_site_fract_y
_atom_site_fract_z
Si Si1 0.011369 0.462017 0.784814
Si Si2 0.137124 0.899458 0.757987
Si Si3 0.386049 0.994983 0.242164
Si Si4 0.111449 0.981609 0.460761
Si Si5 0.255269 0.118458 0.756169
Si Si6 0.226577 0.439518 0.418640
Si Si7 0.407557 0.596037 0.984107
Si Si8 0.391290 0.229110 0.865517
O O1 0.082724 0.209161 0.552824
O O2 0.088419 0.523196 0.645499
O O3 0.865088 0.628523 0.972248
O O4 0.000000 0.500000 0.000000
O O5 0.228516 0.635809 0.556315
O O6 0.105189 0.974868 0.648191
O O7 0.208966 0.983513 0.794947
O O8 0.000000 0.000000 0.000000
O O9 0.291258 0.053927 0.508639
O O10 0.318817 0.213909 0.314230
O O11 0.426084 0.778328 0.006831
O O12 0.504795 0.929799 0.186204
O O13 0.255420 0.766147 0.188730
O O14 0.000000 0.000000 0.500000
O O15 0.365417 0.099401 0.719007
O O16 0.267264 0.392798 0.176738
O O17 0.429175 0.369986 0.815090
O O18 0.500000 0.500000 0.000000
#
# Coordination Sequence:
#
# PCOD9110774 Si02
#       8
#     2   2   2   2   2   2   2   2
#     4  12  21  39  65  90 123 166 207 253 323 383
#     4  12  24  42  62  92 129 170 202 262 330 379
#     4  11  22  44  68  87 129 174 215 251 320 392
#     4  12  23  41  65  95 122 162 218 264 310 383
#     4  12  23  43  64  93 130 165 214 260 319 387
#     4  12  22  41  64  92 127 163 213 259 320 375
#     4  10  20  42  66  91 126 170 212 257 318 386
#     4  11  25  39  65 100 123 164 215 273 311 368
#
# _framework density 22.328320999999999
#
# number of rings (size 3 to 8) (size 9 to 14) (size 15 to 20)
#    0.000    0.500    7.500    1.500    0.000    1.500 
#    0.000    0.625    0.000    0.000    0.000    0.000 
#    0.000    0.000    0.000    0.000    0.000    0.000 
#
# Total GULP energy -89071.561365 kJ/mol
# GULP energy per Si atom -5566.972585 kJ/mol
# Density = 2.227750 g / cm^3
# Si number density = 22.328321 Si / 1000 Ang^3
#
#
#
# Elastic Constant Matrix: (Units=GPa)
#
#
# Indices 1 2 3 4 5 6 
#
# 1 166.4381 41.3411 17.8085 17.5607 -6.0969 24.5014
# 2 41.3411 110.3880 24.0352 30.8659 7.8144 27.5918
# 3 17.8085 24.0352 66.2296 17.2915 -8.2284 7.7360
# 4 17.5607 30.8659 17.2915 37.2001 3.1765 -0.0160
# 5 -6.0969 7.8144 -8.2284 3.1765 31.8978 14.3089
# 6 24.5014 27.5918 7.7360 -0.0160 14.3089 25.1103
#
#
#
# Elastic Compliance Matrix: (Units=1/GPa)
#
#
# Indices 1 2 3 4 5 6 
#
# 1 0.009139 0.002058 0.002327 -0.008026 0.010721 -0.018010
# 2 0.002058 0.020822 0.002750 -0.020642 0.012906 -0.033102
# 3 0.002327 0.002750 0.021972 -0.015019 0.016590 -0.021524
# 4 -0.008026 -0.020642 -0.015019 0.057306 -0.029337 0.051894
# 5 0.010721 0.012906 0.016590 -0.029337 0.068237 -0.068657
# 6 -0.018010 -0.033102 -0.021524 0.051894 -0.068657 0.139558
#
#
# Mechanical properties :
#
#
# Convention : Reuss Voigt Hill
#
# Bulk Modulus (GPa) = 15.10553 56.60279 35.85416
# Shear Modulus (GPa) = 15.39255 36.16637 25.77946
#
# Velocity S-wave (km/s) = 2.62844 4.02898 3.40157
# Velocity P-wave (km/s) = 3.99893 6.85922 5.61428
#
# Compressibility (1/GPa) = 0.06620092
#
# Stress axis : x y z
#
# Youngs Moduli (GPa) = 109.42155 48.02685 45.51266
#
# Poissons Ratio (x) = -0.09882 -0.10591
# Poissons Ratio (y) = -0.22514 -0.12514
# Poissons Ratio (z) = -0.25463 -0.13205
#
# Static dielectric constant tensor:
#      x y z
#    x 1.808840 0.022580 -0.031290 
#    y 0.022580 1.831010 -0.010820 
#    z -0.031290 -0.010820 1.955240 
# 
# From -- ./inp_files/242440.got.cif
#   From: 2010.05.17/outbox.cif.g08.bks.cpg/sg2_122_cif.got.tgz:242440.got - 2010.06.03 11:33:40.
