data_PCOD9110323
_publ_section_title
;
Structure prediction by ZEFSAII (Michael W. Deem and Ramdas Pophale) SiO2 
 PCOD9110323
Probable space group: P -1
;
_chemical_formula_sum "Si O2"
_cell_formula_units_Z 16
_cell_length_a 8.902580
_cell_length_b 6.207199
_cell_length_c 15.638130
_cell_angle_alpha 85.464582
_cell_angle_beta 78.218150
_cell_angle_gamma 118.974516
_cell_volume 723.914460
_symmetry_space_group_name_H-M "P -1"
_symmetry_group_IT_number 2
_symmetry_cell_setting 'triclinic'
loop_
_space_group_symop_operation_xyz
x,y,z
-x,-y,-z
loop_
_atom_site_type_symbol
_atom_site_label
_atom_site_fract_x
_atom_site_fract_y
_atom_site_fract_z
Si Si1 0.889758 0.231221 0.065479
Si Si2 0.820204 0.176470 0.348455
Si Si3 0.954275 0.917572 0.792818
Si Si4 0.573204 0.571467 0.841509
Si Si5 0.912901 0.183680 0.519899
Si Si6 0.434220 0.872377 0.767096
Si Si7 0.386125 0.131670 0.997909
Si Si8 0.839510 0.251517 0.714786
O O1 0.721075 0.197503 0.141995
O O2 0.993591 0.155390 0.122132
O O3 0.815612 0.054181 0.997627
O O4 0.000000 0.500000 0.000000
O O5 0.785574 0.109464 0.454130
O O6 0.655864 0.145847 0.313074
O O7 0.886978 0.013107 0.294426
O O8 0.996698 0.459522 0.315025
O O9 0.774606 0.664272 0.791164
O O10 0.898979 0.126673 0.785561
O O11 0.483563 0.656317 0.779247
O O12 0.456984 0.297186 0.899195
O O13 0.591843 0.722494 0.922638
O O14 0.844557 0.130759 0.626345
O O15 0.000000 0.500000 0.500000
O O16 0.000000 0.000000 0.500000
O O17 0.624161 0.134364 0.751777
O O18 0.500000 0.000000 0.000000
#
# Coordination Sequence:
#
# PCOD9110323 Si02
#       8
#     2   2   2   2   2   2   2   2
#     4  11  24  39  61  86 125 168 220 272 334 389
#     4  10  22  40  67  92 136 165 211 272 330 401
#     4  10  22  38  59  91 118 165 209 271 323 393
#     4  10  23  38  60  86 115 160 219 261 330 387
#     4  10  20  41  73 104 140 182 222 274 346 415
#     4  10  23  42  61  97 124 169 224 272 326 401
#     4  11  22  39  58  79 118 160 209 273 324 383
#     4  10  22  41  67  93 130 171 218 260 343 393
#
# _framework density 22.102059000000001
#
# number of rings (size 3 to 8) (size 9 to 14) (size 15 to 20)
#    0.000    1.750    2.500    0.750    5.250    5.000 
#    0.000    0.000    0.000    3.000    0.000    0.000 
#    0.000    0.000    0.000    0.000    0.000    0.000 
#
# Total GULP energy -89074.984959 kJ/mol
# GULP energy per Si atom -5567.186560 kJ/mol
# Density = 2.205175 g / cm^3
# Si number density = 22.102059 Si / 1000 Ang^3
#
#
#
# Elastic Constant Matrix: (Units=GPa)
#
#
# Indices 1 2 3 4 5 6 
#
# 1 136.5105 27.1448 47.5890 8.4064 31.9977 9.0203
# 2 27.1448 64.8109 8.9335 -4.9525 4.6381 3.0193
# 3 47.5890 8.9335 96.5738 7.2890 26.5724 -10.6887
# 4 8.4064 -4.9525 7.2890 30.9414 1.7724 -3.3451
# 5 31.9977 4.6381 26.5724 1.7724 49.6171 4.8398
# 6 9.0203 3.0193 -10.6887 -3.3451 4.8398 10.6855
#
#
#
# Elastic Compliance Matrix: (Units=1/GPa)
#
#
# Indices 1 2 3 4 5 6 
#
# 1 0.012128 -0.003583 -0.006460 -0.003927 -0.002340 -0.015857
# 2 -0.003583 0.017299 -0.000601 0.003627 0.001063 -0.001810
# 3 -0.006460 -0.000601 0.019220 0.000795 -0.008943 0.029148
# 4 -0.003927 0.003627 0.000795 0.035409 -0.000920 0.014587
# 5 -0.002340 0.001063 -0.008943 -0.000920 0.028377 -0.020412
# 6 -0.015857 -0.001810 0.029148 0.014587 -0.020412 0.150451
#
#
# Mechanical properties :
#
#
# Convention : Reuss Voigt Hill
#
# Bulk Modulus (GPa) = 36.55069 51.69218 44.12144
# Shear Modulus (GPa) = 17.04790 32.53067 24.78928
#
# Velocity S-wave (km/s) = 2.78029 3.84062 3.35264
# Velocity P-wave (km/s) = 5.18457 6.56550 5.91547
#
# Compressibility (1/GPa) = 0.02735927
#
# Stress axis : x y z
#
# Youngs Moduli (GPa) = 82.45458 57.80846 52.02810
#
# Poissons Ratio (x) = 0.20713 0.33608
# Poissons Ratio (y) = 0.29544 0.03127
# Poissons Ratio (z) = 0.53263 0.03474
#
# Static dielectric constant tensor:
#      x y z
#    x 1.843920 -0.021720 -0.037090 
#    y -0.021720 1.915940 -0.009280 
#    z -0.037090 -0.009280 1.809550 
# 
# From -- ./inp_files/355899.got.cif
#   From: 2010.05.17/outbox.cif.g08.bks.cpg/sg2_178_cif.got.tgz:355899.got - 2010.06.03 11:33:40.
