data_PCOD9110501
_publ_section_title
;
Structure prediction by ZEFSAII (Michael W. Deem and Ramdas Pophale) SiO2 
 PCOD9110501
Probable space group: P -1
;
_chemical_formula_sum "Si O2"
_cell_formula_units_Z 16
_cell_length_a 9.648114
_cell_length_b 26.626037
_cell_length_c 20.849471
_cell_angle_alpha 17.778391
_cell_angle_beta 148.283168
_cell_angle_gamma 150.862543
_cell_volume 789.812934
_symmetry_space_group_name_H-M "P -1"
_symmetry_group_IT_number 2
_symmetry_cell_setting 'triclinic'
loop_
_space_group_symop_operation_xyz
x,y,z
-x,-y,-z
loop_
_atom_site_type_symbol
_atom_site_label
_atom_site_fract_x
_atom_site_fract_y
_atom_site_fract_z
Si Si1 0.790032 0.052646 0.508798
Si Si2 0.037179 0.747362 0.291459
Si Si3 0.524424 0.845309 0.006807
Si Si4 0.184259 0.268807 0.908044
Si Si5 0.624228 0.352819 0.349192
Si Si6 0.021994 0.262019 0.999006
Si Si7 0.782576 0.588162 0.785686
Si Si8 0.496435 0.968477 0.711865
O O1 0.042168 0.242046 0.396363
O O2 0.500000 0.000000 0.500000
O O3 0.897189 0.893427 0.750124
O O4 0.708463 0.079069 0.371847
O O5 0.153872 0.636249 0.519052
O O6 0.000521 0.700555 0.259199
O O7 0.267438 0.951687 0.140322
O O8 0.732111 0.742556 0.201224
O O9 0.287944 0.763031 0.067405
O O10 0.379470 0.864051 0.859431
O O11 0.498462 0.431840 0.835444
O O12 0.048233 0.246218 0.951993
O O13 0.242627 0.091115 0.129920
O O14 0.337095 0.338567 0.289739
O O15 0.587918 0.177781 0.507845
O O16 0.752598 0.539759 0.135417
O O17 0.000000 0.500000 0.000000
#
# Coordination Sequence:
#
# PCOD9110501 Si02
#       8
#     2   2   2   2   2   2   2   2
#     4  12  22  40  64  90 130 164 205 264 307 368
#     4   9  19  41  64  87 124 170 207 248 318 365
#     4   9  20  38  63  91 123 161 208 262 303 375
#     4  10  21  42  66  92 127 166 207 257 309 373
#     4  10  23  41  66  92 128 164 209 257 303 380
#     4  11  23  38  58  98 129 159 214 257 306 358
#     4  11  22  41  63  90 125 164 205 251 314 367
#     4  10  20  42  63  89 122 172 199 249 318 366
#
# _framework density 20.257961000000002
#
# number of rings (size 3 to 8) (size 9 to 14) (size 15 to 20)
#    0.000    1.750    2.500    3.000    0.000    5.500 
#    4.500    1.250    0.000    0.000    0.000    0.000 
#    0.000    0.000    0.000    0.000    0.000    0.000 
#
# Total GULP energy -89337.007026 kJ/mol
# GULP energy per Si atom -5583.562939 kJ/mol
# Density = 2.021185 g / cm^3
# Si number density = 20.257961 Si / 1000 Ang^3
#
#
#
# Elastic Constant Matrix: (Units=GPa)
#
#
# Indices 1 2 3 4 5 6 
#
# 1 105.3455 46.8494 23.3943 -4.4983 8.0928 15.8511
# 2 46.8494 52.8747 20.3261 6.1319 -9.7234 6.8347
# 3 23.3943 20.3261 101.8927 -7.8383 6.6326 7.0144
# 4 -4.4983 6.1319 -7.8383 34.7773 -9.6672 -8.1081
# 5 8.0928 -9.7234 6.6326 -9.6672 29.4904 2.9041
# 6 15.8511 6.8347 7.0144 -8.1081 2.9041 43.9034
#
#
#
# Elastic Compliance Matrix: (Units=1/GPa)
#
#
# Indices 1 2 3 4 5 6 
#
# 1 0.019211 -0.019039 0.000457 0.002317 -0.010605 -0.002915
# 2 -0.019039 0.042243 -0.005663 -0.006331 0.018468 -0.001188
# 3 0.000457 -0.005663 0.011297 0.002491 -0.003679 -0.000385
# 4 0.002317 -0.006331 0.002491 0.034067 0.007337 0.005557
# 5 -0.010605 0.018468 -0.003679 0.007337 0.046157 -0.000157
# 6 -0.002915 -0.001188 -0.000385 0.005557 -0.000157 0.025113
#
#
# Mechanical properties :
#
#
# Convention : Reuss Voigt Hill
#
# Bulk Modulus (GPa) = 41.22092 49.02805 45.12449
# Shear Modulus (GPa) = 21.30707 32.93708 27.12208
#
# Velocity S-wave (km/s) = 3.24665 4.03660 3.66298
# Velocity P-wave (km/s) = 5.86911 6.78085 6.34139
#
# Compressibility (1/GPa) = 0.02425953
#
# Stress axis : x y z
#
# Youngs Moduli (GPa) = 52.05462 23.67258 88.52176
#
# Poissons Ratio (x) = 0.45070 -0.04042
# Poissons Ratio (y) = 0.99107 0.50129
# Poissons Ratio (z) = -0.02377 0.13405
#
# Static dielectric constant tensor:
#      x y z
#    x 1.722700 -0.025850 0.017740 
#    y -0.025850 1.734860 -0.009200 
#    z 0.017740 -0.009200 1.732370 
# 
# From -- ./inp_files/299247.got.cif
#   From: 2010.05.17/outbox.cif.g08.bks.cpg/sg2_150_cif.got.tgz:299247.got - 2010.06.03 11:33:40.
