data_PCOD9110589
_publ_section_title
;
Structure prediction by ZEFSAII (Michael W. Deem and Ramdas Pophale) SiO2 
 PCOD9110589
Probable space group: P -1
;
_chemical_formula_sum "Si O2"
_cell_formula_units_Z 16
_cell_length_a 9.343247
_cell_length_b 19.626579
_cell_length_c 12.707307
_cell_angle_alpha 153.582700
_cell_angle_beta 52.416125
_cell_angle_gamma 134.041336
_cell_volume 744.653876
_symmetry_space_group_name_H-M "P -1"
_symmetry_group_IT_number 2
_symmetry_cell_setting 'triclinic'
loop_
_space_group_symop_operation_xyz
x,y,z
-x,-y,-z
loop_
_atom_site_type_symbol
_atom_site_label
_atom_site_fract_x
_atom_site_fract_y
_atom_site_fract_z
Si Si1 0.952924 0.328310 0.642206
Si Si2 0.879299 0.417572 0.565353
Si Si3 0.890448 0.773388 0.848574
Si Si4 0.297617 0.325912 0.995313
Si Si5 0.816818 0.860884 0.779598
Si Si6 0.746342 0.513905 0.107938
Si Si7 0.474396 0.155269 0.280793
Si Si8 0.808606 0.838133 0.402358
O O1 0.894186 0.356894 0.592260
O O2 0.994379 0.163235 0.387156
O O3 0.166701 0.456186 0.771976
O O4 0.799339 0.364477 0.833683
O O5 0.857375 0.590009 0.832671
O O6 0.681852 0.292982 0.420889
O O7 0.065072 0.393275 0.396418
O O8 0.784088 0.788014 0.022654
O O9 0.779241 0.778910 0.798591
O O10 0.101744 0.937169 0.970031
O O11 0.515546 0.461147 0.117866
O O12 0.309600 0.245087 0.766918
O O13 0.630771 0.783484 0.678935
O O14 0.851448 0.691362 0.240944
O O15 0.320068 0.108592 0.383477
O O16 0.500000 0.000000 0.000000
O O17 0.000000 0.000000 0.500000
#
# Coordination Sequence:
#
# PCOD9110589 Si02
#       8
#     2   2   2   2   2   2   2   2
#     4  10  21  39  68  90 126 181 222 267 339 399
#     4  11  21  39  69  99 130 178 225 278 332 394
#     4  10  23  39  64  98 134 178 222 276 335 401
#     4  12  23  43  68 103 134 173 231 281 338 396
#     4  10  20  42  64  90 136 180 218 273 335 398
#     4  11  22  42  67  95 134 178 221 278 338 407
#     4  12  23  42  69 100 134 178 225 276 337 401
#     4  12  25  42  70 103 136 175 221 285 339 399
#
# _framework density 21.486491000000001
#
# number of rings (size 3 to 8) (size 9 to 14) (size 15 to 20)
#    0.000    1.000    5.000    2.250    0.000    0.000 
#    0.000   10.000    0.000    0.000    0.000    0.000 
#    0.000    0.000    0.000    0.000    0.000    0.000 
#
# Total GULP energy -89193.977889 kJ/mol
# GULP energy per Si atom -5574.623618 kJ/mol
# Density = 2.143759 g / cm^3
# Si number density = 21.486491 Si / 1000 Ang^3
#
#
#
# Elastic Constant Matrix: (Units=GPa)
#
#
# Indices 1 2 3 4 5 6 
#
# 1 134.7889 47.7567 32.8168 -6.0498 22.0722 -24.6921
# 2 47.7567 71.0405 30.6720 -10.3698 5.3308 -12.3773
# 3 32.8168 30.6720 95.4853 -27.3793 -3.6411 -15.0932
# 4 -6.0498 -10.3698 -27.3793 36.3266 -1.7702 4.3900
# 5 22.0722 5.3308 -3.6411 -1.7702 52.6074 -8.8170
# 6 -24.6921 -12.3773 -15.0932 4.3900 -8.8170 12.6280
#
#
#
# Elastic Compliance Matrix: (Units=1/GPa)
#
#
# Indices 1 2 3 4 5 6 
#
# 1 0.013238 -0.005512 -0.000366 -0.002090 -0.001823 0.019498
# 2 -0.005512 0.020292 -0.003213 0.001859 0.000987 0.005314
# 3 -0.000366 -0.003213 0.017439 0.010377 0.004843 0.016753
# 4 -0.002090 0.001859 0.010377 0.035717 0.002522 -0.000517
# 5 -0.001823 0.000987 0.004843 0.002522 0.023196 0.018510
# 6 0.019498 0.005314 0.016753 -0.000517 0.018510 0.155648
#
#
# Mechanical properties :
#
#
# Convention : Reuss Voigt Hill
#
# Bulk Modulus (GPa) = 30.50045 58.20064 44.35054
# Shear Modulus (GPa) = 16.96976 32.98369 24.97673
#
# Velocity S-wave (km/s) = 2.81336 3.92227 3.41315
# Velocity P-wave (km/s) = 4.97789 6.90349 6.01820
#
# Compressibility (1/GPa) = 0.03278640
#
# Stress axis : x y z
#
# Youngs Moduli (GPa) = 75.54218 49.27934 57.34310
#
# Poissons Ratio (x) = 0.27164 0.02097
# Poissons Ratio (y) = 0.41641 0.18427
# Poissons Ratio (z) = 0.02762 0.15835
#
# Static dielectric constant tensor:
#      x y z
#    x 1.781830 -0.011540 -0.027380 
#    y -0.011540 1.794640 -0.022460 
#    z -0.027380 -0.022460 1.866950 
# 
# From -- ./inp_files/403537.got.cif
#   From: 2010.05.17/outbox.cif.g08.bks.cpg/sg2_202_cif.got.tgz:403537.got - 2010.06.03 11:33:40.
