data_PCOD9110439
_publ_section_title
;
Structure prediction by ZEFSAII (Michael W. Deem and Ramdas Pophale) SiO2 
 PCOD9110439
Probable space group: P -1
;
_chemical_formula_sum "Si O2"
_cell_formula_units_Z 14
_cell_length_a 10.349082
_cell_length_b 14.236837
_cell_length_c 11.963244
_cell_angle_alpha 150.746442
_cell_angle_beta 143.569826
_cell_angle_gamma 39.204733
_cell_volume 495.099238
_symmetry_space_group_name_H-M "P -1"
_symmetry_group_IT_number 2
_symmetry_cell_setting 'triclinic'
loop_
_space_group_symop_operation_xyz
x,y,z
-x,-y,-z
loop_
_atom_site_type_symbol
_atom_site_label
_atom_site_fract_x
_atom_site_fract_y
_atom_site_fract_z
Si Si1 0.349926 0.281005 0.536544
Si Si2 0.671052 0.134830 0.974553
Si Si3 0.058275 0.782089 0.936554
Si Si4 0.697414 0.267875 0.589058
Si Si5 0.274739 0.696148 0.593476
Si Si6 0.143285 0.456444 0.808045
Si Si7 0.128713 0.177552 0.694497
O O1 0.123757 0.322637 0.349687
O O2 0.530006 0.352528 0.660356
O O3 0.283589 0.350506 0.687735
O O4 0.420912 0.038869 0.327669
O O5 0.590849 0.233880 0.140822
O O6 0.732693 0.259210 0.044812
O O7 0.923736 0.010652 0.067330
O O8 0.124890 0.685946 0.002360
O O9 0.595824 0.352027 0.485133
O O10 0.952921 0.294461 0.787167
O O11 0.732047 0.028899 0.373801
O O12 0.060937 0.867398 0.569448
O O13 0.116509 0.559253 0.384650
O O14 0.237188 0.320958 0.842220
#
# Coordination Sequence:
#
# PCOD9110439 Si02
#       7
#     2   2   2   2   2   2   2
#     4  10  17  25  45  74  84 117 138 184 205 269
#     4   9  17  25  45  65  93 114 144 161 235 250
#     4   9  16  28  42  69  91 117 134 184 207 277
#     4   8  16  30  46  64  92 103 160 175 213 244
#     4   8  15  30  44  67  81 122 135 181 214 263
#     4   9  16  27  48  63  91 111 151 167 229 239
#     4   7  16  31  46  65  81 122 137 193 208 248
#
# _framework density 28.277159999999999
#
# number of rings (size 3 to 8) (size 9 to 14) (size 15 to 20)
#    2.571    0.571    1.429    0.429    0.000    1.143 
#    0.000    2.857    0.000    1.714    0.000    0.000 
#    0.000    0.000    0.000    0.000    0.000    0.000 
#
# Total GULP energy -77938.708919 kJ/mol
# GULP energy per Si atom -5567.050637 kJ/mol
# Density = 2.821280 g / cm^3
# Si number density = 28.277160 Si / 1000 Ang^3
#
#
#
# Elastic Constant Matrix: (Units=GPa)
#
#
# Indices 1 2 3 4 5 6 
#
# 1 273.7912 55.9605 41.3241 12.5516 8.4248 29.7379
# 2 55.9605 76.4534 30.0322 -4.2349 1.3732 32.5671
# 3 41.3241 30.0322 54.6129 7.9338 -5.5671 10.6187
# 4 12.5516 -4.2349 7.9338 49.6008 3.7622 0.7917
# 5 8.4248 1.3732 -5.5671 3.7622 41.5098 11.5060
# 6 29.7379 32.5671 10.6187 0.7917 11.5060 55.2251
#
#
#
# Elastic Compliance Matrix: (Units=1/GPa)
#
#
# Indices 1 2 3 4 5 6 
#
# 1 0.004566 -0.002399 -0.001998 -0.000965 -0.000901 -0.000458
# 2 -0.002399 0.023447 -0.009434 0.004209 0.001118 -0.011014
# 3 -0.001998 -0.009434 0.026007 -0.004808 0.004423 0.000786
# 4 -0.000965 0.004209 -0.004808 0.021723 -0.002317 -0.000867
# 5 -0.000901 0.001118 0.004423 -0.002317 0.026866 -0.006589
# 6 -0.000458 -0.011014 0.000786 -0.000867 -0.006589 0.026084
#
#
# Mechanical properties :
#
#
# Convention : Reuss Voigt Hill
#
# Bulk Modulus (GPa) = 37.94104 73.27678 55.60891
# Shear Modulus (GPa) = 30.27703 47.76986 39.02344
#
# Velocity S-wave (km/s) = 3.27574 4.11462 3.71891
# Velocity P-wave (km/s) = 5.26821 6.96732 6.17647
#
# Compressibility (1/GPa) = 0.02635668
#
# Stress axis : x y z
#
# Youngs Moduli (GPa) = 219.00275 42.64979 38.45113
#
# Poissons Ratio (x) = 0.10234 0.07683
# Poissons Ratio (y) = 0.52549 0.36275
# Poissons Ratio (z) = 0.43760 0.40236
#
# Static dielectric constant tensor:
#      x y z
#    x 2.408550 -0.217310 -0.157360 
#    y -0.217310 2.404320 0.105120 
#    z -0.157360 0.105120 2.279640 
# 
# From -- ./inp_files/502191.got.cif
#   From: 2010.05.17/outbox.cif.g08.bks.cpg/sg2_252_cif.got.tgz:502191.got - 2010.06.03 11:33:40.
