data_PCOD9110249
_publ_section_title
;
Structure prediction by ZEFSAII (Michael W. Deem and Ramdas Pophale) SiO2 
 PCOD9110249
Probable space group: P -1
;
_chemical_formula_sum "Si O2"
_cell_formula_units_Z 15
_cell_length_a 7.788968
_cell_length_b 9.801975
_cell_length_c 8.105252
_cell_angle_alpha 106.755159
_cell_angle_beta 86.857196
_cell_angle_gamma 105.153838
_cell_volume 571.796951
_symmetry_space_group_name_H-M "P -1"
_symmetry_group_IT_number 2
_symmetry_cell_setting 'triclinic'
loop_
_space_group_symop_operation_xyz
x,y,z
-x,-y,-z
loop_
_atom_site_type_symbol
_atom_site_label
_atom_site_fract_x
_atom_site_fract_y
_atom_site_fract_z
Si Si1 0.459739 0.444790 0.298228
Si Si2 0.500000 0.000000 0.500000
Si Si3 0.113795 0.685831 0.199359
Si Si4 0.049197 0.957383 0.162322
Si Si5 0.162300 0.853799 0.609944
Si Si6 0.527544 0.728459 0.195304
Si Si7 0.414209 0.132732 0.096751
Si Si8 0.038417 0.418411 0.302126
O O1 0.500000 0.500000 0.500000
O O2 0.551598 0.574425 0.210704
O O3 0.511857 0.291847 0.219963
O O4 0.245008 0.416262 0.281528
O O5 0.371452 0.916098 0.624794
O O6 0.544085 0.843866 0.383382
O O7 0.127947 0.775955 0.405474
O O8 0.317693 0.696646 0.145593
O O9 0.008124 0.520813 0.190419
O O10 0.033259 0.785367 0.119325
O O11 0.254515 0.051737 0.198988
O O12 0.936033 0.017435 0.323227
O O13 0.000000 0.000000 0.000000
O O14 0.085029 0.742558 0.721220
O O15 0.637301 0.805774 0.058087
O O16 0.500000 0.000000 0.000000
O O17 0.000000 0.500000 0.500000
#
# Coordination Sequence:
#
# PCOD9110249 Si02
#       8
#     2   1   2   2   2   2   2   2
#     4  11  25  45  74 110 144 191 251 299 359 436
#     4  10  22  40  76 108 134 180 254 296 362 434
#     4   9  20  40  68  95 130 188 234 287 364 423
#     4  12  24  42  65 101 140 190 245 298 353 435
#     4  10  20  41  71  95 140 179 239 298 361 426
#     4  10  22  43  69 101 149 189 236 298 365 434
#     4  12  25  46  71 102 155 196 237 300 372 428
#     4   9  19  43  69  95 140 188 228 296 366 426
#
# _framework density 26.233089
#
# number of rings (size 3 to 8) (size 9 to 14) (size 15 to 20)
#    0.000    1.600    2.667    2.400    1.867    0.000 
#   14.400    0.667    0.000    0.000    0.000    0.000 
#    0.000    0.000    0.000    0.000    0.000    0.000 
#
# Total GULP energy -83726.615655 kJ/mol
# GULP energy per Si atom -5581.774377 kJ/mol
# Density = 2.617338 g / cm^3
# Si number density = 26.233089 Si / 1000 Ang^3
#
#
#
# Elastic Constant Matrix: (Units=GPa)
#
#
# Indices 1 2 3 4 5 6 
#
# 1 76.2369 49.6079 18.2941 -13.4660 -19.9635 -1.5450
# 2 49.6079 243.2058 37.9856 -23.3506 -5.7093 -14.5409
# 3 18.2941 37.9856 113.5608 2.1938 -12.8300 -6.3126
# 4 -13.4660 -23.3506 2.1938 59.0674 -1.0209 -7.3830
# 5 -19.9635 -5.7093 -12.8300 -1.0209 35.6400 -10.0084
# 6 -1.5450 -14.5409 -6.3126 -7.3830 -10.0084 35.8817
#
#
#
# Elastic Compliance Matrix: (Units=1/GPa)
#
#
# Indices 1 2 3 4 5 6 
#
# 1 0.018733 -0.002899 -0.000717 0.003749 0.010802 0.003290
# 2 -0.002899 0.005156 -0.001260 0.001649 -0.000672 0.001895
# 3 -0.000717 -0.001260 0.009864 -0.000715 0.003494 0.002021
# 4 0.003749 0.001649 -0.000715 0.019271 0.004308 0.005871
# 5 0.010802 -0.000672 0.003494 0.004308 0.038906 0.012546
# 6 0.003290 0.001895 0.002021 0.005871 0.012546 0.033842
#
#
# Mechanical properties :
#
#
# Convention : Reuss Voigt Hill
#
# Bulk Modulus (GPa) = 41.66636 71.64209 56.65422
# Shear Modulus (GPa) = 34.83748 47.92554 41.38151
#
# Velocity S-wave (km/s) = 3.64812 4.27888 3.97603
# Velocity P-wave (km/s) = 5.80196 7.19589 6.53619
#
# Compressibility (1/GPa) = 0.02400018
#
# Stress axis : x y z
#
# Youngs Moduli (GPa) = 53.38209 193.96090 101.38024
#
# Poissons Ratio (x) = 0.56224 0.07272
# Poissons Ratio (y) = 0.15474 0.12774
# Poissons Ratio (z) = 0.03829 0.24440
#
# Static dielectric constant tensor:
#      x y z
#    x 2.132920 0.036710 0.095660 
#    y 0.036710 2.037100 0.023390 
#    z 0.095660 0.023390 2.058570 
# 
# From -- ./inp_files/155362.got.cif
#   From: 2010.05.17/outbox.cif.g08.bks.cpg/sg2_78_cif.got.tgz:155362.got - 2010.06.03 11:33:40.
