data_PCOD9110156
_publ_section_title
;
Structure prediction by ZEFSAII (Michael W. Deem and Ramdas Pophale) SiO2 
 PCOD9110156
Probable space group: P -1
;
_chemical_formula_sum "Si O2"
_cell_formula_units_Z 16
_cell_length_a 8.151160
_cell_length_b 16.716956
_cell_length_c 9.369312
_cell_angle_alpha 50.695455
_cell_angle_beta 113.632892
_cell_angle_gamma 136.032424
_cell_volume 682.233470
_symmetry_space_group_name_H-M "P -1"
_symmetry_group_IT_number 2
_symmetry_cell_setting 'triclinic'
loop_
_space_group_symop_operation_xyz
x,y,z
-x,-y,-z
loop_
_atom_site_type_symbol
_atom_site_label
_atom_site_fract_x
_atom_site_fract_y
_atom_site_fract_z
Si Si1 0.769317 0.586430 0.688627
Si Si2 0.758276 0.124325 0.005924
Si Si3 0.655920 0.713308 0.027757
Si Si4 0.107775 0.347285 0.045393
Si Si5 0.232159 0.214446 0.704588
Si Si6 0.051695 0.034024 0.310295
Si Si7 0.711008 0.312590 0.656235
Si Si8 0.890473 0.430030 0.306156
O O1 0.587262 0.423064 0.836907
O O2 0.797523 0.656482 0.768607
O O3 0.700548 0.644874 0.482462
O O4 0.021368 0.632357 0.683199
O O5 0.886671 0.066168 0.157778
O O6 0.829935 0.217347 0.068075
O O7 0.823976 0.240828 0.784152
O O8 0.500000 0.000000 0.000000
O O9 0.809633 0.798600 0.126426
O O10 0.755007 0.655482 0.033342
O O11 0.688377 0.823033 0.807991
O O12 0.154105 0.486315 0.897258
O O13 0.458143 0.227116 0.739098
O O14 0.021819 0.091479 0.670320
O O15 0.000000 0.000000 0.500000
O O16 0.687183 0.333151 0.459664
O O17 0.885739 0.454674 0.643353
#
# Coordination Sequence:
#
# PCOD9110156 Si02
#       8
#     2   2   2   2   2   2   2   2
#     4  12  24  40  67 102 138 174 222 285 342 400
#     4  10  20  41  70  89 127 176 231 263 336 398
#     4  11  24  42  67  99 133 181 226 276 332 408
#     4  10  23  41  63  93 136 174 218 280 340 391
#     4  12  23  40  67 102 133 174 233 274 329 407
#     4  11  25  45  68  99 138 178 223 283 346 398
#     4  10  21  38  65  97 124 172 219 281 323 394
#     4  10  22  38  64  94 134 166 222 273 341 390
#
# _framework density 23.452383999999999
#
# number of rings (size 3 to 8) (size 9 to 14) (size 15 to 20)
#    0.000    1.250    2.500    3.750    7.000    1.000 
#    0.000    0.000    0.000    1.500    0.000    0.000 
#    0.000    0.000    0.000    0.000    0.000    0.000 
#
# Total GULP energy -89184.066849 kJ/mol
# GULP energy per Si atom -5574.004178 kJ/mol
# Density = 2.339900 g / cm^3
# Si number density = 23.452384 Si / 1000 Ang^3
#
#
#
# Elastic Constant Matrix: (Units=GPa)
#
#
# Indices 1 2 3 4 5 6 
#
# 1 76.2157 -8.4116 30.0121 6.6835 -5.0543 -19.1346
# 2 -8.4116 72.3728 38.1730 1.3284 -11.5985 -13.7019
# 3 30.0121 38.1730 143.9794 7.3776 -14.5702 -11.9454
# 4 6.6835 1.3284 7.3776 33.1208 -10.7884 0.5116
# 5 -5.0543 -11.5985 -14.5702 -10.7884 30.7097 3.1403
# 6 -19.1346 -13.7019 -11.9454 0.5116 3.1403 26.3800
#
#
#
# Elastic Compliance Matrix: (Units=1/GPa)
#
#
# Indices 1 2 3 4 5 6 
#
# 1 0.020604 0.008447 -0.004811 -0.003225 0.001423 0.017047
# 2 0.008447 0.021320 -0.005722 0.000255 0.005389 0.013963
# 3 -0.004811 -0.005722 0.009453 -0.000328 0.001659 -0.002372
# 4 -0.003225 0.000255 -0.000328 0.034929 0.012138 -0.004478
# 5 0.001423 0.005389 0.001659 0.012138 0.039926 -0.000406
# 6 0.017047 0.013963 -0.002372 -0.004478 -0.000406 0.056586
#
#
# Mechanical properties :
#
#
# Convention : Reuss Voigt Hill
#
# Bulk Modulus (GPa) = 21.18438 45.79053 33.48745
# Shear Modulus (GPa) = 24.66387 33.56174 29.11280
#
# Velocity S-wave (km/s) = 3.24644 3.78704 3.52711
# Velocity P-wave (km/s) = 4.80677 6.22009 5.55853
#
# Compressibility (1/GPa) = 0.04720460
#
# Stress axis : x y z
#
# Youngs Moduli (GPa) = 48.53354 46.90461 105.78249
#
# Poissons Ratio (x) = -0.39620 0.50890
# Poissons Ratio (y) = -0.40996 0.60534
# Poissons Ratio (z) = 0.23349 0.26841
#
# Static dielectric constant tensor:
#      x y z
#    x 1.988780 0.080980 0.012680 
#    y 0.080980 2.002330 -0.030970 
#    z 0.012680 -0.030970 1.918440 
# 
# From -- ./inp_files/214498.got.cif
#   From: 2010.05.17/outbox.cif.g08.bks.cpg/sg2_108_cif.got.tgz:214498.got - 2010.06.03 11:33:40.
