data_PCOD9110926
_publ_section_title
;
Structure prediction by ZEFSAII (Michael W. Deem and Ramdas Pophale) SiO2 
 PCOD9110926
Probable space group: P -1
;
_chemical_formula_sum "Si O2"
_cell_formula_units_Z 12
_cell_length_a 11.565263
_cell_length_b 7.500099
_cell_length_c 13.983450
_cell_angle_alpha 91.541272
_cell_angle_beta 140.900356
_cell_angle_gamma 60.681108
_cell_volume 511.288290
_symmetry_space_group_name_H-M "P -1"
_symmetry_group_IT_number 2
_symmetry_cell_setting 'triclinic'
loop_
_space_group_symop_operation_xyz
x,y,z
-x,-y,-z
loop_
_atom_site_type_symbol
_atom_site_label
_atom_site_fract_x
_atom_site_fract_y
_atom_site_fract_z
Si Si1 0.747545 0.923593 0.377188
Si Si2 0.387421 0.379741 0.767890
Si Si3 0.946605 0.697660 0.805085
Si Si4 0.477060 0.221059 0.022958
Si Si5 0.531544 0.224918 0.445987
Si Si6 0.246868 0.683099 0.148097
O O1 0.613891 0.825093 0.271271
O O2 0.636592 0.078126 0.407722
O O3 0.072201 0.661002 0.583340
O O4 0.669873 0.098810 0.237279
O O5 0.533365 0.392009 0.783360
O O6 0.534168 0.288476 0.963951
O O7 0.786317 0.993057 0.674538
O O8 0.719164 0.711439 0.673592
O O9 0.170349 0.481225 0.866849
O O10 0.107959 0.614548 0.005498
O O11 0.500000 0.000000 0.000000
O O12 0.402031 0.509234 0.340495
O O13 0.000000 0.000000 0.000000
#
# Coordination Sequence:
#
# PCOD9110926 Si02
#       6
#     2   2   2   2   2   2
#     4  10  20  42  67  93 122 171 213 258 310 382
#     4  10  23  40  64  97 130 159 213 261 321 372
#     4  11  24  44  67  94 128 169 218 259 312 381
#     4  10  21  38  67  97 122 166 211 260 311 376
#     4  11  24  43  68  92 127 171 218 259 315 376
#     4  12  27  43  64  95 132 169 210 266 322 373
#
# _framework density 23.470124999999999
#
# number of rings (size 3 to 8) (size 9 to 14) (size 15 to 20)
#    0.000    1.333    3.333    1.500    4.667    3.333 
#    0.000    0.000    0.000    0.000    0.000    0.000 
#    0.000    0.000    0.000    0.000    0.000    0.000 
#
# Total GULP energy -67143.385491 kJ/mol
# GULP energy per Si atom -5595.282124 kJ/mol
# Density = 2.341671 g / cm^3
# Si number density = 23.470125 Si / 1000 Ang^3
#
#
#
# Elastic Constant Matrix: (Units=GPa)
#
#
# Indices 1 2 3 4 5 6 
#
# 1 93.6373 6.9163 22.1630 -8.4957 -29.7788 11.2208
# 2 6.9163 81.4296 10.5810 -24.4718 1.3605 -2.6350
# 3 22.1630 10.5810 70.5610 -10.2567 -37.3349 4.1721
# 4 -8.4957 -24.4718 -10.2567 36.8055 3.4647 -6.4466
# 5 -29.7788 1.3605 -37.3349 3.4647 45.7808 -5.1165
# 6 11.2208 -2.6350 4.1721 -6.4466 -5.1165 26.3282
#
#
#
# Elastic Compliance Matrix: (Units=1/GPa)
#
#
# Indices 1 2 3 4 5 6 
#
# 1 0.014186 -0.001354 0.001346 0.001086 0.009811 -0.004222
# 2 -0.001354 0.016239 -0.002790 0.010875 -0.003954 0.004539
# 3 0.001346 -0.002790 0.026513 0.003780 0.022318 0.000208
# 4 0.001086 0.010875 0.003780 0.037202 0.001709 0.009467
# 5 0.009811 -0.003954 0.022318 0.001709 0.046565 0.001354
# 6 -0.004222 0.004539 0.000208 0.009467 0.001354 0.042784
#
#
# Mechanical properties :
#
#
# Convention : Reuss Voigt Hill
#
# Bulk Modulus (GPa) = 19.47668 36.10539 27.79103
# Shear Modulus (GPa) = 24.24854 35.51408 29.88131
#
# Velocity S-wave (km/s) = 3.21778 3.89416 3.57201
# Velocity P-wave (km/s) = 4.70340 5.96961 5.37393
#
# Compressibility (1/GPa) = 0.05134345
#
# Stress axis : x y z
#
# Youngs Moduli (GPa) = 70.49425 61.57994 37.71664
#
# Poissons Ratio (x) = 0.08337 -0.05077
# Poissons Ratio (y) = 0.09544 0.10522
# Poissons Ratio (z) = -0.09490 0.17179
#
# Static dielectric constant tensor:
#      x y z
#    x 1.847600 0.051290 -0.048520 
#    y 0.051290 1.932450 -0.007010 
#    z -0.048520 -0.007010 1.852630 
# 
# From -- ./inp_files/204685.got.cif
#   From: 2010.05.17/outbox.cif.g08.bks.cpg/sg2_103_cif.got.tgz:204685.got - 2010.06.03 11:33:40.
