data_PCOD9110085
_publ_section_title
;
Structure prediction by ZEFSAII (Michael W. Deem and Ramdas Pophale) SiO2 
 PCOD9110085
Probable space group: P -1
;
_chemical_formula_sum "Si O2"
_cell_formula_units_Z 16
_cell_length_a 9.482990
_cell_length_b 14.098728
_cell_length_c 8.998611
_cell_angle_alpha 117.465299
_cell_angle_beta 120.162877
_cell_angle_gamma 102.241763
_cell_volume 752.857582
_symmetry_space_group_name_H-M "P -1"
_symmetry_group_IT_number 2
_symmetry_cell_setting 'triclinic'
loop_
_space_group_symop_operation_xyz
x,y,z
-x,-y,-z
loop_
_atom_site_type_symbol
_atom_site_label
_atom_site_fract_x
_atom_site_fract_y
_atom_site_fract_z
Si Si1 0.560429 0.601319 0.968537
Si Si2 0.625488 0.953855 0.957275
Si Si3 0.298321 0.985155 0.409965
Si Si4 0.018062 0.820542 0.893064
Si Si5 0.852684 0.526815 0.523657
Si Si6 0.649870 0.492190 0.684669
Si Si7 0.235835 0.097627 0.716367
Si Si8 0.377527 0.201921 0.393458
O O1 0.354169 0.549667 0.734033
O O2 0.702771 0.595325 0.917838
O O3 0.500000 0.500000 0.000000
O O4 0.667976 0.753656 0.176957
O O5 0.698989 0.898057 0.078464
O O6 0.814230 0.071609 0.051898
O O7 0.517459 0.840440 0.695023
O O8 0.500000 0.000000 0.000000
O O9 0.300412 0.015497 0.604017
O O10 0.310296 0.106085 0.426720
O O11 0.500000 0.000000 0.500000
O O12 0.119208 0.857742 0.137005
O O13 0.950175 0.681333 0.692670
O O14 0.824835 0.822981 0.796665
O O15 0.801522 0.494444 0.649990
O O16 0.000000 0.500000 0.500000
O O17 0.500000 0.500000 0.500000
O O18 0.526850 0.355115 0.607168
O O19 0.000000 0.000000 0.500000
#
# Coordination Sequence:
#
# PCOD9110085 Si02
#       8
#     2   2   2   2   2   2   2   2
#     4  11  25  45  70 102 136 175 225 279 340 404
#     4  11  24  38  64  97 131 170 221 280 328 393
#     4  11  25  41  61  95 134 172 209 277 338 388
#     4  11  23  43  69  91 130 177 231 267 332 407
#     4  11  26  43  71  98 132 178 231 284 334 401
#     4  10  20  41  69  95 128 172 225 270 332 403
#     4  12  25  40  67  97 136 169 220 272 335 396
#     4  11  20  42  68  91 124 175 225 263 329 409
#
# _framework density 21.252361000000001
#
# number of rings (size 3 to 8) (size 9 to 14) (size 15 to 20)
#    0.000    1.000    2.500    6.750    8.750    0.000 
#    0.000    0.625    0.000    0.000    0.000    0.000 
#    0.000    0.000    0.000    0.000    0.000    0.000 
#
# Total GULP energy -89272.024863 kJ/mol
# GULP energy per Si atom -5579.501554 kJ/mol
# Density = 2.120399 g / cm^3
# Si number density = 21.252361 Si / 1000 Ang^3
#
#
#
# Elastic Constant Matrix: (Units=GPa)
#
#
# Indices 1 2 3 4 5 6 
#
# 1 143.6379 7.2059 37.1405 12.2052 -23.9371 -4.8556
# 2 7.2059 63.3562 29.0815 19.7120 4.4852 -0.5735
# 3 37.1405 29.0815 83.9663 16.2666 -13.2283 -10.4170
# 4 12.2052 19.7120 16.2666 37.0850 0.5590 -9.3770
# 5 -23.9371 4.4852 -13.2283 0.5590 32.7516 0.6471
# 6 -4.8556 -0.5735 -10.4170 -9.3770 0.6471 29.8661
#
#
#
# Elastic Compliance Matrix: (Units=1/GPa)
#
#
# Indices 1 2 3 4 5 6 
#
# 1 0.008703 0.000620 -0.002891 -0.002092 0.005150 -0.000350
# 2 0.000620 0.022748 -0.007699 -0.010155 -0.005495 -0.005217
# 3 -0.002891 -0.007699 0.017722 -0.001572 0.006028 0.004939
# 4 -0.002092 -0.010155 -0.001572 0.036389 -0.001599 0.010376
# 5 0.005150 -0.005495 0.006028 -0.001599 0.037482 0.001520
# 6 -0.000350 -0.005217 0.004939 0.010376 0.001520 0.038273
#
#
# Mechanical properties :
#
#
# Convention : Reuss Voigt Hill
#
# Bulk Modulus (GPa) = 34.20706 48.64625 41.42665
# Shear Modulus (GPa) = 26.17800 34.44271 30.31035
#
# Velocity S-wave (km/s) = 3.51346 4.03010 3.78062
# Velocity P-wave (km/s) = 5.70875 6.67796 6.21228
#
# Compressibility (1/GPa) = 0.02923373
#
# Stress axis : x y z
#
# Youngs Moduli (GPa) = 114.90828 43.95904 56.42785
#
# Poissons Ratio (x) = -0.02727 0.16313
# Poissons Ratio (y) = -0.07127 0.43443
# Poissons Ratio (z) = 0.33219 0.33843
#
# Static dielectric constant tensor:
#      x y z
#    x 1.774730 0.022990 -0.024460 
#    y 0.022990 1.787050 0.006640 
#    z -0.024460 0.006640 1.767850 
# 
# From -- ./inp_files/208848.got.cif
#   From: 2010.05.17/outbox.cif.g08.bks.cpg/sg2_105_cif.got.tgz:208848.got - 2010.06.03 11:33:40.
