data_PCOD9110304
_publ_section_title
;
Structure prediction by ZEFSAII (Michael W. Deem and Ramdas Pophale) SiO2 
 PCOD9110304
Probable space group: P -1
;
_chemical_formula_sum "Si O2"
_cell_formula_units_Z 14
_cell_length_a 9.807684
_cell_length_b 7.091056
_cell_length_c 13.173758
_cell_angle_alpha 140.223970
_cell_angle_beta 112.351419
_cell_angle_gamma 75.919121
_cell_volume 540.269660
_symmetry_space_group_name_H-M "P -1"
_symmetry_group_IT_number 2
_symmetry_cell_setting 'triclinic'
loop_
_space_group_symop_operation_xyz
x,y,z
-x,-y,-z
loop_
_atom_site_type_symbol
_atom_site_label
_atom_site_fract_x
_atom_site_fract_y
_atom_site_fract_z
Si Si1 0.775781 0.028766 0.035175
Si Si2 0.318838 0.569978 0.115867
Si Si3 0.897944 0.709476 0.766432
Si Si4 0.638629 0.620640 0.290867
Si Si5 0.943158 0.293161 0.801941
Si Si6 0.639144 0.460235 0.450328
Si Si7 0.227097 0.120585 0.740599
O O1 0.675537 0.289545 0.137098
O O2 0.944033 0.140860 0.162288
O O3 0.711429 0.729050 0.947481
O O4 0.801287 0.948043 0.891929
O O5 0.277029 0.435860 0.938495
O O6 0.487029 0.685936 0.221402
O O7 0.217209 0.798932 0.235756
O O8 0.930897 0.489402 0.777896
O O9 0.793643 0.554783 0.589153
O O10 0.662515 0.116722 0.292617
O O11 0.762998 0.836688 0.359988
O O12 0.059982 0.063337 0.709793
O O13 0.000000 0.500000 0.000000
O O14 0.500000 0.500000 0.500000
O O15 0.621986 0.624557 0.407635
#
# Coordination Sequence:
#
# PCOD9110304 Si02
#       7
#     2   2   2   2   2   2   2
#     4  10  20  41  72  99 129 179 234 279 334 400
#     4  10  21  41  73 104 139 177 228 290 340 396
#     4  10  22  42  69 102 140 179 228 286 341 407
#     4  12  24  45  73 103 137 179 236 282 342 407
#     4   9  19  40  65  99 135 172 228 278 332 403
#     4  12  28  47  68 101 146 184 223 281 356 409
#     4  11  24  44  69 104 137 180 232 281 342 411
#
# _framework density 25.912984999999999
#
# number of rings (size 3 to 8) (size 9 to 14) (size 15 to 20)
#    0.000    1.429    2.857    2.571    2.000    1.714 
#    0.000    4.286    0.000    0.000    0.000    0.000 
#    0.000    0.000    0.000    0.000    0.000    0.000 
#
# Total GULP energy -78388.527061 kJ/mol
# GULP energy per Si atom -5599.180504 kJ/mol
# Density = 2.585401 g / cm^3
# Si number density = 25.912985 Si / 1000 Ang^3
#
#
#
# Elastic Constant Matrix: (Units=GPa)
#
#
# Indices 1 2 3 4 5 6 
#
# 1 149.9302 7.7562 37.9279 2.8133 -38.2241 -1.1949
# 2 7.7562 81.0761 16.5144 -10.0434 -19.2278 18.3768
# 3 37.9279 16.5144 69.9091 -13.5735 0.3693 9.5463
# 4 2.8133 -10.0434 -13.5735 38.1055 -0.3594 -15.5475
# 5 -38.2241 -19.2278 0.3693 -0.3594 38.1745 1.4824
# 6 -1.1949 18.3768 9.5463 -15.5475 1.4824 35.8891
#
#
#
# Elastic Compliance Matrix: (Units=1/GPa)
#
#
# Indices 1 2 3 4 5 6 
#
# 1 0.012150 0.003728 -0.007980 -0.003170 0.014143 -0.001339
# 2 0.003728 0.018041 -0.005337 -0.000800 0.013198 -0.008586
# 3 -0.007980 -0.005337 0.021231 0.006715 -0.010827 0.000176
# 4 -0.003170 -0.000800 0.006715 0.034111 -0.003843 0.013454
# 5 0.014143 0.013198 -0.010827 -0.003843 0.047346 -0.007027
# 6 -0.001339 -0.008586 0.000176 0.013454 -0.007027 0.038287
#
#
# Mechanical properties :
#
#
# Convention : Reuss Voigt Hill
#
# Bulk Modulus (GPa) = 31.01236 47.25695 39.13465
# Shear Modulus (GPa) = 24.86414 38.34828 31.60621
#
# Velocity S-wave (km/s) = 3.10098 3.85110 3.49622
# Velocity P-wave (km/s) = 4.98150 6.16855 5.60653
#
# Compressibility (1/GPa) = 0.03224521
#
# Stress axis : x y z
#
# Youngs Moduli (GPa) = 82.30420 55.42790 47.10041
#
# Poissons Ratio (x) = -0.20664 0.37585
# Poissons Ratio (y) = -0.30683 0.25138
# Poissons Ratio (z) = 0.65677 0.29582
#
# Static dielectric constant tensor:
#      x y z
#    x 2.037250 -0.034740 0.025060 
#    y -0.034740 2.056780 -0.014600 
#    z 0.025060 -0.014600 2.035280 
# 
# From -- ./inp_files/380664.got.cif
#   From: 2010.05.17/outbox.cif.g08.bks.cpg/sg2_191_cif.got.tgz:380664.got - 2010.06.03 11:33:40.
