data_PCOD9110384
_publ_section_title
;
Structure prediction by ZEFSAII (Michael W. Deem and Ramdas Pophale) SiO2 
 PCOD9110384
Probable space group: P -1
;
_chemical_formula_sum "Si O2"
_cell_formula_units_Z 16
_cell_length_a 8.438893
_cell_length_b 15.351783
_cell_length_c 7.336588
_cell_angle_alpha 84.292031
_cell_angle_beta 128.224501
_cell_angle_gamma 73.006278
_cell_volume 662.520425
_symmetry_space_group_name_H-M "P -1"
_symmetry_group_IT_number 2
_symmetry_cell_setting 'triclinic'
loop_
_space_group_symop_operation_xyz
x,y,z
-x,-y,-z
loop_
_atom_site_type_symbol
_atom_site_label
_atom_site_fract_x
_atom_site_fract_y
_atom_site_fract_z
Si Si1 0.235477 0.707894 0.599830
Si Si2 0.794034 0.974113 0.812736
Si Si3 0.565997 0.834134 0.375418
Si Si4 0.757230 0.475367 0.233350
Si Si5 0.986699 0.650170 0.895359
Si Si6 0.168821 0.788078 0.950120
Si Si7 0.767516 0.846376 0.136991
Si Si8 0.276200 0.343908 0.970696
O O1 0.175733 0.616231 0.564692
O O2 0.208573 0.748143 0.780543
O O3 0.495884 0.673432 0.755349
O O4 0.040769 0.797248 0.341010
O O5 0.928249 0.885466 0.785208
O O6 0.573622 0.077535 0.600071
O O7 0.713162 0.932464 0.937423
O O8 0.000000 0.000000 0.000000
O O9 0.763529 0.739735 0.630440
O O10 0.669564 0.866692 0.268328
O O11 0.374193 0.806995 0.161205
O O12 0.898434 0.427885 0.163080
O O13 0.500000 0.500000 0.000000
O O14 0.757746 0.580051 0.234913
O O15 0.921804 0.610642 0.034500
O O16 0.146796 0.699955 0.055443
O O17 0.701130 0.761868 0.043165
#
# Coordination Sequence:
#
# PCOD9110384 Si02
#       8
#     2   2   2   2   2   2   2   2
#     4  10  22  40  64  91 129 165 207 254 311 369
#     4  10  24  41  62  92 129 161 208 268 306 361
#     4  11  23  41  64  90 126 165 211 257 308 370
#     4   9  20  41  64  94 127 161 204 258 307 371
#     4  11  22  41  65  95 124 165 208 252 313 370
#     4  10  20  42  60  90 128 164 201 266 302 355
#     4  12  22  42  63  93 124 167 209 253 311 372
#     4  11  23  38  67  93 127 165 207 254 315 364
#
# _framework density 24.150196999999999
#
# number of rings (size 3 to 8) (size 9 to 14) (size 15 to 20)
#    0.000    1.500    5.000    0.750    3.500    1.000 
#    0.000    2.500    0.000    6.000    0.000    0.000 
#    0.000    0.000    0.000    0.000    0.000    0.000 
#
# Total GULP energy -89372.322841 kJ/mol
# GULP energy per Si atom -5585.770178 kJ/mol
# Density = 2.409523 g / cm^3
# Si number density = 24.150197 Si / 1000 Ang^3
#
#
#
# Elastic Constant Matrix: (Units=GPa)
#
#
# Indices 1 2 3 4 5 6 
#
# 1 99.6178 27.6221 14.5375 2.9059 1.3595 4.2849
# 2 27.6221 108.7418 21.7853 -4.9923 3.3741 13.4316
# 3 14.5375 21.7853 68.3369 -5.3573 4.1078 3.9672
# 4 2.9059 -4.9923 -5.3573 35.7058 -0.1300 8.2571
# 5 1.3595 3.3741 4.1078 -0.1300 25.2559 -3.4776
# 6 4.2849 13.4316 3.9672 8.2571 -3.4776 35.6583
#
#
#
# Elastic Compliance Matrix: (Units=1/GPa)
#
#
# Indices 1 2 3 4 5 6 
#
# 1 0.011029 -0.002564 -0.001663 -0.001549 0.000037 0.000188
# 2 -0.002564 0.011019 -0.002444 0.002364 -0.001512 -0.004265
# 3 -0.001663 -0.002444 0.016200 0.002565 -0.002414 -0.001511
# 4 -0.001549 0.002364 0.002565 0.030755 -0.001630 -0.008270
# 5 0.000037 -0.001512 -0.002414 -0.001630 0.040895 0.005199
# 6 0.000188 -0.004265 -0.001511 -0.008270 0.005199 0.032218
#
#
# Mechanical properties :
#
#
# Convention : Reuss Voigt Hill
#
# Bulk Modulus (GPa) = 40.15023 44.95403 42.55213
# Shear Modulus (GPa) = 30.53261 33.50743 32.02002
#
# Velocity S-wave (km/s) = 3.55953 3.72890 3.64520
# Velocity P-wave (km/s) = 5.79267 6.09872 5.94766
#
# Compressibility (1/GPa) = 0.02490646
#
# Stress axis : x y z
#
# Youngs Moduli (GPa) = 90.67372 90.75122 61.72766
#
# Poissons Ratio (x) = 0.23265 0.10268
# Poissons Ratio (y) = 0.23245 0.15084
# Poissons Ratio (z) = 0.15083 0.22176
#
# Static dielectric constant tensor:
#      x y z
#    x 1.936150 0.010960 0.017810 
#    y 0.010960 1.973110 0.023980 
#    z 0.017810 0.023980 1.937990 
# 
# From -- ./inp_files/207206.got.cif
#   From: 2010.05.17/outbox.cif.g08.bks.cpg/sg2_104_cif.got.tgz:207206.got - 2010.06.03 11:33:40.
