data_PCOD9110796
_publ_section_title
;
Structure prediction by ZEFSAII (Michael W. Deem and Ramdas Pophale) SiO2 
 PCOD9110796
Probable space group: P -1
;
_chemical_formula_sum "Si O2"
_cell_formula_units_Z 14
_cell_length_a 7.496649
_cell_length_b 17.236349
_cell_length_c 6.928952
_cell_angle_alpha 114.588650
_cell_angle_beta 71.529059
_cell_angle_gamma 60.142484
_cell_volume 527.687675
_symmetry_space_group_name_H-M "P -1"
_symmetry_group_IT_number 2
_symmetry_cell_setting 'triclinic'
loop_
_space_group_symop_operation_xyz
x,y,z
-x,-y,-z
loop_
_atom_site_type_symbol
_atom_site_label
_atom_site_fract_x
_atom_site_fract_y
_atom_site_fract_z
Si Si1 0.500000 0.000000 0.500000
Si Si2 0.461977 0.845564 0.140687
Si Si3 0.098102 0.886860 0.972988
Si Si4 0.985787 0.778697 0.182315
Si Si5 0.000000 0.500000 0.000000
Si Si6 0.674567 0.246928 0.625956
Si Si7 0.264109 0.513215 0.147649
Si Si8 0.090372 0.588969 0.712576
O O1 0.450242 0.950268 0.272197
O O2 0.669343 0.863660 0.411102
O O3 0.314470 0.848082 0.375797
O O4 0.311032 0.854579 0.018558
O O5 0.772401 0.709100 0.891042
O O6 0.221005 0.785619 0.659217
O O7 0.904874 0.887805 0.174308
O O8 0.000000 0.000000 0.000000
O O9 0.151838 0.753239 0.284001
O O10 0.156032 0.655995 0.869207
O O11 0.991732 0.604925 0.210185
O O12 0.873295 0.500950 0.250078
O O13 0.360860 0.388734 0.890332
O O14 0.235439 0.523375 0.393416
O O15 0.500000 0.500000 0.000000
#
# Coordination Sequence:
#
# PCOD9110796 Si02
#       8
#     1   2   2   2   1   2   2   2
#     4  10  20  42  66  92 132 178 226 284 370 420
#     4  10  23  42  68  97 141 182 229 303 354 437
#     4  11  23  41  69 102 136 186 239 294 367 444
#     4  10  23  43  69  97 143 183 231 305 359 439
#     4  12  26  44  76 100 146 196 250 306 360 436
#     4  11  23  42  66  99 136 184 233 293 362 425
#     4  12  27  45  71 107 148 196 248 304 365 446
#     4  11  25  47  69 108 144 194 246 301 369 431
#
# _framework density 26.530847000000001
#
# number of rings (size 3 to 8) (size 9 to 14) (size 15 to 20)
#    0.000    1.143    1.429    3.857    2.000    5.714 
#    0.000   15.714    0.000    0.000    0.000    0.000 
#    0.000    0.000    0.000    0.000    0.000    0.000 
#
# Total GULP energy -78005.799829 kJ/mol
# GULP energy per Si atom -5571.842845 kJ/mol
# Density = 2.647046 g / cm^3
# Si number density = 26.530847 Si / 1000 Ang^3
#
#
#
# Elastic Constant Matrix: (Units=GPa)
#
#
# Indices 1 2 3 4 5 6 
#
# 1 190.7410 26.7706 60.6044 -26.4039 47.9041 -8.0814
# 2 26.7706 112.8667 60.0328 -15.7833 5.5033 -9.7213
# 3 60.6044 60.0328 182.6879 -40.2499 27.5990 -1.0068
# 4 -26.4039 -15.7833 -40.2499 47.7896 -1.4361 3.3493
# 5 47.9041 5.5033 27.5990 -1.4361 39.9930 0.3945
# 6 -8.0814 -9.7213 -1.0068 3.3493 0.3945 43.2428
#
#
#
# Elastic Compliance Matrix: (Units=1/GPa)
#
#
# Indices 1 2 3 4 5 6 
#
# 1 0.008450 -0.000769 -0.000226 0.003849 -0.009734 0.001192
# 2 -0.000769 0.011094 -0.003650 0.000065 0.001893 0.002243
# 3 -0.000226 -0.003650 0.008844 0.006041 -0.005103 -0.001078
# 4 0.003849 0.000065 0.006041 0.028013 -0.007770 -0.001224
# 5 -0.009734 0.001893 -0.005103 -0.007770 0.039658 -0.001272
# 6 0.001192 0.002243 -0.001078 -0.001224 -0.001272 0.023934
#
#
# Mechanical properties :
#
#
# Convention : Reuss Voigt Hill
#
# Bulk Modulus (GPa) = 52.35771 86.79013 69.57392
# Shear Modulus (GPa) = 36.86030 48.79761 42.82896
#
# Velocity S-wave (km/s) = 3.73143 4.29333 4.02220
# Velocity P-wave (km/s) = 6.19211 7.57370 6.91748
#
# Compressibility (1/GPa) = 0.01909938
#
# Stress axis : x y z
#
# Youngs Moduli (GPa) = 118.34071 90.14213 113.07217
#
# Poissons Ratio (x) = 0.06930 0.02550
# Poissons Ratio (y) = 0.09098 0.41269
# Poissons Ratio (z) = 0.02669 0.32900
#
# Static dielectric constant tensor:
#      x y z
#    x 1.082340 0.322640 1.007130 
#    y 0.322640 2.238160 -0.277130 
#    z 1.007130 -0.277130 1.350830 
# 
# From -- ./inp_files/44367.got.cif
#   From: 2010.05.17/outbox.cif.g08.bks.cpg/sg2_23_cif.got.tgz:44367.got - 2010.06.03 11:33:40.
