data_PCOD9110638
_publ_section_title
;
Structure prediction by ZEFSAII (Michael W. Deem and Ramdas Pophale) SiO2 
 PCOD9110638
Probable space group: P -1
;
_chemical_formula_sum "Si O2"
_cell_formula_units_Z 16
_cell_length_a 10.603252
_cell_length_b 7.308230
_cell_length_c 12.166253
_cell_angle_alpha 81.971628
_cell_angle_beta 99.982771
_cell_angle_gamma 44.713903
_cell_volume 604.435764
_symmetry_space_group_name_H-M "P -1"
_symmetry_group_IT_number 2
_symmetry_cell_setting 'triclinic'
loop_
_space_group_symop_operation_xyz
x,y,z
-x,-y,-z
loop_
_atom_site_type_symbol
_atom_site_label
_atom_site_fract_x
_atom_site_fract_y
_atom_site_fract_z
Si Si1 0.395680 0.027733 0.088422
Si Si2 0.914205 0.528482 0.817043
Si Si3 0.361082 0.002643 0.724984
Si Si4 0.712773 0.179112 0.064197
Si Si5 0.705763 0.883212 0.530910
Si Si6 0.121108 0.920479 0.419687
Si Si7 0.258947 0.618901 0.263225
Si Si8 0.971223 0.215622 0.162000
O O1 0.295762 0.956211 0.025668
O O2 0.227845 0.297148 0.115740
O O3 0.567112 0.884458 0.217001
O O4 0.500000 0.000000 0.000000
O O5 0.827578 0.678449 0.671668
O O6 0.921646 0.301655 0.822715
O O7 0.062552 0.531065 0.864183
O O8 0.544831 0.682391 0.728899
O O9 0.235590 0.193699 0.582896
O O10 0.275243 0.960319 0.809687
O O11 0.834341 0.237514 0.068464
O O12 0.500000 0.500000 0.000000
O O13 0.500000 0.000000 0.500000
O O14 0.725313 0.083189 0.535094
O O15 0.233819 0.641287 0.390008
O O16 0.953279 0.170984 0.288921
O O17 0.000000 0.000000 0.500000
O O18 0.196693 0.898866 0.207848
#
# Coordination Sequence:
#
# PCOD9110638 Si02
#       8
#     2   2   2   2   2   2   2   2
#     4   9  20  39  61  88 131 163 211 275 312 375
#     4  10  20  42  64  98 129 172 223 256 330 405
#     4  10  21  41  63  94 129 168 221 269 321 388
#     4  11  24  42  64  92 127 171 223 271 334 382
#     4  11  19  36  68  95 135 168 213 273 319 384
#     4   9  20  38  61  91 134 173 208 267 329 383
#     4   9  20  39  66  85 135 168 210 261 328 387
#     4   9  22  41  62  91 132 166 215 276 323 387
#
# _framework density 26.470967999999999
#
# number of rings (size 3 to 8) (size 9 to 14) (size 15 to 20)
#    0.750    1.500    2.500    0.750    1.750    1.000 
#    6.750    6.250    0.000    0.000    0.000    0.000 
#    0.000    0.000    0.000    0.000    0.000    0.000 
#
# Total GULP energy -89068.463138 kJ/mol
# GULP energy per Si atom -5566.778946 kJ/mol
# Density = 2.641072 g / cm^3
# Si number density = 26.470968 Si / 1000 Ang^3
#
#
#
# Elastic Constant Matrix: (Units=GPa)
#
#
# Indices 1 2 3 4 5 6 
#
# 1 128.0525 21.7070 57.5785 22.9116 16.1184 16.9620
# 2 21.7070 76.6122 27.4850 19.5896 -0.6547 4.7857
# 3 57.5785 27.4850 201.9564 31.0805 -8.2070 14.9957
# 4 22.9116 19.5896 31.0805 48.2716 6.8373 3.7583
# 5 16.1184 -0.6547 -8.2070 6.8373 70.8066 18.5325
# 6 16.9620 4.7857 14.9957 3.7583 18.5325 39.1782
#
#
#
# Elastic Compliance Matrix: (Units=1/GPa)
#
#
# Indices 1 2 3 4 5 6 
#
# 1 0.009958 -0.001301 -0.002199 -0.002363 -0.001710 -0.002275
# 2 -0.001301 0.015071 -0.000779 -0.005074 0.001100 -0.001013
# 3 -0.002199 -0.000779 0.006364 -0.002866 0.002053 -0.002085
# 4 -0.002363 -0.005074 -0.002866 0.026012 -0.002758 0.001550
# 5 -0.001710 0.001100 0.002053 -0.002758 0.017125 -0.008016
# 6 -0.002275 -0.001013 -0.002085 0.001550 -0.008016 0.031074
#
#
# Mechanical properties :
#
#
# Convention : Reuss Voigt Hill
#
# Bulk Modulus (GPa) = 43.79288 68.90691 56.34990
# Shear Modulus (GPa) = 41.05959 51.64132 46.35045
#
# Velocity S-wave (km/s) = 3.94270 4.42165 4.18903
# Velocity P-wave (km/s) = 6.10787 7.22189 6.68812
#
# Compressibility (1/GPa) = 0.02283476
#
# Stress axis : x y z
#
# Youngs Moduli (GPa) = 100.42177 66.35264 157.13683
#
# Poissons Ratio (x) = 0.08631 0.34552
# Poissons Ratio (y) = 0.13063 0.12248
# Poissons Ratio (z) = 0.22081 0.05172
#
# Static dielectric constant tensor:
#      x y z
#    x 2.159470 -0.030300 0.034600 
#    y -0.030300 2.082130 -0.102500 
#    z 0.034600 -0.102500 2.138080 
# 
# From -- ./inp_files/417396.got.cif
#   From: 2010.05.17/outbox.cif.g08.bks.cpg/sg2_209_cif.got.tgz:417396.got - 2010.06.03 11:33:40.
