data_PCOD9110363
_publ_section_title
;
Structure prediction by ZEFSAII (Michael W. Deem and Ramdas Pophale) SiO2 
 PCOD9110363
Probable space group: P -1
;
_chemical_formula_sum "Si O2"
_cell_formula_units_Z 16
_cell_length_a 14.312806
_cell_length_b 22.826574
_cell_length_c 14.475724
_cell_angle_alpha 19.548119
_cell_angle_beta 29.958961
_cell_angle_gamma 28.504637
_cell_volume 733.197349
_symmetry_space_group_name_H-M "P -1"
_symmetry_group_IT_number 2
_symmetry_cell_setting 'triclinic'
loop_
_space_group_symop_operation_xyz
x,y,z
-x,-y,-z
loop_
_atom_site_type_symbol
_atom_site_label
_atom_site_fract_x
_atom_site_fract_y
_atom_site_fract_z
Si Si1 0.153587 0.039550 0.591538
Si Si2 0.186783 0.759537 0.143209
Si Si3 0.891654 0.776043 0.965495
Si Si4 0.177929 0.361810 0.353730
Si Si5 0.124473 0.837373 0.507446
Si Si6 0.513878 0.285410 0.322100
Si Si7 0.566590 0.803086 0.791006
Si Si8 0.455076 0.339112 0.503974
O O1 0.289660 0.869675 0.660821
O O2 0.278483 0.174320 0.301551
O O3 0.131378 0.931511 0.863382
O O4 0.944297 0.152848 0.553006
O O5 0.313310 0.558133 0.286423
O O6 0.983617 0.734642 0.386422
O O7 0.359498 0.780203 0.031417
O O8 0.963041 0.793571 0.775035
O O9 0.886680 0.956497 0.758036
O O10 0.678860 0.755764 0.186861
O O11 0.055343 0.581319 0.153441
O O12 0.323561 0.272420 0.448060
O O13 0.314104 0.341101 0.177250
O O14 0.345778 0.696768 0.554100
O O15 0.511610 0.253435 0.480785
O O16 0.500000 0.500000 0.000000
O O17 0.500000 0.000000 0.500000
#
# Coordination Sequence:
#
# PCOD9110363 Si02
#       8
#     2   2   2   2   2   2   2   2
#     4  11  23  38  63  90 119 159 202 248 301 356
#     4  10  22  40  63  90 118 157 203 249 301 356
#     4  10  23  39  60  88 124 161 199 241 302 362
#     4  11  22  38  65  90 118 159 202 251 298 355
#     4  11  22  41  59  86 127 162 195 246 299 362
#     4  12  20  36  62  92 123 156 191 246 301 356
#     4  10  20  42  58  87 124 153 201 253 302 345
#     4  11  23  39  63  88 125 159 198 246 299 361
#
# _framework density 21.822229
#
# number of rings (size 3 to 8) (size 9 to 14) (size 15 to 20)
#    0.000    1.250    3.750    4.125    1.750    3.000 
#    0.000    2.500    0.000    3.000    0.000    0.000 
#    0.000    0.000    0.000    0.000    0.000    0.000 
#
# Total GULP energy -89402.561465 kJ/mol
# GULP energy per Si atom -5587.660092 kJ/mol
# Density = 2.177256 g / cm^3
# Si number density = 21.822229 Si / 1000 Ang^3
#
#
#
# Elastic Constant Matrix: (Units=GPa)
#
#
# Indices 1 2 3 4 5 6 
#
# 1 108.2906 22.3023 31.9630 5.2779 -1.5286 -31.6794
# 2 22.3023 62.5011 10.0053 8.4777 1.1950 -19.6324
# 3 31.9630 10.0053 97.3459 29.5155 -12.5046 -21.8228
# 4 5.2779 8.4777 29.5155 28.7590 -8.4568 -6.2231
# 5 -1.5286 1.1950 -12.5046 -8.4568 19.6980 -2.1593
# 6 -31.6794 -19.6324 -21.8228 -6.2231 -2.1593 25.5592
#
#
#
# Elastic Compliance Matrix: (Units=1/GPa)
#
#
# Indices 1 2 3 4 5 6 
#
# 1 0.014970 0.000184 -0.001375 0.003851 0.003991 0.018796
# 2 0.000184 0.022151 0.003927 -0.006295 0.000555 0.019110
# 3 -0.001375 0.003927 0.019089 -0.015389 0.006749 0.014433
# 4 0.003851 -0.006295 -0.015389 0.056669 0.015450 0.001901
# 5 0.003991 0.000555 0.006749 0.015450 0.064187 0.020320
# 6 0.018796 0.019110 0.014433 0.001901 0.020320 0.091603
#
#
# Mechanical properties :
#
#
# Convention : Reuss Voigt Hill
#
# Bulk Modulus (GPa) = 16.21239 44.07541 30.14390
# Shear Modulus (GPa) = 17.62059 28.39436 23.00748
#
# Velocity S-wave (km/s) = 2.84467 3.61108 3.25054
# Velocity P-wave (km/s) = 4.27024 6.13416 5.28502
#
# Compressibility (1/GPa) = 0.06168123
#
# Stress axis : x y z
#
# Youngs Moduli (GPa) = 66.80138 45.14388 52.38599
#
# Poissons Ratio (x) = -0.00830 0.07205
# Poissons Ratio (y) = -0.01229 -0.20572
# Poissons Ratio (z) = 0.09188 -0.17728
#
# Static dielectric constant tensor:
#      x y z
#    x 1.813590 -0.001590 -0.036320 
#    y -0.001590 1.817640 -0.023670 
#    z -0.036320 -0.023670 1.821540 
# 
# From -- ./inp_files/535373.got.cif
#   From: 2010.05.17/outbox.cif.g08.bks.cpg/sg2_268_cif.got.tgz:535373.got - 2010.06.03 11:33:40.
