data_PCOD9110984
_publ_section_title
;
Structure prediction by ZEFSAII (Michael W. Deem and Ramdas Pophale) SiO2 
 PCOD9110984
Probable space group: P -1
;
_chemical_formula_sum "Si O2"
_cell_formula_units_Z 16
_cell_length_a 14.781796
_cell_length_b 9.592398
_cell_length_c 11.883378
_cell_angle_alpha 142.021620
_cell_angle_beta 49.154821
_cell_angle_gamma 130.731979
_cell_volume 749.638781
_symmetry_space_group_name_H-M "P -1"
_symmetry_group_IT_number 2
_symmetry_cell_setting 'triclinic'
loop_
_space_group_symop_operation_xyz
x,y,z
-x,-y,-z
loop_
_atom_site_type_symbol
_atom_site_label
_atom_site_fract_x
_atom_site_fract_y
_atom_site_fract_z
Si Si1 0.641620 0.159288 0.227375
Si Si2 0.968144 0.127053 0.714990
Si Si3 0.986726 0.321326 0.290106
Si Si4 0.168330 0.590316 0.134331
Si Si5 0.708785 0.274943 0.498872
Si Si6 0.813599 0.816825 0.836885
Si Si7 0.360982 0.967909 0.370270
Si Si8 0.757238 0.605051 0.254098
O O1 0.651600 0.256847 0.409564
O O2 0.496272 0.024979 0.240285
O O3 0.692554 0.374096 0.234722
O O4 0.722362 0.974408 0.035716
O O5 0.871747 0.260850 0.836548
O O6 0.097526 0.294498 0.763896
O O7 0.900285 0.932607 0.735765
O O8 0.000000 0.000000 0.500000
O O9 0.040930 0.456310 0.217405
O O10 0.084506 0.176510 0.144729
O O11 0.000000 0.500000 0.500000
O O12 0.839029 0.208513 0.335085
O O13 0.259173 0.753632 0.254974
O O14 0.239323 0.437673 0.909861
O O15 0.741685 0.545008 0.690598
O O16 0.633470 0.107441 0.552087
O O17 0.310788 0.194804 0.543564
#
# Coordination Sequence:
#
# PCOD9110984 Si02
#       8
#     2   2   2   2   2   2   2   2
#     4  12  28  46  68 100 137 186 235 273 329 408
#     4  12  22  43  72 102 139 174 217 287 350 399
#     4  10  20  42  68 102 133 171 218 281 348 394
#     4  12  24  43  70 103 140 173 226 281 342 410
#     4  11  25  46  71 100 139 176 229 283 339 402
#     4  11  24  43  68 105 135 175 224 279 349 400
#     4  12  27  48  69  96 138 190 229 276 335 395
#     4  12  27  45  70 105 137 178 229 279 342 406
#
# _framework density 21.343613000000001
#
# number of rings (size 3 to 8) (size 9 to 14) (size 15 to 20)
#    0.000    0.500    5.000    4.875    3.500    2.500 
#    0.000    0.000    0.000    0.000    0.000    0.000 
#    0.000    0.000    0.000    0.000    0.000    0.000 
#
# Total GULP energy -89496.336253 kJ/mol
# GULP energy per Si atom -5593.521016 kJ/mol
# Density = 2.129503 g / cm^3
# Si number density = 21.343613 Si / 1000 Ang^3
#
#
#
# Elastic Constant Matrix: (Units=GPa)
#
#
# Indices 1 2 3 4 5 6 
#
# 1 13.0524 31.2930 16.6751 -0.4019 -17.9592 -4.5278
# 2 31.2930 91.8649 12.1643 -17.3958 23.8816 -3.6696
# 3 16.6751 12.1643 89.3247 -7.9648 22.4261 9.0616
# 4 -0.4019 -17.3958 -7.9648 19.5488 6.6641 -1.0034
# 5 -17.9592 23.8816 22.4261 6.6641 -12.6775 -15.5549
# 6 -4.5278 -3.6696 9.0616 -1.0034 -15.5549 28.3666
#
#
#
# Elastic Compliance Matrix: (Units=1/GPa)
#
#
# Indices 1 2 3 4 5 6 
#
# 1 0.034902 -0.003364 0.003504 0.008774 -0.030056 -0.012154
# 2 -0.003364 0.010992 -0.003991 0.004824 0.010813 0.008260
# 3 0.003504 -0.003991 0.009812 -0.001159 0.004848 -0.000474
# 4 0.008774 0.004824 -0.001159 0.052222 0.010076 0.009767
# 5 -0.030056 0.010813 0.004848 0.010076 0.002135 -0.003420
# 6 -0.012154 0.008260 -0.000474 0.009767 -0.003420 0.033003
#
#
# Mechanical properties :
#
#
# Convention : Reuss Voigt Hill
#
# Bulk Modulus (GPa) = 20.83165 34.94521 27.88843
# Shear Modulus (GPa) = 29.98147 15.98820 22.98483
#
# Velocity S-wave (km/s) = 3.75200 2.73991 3.28517
# Velocity P-wave (km/s) = 5.34335 5.13982 5.24257
#
# Compressibility (1/GPa) = 0.04800389
#
# Stress axis : x y z
#
# Youngs Moduli (GPa) = 28.65192 90.97147 101.91320
#
# Poissons Ratio (x) = 0.30599 -0.35708
# Poissons Ratio (y) = 0.09637 0.40678
# Poissons Ratio (z) = -0.10039 0.36311
#
# Static dielectric constant tensor:
#      x y z
#    x 1.788110 0.004810 -0.002860 
#    y 0.004810 1.713760 0.020750 
#    z -0.002860 0.020750 1.834430 
# 
# From -- ./inp_files/314599.got.cif
#   From: 2010.05.17/outbox.cif.g08.bks.cpg/sg2_158_cif.got.tgz:314599.got - 2010.06.03 11:33:40.
