data_PCOD9110440
_publ_section_title
;
Structure prediction by ZEFSAII (Michael W. Deem and Ramdas Pophale) SiO2 
 PCOD9110440
Probable space group: P -1
;
_chemical_formula_sum "Si O2"
_cell_formula_units_Z 14
_cell_length_a 6.766616
_cell_length_b 7.472594
_cell_length_c 15.151299
_cell_angle_alpha 51.915681
_cell_angle_beta 111.548645
_cell_angle_gamma 125.043559
_cell_volume 493.591917
_symmetry_space_group_name_H-M "P -1"
_symmetry_group_IT_number 2
_symmetry_cell_setting 'triclinic'
loop_
_space_group_symop_operation_xyz
x,y,z
-x,-y,-z
loop_
_atom_site_type_symbol
_atom_site_label
_atom_site_fract_x
_atom_site_fract_y
_atom_site_fract_z
Si Si1 0.008599 0.478305 0.829497
Si Si2 0.904421 0.794417 0.833265
Si Si3 0.217597 0.145146 0.912809
Si Si4 0.652312 0.737193 0.288020
Si Si5 0.155634 0.850199 0.577463
Si Si6 0.469911 0.135839 0.132079
Si Si7 0.367673 0.751774 0.489801
O O1 0.006806 0.209752 0.891154
O O2 0.034127 0.621920 0.697848
O O3 0.263379 0.640265 0.872181
O O4 0.839471 0.537602 0.847968
O O5 0.092836 0.871602 0.923134
O O6 0.072731 0.031204 0.723323
O O7 0.692459 0.831935 0.828750
O O8 0.331082 0.335979 0.789589
O O9 0.400706 0.184943 0.007880
O O10 0.590252 0.490000 0.411033
O O11 0.476456 0.865129 0.217752
O O12 0.124290 0.695178 0.524149
O O13 0.419258 0.068180 0.600397
O O14 0.000000 0.000000 0.500000
O O15 0.500000 0.000000 0.500000
#
# Coordination Sequence:
#
# PCOD9110440 Si02
#       7
#     2   2   2   2   2   2   2
#     4  11  22  40  62  92 126 157 207 262 296 364
#     4   9  23  38  58  89 130 160 207 243 301 359
#     4  10  20  42  62  87 130 167 201 247 305 363
#     4   9  19  37  61  84 122 158 199 246 300 358
#     4   9  19  36  60  87 119 152 202 255 304 358
#     4  11  22  39  61  90 129 164 202 251 303 363
#     4   8  18  35  60  91 110 149 208 245 300 363
#
# _framework density 28.363507999999999
#
# number of rings (size 3 to 8) (size 9 to 14) (size 15 to 20)
#    1.714    0.571    1.429    1.286    0.000    5.143 
#    2.571    2.857    0.000    9.429    0.000    0.000 
#    0.000    0.000    0.000    0.000    0.000    0.000 
#
# Total GULP energy -77945.842069 kJ/mol
# GULP energy per Si atom -5567.560148 kJ/mol
# Density = 2.829895 g / cm^3
# Si number density = 28.363508 Si / 1000 Ang^3
#
#
#
# Elastic Constant Matrix: (Units=GPa)
#
#
# Indices 1 2 3 4 5 6 
#
# 1 136.1212 33.3717 32.3223 2.3612 -1.2747 -41.5173
# 2 33.3717 131.6593 46.7904 -10.8687 4.2164 -42.5895
# 3 32.3223 46.7904 112.6067 -14.4368 7.6165 -13.3569
# 4 2.3612 -10.8687 -14.4368 51.7193 -0.7760 7.8083
# 5 -1.2747 4.2164 7.6165 -0.7760 40.4642 -13.6597
# 6 -41.5173 -42.5895 -13.3569 7.8083 -13.6597 50.4320
#
#
#
# Elastic Compliance Matrix: (Units=1/GPa)
#
#
# Indices 1 2 3 4 5 6 
#
# 1 0.011316 0.001627 -0.003223 -0.002743 0.004628 0.011514
# 2 0.001627 0.012414 -0.004539 -0.000438 0.003535 0.011646
# 3 -0.003223 -0.004539 0.011758 0.003146 -0.003395 -0.004779
# 4 -0.002743 -0.000438 0.003146 0.021065 -0.002131 -0.005633
# 5 0.004628 0.003535 -0.003395 -0.002131 0.029927 0.014332
# 6 0.011514 0.011646 -0.004779 -0.005633 0.014332 0.042631
#
#
# Mechanical properties :
#
#
# Convention : Reuss Voigt Hill
#
# Bulk Modulus (GPa) = 43.07121 67.26175 55.16648
# Shear Modulus (GPa) = 33.53016 46.38329 39.95673
#
# Velocity S-wave (km/s) = 3.44198 4.04829 3.75739
# Velocity P-wave (km/s) = 5.56909 6.75405 6.18999
#
# Compressibility (1/GPa) = 0.02321737
#
# Stress axis : x y z
#
# Youngs Moduli (GPa) = 88.37413 80.55329 85.04997
#
# Poissons Ratio (x) = -0.13108 0.27412
# Poissons Ratio (y) = -0.14381 0.38606
# Poissons Ratio (z) = 0.28484 0.36565
#
# Static dielectric constant tensor:
#      x y z
#    x 1.899860 0.074710 0.086660 
#    y 0.074710 2.223180 0.026260 
#    z 0.086660 0.026260 2.122230 
# 
# From -- ./inp_files/546911.got.cif
#   From: 2010.05.17/outbox.cif.g08.bks.cpg/sg2_274_cif.got.tgz:546911.got - 2010.06.03 11:33:40.
