data_PCOD9110898
_publ_section_title
;
Structure prediction by ZEFSAII (Michael W. Deem and Ramdas Pophale) SiO2 
 PCOD9110898
Probable space group: P -1
;
_chemical_formula_sum "Si O2"
_cell_formula_units_Z 16
_cell_length_a 22.897787
_cell_length_b 17.204010
_cell_length_c 8.860914
_cell_angle_alpha 131.657520
_cell_angle_beta 131.433423
_cell_angle_gamma 16.051074
_cell_volume 716.604408
_symmetry_space_group_name_H-M "P -1"
_symmetry_group_IT_number 2
_symmetry_cell_setting 'triclinic'
loop_
_space_group_symop_operation_xyz
x,y,z
-x,-y,-z
loop_
_atom_site_type_symbol
_atom_site_label
_atom_site_fract_x
_atom_site_fract_y
_atom_site_fract_z
Si Si1 0.741492 0.971505 0.814110
Si Si2 0.686222 0.275209 0.152148
Si Si3 0.604890 0.763100 0.320546
Si Si4 0.105355 0.666399 0.495138
Si Si5 0.946619 0.674230 0.052288
Si Si6 0.919437 0.101378 0.819304
Si Si7 0.530727 0.730224 0.888367
Si Si8 0.491114 0.302635 0.524985
O O1 0.551173 0.133128 0.750534
O O2 0.699153 0.037363 0.646916
O O3 0.728722 0.102522 0.033572
O O4 0.943239 0.672272 0.861118
O O5 0.583454 0.485792 0.363095
O O6 0.500000 0.500000 0.000000
O O7 0.903594 0.053588 0.172096
O O8 0.827082 0.466792 0.400849
O O9 0.500000 0.000000 0.500000
O O10 0.608214 0.739148 0.116770
O O11 0.299449 0.494400 0.543694
O O12 0.077463 0.607231 0.255664
O O13 0.920255 0.981004 0.607722
O O14 0.707066 0.995100 0.110272
O O15 0.000000 0.500000 0.000000
O O16 0.697790 0.435466 0.849156
O O17 0.000000 0.000000 0.000000
O O18 0.511138 0.756547 0.709696
#
# Coordination Sequence:
#
# PCOD9110898 Si02
#       8
#     2   2   2   2   2   2   2   2
#     4   9  20  40  66  89 127 175 212 258 329 383
#     4   9  20  37  66  93 140 175 204 259 332 400
#     4  10  20  42  67  88 124 180 219 267 323 384
#     4  10  21  39  64  92 132 172 211 262 332 392
#     4  11  25  44  65  92 125 176 231 270 320 384
#     4  11  23  39  64 103 134 170 217 267 336 399
#     4  11  24  41  66  96 133 161 223 274 326 389
#     4   9  21  40  62  99 132 169 209 260 336 400
#
# _framework density 22.327521000000001
#
# number of rings (size 3 to 8) (size 9 to 14) (size 15 to 20)
#    0.000    2.000    1.250    2.250    7.000    3.500 
#    0.000    6.250    0.000    0.000    0.000    0.000 
#    0.000    0.000    0.000    0.000    0.000    0.000 
#
# Total GULP energy -89185.998102 kJ/mol
# GULP energy per Si atom -5574.124881 kJ/mol
# Density = 2.227670 g / cm^3
# Si number density = 22.327521 Si / 1000 Ang^3
#
#
#
# Elastic Constant Matrix: (Units=GPa)
#
#
# Indices 1 2 3 4 5 6 
#
# 1 55.0424 32.1810 30.9196 9.1761 6.3447 24.3742
# 2 32.1810 76.5127 44.8751 4.9110 16.2548 29.1367
# 3 30.9196 44.8751 142.2968 -0.8658 -9.2546 32.7477
# 4 9.1761 4.9110 -0.8658 29.8449 8.5234 -2.2486
# 5 6.3447 16.2548 -9.2546 8.5234 39.6535 -3.9884
# 6 24.3742 29.1367 32.7477 -2.2486 -3.9884 34.5520
#
#
#
# Elastic Compliance Matrix: (Units=1/GPa)
#
#
# Indices 1 2 3 4 5 6 
#
# 1 0.031535 -0.003872 -0.001689 -0.009446 -0.003675 -0.018419
# 2 -0.003872 0.026569 -0.004470 -0.000928 -0.012823 -0.016977
# 3 -0.001689 -0.004470 0.009996 0.000095 0.004008 -0.004045
# 4 -0.009446 -0.000928 0.000095 0.038835 -0.005503 0.009248
# 5 -0.003675 -0.012823 0.004008 -0.005503 0.034512 0.013232
# 6 -0.018419 -0.016977 -0.004045 0.009248 0.013232 0.062215
#
#
# Mechanical properties :
#
#
# Convention : Reuss Voigt Hill
#
# Bulk Modulus (GPa) = 20.81642 54.42257 37.61949
# Shear Modulus (GPa) = 20.85630 31.86849 26.36239
#
# Velocity S-wave (km/s) = 3.05963 3.78209 3.43988
# Velocity P-wave (km/s) = 4.67175 6.59544 5.71511
#
# Compressibility (1/GPa) = 0.04803901
#
# Stress axis : x y z
#
# Youngs Moduli (GPa) = 31.71076 37.63819 100.03736
#
# Poissons Ratio (x) = 0.14573 0.16894
# Poissons Ratio (y) = 0.12278 0.44717
# Poissons Ratio (z) = 0.05355 0.16824
#
# Static dielectric constant tensor:
#      x y z
#    x 1.852700 0.038320 -0.043210 
#    y 0.038320 1.861550 -0.025590 
#    z -0.043210 -0.025590 1.902710 
# 
# From -- ./inp_files/225191.got.cif
#   From: 2010.05.17/outbox.cif.g08.bks.cpg/sg2_113_cif.got.tgz:225191.got - 2010.06.03 11:33:40.
