data_PCOD9110082
_publ_section_title
;
Structure prediction by ZEFSAII (Michael W. Deem and Ramdas Pophale) SiO2 
 PCOD9110082
Probable space group: P -1
;
_chemical_formula_sum "Si O2"
_cell_formula_units_Z 16
_cell_length_a 13.757713
_cell_length_b 14.991769
_cell_length_c 8.749213
_cell_angle_alpha 152.726744
_cell_angle_beta 51.096222
_cell_angle_gamma 130.586570
_cell_volume 621.523179
_symmetry_space_group_name_H-M "P -1"
_symmetry_group_IT_number 2
_symmetry_cell_setting 'triclinic'
loop_
_space_group_symop_operation_xyz
x,y,z
-x,-y,-z
loop_
_atom_site_type_symbol
_atom_site_label
_atom_site_fract_x
_atom_site_fract_y
_atom_site_fract_z
Si Si1 0.773797 0.732737 0.261881
Si Si2 0.238902 0.919756 0.353150
Si Si3 0.477726 0.346701 0.425103
Si Si4 0.371336 0.554520 0.267721
Si Si5 0.865926 0.494562 0.211533
Si Si6 0.959131 0.942833 0.780799
Si Si7 0.959100 0.315351 0.141817
Si Si8 0.515870 0.040742 0.366307
O O1 0.653615 0.631937 0.331540
O O2 0.766224 0.965003 0.625401
O O3 0.744237 0.622603 0.955982
O O4 0.917464 0.716428 0.126067
O O5 0.371381 0.056837 0.495759
O O6 0.098408 0.928179 0.560398
O O7 0.241751 0.691130 0.034465
O O8 0.500000 0.500000 0.500000
O O9 0.592482 0.397299 0.516750
O O10 0.464227 0.131900 0.030771
O O11 0.375464 0.760131 0.485742
O O12 0.500000 0.500000 0.000000
O O13 0.856996 0.722987 0.555940
O O14 0.876246 0.401139 0.228352
O O15 0.000000 0.500000 0.000000
O O16 0.918772 0.114867 0.983478
O O17 0.000000 0.000000 0.000000
O O18 0.000000 0.500000 0.500000
O O19 0.500000 0.000000 0.500000
#
# Coordination Sequence:
#
# PCOD9110082 Si02
#       8
#     2   2   2   2   2   2   2   2
#     4  10  23  44  71  99 139 188 232 284 358 418
#     4  10  23  42  68  94 138 183 225 283 359 408
#     4  11  24  42  66 100 137 178 234 289 344 417
#     4  10  20  41  69  94 135 176 224 290 338 410
#     4  10  23  42  69  99 140 183 229 289 349 417
#     4  10  21  43  68 103 141 177 232 289 346 420
#     4  11  23  44  73 102 141 182 235 291 350 424
#     4  12  24  43  68  99 136 180 236 287 346 418
#
# _framework density 25.743207000000002
#
# number of rings (size 3 to 8) (size 9 to 14) (size 15 to 20)
#    0.000    1.500    3.750    1.875    0.000    9.500 
#    0.000    2.500    0.000    0.000    0.000    0.000 
#    0.000    0.000    0.000    0.000    0.000    0.000 
#
# Total GULP energy -89313.307555 kJ/mol
# GULP energy per Si atom -5582.081722 kJ/mol
# Density = 2.568461 g / cm^3
# Si number density = 25.743207 Si / 1000 Ang^3
#
#
#
# Elastic Constant Matrix: (Units=GPa)
#
#
# Indices 1 2 3 4 5 6 
#
# 1 97.3391 35.6068 36.3204 1.4257 -4.6525 -20.5113
# 2 35.6068 145.2337 53.1476 28.7382 -0.3534 -29.9576
# 3 36.3204 53.1476 113.0680 28.5578 6.7545 -19.7494
# 4 1.4257 28.7382 28.5578 61.3335 -1.9693 -0.9034
# 5 -4.6525 -0.3534 6.7545 -1.9693 38.2046 -5.0561
# 6 -20.5113 -29.9576 -19.7494 -0.9034 -5.0561 45.5973
#
#
#
# Elastic Compliance Matrix: (Units=1/GPa)
#
#
# Indices 1 2 3 4 5 6 
#
# 1 0.013043 -0.001585 -0.003538 0.002230 0.002797 0.003648
# 2 -0.001585 0.009807 -0.002498 -0.003301 0.000787 0.004670
# 3 -0.003538 -0.002498 0.012869 -0.004798 -0.002719 0.001945
# 4 0.002230 -0.003301 -0.004798 0.020051 0.001772 -0.002650
# 5 0.002797 0.000787 -0.002719 0.001772 0.027583 0.003691
# 6 0.003648 0.004670 0.001945 -0.002650 0.003691 0.027839
#
#
# Mechanical properties :
#
#
# Convention : Reuss Voigt Hill
#
# Bulk Modulus (GPa) = 48.83735 67.31005 58.07370
# Shear Modulus (GPa) = 37.52082 44.39816 40.95949
#
# Velocity S-wave (km/s) = 3.82187 4.15740 3.99316
# Velocity P-wave (km/s) = 6.20385 7.01775 6.62331
#
# Compressibility (1/GPa) = 0.02047613
#
# Stress axis : x y z
#
# Youngs Moduli (GPa) = 76.66946 101.97261 77.70730
#
# Poissons Ratio (x) = 0.16164 0.27492
# Poissons Ratio (y) = 0.12153 0.19411
# Poissons Ratio (z) = 0.27125 0.25473
#
# Static dielectric constant tensor:
#      x y z
#    x 2.507600 0.765180 -0.114840 
#    y 0.765180 3.613260 -0.077650 
#    z -0.114840 -0.077650 2.255510 
# 
# From -- ./inp_files/316175.got.cif
#   From: 2010.05.17/outbox.cif.g08.bks.cpg/sg2_159_cif.got.tgz:316175.got - 2010.06.03 11:33:40.
