data_PCOD9110714
_publ_section_title
;
Structure prediction by ZEFSAII (Michael W. Deem and Ramdas Pophale) SiO2 
 PCOD9110714
Probable space group: P -1
;
_chemical_formula_sum "Si O2"
_cell_formula_units_Z 16
_cell_length_a 13.911507
_cell_length_b 8.842724
_cell_length_c 15.476539
_cell_angle_alpha 67.742853
_cell_angle_beta 122.451466
_cell_angle_gamma 152.032906
_cell_volume 731.314772
_symmetry_space_group_name_H-M "P -1"
_symmetry_group_IT_number 2
_symmetry_cell_setting 'triclinic'
loop_
_space_group_symop_operation_xyz
x,y,z
-x,-y,-z
loop_
_atom_site_type_symbol
_atom_site_label
_atom_site_fract_x
_atom_site_fract_y
_atom_site_fract_z
Si Si1 0.553911 0.201617 0.187321
Si Si2 0.651266 0.356726 0.006187
Si Si3 0.755883 0.287692 0.433057
Si Si4 0.488020 0.332838 0.594892
Si Si5 0.117751 0.475987 0.073650
Si Si6 0.012157 0.824200 0.569223
Si Si7 0.517778 0.496127 0.111843
Si Si8 0.988558 0.856224 0.746780
O O1 0.701179 0.318818 0.312708
O O2 0.399764 0.171635 0.140869
O O3 0.375485 0.833468 0.156853
O O4 0.687174 0.406579 0.116483
O O5 0.863886 0.595281 0.992258
O O6 0.545691 0.398665 0.912679
O O7 0.500000 0.000000 0.000000
O O8 0.000000 0.500000 0.500000
O O9 0.806809 0.474979 0.495062
O O10 0.567538 0.907425 0.428906
O O11 0.500000 0.500000 0.500000
O O12 0.746810 0.646656 0.690127
O O13 0.268791 0.084575 0.606733
O O14 0.983876 0.222927 0.140205
O O15 0.000000 0.500000 0.000000
O O16 0.979413 0.763325 0.668695
O O17 0.000000 0.000000 0.500000
O O18 0.500000 0.500000 0.000000
O O19 0.764644 0.749033 0.216259
#
# Coordination Sequence:
#
# PCOD9110714 Si02
#       8
#     2   2   2   2   2   2   2   2
#     4  10  20  42  65  96 134 177 218 284 345 398
#     4   9  20  38  68  92 131 173 221 270 337 406
#     4  10  23  41  68  99 141 178 228 284 343 409
#     4  11  24  45  67 102 135 177 239 286 336 419
#     4  11  23  41  65  98 133 173 231 278 328 418
#     4  11  24  44  70  98 138 187 222 282 352 402
#     4  10  22  41  67  98 134 177 223 282 346 409
#     4  12  24  42  72  96 139 179 224 279 347 397
#
# _framework density 21.878404
#
# number of rings (size 3 to 8) (size 9 to 14) (size 15 to 20)
#    0.000    1.500    2.500    3.000    3.500    3.500 
#    0.000    5.625    0.000    0.000    0.000    0.000 
#    0.000    0.000    0.000    0.000    0.000    0.000 
#
# Total GULP energy -89104.976664 kJ/mol
# GULP energy per Si atom -5569.061041 kJ/mol
# Density = 2.182861 g / cm^3
# Si number density = 21.878404 Si / 1000 Ang^3
#
#
#
# Elastic Constant Matrix: (Units=GPa)
#
#
# Indices 1 2 3 4 5 6 
#
# 1 121.4028 34.4188 45.4625 -1.2699 1.7576 -4.5247
# 2 34.4188 62.3894 27.1723 -4.3381 0.2200 -11.6693
# 3 45.4625 27.1723 122.8850 0.6441 -0.0883 -1.7319
# 4 -1.2699 -4.3381 0.6441 46.0259 0.8767 6.2867
# 5 1.7576 0.2200 -0.0883 0.8767 42.0484 -5.5959
# 6 -4.5247 -11.6693 -1.7319 6.2867 -5.5959 45.3649
#
#
#
# Elastic Compliance Matrix: (Units=1/GPa)
#
#
# Indices 1 2 3 4 5 6 
#
# 1 0.010644 -0.004662 -0.002911 -0.000055 -0.000465 -0.000298
# 2 -0.004662 0.020784 -0.002811 0.001216 0.000679 0.004689
# 3 -0.002911 -0.002811 0.009830 -0.000407 0.000090 -0.000571
# 4 -0.000055 0.001216 -0.000407 0.022258 -0.000855 -0.002898
# 5 -0.000465 0.000679 0.000090 -0.000855 0.024247 0.003241
# 6 -0.000298 0.004689 -0.000571 -0.002898 0.003241 0.024000
#
#
# Mechanical properties :
#
#
# Convention : Reuss Voigt Hill
#
# Bulk Modulus (GPa) = 48.80430 57.86492 53.33461
# Shear Modulus (GPa) = 35.87804 39.99608 37.93706
#
# Velocity S-wave (km/s) = 4.05394 4.28028 4.16864
# Velocity P-wave (km/s) = 6.65343 7.13677 6.89933
#
# Compressibility (1/GPa) = 0.02049000
#
# Stress axis : x y z
#
# Youngs Moduli (GPa) = 93.94942 48.11448 101.72560
#
# Poissons Ratio (x) = 0.22432 0.29614
# Poissons Ratio (y) = 0.43801 0.28592
# Poissons Ratio (z) = 0.27351 0.13523
#
# Static dielectric constant tensor:
#      x y z
#    x 1.875630 -0.013460 -0.011050 
#    y -0.013460 1.890090 0.028220 
#    z -0.011050 0.028220 1.754610 
# 
# From -- ./inp_files/529553.got.cif
#   From: 2010.05.17/outbox.cif.g08.bks.cpg/sg2_265_cif.got.tgz:529553.got - 2010.06.03 11:33:40.
