data_PCOD9110368
_publ_section_title
;
Structure prediction by ZEFSAII (Michael W. Deem and Ramdas Pophale) SiO2 
 PCOD9110368
Probable space group: P -1
;
_chemical_formula_sum "Si O2"
_cell_formula_units_Z 12
_cell_length_a 11.543022
_cell_length_b 8.133822
_cell_length_c 10.280368
_cell_angle_alpha 46.114090
_cell_angle_beta 128.283841
_cell_angle_gamma 141.275814
_cell_volume 428.493110
_symmetry_space_group_name_H-M "P -1"
_symmetry_group_IT_number 2
_symmetry_cell_setting 'triclinic'
loop_
_space_group_symop_operation_xyz
x,y,z
-x,-y,-z
loop_
_atom_site_type_symbol
_atom_site_label
_atom_site_fract_x
_atom_site_fract_y
_atom_site_fract_z
Si Si1 0.009894 0.611958 0.232587
Si Si2 0.369467 0.927116 0.172945
Si Si3 0.327513 0.490982 0.841643
Si Si4 0.472852 0.731344 0.550674
Si Si5 0.142366 0.003297 0.446136
Si Si6 0.147355 0.876260 0.802850
O O1 0.883301 0.692394 0.156317
O O2 0.975969 0.352417 0.441737
O O3 0.219598 0.893202 0.189660
O O4 0.946205 0.446841 0.139887
O O5 0.369817 0.674291 0.372270
O O6 0.585926 0.196686 0.203048
O O7 0.300920 0.940296 0.978427
O O8 0.344395 0.483830 0.702436
O O9 0.500000 0.500000 0.000000
O O10 0.500000 0.000000 0.500000
O O11 0.678149 0.828796 0.614586
O O12 0.216033 0.060553 0.615498
O O13 0.013458 0.099480 0.278103
#
# Coordination Sequence:
#
# PCOD9110368 Si02
#       6
#     2   2   2   2   2   2
#     4  10  21  41  66  90 127 163 198 266 301 367
#     4  11  22  39  69  91 121 171 204 248 319 366
#     4  11  26  44  59  92 129 161 213 262 299 365
#     4  10  20  42  59  88 125 165 207 253 304 361
#     4   9  19  39  66  86 136 155 193 271 295 364
#     4   9  20  39  64 100 122 158 211 247 315 367
#
# _framework density 28.005118
#
# number of rings (size 3 to 8) (size 9 to 14) (size 15 to 20)
#    1.000    1.000    3.333    0.500    2.333    5.333 
#    3.000    0.833    0.000    0.000    0.000    0.000 
#    0.000    0.000    0.000    0.000    0.000    0.000 
#
# Total GULP energy -66984.557308 kJ/mol
# GULP energy per Si atom -5582.046442 kJ/mol
# Density = 2.794138 g / cm^3
# Si number density = 28.005118 Si / 1000 Ang^3
#
#
#
# Elastic Constant Matrix: (Units=GPa)
#
#
# Indices 1 2 3 4 5 6 
#
# 1 161.5752 33.7365 30.2406 16.2003 15.6369 22.6180
# 2 33.7365 75.6806 14.0058 4.2137 -12.3332 15.9927
# 3 30.2406 14.0058 158.8013 22.3967 -19.4035 -26.0079
# 4 16.2003 4.2137 22.3967 34.9542 -15.5904 7.1606
# 5 15.6369 -12.3332 -19.4035 -15.5904 42.3873 15.1334
# 6 22.6180 15.9927 -26.0079 7.1606 15.1334 46.8612
#
#
#
# Elastic Compliance Matrix: (Units=1/GPa)
#
#
# Indices 1 2 3 4 5 6 
#
# 1 0.008661 -0.004390 -0.001368 -0.005722 -0.007106 -0.000272
# 2 -0.004390 0.020090 -0.002668 0.010351 0.014508 -0.012485
# 3 -0.001368 -0.002668 0.008944 -0.007252 -0.001778 0.008217
# 4 -0.005722 0.010351 -0.007252 0.052027 0.028811 -0.022050
# 5 -0.007106 0.014508 -0.001778 0.028811 0.048248 -0.022492
# 6 -0.000272 -0.012485 0.008217 -0.022050 -0.022492 0.040926
#
#
# Mechanical properties :
#
#
# Convention : Reuss Voigt Hill
#
# Bulk Modulus (GPa) = 47.97393 61.33589 54.65491
# Shear Modulus (GPa) = 24.66742 46.04548 35.35645
#
# Velocity S-wave (km/s) = 2.97108 4.05925 3.55702
# Velocity P-wave (km/s) = 5.37934 6.62716 6.03558
#
# Compressibility (1/GPa) = 0.02084466
#
# Stress axis : x y z
#
# Youngs Moduli (GPa) = 115.45689 49.77509 111.80339
#
# Poissons Ratio (x) = 0.21850 0.15295
# Poissons Ratio (y) = 0.50682 0.29828
# Poissons Ratio (z) = 0.15795 0.13279
#
# Static dielectric constant tensor:
#      x y z
#    x 2.230550 -0.169160 0.036700 
#    y -0.169160 2.441600 -0.193290 
#    z 0.036700 -0.193290 2.414880 
# 
# From -- ./inp_files/377201.got.cif
#   From: 2010.05.17/outbox.cif.g08.bks.cpg/sg2_189_cif.got.tgz:377201.got - 2010.06.03 11:33:40.
