data_PCOD9110461
_publ_section_title
;
Structure prediction by ZEFSAII (Michael W. Deem and Ramdas Pophale) SiO2 
 PCOD9110461
Probable space group: P -1
;
_chemical_formula_sum "Si O2"
_cell_formula_units_Z 11
_cell_length_a 8.194605
_cell_length_b 21.927948
_cell_length_c 17.689350
_cell_angle_alpha 18.828145
_cell_angle_beta 36.708632
_cell_angle_gamma 28.755888
_cell_volume 485.368946
_symmetry_space_group_name_H-M "P -1"
_symmetry_group_IT_number 2
_symmetry_cell_setting 'triclinic'
loop_
_space_group_symop_operation_xyz
x,y,z
-x,-y,-z
loop_
_atom_site_type_symbol
_atom_site_label
_atom_site_fract_x
_atom_site_fract_y
_atom_site_fract_z
Si Si1 0.758298 0.845652 0.966262
Si Si2 0.943781 0.675181 0.571565
Si Si3 0.954981 0.991294 0.937696
Si Si4 0.573427 0.331248 0.979228
Si Si5 0.500000 0.000000 0.500000
Si Si6 0.293999 0.844952 0.511817
O O1 0.371348 0.008407 0.950130
O O2 0.829270 0.609922 0.179972
O O3 0.060940 0.758272 0.015132
O O4 0.790970 0.993678 0.717964
O O5 0.760255 0.793234 0.580899
O O6 0.643634 0.763063 0.518006
O O7 0.128704 0.783344 0.343337
O O8 0.314374 0.768115 0.030420
O O9 0.000000 0.000000 0.000000
O O10 0.454076 0.203518 0.221824
O O11 0.324983 0.614551 0.746467
O O12 0.000000 0.000000 0.500000
#
# Coordination Sequence:
#
# PCOD9110461 Si02
#       6
#     2   2   2   2   1   2
#     4  11  22  42  65  91 125 169 203 254 314 368
#     4  10  22  41  63  92 127 163 208 256 307 372
#     4  11  22  44  63  93 128 164 207 259 307 365
#     4  10  24  42  65  93 126 162 211 254 308 376
#     4  10  20  42  62  90 128 158 204 262 306 358
#     4  11  22  40  64  94 125 165 207 255 311 369
#
# _framework density 22.663170999999998
#
# number of rings (size 3 to 8) (size 9 to 14) (size 15 to 20)
#    0.000    1.455    1.818    3.273    0.000    3.636 
#   13.091    5.455    0.000    0.000    0.000    0.000 
#    0.000    0.000    0.000    0.000    0.000    0.000 
#
# Total GULP energy -61300.900426 kJ/mol
# GULP energy per Si atom -5572.809130 kJ/mol
# Density = 2.261159 g / cm^3
# Si number density = 22.663171 Si / 1000 Ang^3
#
#
#
# Elastic Constant Matrix: (Units=GPa)
#
#
# Indices 1 2 3 4 5 6 
#
# 1 54.6183 18.9152 1.4898 10.4094 13.0391 7.2997
# 2 18.9152 124.6229 73.5555 14.7756 2.2713 50.8876
# 3 1.4898 73.5555 129.5457 -5.1223 -18.0622 36.3349
# 4 10.4094 14.7756 -5.1223 39.4123 7.3569 3.7091
# 5 13.0391 2.2713 -18.0622 7.3569 25.4813 -1.2059
# 6 7.2997 50.8876 36.3349 3.7091 -1.2059 43.6920
#
#
#
# Elastic Compliance Matrix: (Units=1/GPa)
#
#
# Indices 1 2 3 4 5 6 
#
# 1 0.022338 -0.002335 -0.000306 -0.003009 -0.010609 -0.000795
# 2 -0.002335 0.020718 -0.008033 -0.005588 -0.005525 -0.016737
# 3 -0.000306 -0.008033 0.014595 0.003358 0.010119 -0.002736
# 4 -0.003009 -0.005588 0.003358 0.029285 -0.003960 0.001623
# 5 -0.010609 -0.005525 0.010119 -0.003960 0.053558 0.001606
# 6 -0.000795 -0.016737 -0.002736 0.001623 0.001606 0.044695
#
#
# Mechanical properties :
#
#
# Convention : Reuss Voigt Hill
#
# Bulk Modulus (GPa) = 27.54668 55.18976 41.36822
# Shear Modulus (GPa) = 22.86875 36.03889 29.45382
#
# Velocity S-wave (km/s) = 3.18003 3.99205 3.60895
# Velocity P-wave (km/s) = 5.06603 6.75675 5.97153
#
# Compressibility (1/GPa) = 0.03630201
#
# Stress axis : x y z
#
# Youngs Moduli (GPa) = 44.76629 48.26831 68.51587
#
# Poissons Ratio (x) = 0.11270 0.02098
# Poissons Ratio (y) = 0.10452 0.55042
# Poissons Ratio (z) = 0.01371 0.38776
#
# Static dielectric constant tensor:
#      x y z
#    x 1.946580 -0.031780 -0.033310 
#    y -0.031780 1.855300 -0.037130 
#    z -0.033310 -0.037130 1.793050 
# 
# From -- ./inp_files/17494.got.cif
#   From: 2010.05.17/outbox.cif.g08.bks.cpg/sg2_9_cif.got.tgz:17494.got - 2010.06.03 11:33:40.
