data_PCOD9110555
_publ_section_title
;
Structure prediction by ZEFSAII (Michael W. Deem and Ramdas Pophale) SiO2 
 PCOD9110555
Probable space group: P -1
;
_chemical_formula_sum "Si O2"
_cell_formula_units_Z 14
_cell_length_a 11.107663
_cell_length_b 12.786571
_cell_length_c 8.834615
_cell_angle_alpha 147.175376
_cell_angle_beta 81.014082
_cell_angle_gamma 111.278944
_cell_volume 605.687186
_symmetry_space_group_name_H-M "P -1"
_symmetry_group_IT_number 2
_symmetry_cell_setting 'triclinic'
loop_
_space_group_symop_operation_xyz
x,y,z
-x,-y,-z
loop_
_atom_site_type_symbol
_atom_site_label
_atom_site_fract_x
_atom_site_fract_y
_atom_site_fract_z
Si Si1 0.859762 0.551482 0.197026
Si Si2 0.994959 0.024154 0.853758
Si Si3 0.136118 0.209240 0.776234
Si Si4 0.451959 0.580778 0.867263
Si Si5 0.590799 0.810305 0.415385
Si Si6 0.580031 0.167832 0.060062
Si Si7 0.878460 0.336625 0.219474
O O1 0.859366 0.577897 0.047441
O O2 0.709033 0.507140 0.218614
O O3 0.895352 0.400715 0.116374
O O4 0.959052 0.789415 0.516080
O O5 0.123038 0.194276 0.942002
O O6 0.881043 0.107828 0.952028
O O7 0.000000 0.000000 0.000000
O O8 0.265881 0.182664 0.657157
O O9 0.000000 0.000000 0.500000
O O10 0.474779 0.377805 0.673346
O O11 0.503376 0.739531 0.193692
O O12 0.496612 0.704565 0.849574
O O13 0.601062 0.027103 0.748528
O O14 0.731549 0.315744 0.269338
O O15 0.500000 0.000000 0.000000
O O16 0.000000 0.500000 0.500000
#
# Coordination Sequence:
#
# PCOD9110555 Si02
#       7
#     2   2   2   2   2   2   2
#     4   9  19  39  58  87 121 155 210 249 303 365
#     4  11  21  37  62  88 126 161 198 257 308 367
#     4   9  19  36  60  88 115 159 205 244 302 360
#     4   9  20  39  63  88 117 163 203 251 304 365
#     4  10  20  42  64  86 124 161 206 251 306 369
#     4  11  24  41  63  92 127 161 206 259 311 366
#     4  11  22  40  60  86 124 167 200 254 314 361
#
# _framework density 23.114241
#
# number of rings (size 3 to 8) (size 9 to 14) (size 15 to 20)
#    0.000    2.000    1.429    3.000    0.000    2.286 
#    7.714    4.286    0.000    0.000    0.000    0.000 
#    0.000    0.000    0.000    0.000    0.000    0.000 
#
# Total GULP energy -78035.720978 kJ/mol
# GULP energy per Si atom -5573.980070 kJ/mol
# Density = 2.306163 g / cm^3
# Si number density = 23.114241 Si / 1000 Ang^3
#
#
#
# Elastic Constant Matrix: (Units=GPa)
#
#
# Indices 1 2 3 4 5 6 
#
# 1 43.3714 44.1302 -7.0589 -0.4998 -3.5057 -15.8851
# 2 44.1302 212.7119 10.1587 10.1834 6.0970 -36.0710
# 3 -7.0589 10.1587 42.6704 3.3081 -0.5007 -5.9735
# 4 -0.4998 10.1834 3.3081 21.8633 2.7673 -5.0301
# 5 -3.5057 6.0970 -0.5007 2.7673 18.4300 4.1158
# 6 -15.8851 -36.0710 -5.9735 -5.0301 4.1158 45.3355
#
#
#
# Elastic Compliance Matrix: (Units=1/GPa)
#
#
# Indices 1 2 3 4 5 6 
#
# 1 0.034510 -0.006607 0.008163 0.003551 0.006721 0.007694
# 2 -0.006607 0.006895 -0.002215 -0.001821 -0.004004 0.003041
# 3 0.008163 -0.002215 0.026075 -0.002091 0.002396 0.004084
# 4 0.003551 -0.001821 -0.002091 0.049227 -0.007434 0.005656
# 5 0.006721 -0.004004 0.002396 -0.007434 0.059550 -0.006746
# 6 0.007694 0.003041 0.004084 0.005656 -0.006746 0.028951
#
#
# Mechanical properties :
#
#
# Convention : Reuss Voigt Hill
#
# Bulk Modulus (GPa) = 15.11440 43.69041 29.40241
# Shear Modulus (GPa) = 21.87399 33.89400 27.88399
#
# Velocity S-wave (km/s) = 3.07961 3.83347 3.47703
# Velocity P-wave (km/s) = 4.38161 6.20782 5.37287
#
# Compressibility (1/GPa) = 0.06616207
#
# Stress axis : x y z
#
# Youngs Moduli (GPa) = 28.97673 145.02539 38.35083
#
# Poissons Ratio (x) = 0.95824 -0.31305
# Poissons Ratio (y) = 0.19146 0.08494
# Poissons Ratio (z) = -0.23653 0.32120
#
# Static dielectric constant tensor:
#      x y z
#    x 1.907230 -0.035190 -0.010490 
#    y -0.035190 2.043600 -0.041900 
#    z -0.010490 -0.041900 1.915150 
# 
# From -- ./inp_files/261060.got.cif
#   From: 2010.05.17/outbox.cif.g08.bks.cpg/sg2_131_cif.got.tgz:261060.got - 2010.06.03 11:33:40.
