data_PCOD9110565
_publ_section_title
;
Structure prediction by ZEFSAII (Michael W. Deem and Ramdas Pophale) SiO2 
 PCOD9110565
Probable space group: P -1
;
_chemical_formula_sum "Si O2"
_cell_formula_units_Z 15
_cell_length_a 17.437354
_cell_length_b 11.805873
_cell_length_c 12.404981
_cell_angle_alpha 149.041299
_cell_angle_beta 150.018174
_cell_angle_gamma 43.556258
_cell_volume 654.856762
_symmetry_space_group_name_H-M "P -1"
_symmetry_group_IT_number 2
_symmetry_cell_setting 'triclinic'
loop_
_space_group_symop_operation_xyz
x,y,z
-x,-y,-z
loop_
_atom_site_type_symbol
_atom_site_label
_atom_site_fract_x
_atom_site_fract_y
_atom_site_fract_z
Si Si1 0.813246 0.084400 0.540568
Si Si2 0.856428 0.559827 0.445621
Si Si3 0.090337 0.846814 0.704021
Si Si4 0.464389 0.673902 0.504516
Si Si5 0.000000 0.500000 0.000000
Si Si6 0.781794 0.882410 0.107167
Si Si7 0.281820 0.093269 0.325551
Si Si8 0.573500 0.341631 0.792474
O O1 0.676666 0.183053 0.519472
O O2 0.929166 0.290793 0.815583
O O3 0.754557 0.966600 0.262642
O O4 0.919556 0.906786 0.577751
O O5 0.876967 0.405617 0.448979
O O6 0.845933 0.804840 0.674020
O O7 0.000000 0.500000 0.500000
O O8 0.698513 0.486549 0.131730
O O9 0.123013 0.925540 0.686593
O O10 0.205746 0.982041 0.036003
O O11 0.500000 0.500000 0.500000
O O12 0.438129 0.567010 0.267707
O O13 0.617571 0.834634 0.812727
O O14 0.129631 0.339037 0.975513
O O15 0.408116 0.289030 0.604338
O O16 0.362807 0.903169 0.332503
#
# Coordination Sequence:
#
# PCOD9110565 Si02
#       8
#     2   2   2   2   1   2   2   2
#     4  11  25  41  67  99 139 178 220 276 330 397
#     4  11  26  42  68 105 127 166 226 279 338 399
#     4  10  23  41  69  96 129 177 215 271 337 394
#     4  12  25  45  68  99 139 177 224 279 337 390
#     4  10  20  42  64  88 136 172 226 262 320 394
#     4  11  23  45  65  99 133 184 225 269 330 404
#     4  10  22  46  72  92 131 173 225 274 329 400
#     4  10  24  46  67  96 132 178 218 273 338 388
#
# _framework density 22.905771999999999
#
# number of rings (size 3 to 8) (size 9 to 14) (size 15 to 20)
#    0.000    1.333    2.667    2.400    3.733    7.467 
#    2.400    0.000    0.000    0.000    0.000    0.000 
#    0.000    0.000    0.000    0.000    0.000    0.000 
#
# Total GULP energy -83642.477111 kJ/mol
# GULP energy per Si atom -5576.165141 kJ/mol
# Density = 2.285364 g / cm^3
# Si number density = 22.905772 Si / 1000 Ang^3
#
#
#
# Elastic Constant Matrix: (Units=GPa)
#
#
# Indices 1 2 3 4 5 6 
#
# 1 74.9762 27.0096 1.1612 0.8183 -12.2645 -12.3473
# 2 27.0096 79.0158 5.7027 -10.6502 -4.7488 0.5625
# 3 1.1612 5.7027 31.7874 -14.2574 1.3047 -3.2832
# 4 0.8183 -10.6502 -14.2574 25.6555 0.6981 -3.0706
# 5 -12.2645 -4.7488 1.3047 0.6981 18.9909 -12.0095
# 6 -12.3473 0.5625 -3.2832 -3.0706 -12.0095 39.1048
#
#
#
# Elastic Compliance Matrix: (Units=1/GPa)
#
#
# Indices 1 2 3 4 5 6 
#
# 1 0.021064 -0.006398 -0.000255 -0.002496 0.020154 0.012715
# 2 -0.006398 0.015614 0.000230 0.006591 -0.001943 -0.002304
# 3 -0.000255 0.000230 0.043071 0.024688 -0.000638 0.005275
# 4 -0.002496 0.006591 0.024688 0.056182 -0.000227 0.005532
# 5 0.020154 -0.001943 -0.000638 -0.000227 0.085923 0.032708
# 6 0.012715 -0.002304 0.005275 0.005532 0.032708 0.040543
#
#
# Mechanical properties :
#
#
# Convention : Reuss Voigt Hill
#
# Bulk Modulus (GPa) = 14.94661 28.16961 21.55811
# Shear Modulus (GPa) = 16.80431 26.87728 21.84079
#
# Velocity S-wave (km/s) = 2.71149 3.42919 3.09124
# Velocity P-wave (km/s) = 4.04257 5.29186 4.70883
#
# Compressibility (1/GPa) = 0.06690481
#
# Stress axis : x y z
#
# Youngs Moduli (GPa) = 47.47411 64.04533 23.21733
#
# Poissons Ratio (x) = 0.40973 0.00592
# Poissons Ratio (y) = 0.30372 -0.00535
# Poissons Ratio (z) = 0.01211 -0.01476
#
# Static dielectric constant tensor:
#      x y z
#    x 1.874840 0.022100 0.032390 
#    y 0.022100 1.848920 -0.024760 
#    z 0.032390 -0.024760 1.868860 
# 
# From -- ./inp_files/81486.got.cif
#   From: 2010.05.17/outbox.cif.g08.bks.cpg/sg2_41_cif.got.tgz:81486.got - 2010.06.03 11:33:40.
