data_PCOD9110533
_publ_section_title
;
Structure prediction by ZEFSAII (Michael W. Deem and Ramdas Pophale) SiO2 
 PCOD9110533
Probable space group: P -1
;
_chemical_formula_sum "Si O2"
_cell_formula_units_Z 12
_cell_length_a 8.312516
_cell_length_b 7.025391
_cell_length_c 9.015362
_cell_angle_alpha 121.428234
_cell_angle_beta 88.100875
_cell_angle_gamma 101.813799
_cell_volume 438.019484
_symmetry_space_group_name_H-M "P -1"
_symmetry_group_IT_number 2
_symmetry_cell_setting 'triclinic'
loop_
_space_group_symop_operation_xyz
x,y,z
-x,-y,-z
loop_
_atom_site_type_symbol
_atom_site_label
_atom_site_fract_x
_atom_site_fract_y
_atom_site_fract_z
Si Si1 0.189324 0.463708 0.822465
Si Si2 0.035046 0.081411 0.864328
Si Si3 0.325500 0.944989 0.129999
Si Si4 0.653287 0.568253 0.634412
Si Si5 0.978098 0.772666 0.513742
Si Si6 0.502213 0.684107 0.208980
O O1 0.039368 0.415211 0.692707
O O2 0.327323 0.321406 0.716500
O O3 0.131997 0.337652 0.930206
O O4 0.278282 0.727582 0.935749
O O5 0.853557 0.075323 0.798976
O O6 0.100278 0.890631 0.690116
O O7 0.000000 0.000000 0.000000
O O8 0.467055 0.904232 0.218279
O O9 0.366317 0.203622 0.180668
O O10 0.500000 0.500000 0.500000
O O11 0.820644 0.636502 0.563157
O O12 0.636616 0.381932 0.687642
O O13 0.000000 0.000000 0.500000
O O14 0.500000 0.500000 0.000000
#
# Coordination Sequence:
#
# PCOD9110533 Si02
#       6
#     2   2   2   2   2   2
#     4  10  20  42  63  96 135 165 216 276 318 389
#     4  10  22  41  68  91 128 178 220 265 325 385
#     4  10  24  40  69  93 130 175 219 263 336 379
#     4  11  22  43  66  95 134 172 217 271 324 389
#     4   9  20  40  66  90 132 171 210 272 322 380
#     4  10  23  40  67  96 134 165 216 268 326 385
#
# _framework density 27.396038999999998
#
# number of rings (size 3 to 8) (size 9 to 14) (size 15 to 20)
#    0.000    2.000    1.667    0.500    9.333    3.333 
#    0.000    0.833    7.333    0.000    0.000    0.000 
#    0.000    0.000    0.000    0.000    0.000    0.000 
#
# Total GULP energy -66814.449532 kJ/mol
# GULP energy per Si atom -5567.870794 kJ/mol
# Density = 2.733368 g / cm^3
# Si number density = 27.396039 Si / 1000 Ang^3
#
#
#
# Elastic Constant Matrix: (Units=GPa)
#
#
# Indices 1 2 3 4 5 6 
#
# 1 78.3427 1.8949 -3.8659 -5.3543 0.1716 6.2724
# 2 1.8949 79.9618 41.0151 -16.5992 -9.6607 8.5931
# 3 -3.8659 41.0151 127.4245 -16.0909 14.2175 11.4257
# 4 -5.3543 -16.5992 -16.0909 54.7849 15.5171 -5.5804
# 5 0.1716 -9.6607 14.2175 15.5171 30.9534 -7.4505
# 6 6.2724 8.5931 11.4257 -5.5804 -7.4505 48.9405
#
#
#
# Elastic Compliance Matrix: (Units=1/GPa)
#
#
# Indices 1 2 3 4 5 6 
#
# 1 0.013139 -0.000633 0.001281 0.001916 -0.002302 -0.002004
# 2 -0.000633 0.016801 -0.006102 0.001107 0.007451 -0.000184
# 3 0.001281 -0.006102 0.011797 0.004335 -0.010203 -0.002906
# 4 0.001916 0.001107 0.004335 0.023881 -0.013829 -0.000834
# 5 -0.002302 0.007451 -0.010203 -0.013829 0.047971 0.007095
# 6 -0.002004 -0.000184 -0.002906 -0.000834 0.007095 0.022385
#
#
# Mechanical properties :
#
#
# Convention : Reuss Voigt Hill
#
# Bulk Modulus (GPa) = 32.43757 40.42414 36.43085
# Shear Modulus (GPa) = 31.81474 43.38142 37.59808
#
# Velocity S-wave (km/s) = 3.41147 3.98363 3.70860
# Velocity P-wave (km/s) = 5.23292 5.99555 5.62717
#
# Compressibility (1/GPa) = 0.03082845
#
# Stress axis : x y z
#
# Youngs Moduli (GPa) = 76.10687 59.52151 84.76635
#
# Poissons Ratio (x) = 0.03770 -0.10859
# Poissons Ratio (y) = 0.04821 0.51724
# Poissons Ratio (z) = -0.09749 0.36320
#
# Static dielectric constant tensor:
#      x y z
#    x 2.367940 -0.097490 -0.106570 
#    y -0.097490 2.135270 0.113530 
#    z -0.106570 0.113530 2.279930 
# 
# From -- ./inp_files/27148.got.cif
#   From: 2010.05.17/outbox.cif.g08.bks.cpg/sg2_14_cif.got.tgz:27148.got - 2010.06.03 11:33:40.
