data_PCOD9110478
_publ_section_title
;
Structure prediction by ZEFSAII (Michael W. Deem and Ramdas Pophale) SiO2 
 PCOD9110478
Probable space group: P -1
;
_chemical_formula_sum "Si O2"
_cell_formula_units_Z 14
_cell_length_a 10.317122
_cell_length_b 6.632087
_cell_length_c 13.831038
_cell_angle_alpha 131.663709
_cell_angle_beta 123.122381
_cell_angle_gamma 69.453243
_cell_volume 592.001380
_symmetry_space_group_name_H-M "P -1"
_symmetry_group_IT_number 2
_symmetry_cell_setting 'triclinic'
loop_
_space_group_symop_operation_xyz
x,y,z
-x,-y,-z
loop_
_atom_site_type_symbol
_atom_site_label
_atom_site_fract_x
_atom_site_fract_y
_atom_site_fract_z
Si Si1 0.837948 0.260816 0.667227
Si Si2 0.723205 0.831528 0.786331
Si Si3 0.464435 0.003907 0.598958
Si Si4 0.166324 0.628626 0.081799
Si Si5 0.513365 0.024292 0.109871
Si Si6 0.193847 0.212300 0.796881
Si Si7 0.564920 0.504705 0.120346
O O1 0.831041 0.576844 0.739376
O O2 0.712671 0.103072 0.501332
O O3 0.783813 0.261294 0.757727
O O4 0.012465 0.157872 0.699605
O O5 0.584959 0.823169 0.648882
O O6 0.628706 0.829437 0.848376
O O7 0.820274 0.107917 0.896626
O O8 0.500000 0.000000 0.500000
O O9 0.482125 0.297149 0.747563
O O10 0.234142 0.386659 0.967218
O O11 0.000000 0.500000 0.000000
O O12 0.545142 0.206671 0.077414
O O13 0.691400 0.039092 0.228252
O O14 0.487329 0.716417 0.065715
O O15 0.255248 0.413379 0.802269
#
# Coordination Sequence:
#
# PCOD9110478 Si02
#       7
#     2   2   2   2   2   2   2
#     4  11  26  39  66  99 138 182 221 281 347 397
#     4  12  22  44  68 100 136 178 233 280 333 411
#     4  12  24  42  70  96 135 185 230 277 340 409
#     4  10  21  40  65 100 136 172 220 281 340 399
#     4  11  22  39  72 100 129 175 231 283 332 407
#     4  10  20  42  62  94 133 174 219 274 342 390
#     4  10  20  42  68  89 127 178 222 275 336 394
#
# _framework density 23.648595
#
# number of rings (size 3 to 8) (size 9 to 14) (size 15 to 20)
#    0.000    1.143    5.714    2.143    2.000    2.857 
#    5.143    0.000    0.000    1.714    0.000    0.000 
#    0.000    0.000    0.000    0.000    0.000    0.000 
#
# Total GULP energy -78064.376154 kJ/mol
# GULP energy per Si atom -5576.026868 kJ/mol
# Density = 2.359477 g / cm^3
# Si number density = 23.648595 Si / 1000 Ang^3
#
#
#
# Elastic Constant Matrix: (Units=GPa)
#
#
# Indices 1 2 3 4 5 6 
#
# 1 127.4967 40.3791 23.6573 -8.5467 13.0145 13.1272
# 2 40.3791 113.5467 35.4910 -3.6084 7.7030 20.3954
# 3 23.6573 35.4910 93.6687 -11.6978 6.6633 9.3654
# 4 -8.5467 -3.6084 -11.6978 32.5433 3.3675 -5.8253
# 5 13.0145 7.7030 6.6633 3.3675 44.4649 -10.0375
# 6 13.1272 20.3954 9.3654 -5.8253 -10.0375 49.4125
#
#
#
# Elastic Compliance Matrix: (Units=1/GPa)
#
#
# Indices 1 2 3 4 5 6 
#
# 1 0.009366 -0.002546 -0.000815 0.001874 -0.002683 -0.001607
# 2 -0.002546 0.011533 -0.003370 -0.001139 -0.001540 -0.003892
# 3 -0.000815 -0.003370 0.012845 0.004072 -0.001561 -0.000664
# 4 0.001874 -0.001139 0.004072 0.033313 -0.002912 0.002536
# 5 -0.002683 -0.001540 -0.001561 -0.002912 0.025457 0.006472
# 6 -0.001607 -0.003892 -0.000664 0.002536 0.006472 0.024011
#
#
# Mechanical properties :
#
#
# Convention : Reuss Voigt Hill
#
# Bulk Modulus (GPa) = 49.30715 59.30743 54.30729
# Shear Modulus (GPa) = 36.56360 40.96312 38.76336
#
# Velocity S-wave (km/s) = 3.93634 4.16644 4.05302
# Velocity P-wave (km/s) = 6.44631 6.94828 6.70200
#
# Compressibility (1/GPa) = 0.02028104
#
# Stress axis : x y z
#
# Youngs Moduli (GPa) = 106.77172 86.70651 77.85256
#
# Poissons Ratio (x) = 0.22072 0.06348
# Poissons Ratio (y) = 0.27179 0.26240
# Poissons Ratio (z) = 0.08706 0.29224
#
# Static dielectric constant tensor:
#      x y z
#    x 1.922340 0.034540 0.006120 
#    y 0.034540 1.983530 -0.000620 
#    z 0.006120 -0.000620 1.909750 
# 
# From -- ./inp_files/364693.got.cif
#   From: 2010.05.17/outbox.cif.g08.bks.cpg/sg2_183_cif.got.tgz:364693.got - 2010.06.03 11:33:40.
