data_PCOD9110944
_publ_section_title
;
Structure prediction by ZEFSAII (Michael W. Deem and Ramdas Pophale) SiO2 
 PCOD9110944
Probable space group: P -1
;
_chemical_formula_sum "Si O2"
_cell_formula_units_Z 16
_cell_length_a 8.404121
_cell_length_b 19.494394
_cell_length_c 6.251249
_cell_angle_alpha 94.991902
_cell_angle_beta 123.432860
_cell_angle_gamma 58.863170
_cell_volume 702.933890
_symmetry_space_group_name_H-M "P -1"
_symmetry_group_IT_number 2
_symmetry_cell_setting 'triclinic'
loop_
_space_group_symop_operation_xyz
x,y,z
-x,-y,-z
loop_
_atom_site_type_symbol
_atom_site_label
_atom_site_fract_x
_atom_site_fract_y
_atom_site_fract_z
Si Si1 0.163049 0.881938 0.661954
Si Si2 0.248700 0.445210 0.046149
Si Si3 0.544434 0.853117 0.235241
Si Si4 0.872441 0.400156 0.185675
Si Si5 0.643228 0.673619 0.278470
Si Si6 0.341244 0.641550 0.335172
Si Si7 0.188140 0.962989 0.315902
Si Si8 0.921789 0.250904 0.455707
O O1 0.177753 0.894926 0.426101
O O2 0.197210 0.795284 0.720743
O O3 0.360780 0.889908 0.915526
O O4 0.913354 0.957908 0.582446
O O5 0.452864 0.416507 0.360454
O O6 0.268396 0.499540 0.887259
O O7 0.286500 0.366547 0.919341
O O8 0.000000 0.500000 0.000000
O O9 0.561940 0.768200 0.270523
O O10 0.433462 0.916635 0.368355
O O11 0.806052 0.818754 0.371856
O O12 0.858245 0.335377 0.309600
O O13 0.128291 0.374691 0.417875
O O14 0.802060 0.389221 0.894237
O O15 0.458407 0.661272 0.241709
O O16 0.157308 0.721994 0.354446
O O17 0.000000 0.000000 0.000000
#
# Coordination Sequence:
#
# PCOD9110944 Si02
#       8
#     2   2   2   2   2   2   2   2
#     4  10  20  42  67  95 132 171 210 263 326 381
#     4  12  26  45  69  93 130 178 226 283 338 391
#     4  10  22  40  65  95 131 170 215 267 320 390
#     4  11  26  44  66  96 130 173 226 278 331 397
#     4  11  25  45  67  95 132 174 226 275 336 396
#     4  12  25  42  67  96 129 179 222 282 332 393
#     4   9  20  40  69  97 129 170 212 259 318 390
#     4  11  26  41  65 100 134 171 222 269 327 393
#
# _framework density 22.761741000000001
#
# number of rings (size 3 to 8) (size 9 to 14) (size 15 to 20)
#    0.000    1.250    1.250    3.750    3.500    6.500 
#    0.000    5.625    0.000    0.000    0.000    0.000 
#    0.000    0.000    0.000    0.000    0.000    0.000 
#
# Total GULP energy -89251.359707 kJ/mol
# GULP energy per Si atom -5578.209982 kJ/mol
# Density = 2.270993 g / cm^3
# Si number density = 22.761741 Si / 1000 Ang^3
#
#
#
# Elastic Constant Matrix: (Units=GPa)
#
#
# Indices 1 2 3 4 5 6 
#
# 1 97.8206 29.7664 29.8114 6.4071 -2.1095 -25.0280
# 2 29.7664 58.1982 8.4886 -1.6124 -7.9476 -17.1377
# 3 29.8114 8.4886 99.5920 -3.2868 9.2445 -12.9562
# 4 6.4071 -1.6124 -3.2868 31.2468 11.5990 -5.1539
# 5 -2.1095 -7.9476 9.2445 11.5990 29.4611 -3.5480
# 6 -25.0280 -17.1377 -12.9562 -5.1539 -3.5480 52.2764
#
#
#
# Elastic Compliance Matrix: (Units=1/GPa)
#
#
# Indices 1 2 3 4 5 6 
#
# 1 0.014316 -0.005338 -0.003703 -0.003980 0.002794 0.003983
# 2 -0.005338 0.022308 -0.000151 0.000875 0.005966 0.005212
# 3 -0.003703 -0.000151 0.011979 0.004290 -0.005611 0.001189
# 4 -0.003980 0.000875 0.004290 0.039940 -0.016850 0.002238
# 5 0.002794 0.005966 -0.005611 -0.016850 0.044540 0.003265
# 6 0.003983 0.005212 0.001189 0.002238 0.003265 0.023482
#
#
# Mechanical properties :
#
#
# Convention : Reuss Voigt Hill
#
# Bulk Modulus (GPa) = 33.08928 43.52708 38.30818
# Shear Modulus (GPa) = 27.02398 35.09983 31.06190
#
# Velocity S-wave (km/s) = 3.44939 3.93116 3.69813
# Velocity P-wave (km/s) = 5.51663 6.30633 5.92465
#
# Compressibility (1/GPa) = 0.03022127
#
# Stress axis : x y z
#
# Youngs Moduli (GPa) = 69.85404 44.82626 83.47785
#
# Poissons Ratio (x) = 0.23927 0.30909
# Poissons Ratio (y) = 0.37285 0.01257
# Poissons Ratio (z) = 0.25865 0.00675
#
# Static dielectric constant tensor:
#      x y z
#    x 1.877890 0.012390 0.007970 
#    y 0.012390 1.863590 -0.023970 
#    z 0.007970 -0.023970 1.885420 
# 
# From -- ./inp_files/53324.got.cif
#   From: 2010.05.17/outbox.cif.g08.bks.cpg/sg2_27_cif.got.tgz:53324.got - 2010.06.03 11:33:40.
