data_PCOD9110320
_publ_section_title
;
Structure prediction by ZEFSAII (Michael W. Deem and Ramdas Pophale) SiO2 
 PCOD9110320
Probable space group: P -1
;
_chemical_formula_sum "Si O2"
_cell_formula_units_Z 16
_cell_length_a 7.680724
_cell_length_b 12.323383
_cell_length_c 11.389788
_cell_angle_alpha 47.090641
_cell_angle_beta 67.790128
_cell_angle_gamma 55.703865
_cell_volume 652.300580
_symmetry_space_group_name_H-M "P -1"
_symmetry_group_IT_number 2
_symmetry_cell_setting 'triclinic'
loop_
_space_group_symop_operation_xyz
x,y,z
-x,-y,-z
loop_
_atom_site_type_symbol
_atom_site_label
_atom_site_fract_x
_atom_site_fract_y
_atom_site_fract_z
Si Si1 0.318684 0.478169 0.904461
Si Si2 0.267161 0.044161 0.071070
Si Si3 0.926438 0.817630 0.744842
Si Si4 0.935901 0.199118 0.660444
Si Si5 0.749371 0.021895 0.417166
Si Si6 0.374901 0.356303 0.232299
Si Si7 0.315815 0.491538 0.626925
Si Si8 0.013006 0.356621 0.751171
O O1 0.476588 0.556219 0.837881
O O2 0.364022 0.424127 0.796882
O O3 0.080695 0.623713 0.856571
O O4 0.347528 0.361178 0.094646
O O5 0.781857 0.614088 0.336131
O O6 0.235508 0.117909 0.154843
O O7 0.500000 0.000000 0.000000
O O8 0.088162 0.191815 0.932096
O O9 0.088749 0.897691 0.663911
O O10 0.803764 0.890358 0.603563
O O11 0.793400 0.108135 0.796022
O O12 0.849018 0.313223 0.482458
O O13 0.933430 0.316700 0.679829
O O14 0.172145 0.065695 0.664480
O O15 0.515074 0.168888 0.376913
O O16 0.157435 0.478233 0.261721
O O17 0.500000 0.500000 0.500000
#
# Coordination Sequence:
#
# PCOD9110320 Si02
#       8
#     2   2   2   2   2   2   2   2
#     4  10  20  41  73 103 144 189 244 296 368 434
#     4  11  24  45  72 108 145 197 244 298 367 442
#     4   9  17  39  71 101 143 187 249 293 355 436
#     4  11  24  46  74 104 150 194 240 304 366 430
#     4   9  19  39  73 106 140 191 240 301 363 432
#     4  10  22  41  74 111 142 185 240 307 369 436
#     4  12  26  47  74 104 144 197 246 300 368 442
#     4  12  26  48  71 107 150 190 246 308 367 433
#
# _framework density 24.528569999999998
#
# number of rings (size 3 to 8) (size 9 to 14) (size 15 to 20)
#    0.000    1.500    2.500    2.250    3.500    0.500 
#    9.000    0.625    0.000    0.000    0.000    0.000 
#    0.000    0.000    0.000    0.000    0.000    0.000 
#
# Total GULP energy -89574.874442 kJ/mol
# GULP energy per Si atom -5598.429653 kJ/mol
# Density = 2.447274 g / cm^3
# Si number density = 24.528570 Si / 1000 Ang^3
#
#
#
# Elastic Constant Matrix: (Units=GPa)
#
#
# Indices 1 2 3 4 5 6 
#
# 1 122.3266 28.4097 33.4420 18.0238 -1.9786 -1.2445
# 2 28.4097 119.0265 54.6342 19.3268 18.6540 -11.6246
# 3 33.4420 54.6342 155.0567 1.2703 4.8807 1.4179
# 4 18.0238 19.3268 1.2703 43.1906 1.4493 0.7098
# 5 -1.9786 18.6540 4.8807 1.4493 32.7083 -2.8774
# 6 -1.2445 -11.6246 1.4179 0.7098 -2.8774 30.8958
#
#
#
# Elastic Compliance Matrix: (Units=1/GPa)
#
#
# Indices 1 2 3 4 5 6 
#
# 1 0.009431 -0.001176 -0.001646 -0.003421 0.001660 0.000246
# 2 -0.001176 0.012739 -0.004043 -0.004959 -0.006120 0.004475
# 3 -0.001646 -0.004043 0.008206 0.002263 0.000710 -0.001950
# 4 -0.003421 -0.004959 0.002263 0.026748 0.000866 -0.002641
# 5 0.001660 -0.006120 0.000710 0.000866 0.034098 0.000887
# 6 0.000246 0.004475 -0.001950 -0.002641 0.000887 0.034293
#
#
# Mechanical properties :
#
#
# Convention : Reuss Voigt Hill
#
# Bulk Modulus (GPa) = 60.07361 69.93130 65.00246
# Shear Modulus (GPa) = 34.53185 40.02053 37.27619
#
# Velocity S-wave (km/s) = 3.75617 4.04367 3.90257
# Velocity P-wave (km/s) = 6.58454 7.09745 6.84580
#
# Compressibility (1/GPa) = 0.01664624
#
# Stress axis : x y z
#
# Youngs Moduli (GPa) = 106.02843 78.49763 121.86692
#
# Poissons Ratio (x) = 0.09233 0.20061
# Poissons Ratio (y) = 0.12471 0.49267
# Poissons Ratio (z) = 0.17454 0.31734
#
# Static dielectric constant tensor:
#      x y z
#    x 1.988480 -0.009760 -0.009670 
#    y -0.009760 1.977530 -0.034360 
#    z -0.009670 -0.034360 1.946520 
# 
# From -- ./inp_files/397173.got.cif
#   From: 2010.05.17/outbox.cif.g08.bks.cpg/sg2_199_cif.got.tgz:397173.got - 2010.06.03 11:33:40.
