data_PCOD9110029
_publ_section_title
;
Structure prediction by ZEFSAII (Michael W. Deem and Ramdas Pophale) SiO2 
 PCOD9110029
Probable space group: P -1
;
_chemical_formula_sum "Si O2"
_cell_formula_units_Z 16
_cell_length_a 29.266460
_cell_length_b 5.544466
_cell_length_c 9.508296
_cell_angle_alpha 76.443301
_cell_angle_beta 34.720669
_cell_angle_gamma 62.927173
_cell_volume 752.238353
_symmetry_space_group_name_H-M "P -1"
_symmetry_group_IT_number 2
_symmetry_cell_setting 'triclinic'
loop_
_space_group_symop_operation_xyz
x,y,z
-x,-y,-z
loop_
_atom_site_type_symbol
_atom_site_label
_atom_site_fract_x
_atom_site_fract_y
_atom_site_fract_z
Si Si1 0.653135 0.954751 0.381711
Si Si2 0.216724 0.596856 0.983538
Si Si3 0.040750 0.674807 0.032582
Si Si4 0.850224 0.015662 0.388635
Si Si5 0.034306 0.723831 0.353474
Si Si6 0.719143 0.273197 0.940064
Si Si7 0.206314 0.072046 0.751955
Si Si8 0.476990 0.251509 0.640751
O O1 0.704317 0.929877 0.403796
O O2 0.544281 0.114097 0.621784
O O3 0.687927 0.104591 0.154219
O O4 0.686911 0.640357 0.281969
O O5 0.141091 0.519767 0.138877
O O6 0.218710 0.637615 0.136527
O O7 0.189227 0.879818 0.931031
O O8 0.015317 0.830794 0.226977
O O9 0.099842 0.788606 0.779555
O O10 0.944035 0.721241 0.210189
O O11 0.115613 0.365640 0.929002
O O12 0.780708 0.089965 0.682616
O O13 0.791064 0.046068 0.394948
O O14 0.000000 0.500000 0.500000
O O15 0.000000 0.000000 0.500000
O O16 0.630293 0.563687 0.082124
O O17 0.500000 0.500000 0.500000
O O18 0.500000 0.000000 0.500000
#
# Coordination Sequence:
#
# PCOD9110029 Si02
#       8
#     2   2   2   2   2   2   2   2
#     4  10  21  38  67  97 122 168 214 275 330 390
#     4  11  21  39  64  89 128 166 220 271 326 381
#     4  11  24  41  60  88 130 178 221 267 332 386
#     4  11  24  41  61  87 133 179 220 265 333 396
#     4  12  25  39  63  93 128 164 224 279 319 376
#     4  10  23  40  65 100 127 166 223 270 328 398
#     4  11  21  42  62  88 129 178 222 265 330 398
#     4  10  20  41  69 102 136 166 211 281 344 389
#
# _framework density 21.269853999999999
#
# number of rings (size 3 to 8) (size 9 to 14) (size 15 to 20)
#    0.000    1.250    3.750    1.875    3.500    1.000 
#    0.000    0.625    0.000    3.000    0.000    0.000 
#    0.000    0.000    0.000    0.000    0.000    0.000 
#
# Total GULP energy -89152.411350 kJ/mol
# GULP energy per Si atom -5572.025709 kJ/mol
# Density = 2.122144 g / cm^3
# Si number density = 21.269854 Si / 1000 Ang^3
#
#
#
# Elastic Constant Matrix: (Units=GPa)
#
#
# Indices 1 2 3 4 5 6 
#
# 1 156.0419 20.7868 43.5418 9.6956 -2.7117 -28.8014
# 2 20.7868 84.5506 19.4730 19.5783 -13.5578 -11.8090
# 3 43.5418 19.4730 66.1509 10.7044 1.0361 -16.7594
# 4 9.6956 19.5783 10.7044 24.8080 -5.8446 -10.0057
# 5 -2.7117 -13.5578 1.0361 -5.8446 21.6504 11.7749
# 6 -28.8014 -11.8090 -16.7594 -10.0057 11.7749 36.4539
#
#
#
# Elastic Compliance Matrix: (Units=1/GPa)
#
#
# Indices 1 2 3 4 5 6 
#
# 1 0.008606 -0.000938 -0.004099 0.000884 -0.002080 0.005526
# 2 -0.000938 0.016194 -0.003355 -0.009928 0.008946 -0.002653
# 3 -0.004099 -0.003355 0.021430 -0.004139 -0.008668 0.007191
# 4 0.000884 -0.009928 -0.004139 0.054188 0.003682 0.009264
# 5 -0.002080 0.008946 -0.008668 0.003682 0.065356 -0.022830
# 6 0.005526 -0.002653 0.007191 0.009264 -0.022830 0.044161
#
#
# Mechanical properties :
#
#
# Convention : Reuss Voigt Hill
#
# Bulk Modulus (GPa) = 33.96189 52.70515 43.33352
# Shear Modulus (GPa) = 21.13857 31.44527 26.29192
#
# Velocity S-wave (km/s) = 3.15592 3.84916 3.51965
# Velocity P-wave (km/s) = 5.41125 6.67741 6.07739
#
# Compressibility (1/GPa) = 0.02944477
#
# Stress axis : x y z
#
# Youngs Moduli (GPa) = 116.19628 61.75315 46.66363
#
# Poissons Ratio (x) = 0.05794 0.19128
# Poissons Ratio (y) = 0.10902 0.15656
# Poissons Ratio (z) = 0.47630 0.20718
#
# Static dielectric constant tensor:
#      x y z
#    x 1.871410 0.031850 -0.022950 
#    y 0.031850 1.804980 -0.053120 
#    z -0.022950 -0.053120 1.724230 
# 
# From -- ./inp_files/137817.got.cif
#   From: 2010.05.17/outbox.cif.g08.bks.cpg/sg2_69_cif.got.tgz:137817.got - 2010.06.03 11:33:40.
