data_PCOD9110284
_publ_section_title
;
Structure prediction by ZEFSAII (Michael W. Deem and Ramdas Pophale) SiO2 
 PCOD9110284
Probable space group: P -1
;
_chemical_formula_sum "Si O2"
_cell_formula_units_Z 16
_cell_length_a 18.429646
_cell_length_b 7.648063
_cell_length_c 12.212146
_cell_angle_alpha 75.703895
_cell_angle_beta 37.117012
_cell_angle_gamma 50.087323
_cell_volume 653.581417
_symmetry_space_group_name_H-M "P -1"
_symmetry_group_IT_number 2
_symmetry_cell_setting 'triclinic'
loop_
_space_group_symop_operation_xyz
x,y,z
-x,-y,-z
loop_
_atom_site_type_symbol
_atom_site_label
_atom_site_fract_x
_atom_site_fract_y
_atom_site_fract_z
Si Si1 0.892191 0.854870 0.949290
Si Si2 0.925764 0.084578 0.698857
Si Si3 0.719801 0.239134 0.528023
Si Si4 0.282336 0.703927 0.723084
Si Si5 0.318905 0.324602 0.472893
Si Si6 0.330200 0.241339 0.790603
Si Si7 0.750229 0.824870 0.632449
Si Si8 0.807299 0.597526 0.822440
O O1 0.849375 0.988620 0.859142
O O2 0.828382 0.074454 0.080907
O O3 0.783614 0.796577 0.111428
O O4 0.110297 0.565916 0.731602
O O5 0.798877 0.402311 0.819129
O O6 0.000000 0.000000 0.500000
O O7 0.103387 0.921849 0.585588
O O8 0.777878 0.157017 0.344534
O O9 0.605229 0.555652 0.628781
O O10 0.652118 0.122209 0.667253
O O11 0.500000 0.500000 0.500000
O O12 0.270615 0.501858 0.776639
O O13 0.451304 0.048400 0.428547
O O14 0.302376 0.268324 0.377661
O O15 0.285762 0.289538 0.966277
O O16 0.718543 0.816730 0.798758
O O17 0.975312 0.596034 0.392334
#
# Coordination Sequence:
#
# PCOD9110284 Si02
#       8
#     2   2   2   2   2   2   2   2
#     4  11  25  47  76 106 146 200 242 303 374 432
#     4  10  21  42  75 111 146 189 246 303 369 443
#     4  10  24  42  70 103 142 195 240 294 367 438
#     4  12  27  51  73 104 155 196 248 312 360 439
#     4  11  24  44  69 106 146 183 246 302 365 436
#     4  12  26  46  73 110 144 194 249 300 368 443
#     4  10  21  42  70 105 142 191 240 304 368 436
#     4  10  20  41  72 103 146 190 242 300 369 439
#
# _framework density 24.480498999999998
#
# number of rings (size 3 to 8) (size 9 to 14) (size 15 to 20)
#    0.000    1.250    2.500    3.000    3.500    5.500 
#    0.000    5.625    0.000    0.000    0.000    0.000 
#    0.000    0.000    0.000    0.000    0.000    0.000 
#
# Total GULP energy -89640.896856 kJ/mol
# GULP energy per Si atom -5602.556054 kJ/mol
# Density = 2.442478 g / cm^3
# Si number density = 24.480499 Si / 1000 Ang^3
#
#
#
# Elastic Constant Matrix: (Units=GPa)
#
#
# Indices 1 2 3 4 5 6 
#
# 1 87.8482 39.9706 34.5183 -6.4432 17.0191 -5.2764
# 2 39.9706 146.7669 38.3187 -22.5880 21.3229 6.8728
# 3 34.5183 38.3187 86.0411 -5.1186 0.6299 -15.2475
# 4 -6.4432 -22.5880 -5.1186 37.8492 -10.5970 7.2808
# 5 17.0191 21.3229 0.6299 -10.5970 33.6788 -5.0408
# 6 -5.2764 6.8728 -15.2475 7.2808 -5.0408 47.7318
#
#
#
# Elastic Compliance Matrix: (Units=1/GPa)
#
#
# Indices 1 2 3 4 5 6 
#
# 1 0.015691 -0.001996 -0.005475 -0.001157 -0.006970 -0.000287
# 2 -0.001996 0.009956 -0.004056 0.004619 -0.004382 -0.004117
# 3 -0.005475 -0.004056 0.016605 -0.000659 0.005713 0.005987
# 4 -0.001157 0.004619 -0.000659 0.031813 0.006916 -0.005126
# 5 -0.006970 -0.004382 0.005713 0.006916 0.038765 0.004724
# 6 -0.000287 -0.004117 0.005987 -0.005126 0.004724 0.024705
#
#
# Mechanical properties :
#
#
# Convention : Reuss Voigt Hill
#
# Bulk Modulus (GPa) = 52.08625 60.69682 56.39154
# Shear Modulus (GPa) = 29.94226 37.70853 33.82540
#
# Velocity S-wave (km/s) = 3.50109 3.92899 3.72119
# Velocity P-wave (km/s) = 6.13729 6.74020 6.44580
#
# Compressibility (1/GPa) = 0.01919892
#
# Stress axis : x y z
#
# Youngs Moduli (GPa) = 63.73167 100.43819 60.22283
#
# Poissons Ratio (x) = 0.20046 0.32969
# Poissons Ratio (y) = 0.12720 0.24427
# Poissons Ratio (z) = 0.34890 0.40739
#
# Static dielectric constant tensor:
#      x y z
#    x 1.913450 0.039080 -0.008760 
#    y 0.039080 1.986920 -0.014820 
#    z -0.008760 -0.014820 1.935010 
# 
# From -- ./inp_files/320007.got.cif
#   From: 2010.05.17/outbox.cif.g08.bks.cpg/sg2_161_cif.got.tgz:320007.got - 2010.06.03 11:33:40.
