data_PCOD9110617
_publ_section_title
;
Structure prediction by ZEFSAII (Michael W. Deem and Ramdas Pophale) SiO2 
 PCOD9110617
Probable space group: P -1
;
_chemical_formula_sum "Si O2"
_cell_formula_units_Z 12
_cell_length_a 9.194061
_cell_length_b 5.204490
_cell_length_c 11.502192
_cell_angle_alpha 105.814885
_cell_angle_beta 112.397541
_cell_angle_gamma 76.289441
_cell_volume 484.085154
_symmetry_space_group_name_H-M "P -1"
_symmetry_group_IT_number 2
_symmetry_cell_setting 'triclinic'
loop_
_space_group_symop_operation_xyz
x,y,z
-x,-y,-z
loop_
_atom_site_type_symbol
_atom_site_label
_atom_site_fract_x
_atom_site_fract_y
_atom_site_fract_z
Si Si1 0.858161 0.472392 0.209336
Si Si2 0.594798 0.607552 0.435603
Si Si3 0.687082 0.936203 0.076115
Si Si4 0.885639 0.792712 0.901003
Si Si5 0.292873 0.910543 0.332953
Si Si6 0.904117 0.280300 0.548588
O O1 0.769778 0.207951 0.150603
O O2 0.985909 0.445806 0.138491
O O3 0.970622 0.515743 0.359196
O O4 0.733684 0.739676 0.176199
O O5 0.500000 0.500000 0.500000
O O6 0.451191 0.709216 0.317292
O O7 0.250508 0.610310 0.563010
O O8 0.659665 0.871935 0.534074
O O9 0.500000 0.000000 0.000000
O O10 0.765058 0.774513 0.966432
O O11 0.786072 0.925281 0.778152
O O12 0.000000 0.000000 0.000000
O O13 0.173705 0.765243 0.354635
O O14 0.000000 0.000000 0.500000
#
# Coordination Sequence:
#
# PCOD9110617 Si02
#       6
#     2   2   2   2   2   2
#     4  11  23  46  70 101 139 184 236 286 345 433
#     4   9  20  40  64  90 133 174 232 285 344 408
#     4  11  25  47  70 105 141 177 230 294 361 415
#     4  10  21  42  73  99 129 182 228 286 345 420
#     4  10  20  42  64  95 135 175 236 285 344 420
#     4  11  23  41  65  98 138 184 233 291 349 409
#
# _framework density 24.789024999999999
#
# number of rings (size 3 to 8) (size 9 to 14) (size 15 to 20)
#    0.000    1.667    1.667    3.000    0.000    2.000 
#    9.000    0.000    0.000    0.000    0.000    0.000 
#    0.000    0.000    0.000    0.000    0.000    0.000 
#
# Total GULP energy -67079.052595 kJ/mol
# GULP energy per Si atom -5589.921050 kJ/mol
# Density = 2.473260 g / cm^3
# Si number density = 24.789025 Si / 1000 Ang^3
#
#
#
# Elastic Constant Matrix: (Units=GPa)
#
#
# Indices 1 2 3 4 5 6 
#
# 1 146.2224 54.5478 40.8227 -2.6423 22.2426 -23.6917
# 2 54.5478 140.1762 35.2882 -20.5156 34.9992 -33.1952
# 3 40.8227 35.2882 73.9333 -6.0595 27.7804 -26.2486
# 4 -2.6423 -20.5156 -6.0595 58.2240 -0.4243 22.1239
# 5 22.2426 34.9992 27.7804 -0.4243 36.4660 -5.3389
# 6 -23.6917 -33.1952 -26.2486 22.1239 -5.3389 60.1605
#
#
#
# Elastic Compliance Matrix: (Units=1/GPa)
#
#
# Indices 1 2 3 4 5 6 
#
# 1 0.008892 -0.002436 -0.003280 -0.001233 -0.000434 0.001141
# 2 -0.002436 0.011609 0.001238 0.002438 -0.009955 0.004206
# 3 -0.003280 0.001238 0.023764 -0.000609 -0.016045 0.008560
# 4 -0.001233 0.002438 -0.000609 0.020622 -0.001932 -0.007161
# 5 -0.000434 -0.009955 -0.016045 -0.001932 0.048321 -0.007666
# 6 0.001141 0.004206 0.008560 -0.007161 -0.007666 0.025081
#
#
# Mechanical properties :
#
#
# Convention : Reuss Voigt Hill
#
# Bulk Modulus (GPa) = 28.32169 69.07215 48.69692
# Shear Modulus (GPa) = 31.44393 46.28163 38.86278
#
# Velocity S-wave (km/s) = 3.56541 4.32559 3.96377
# Velocity P-wave (km/s) = 5.32911 7.27132 6.37462
#
# Compressibility (1/GPa) = 0.03530862
#
# Stress axis : x y z
#
# Youngs Moduli (GPa) = 112.45935 86.14282 42.08074
#
# Poissons Ratio (x) = 0.20988 0.13801
# Poissons Ratio (y) = 0.27400 -0.05210
# Poissons Ratio (z) = 0.36883 -0.10665
#
# Static dielectric constant tensor:
#      x y z
#    x 2.006780 -0.016910 -0.018620 
#    y -0.016910 2.001920 -0.006060 
#    z -0.018620 -0.006060 1.969940 
# 
# From -- ./inp_files/488716.got.cif
#   From: 2010.05.17/outbox.cif.g08.bks.cpg/sg2_245_cif.got.tgz:488716.got - 2010.06.03 11:33:40.
