data_PCOD9110289
_publ_section_title
;
Structure prediction by ZEFSAII (Michael W. Deem and Ramdas Pophale) SiO2 
 PCOD9110289
Probable space group: P -1
;
_chemical_formula_sum "Si O2"
_cell_formula_units_Z 16
_cell_length_a 8.936737
_cell_length_b 13.222954
_cell_length_c 10.822749
_cell_angle_alpha 116.712124
_cell_angle_beta 58.537283
_cell_angle_gamma 135.366449
_cell_volume 759.897612
_symmetry_space_group_name_H-M "P -1"
_symmetry_group_IT_number 2
_symmetry_cell_setting 'triclinic'
loop_
_space_group_symop_operation_xyz
x,y,z
-x,-y,-z
loop_
_atom_site_type_symbol
_atom_site_label
_atom_site_fract_x
_atom_site_fract_y
_atom_site_fract_z
Si Si1 0.317626 0.843822 0.118642
Si Si2 0.945125 0.379745 0.556650
Si Si3 0.889137 0.577755 0.100099
Si Si4 0.268455 0.337381 0.999530
Si Si5 0.898759 0.174389 0.272527
Si Si6 0.621944 0.440517 0.359729
Si Si7 0.557229 0.830758 0.229350
Si Si8 0.565613 0.163489 0.220864
O O1 0.479380 0.830322 0.122937
O O2 0.059158 0.718121 0.186685
O O3 0.367552 0.992163 0.215650
O O4 0.351949 0.825357 0.949953
O O5 0.970261 0.270421 0.416109
O O6 0.683179 0.274924 0.654848
O O7 0.000000 0.500000 0.500000
O O8 0.133804 0.472336 0.631287
O O9 0.658981 0.474789 0.216540
O O10 0.870047 0.632691 0.009648
O O11 0.000000 0.500000 0.000000
O O12 0.121586 0.245854 0.132636
O O13 0.500000 0.500000 0.000000
O O14 0.324622 0.242521 0.856347
O O15 0.743390 0.192562 0.262528
O O16 0.739195 0.002070 0.277231
O O17 0.500000 0.500000 0.500000
O O18 0.510769 0.271910 0.327610
#
# Coordination Sequence:
#
# PCOD9110289 Si02
#       8
#     2   2   2   2   2   2   2   2
#     4  10  20  41  72  95 123 174 217 269 328 397
#     4  12  25  44  68  90 135 182 219 264 332 402
#     4  12  23  44  69  94 130 173 225 271 328 396
#     4  12  26  40  67 105 134 167 220 287 329 382
#     4  11  23  44  68  95 135 176 222 269 332 400
#     4  12  27  43  64 100 133 175 220 277 330 393
#     4  11  25  43  68  99 131 175 221 274 337 391
#     4  10  21  41  69  97 129 168 220 271 331 392
#
# _framework density 21.055468999999999
#
# number of rings (size 3 to 8) (size 9 to 14) (size 15 to 20)
#    0.000    0.750    5.000    2.250    3.500    0.000 
#    2.250    0.625    0.000    0.000    0.000    0.000 
#    0.000    0.000    0.000    0.000    0.000    0.000 
#
# Total GULP energy -89281.738359 kJ/mol
# GULP energy per Si atom -5580.108647 kJ/mol
# Density = 2.100755 g / cm^3
# Si number density = 21.055469 Si / 1000 Ang^3
#
#
#
# Elastic Constant Matrix: (Units=GPa)
#
#
# Indices 1 2 3 4 5 6 
#
# 1 39.1040 43.2050 8.3435 11.8123 -5.4865 -0.3567
# 2 43.2050 155.0158 41.2693 12.2806 -14.5355 -3.9291
# 3 8.3435 41.2693 85.0286 5.5969 -22.7631 -7.7336
# 4 11.8123 12.2806 5.5969 37.2269 1.4072 -1.4861
# 5 -5.4865 -14.5355 -22.7631 1.4072 37.8068 4.2603
# 6 -0.3567 -3.9291 -7.7336 -1.4861 4.2603 29.7472
#
#
#
# Elastic Compliance Matrix: (Units=1/GPa)
#
#
# Indices 1 2 3 4 5 6 
#
# 1 0.040610 -0.010977 0.002939 -0.009906 0.003953 -0.001260
# 2 -0.010977 0.010547 -0.004072 0.000627 -0.000040 0.000240
# 3 0.002939 -0.004072 0.016042 -0.002222 0.008336 0.002363
# 4 -0.009906 0.000627 -0.002222 0.030335 -0.003827 0.001450
# 5 0.003953 -0.000040 0.008336 -0.003827 0.032466 -0.002632
# 6 -0.001260 0.000240 0.002363 0.001450 -0.002632 0.034697
#
#
# Mechanical properties :
#
#
# Convention : Reuss Voigt Hill
#
# Bulk Modulus (GPa) = 23.26821 51.64267 37.45544
# Shear Modulus (GPa) = 24.60087 33.37822 28.98955
#
# Velocity S-wave (km/s) = 3.42187 3.98584 3.71458
# Velocity P-wave (km/s) = 5.16596 6.76482 6.01872
#
# Compressibility (1/GPa) = 0.04297709
#
# Stress axis : x y z
#
# Youngs Moduli (GPa) = 24.62444 94.81101 62.33796
#
# Poissons Ratio (x) = 1.04078 -0.18320
# Poissons Ratio (y) = 0.27031 0.25386
# Poissons Ratio (z) = -0.07237 0.38609
#
# Static dielectric constant tensor:
#      x y z
#    x 2.024130 0.017430 -0.002670 
#    y 0.017430 1.827860 -0.044580 
#    z -0.002670 -0.044580 1.759890 
# 
# From -- ./inp_files/390945.got.cif
#   From: 2010.05.17/outbox.cif.g08.bks.cpg/sg2_196_cif.got.tgz:390945.got - 2010.06.03 11:33:40.
