data_PCOD9110702
_publ_section_title
;
Structure prediction by ZEFSAII (Michael W. Deem and Ramdas Pophale) SiO2 
 PCOD9110702
Probable space group: P -1
;
_chemical_formula_sum "Si O2"
_cell_formula_units_Z 16
_cell_length_a 12.306285
_cell_length_b 16.527173
_cell_length_c 18.747531
_cell_angle_alpha 20.759696
_cell_angle_beta 38.777196
_cell_angle_gamma 29.681182
_cell_volume 657.448017
_symmetry_space_group_name_H-M "P -1"
_symmetry_group_IT_number 2
_symmetry_cell_setting 'triclinic'
loop_
_space_group_symop_operation_xyz
x,y,z
-x,-y,-z
loop_
_atom_site_type_symbol
_atom_site_label
_atom_site_fract_x
_atom_site_fract_y
_atom_site_fract_z
Si Si1 0.093918 0.662708 0.190181
Si Si2 0.579589 0.298871 0.452364
Si Si3 0.691838 0.723556 0.040461
Si Si4 0.454161 0.503368 0.936521
Si Si5 0.819464 0.655833 0.863217
Si Si6 0.627664 0.619509 0.360889
Si Si7 0.867929 0.239731 0.762661
Si Si8 0.088840 0.171863 0.553309
O O1 0.303021 0.660059 0.085369
O O2 0.025425 0.704362 0.273284
O O3 0.168464 0.363271 0.366821
O O4 0.907496 0.941345 0.008551
O O5 0.651467 0.496373 0.271017
O O6 0.443498 0.301266 0.585366
O O7 0.391416 0.481188 0.338691
O O8 0.777261 0.957711 0.619022
O O9 0.918879 0.622702 0.044913
O O10 0.748546 0.669376 0.970957
O O11 0.482796 0.065578 0.876950
O O12 0.286658 0.832613 0.719339
O O13 0.500000 0.500000 0.000000
O O14 0.336872 0.363571 0.091987
O O15 0.500000 0.500000 0.500000
O O16 0.891331 0.353781 0.446261
O O17 0.981924 0.184307 0.673819
#
# Coordination Sequence:
#
# PCOD9110702 Si02
#       8
#     2   2   2   2   2   2   2   2
#     4  11  23  41  64  89 123 171 215 257 313 374
#     4  10  21  38  65  93 121 164 213 257 318 379
#     4  10  20  42  65  94 121 162 219 260 315 378
#     4  12  25  43  60  91 136 169 211 263 321 377
#     4  10  23  40  63  89 129 166 208 269 312 374
#     4  10  22  40  63  93 129 160 203 267 321 372
#     4  10  22  39  64  92 122 159 216 263 309 372
#     4  11  23  42  63  91 126 167 211 259 319 377
#
# _framework density 24.336525000000002
#
# number of rings (size 3 to 8) (size 9 to 14) (size 15 to 20)
#    0.000    1.500    1.250    3.375    1.750    5.500 
#    4.500    0.000    0.000    0.000    0.000    0.000 
#    0.000    0.000    0.000    0.000    0.000    0.000 
#
# Total GULP energy -89501.525600 kJ/mol
# GULP energy per Si atom -5593.845350 kJ/mol
# Density = 2.428113 g / cm^3
# Si number density = 24.336525 Si / 1000 Ang^3
#
#
#
# Elastic Constant Matrix: (Units=GPa)
#
#
# Indices 1 2 3 4 5 6 
#
# 1 69.7180 6.4246 -12.7808 -3.1019 4.1454 -12.3073
# 2 6.4246 60.4907 21.4951 -19.6470 17.5661 -7.9415
# 3 -12.7808 21.4951 88.0840 -25.1478 -5.4370 -1.2465
# 4 -3.1019 -19.6470 -25.1478 42.5337 -1.3255 9.5452
# 5 4.1454 17.5661 -5.4370 -1.3255 42.8668 5.0917
# 6 -12.3073 -7.9415 -1.2465 9.5452 5.0917 32.0733
#
#
#
# Elastic Compliance Matrix: (Units=1/GPa)
#
#
# Indices 1 2 3 4 5 6 
#
# 1 0.016168 -0.001283 0.002930 0.000946 -0.001341 0.005932
# 2 -0.001283 0.024426 -0.004779 0.006892 -0.010878 0.005046
# 3 0.002930 -0.004779 0.015388 0.007780 0.004157 -0.002436
# 4 0.000946 0.006892 0.007780 0.033036 -0.000022 -0.007456
# 5 -0.001341 -0.010878 0.004157 -0.000022 0.029356 -0.007700
# 6 0.005932 0.005046 -0.002436 -0.007456 -0.007700 0.038051
#
#
# Mechanical properties :
#
#
# Convention : Reuss Voigt Hill
#
# Bulk Modulus (GPa) = 20.11358 27.61894 23.86626
# Shear Modulus (GPa) = 27.89241 37.03835 32.46538
#
# Velocity S-wave (km/s) = 3.38910 3.90542 3.65638
# Velocity P-wave (km/s) = 4.85772 5.63114 5.25867
#
# Compressibility (1/GPa) = 0.04971765
#
# Stress axis : x y z
#
# Youngs Moduli (GPa) = 61.85112 40.94054 64.98766
#
# Poissons Ratio (x) = 0.05252 -0.19043
# Poissons Ratio (y) = 0.07935 0.31058
# Poissons Ratio (z) = -0.18124 0.19566
#
# Static dielectric constant tensor:
#      x y z
#    x 1.962000 0.024690 0.042730 
#    y 0.024690 1.940350 0.027630 
#    z 0.042730 0.027630 1.967380 
# 
# From -- ./inp_files/101293.got.cif
#   From: 2010.05.17/outbox.cif.g08.bks.cpg/sg2_51_cif.got.tgz:101293.got - 2010.06.03 11:33:40.
