data_PCOD9110008
_publ_section_title
;
Structure prediction by ZEFSAII (Michael W. Deem and Ramdas Pophale) SiO2 
 PCOD9110008
Probable space group: P -1
;
_chemical_formula_sum "Si O2"
_cell_formula_units_Z 14
_cell_length_a 21.740026
_cell_length_b 11.671278
_cell_length_c 14.973910
_cell_angle_alpha 28.972283
_cell_angle_beta 159.061952
_cell_angle_gamma 152.466936
_cell_volume 602.069003
_symmetry_space_group_name_H-M "P -1"
_symmetry_group_IT_number 2
_symmetry_cell_setting 'triclinic'
loop_
_space_group_symop_operation_xyz
x,y,z
-x,-y,-z
loop_
_atom_site_type_symbol
_atom_site_label
_atom_site_fract_x
_atom_site_fract_y
_atom_site_fract_z
Si Si1 0.981395 0.116357 0.273294
Si Si2 0.788535 0.816862 0.868056
Si Si3 0.342298 0.756385 0.583194
Si Si4 0.314088 0.089826 0.828706
Si Si5 0.653402 0.415458 0.807343
Si Si6 0.943307 0.362806 0.885930
Si Si7 0.367808 0.400564 0.015689
O O1 0.078073 0.408491 0.242974
O O2 0.808161 0.970281 0.203942
O O3 0.150366 0.026241 0.575681
O O4 0.913242 0.133533 0.070529
O O5 0.713039 0.553591 0.889280
O O6 0.654164 0.971667 0.563352
O O7 0.779432 0.755079 0.002680
O O8 0.000000 0.000000 0.000000
O O9 0.183335 0.682013 0.342247
O O10 0.300494 0.548612 0.747792
O O11 0.526058 0.756645 0.782788
O O12 0.407964 0.890396 0.072529
O O13 0.468576 0.374776 0.858700
O O14 0.500000 0.500000 0.500000
O O15 0.841907 0.531579 0.925002
#
# Coordination Sequence:
#
# PCOD9110008 Si02
#       7
#     2   2   2   2   2   2   2
#     4   9  20  37  70 101 134 178 230 302 359 407
#     4  12  27  49  69 105 148 197 235 288 369 438
#     4  11  24  48  70 107 138 190 243 296 357 423
#     4  10  21  43  67 108 138 178 243 302 352 424
#     4  11  25  44  68 102 144 187 241 285 360 443
#     4  10  20  41  68  99 140 181 232 292 355 423
#     4  11  26  45  77 104 140 188 250 304 347 426
#
# _framework density 23.253147999999999
#
# number of rings (size 3 to 8) (size 9 to 14) (size 15 to 20)
#    0.000    1.429    2.857    1.286    2.000    5.714 
#    2.571    0.000    0.000    0.000    0.000    0.000 
#    0.000    0.000    0.000    0.000    0.000    0.000 
#
# Total GULP energy -78341.862698 kJ/mol
# GULP energy per Si atom -5595.847336 kJ/mol
# Density = 2.320022 g / cm^3
# Si number density = 23.253148 Si / 1000 Ang^3
#
#
#
# Elastic Constant Matrix: (Units=GPa)
#
#
# Indices 1 2 3 4 5 6 
#
# 1 118.9081 38.6963 46.4784 -2.3425 -13.8351 14.9776
# 2 38.6963 61.4999 23.3180 4.8771 3.0800 -4.0698
# 3 46.4784 23.3180 116.5319 -6.8917 -1.1997 -1.2714
# 4 -2.3425 4.8771 -6.8917 32.9299 -15.3709 1.1074
# 5 -13.8351 3.0800 -1.1997 -15.3709 29.9531 -15.5420
# 6 14.9776 -4.0698 -1.2714 1.1074 -15.5420 42.5594
#
#
#
# Elastic Compliance Matrix: (Units=1/GPa)
#
#
# Indices 1 2 3 4 5 6 
#
# 1 0.014050 -0.008591 -0.003490 0.005684 0.008670 -0.002852
# 2 -0.008591 0.023813 -0.001992 -0.009527 -0.010533 0.001642
# 3 -0.003490 -0.001992 0.010576 0.002861 0.001417 0.001797
# 4 0.005684 -0.009527 0.002861 0.047487 0.032055 0.007644
# 5 0.008670 -0.010533 0.001417 0.032055 0.064728 0.018787
# 6 -0.002852 0.001642 0.001797 0.007644 0.018787 0.031373
#
#
# Mechanical properties :
#
#
# Convention : Reuss Voigt Hill
#
# Bulk Modulus (GPa) = 49.28305 57.10283 53.19294
# Shear Modulus (GPa) = 22.03263 33.65164 27.84213
#
# Velocity S-wave (km/s) = 3.08151 3.80832 3.46403
# Velocity P-wave (km/s) = 5.82246 6.62933 6.23895
#
# Compressibility (1/GPa) = 0.02029095
#
# Stress axis : x y z
#
# Youngs Moduli (GPa) = 71.17538 41.99464 94.55748
#
# Poissons Ratio (x) = 0.36076 0.33005
# Poissons Ratio (y) = 0.61144 0.18840
# Poissons Ratio (z) = 0.24843 0.08367
#
# Static dielectric constant tensor:
#      x y z
#    x 1.872160 -0.017330 -0.025290 
#    y -0.017330 1.943010 -0.050450 
#    z -0.025290 -0.050450 1.877900 
# 
# From -- ./inp_files/541076.got.cif
#   From: 2010.05.17/outbox.cif.g08.bks.cpg/sg2_271_cif.got.tgz:541076.got - 2010.06.03 11:33:40.
