data_PCOD9110798
_publ_section_title
;
Structure prediction by ZEFSAII (Michael W. Deem and Ramdas Pophale) SiO2 
 PCOD9110798
Probable space group: P -1
;
_chemical_formula_sum "Si O2"
_cell_formula_units_Z 10
_cell_length_a 12.891192
_cell_length_b 9.410103
_cell_length_c 9.474570
_cell_angle_alpha 97.080603
_cell_angle_beta 30.196677
_cell_angle_gamma 115.364472
_cell_volume 438.492883
_symmetry_space_group_name_H-M "P -1"
_symmetry_group_IT_number 2
_symmetry_cell_setting 'triclinic'
loop_
_space_group_symop_operation_xyz
x,y,z
-x,-y,-z
loop_
_atom_site_type_symbol
_atom_site_label
_atom_site_fract_x
_atom_site_fract_y
_atom_site_fract_z
Si Si1 0.889597 0.778928 0.437031
Si Si2 0.751346 0.011841 0.714873
Si Si3 0.783232 0.211853 0.193754
Si Si4 0.832409 0.569530 0.736256
Si Si5 0.270172 0.496746 0.837959
O O1 0.159559 0.958117 0.223184
O O2 0.765801 0.597181 0.658556
O O3 0.999701 0.768740 0.161635
O O4 0.712597 0.842019 0.669752
O O5 0.994069 0.213621 0.392978
O O6 0.500000 0.000000 0.000000
O O7 0.718136 0.339057 0.222096
O O8 0.500000 0.000000 0.500000
O O9 0.962094 0.309745 0.137638
O O10 0.000000 0.500000 0.500000
O O11 0.675790 0.475003 0.054576
O O12 0.500000 0.500000 0.500000
#
# Coordination Sequence:
#
# PCOD9110798 Si02
#       5
#     2   2   2   2   2
#     4   9  21  40  63  97 126 174 228 268 332 402
#     4   9  20  37  66  92 126 166 227 271 329 392
#     4  11  26  44  69  97 141 181 223 278 346 402
#     4  10  20  42  66  92 133 169 222 278 332 393
#     4  11  26  46  66 103 138 177 229 280 339 407
#
# _framework density 22.805387
#
# number of rings (size 3 to 8) (size 9 to 14) (size 15 to 20)
#    1.200    0.800    2.000    0.000    5.600    4.000 
#    3.600    2.000    0.000    0.000    0.000    0.000 
#    0.000    0.000    0.000    0.000    0.000    0.000 
#
# Total GULP energy -55669.338444 kJ/mol
# GULP energy per Si atom -5566.933844 kJ/mol
# Density = 2.275348 g / cm^3
# Si number density = 22.805387 Si / 1000 Ang^3
#
#
#
# Elastic Constant Matrix: (Units=GPa)
#
#
# Indices 1 2 3 4 5 6 
#
# 1 70.5522 44.6593 22.8045 -8.0922 7.9309 7.2473
# 2 44.6593 107.0135 2.2049 19.4880 -1.7927 -14.5827
# 3 22.8045 2.2049 51.3307 17.9718 3.8210 0.4982
# 4 -8.0922 19.4880 17.9718 51.9798 7.7781 -17.4953
# 5 7.9309 -1.7927 3.8210 7.7781 38.3386 3.2352
# 6 7.2473 -14.5827 0.4982 -17.4953 3.2352 44.3113
#
#
#
# Elastic Compliance Matrix: (Units=1/GPa)
#
#
# Indices 1 2 3 4 5 6 
#
# 1 0.038626 -0.020300 -0.023225 0.022211 -0.010863 -0.003174
# 2 -0.020300 0.020929 0.012942 -0.015293 0.006692 0.003536
# 3 -0.023225 0.012942 0.036745 -0.022759 0.006518 -0.001817
# 4 0.022211 -0.015293 -0.022759 0.041027 -0.012097 0.008672
# 5 -0.010863 0.006692 0.006518 -0.012097 0.030711 -0.003112
# 6 -0.003174 0.003536 -0.001817 0.008672 -0.003112 0.027922
#
#
# Mechanical properties :
#
#
# Convention : Reuss Voigt Hill
#
# Bulk Modulus (GPa) = 28.46505 40.91488 34.68997
# Shear Modulus (GPa) = 18.59856 37.54113 28.06984
#
# Velocity S-wave (km/s) = 2.85885 4.06168 3.51214
# Velocity P-wave (km/s) = 4.83800 6.32267 5.62949
#
# Compressibility (1/GPa) = 0.03513080
#
# Stress axis : x y z
#
# Youngs Moduli (GPa) = 25.88934 47.78140 27.21487
#
# Poissons Ratio (x) = 0.96998 0.63208
# Poissons Ratio (y) = 0.52556 -0.35220
# Poissons Ratio (z) = 0.60129 -0.61837
#
# Static dielectric constant tensor:
#      x y z
#    x 1.692810 -0.018770 0.057710 
#    y -0.018770 1.803960 -0.026410 
#    z 0.057710 -0.026410 1.834510 
# 
# From -- ./inp_files/41412.got.cif
#   From: 2010.05.17/outbox.cif.g08.bks.cpg/sg2_21_cif.got.tgz:41412.got - 2010.06.03 11:33:40.
