data_PCOD9110255
_publ_section_title
;
Structure prediction by ZEFSAII (Michael W. Deem and Ramdas Pophale) SiO2 
 PCOD9110255
Probable space group: P -1
;
_chemical_formula_sum "Si O2"
_cell_formula_units_Z 16
_cell_length_a 7.542061
_cell_length_b 15.773805
_cell_length_c 13.920774
_cell_angle_alpha 33.502500
_cell_angle_beta 84.112335
_cell_angle_gamma 63.830336
_cell_volume 692.984436
_symmetry_space_group_name_H-M "P -1"
_symmetry_group_IT_number 2
_symmetry_cell_setting 'triclinic'
loop_
_space_group_symop_operation_xyz
x,y,z
-x,-y,-z
loop_
_atom_site_type_symbol
_atom_site_label
_atom_site_fract_x
_atom_site_fract_y
_atom_site_fract_z
Si Si1 0.197614 0.489176 0.870327
Si Si2 0.722896 0.780801 0.733286
Si Si3 0.870027 0.682693 0.131498
Si Si4 0.325124 0.361148 0.626953
Si Si5 0.998856 0.846947 0.419967
Si Si6 0.835144 0.211895 0.753073
Si Si7 0.844602 0.940759 0.741753
Si Si8 0.670628 0.757955 0.469012
O O1 0.266355 0.337411 0.923437
O O2 0.924845 0.631418 0.786346
O O3 0.187089 0.656646 0.658237
O O4 0.337044 0.345528 0.089551
O O5 0.500000 0.000000 0.500000
O O6 0.854120 0.813636 0.775287
O O7 0.772891 0.682288 0.238297
O O8 0.133556 0.477377 0.299912
O O9 0.862445 0.856292 0.926852
O O10 0.577531 0.286775 0.708756
O O11 0.174105 0.602617 0.389391
O O12 0.346396 0.241670 0.645767
O O13 0.776156 0.861374 0.401061
O O14 0.102878 0.812878 0.339992
O O15 0.969013 0.027456 0.300998
O O16 0.000000 0.000000 0.000000
O O17 0.574872 0.144843 0.562153
#
# Coordination Sequence:
#
# PCOD9110255 Si02
#       8
#     2   2   2   2   2   2   2   2
#     4   9  20  41  65  91 133 163 205 279 321 390
#     4  10  20  41  71  97 122 167 217 263 341 394
#     4  10  22  39  64  92 127 177 216 261 331 378
#     4  11  23  41  65  93 134 181 220 266 322 379
#     4  11  23  44  63  96 135 169 219 267 321 380
#     4  11  25  41  64 100 136 175 225 273 310 381
#     4  11  25  42  65  98 131 168 219 272 320 396
#     4  11  23  41  64  90 133 176 216 266 315 382
#
# _framework density 23.088540999999999
#
# number of rings (size 3 to 8) (size 9 to 14) (size 15 to 20)
#    0.000    1.500    3.750    1.875    3.500    1.000 
#    0.000    5.625    0.000    0.000    0.000    0.000 
#    0.000    0.000    0.000    0.000    0.000    0.000 
#
# Total GULP energy -89260.084365 kJ/mol
# GULP energy per Si atom -5578.755273 kJ/mol
# Density = 2.303599 g / cm^3
# Si number density = 23.088541 Si / 1000 Ang^3
#
#
#
# Elastic Constant Matrix: (Units=GPa)
#
#
# Indices 1 2 3 4 5 6 
#
# 1 97.1503 22.1278 28.8042 2.1721 -8.7194 17.1461
# 2 22.1278 100.1665 17.6800 15.9820 -0.5650 13.9719
# 3 28.8042 17.6800 145.4345 27.5981 -2.4053 -8.2014
# 4 2.1721 15.9820 27.5981 24.6670 -9.2599 -0.6719
# 5 -8.7194 -0.5650 -2.4053 -9.2599 29.9081 -13.3062
# 6 17.1461 13.9719 -8.2014 -0.6719 -13.3062 26.3544
#
#
#
# Elastic Compliance Matrix: (Units=1/GPa)
#
#
# Indices 1 2 3 4 5 6 
#
# 1 0.013232 -0.001866 -0.003662 0.004434 0.001360 -0.007959
# 2 -0.001866 0.013882 0.000376 -0.012988 -0.009160 -0.010984
# 3 -0.003662 0.000376 0.009977 -0.011797 -0.002182 0.003885
# 4 0.004434 -0.012988 -0.011797 0.073841 0.030882 0.017804
# 5 0.001360 -0.009160 -0.002182 0.030882 0.057856 0.033291
# 6 -0.007959 -0.010984 0.003885 0.017804 0.033291 0.067417
#
#
# Mechanical properties :
#
#
# Convention : Reuss Voigt Hill
#
# Bulk Modulus (GPa) = 37.33208 53.33057 45.33132
# Shear Modulus (GPa) = 19.57415 34.46186 27.01800
#
# Velocity S-wave (km/s) = 2.91484 3.86760 3.42452
# Velocity P-wave (km/s) = 5.24715 6.56452 5.94245
#
# Compressibility (1/GPa) = 0.02678661
#
# Stress axis : x y z
#
# Youngs Moduli (GPa) = 75.57669 72.03459 100.22973
#
# Poissons Ratio (x) = 0.13445 0.36699
# Poissons Ratio (y) = 0.14106 -0.03767
# Poissons Ratio (z) = 0.27672 -0.02707
#
# Static dielectric constant tensor:
#      x y z
#    x 1.886270 0.038150 -0.013630 
#    y 0.038150 1.881230 0.020820 
#    z -0.013630 0.020820 1.967230 
# 
# From -- ./inp_files/506976.got.cif
#   From: 2010.05.17/outbox.cif.g08.bks.cpg/sg2_254_cif.got.tgz:506976.got - 2010.06.03 11:33:40.
