data_PCOD9110434
_publ_section_title
;
Structure prediction by ZEFSAII (Michael W. Deem and Ramdas Pophale) SiO2 
 PCOD9110434
Probable space group: P -1
;
_chemical_formula_sum "Si O2"
_cell_formula_units_Z 16
_cell_length_a 7.177870
_cell_length_b 6.808641
_cell_length_c 16.006575
_cell_angle_alpha 88.959312
_cell_angle_beta 83.156294
_cell_angle_gamma 122.343913
_cell_volume 653.053842
_symmetry_space_group_name_H-M "P -1"
_symmetry_group_IT_number 2
_symmetry_cell_setting 'triclinic'
loop_
_space_group_symop_operation_xyz
x,y,z
-x,-y,-z
loop_
_atom_site_type_symbol
_atom_site_label
_atom_site_fract_x
_atom_site_fract_y
_atom_site_fract_z
Si Si1 0.670674 0.376608 0.774253
Si Si2 0.863268 0.529366 0.197129
Si Si3 0.761742 0.263395 0.421445
Si Si4 0.497998 0.595730 0.679011
Si Si5 0.076578 0.114435 0.405037
Si Si6 0.129078 0.900049 0.040285
Si Si7 0.562545 0.089401 0.114037
Si Si8 0.787893 0.225972 0.611867
O O1 0.925715 0.474792 0.783170
O O2 0.629015 0.580495 0.754283
O O3 0.638699 0.244936 0.689239
O O4 0.519250 0.173923 0.850354
O O5 0.952228 0.697245 0.111875
O O6 0.748914 0.603177 0.272319
O O7 0.665516 0.270567 0.182728
O O8 0.583300 0.256596 0.369496
O O9 0.309724 0.365834 0.397483
O O10 0.697227 0.189420 0.522258
O O11 0.876147 0.129877 0.381777
O O12 0.028919 0.467907 0.589838
O O13 0.155887 0.962262 0.356923
O O14 0.000000 0.000000 0.500000
O O15 0.346297 0.070837 0.084734
O O16 0.241865 0.824369 0.965109
O O17 0.000000 0.000000 0.000000
#
# Coordination Sequence:
#
# PCOD9110434 Si02
#       8
#     2   2   2   2   2   2   2   2
#     4  11  23  43  62  97 135 169 228 277 324 405
#     4  11  23  41  66  95 136 171 217 274 321 400
#     4  10  22  42  60  89 126 167 226 281 332 394
#     4  12  22  41  61  91 129 173 220 277 337 390
#     4  10  22  40  60  87 121 164 223 280 333 405
#     4  10  22  42  67  99 133 163 217 266 318 402
#     4  10  23  42  66  97 128 176 211 259 342 388
#     4  10  20  42  62  85 127 170 215 285 332 380
#
# _framework density 24.500274999999998
#
# number of rings (size 3 to 8) (size 9 to 14) (size 15 to 20)
#    0.000    1.500    2.500    1.875    0.000    4.000 
#    6.750    0.000    0.000    0.000    0.000    0.000 
#    0.000    0.000    0.000    0.000    0.000    0.000 
#
# Total GULP energy -89129.046099 kJ/mol
# GULP energy per Si atom -5570.565381 kJ/mol
# Density = 2.444451 g / cm^3
# Si number density = 24.500275 Si / 1000 Ang^3
#
#
#
# Elastic Constant Matrix: (Units=GPa)
#
#
# Indices 1 2 3 4 5 6 
#
# 1 160.2647 36.2528 60.6074 -26.4427 30.6822 5.4156
# 2 36.2528 58.2280 35.3385 -8.6551 17.2850 3.2829
# 3 60.6074 35.3385 129.9695 -40.3154 14.0916 3.4520
# 4 -26.4427 -8.6551 -40.3154 48.2309 -2.3211 4.9006
# 5 30.6822 17.2850 14.0916 -2.3211 60.0083 -10.2571
# 6 5.4156 3.2829 3.4520 4.9006 -10.2571 36.1943
#
#
#
# Elastic Compliance Matrix: (Units=1/GPa)
#
#
# Indices 1 2 3 4 5 6 
#
# 1 0.008833 -0.002631 -0.002143 0.002636 -0.003536 -0.002237
# 2 -0.002631 0.023092 -0.004923 -0.001397 -0.004605 -0.002347
# 3 -0.002143 -0.004923 0.012883 0.008870 -0.000475 -0.001797
# 4 0.002636 -0.001397 0.008870 0.029810 -0.002896 -0.005970
# 5 -0.003536 -0.004605 -0.000475 -0.002896 0.021055 0.007351
# 6 -0.002237 -0.002347 -0.001797 -0.005970 0.007351 0.031239
#
#
# Mechanical properties :
#
#
# Convention : Reuss Voigt Hill
#
# Bulk Modulus (GPa) = 39.35134 68.09551 53.72342
# Shear Modulus (GPa) = 32.30471 43.30428 37.80449
#
# Velocity S-wave (km/s) = 3.63512 4.20873 3.93239
# Velocity P-wave (km/s) = 5.80648 7.17440 6.52638
#
# Compressibility (1/GPa) = 0.02541210
#
# Stress axis : x y z
#
# Youngs Moduli (GPa) = 113.21557 43.30554 77.62369
#
# Poissons Ratio (x) = 0.11394 0.16634
# Poissons Ratio (y) = 0.29789 0.38217
# Poissons Ratio (z) = 0.24261 0.21321
#
# Static dielectric constant tensor:
#      x y z
#    x 1.976760 -0.032380 -0.025470 
#    y -0.032380 2.129840 0.029790 
#    z -0.025470 0.029790 1.961840 
# 
# From -- ./inp_files/480438.got.cif
#   From: 2010.05.17/outbox.cif.g08.bks.cpg/sg2_241_cif.got.tgz:480438.got - 2010.06.03 11:33:40.
