data_PCOD9110857
_publ_section_title
;
Structure prediction by ZEFSAII (Michael W. Deem and Ramdas Pophale) SiO2 
 PCOD9110857
Probable space group: P -1
;
_chemical_formula_sum "Si O2"
_cell_formula_units_Z 12
_cell_length_a 14.344048
_cell_length_b 9.642845
_cell_length_c 17.814439
_cell_angle_alpha 41.279390
_cell_angle_beta 20.202242
_cell_angle_gamma 41.539539
_cell_volume 551.181235
_symmetry_space_group_name_H-M "P -1"
_symmetry_group_IT_number 2
_symmetry_cell_setting 'triclinic'
loop_
_space_group_symop_operation_xyz
x,y,z
-x,-y,-z
loop_
_atom_site_type_symbol
_atom_site_label
_atom_site_fract_x
_atom_site_fract_y
_atom_site_fract_z
Si Si1 0.311148 0.885800 0.310834
Si Si2 0.651406 0.530281 0.097952
Si Si3 0.705776 0.543070 0.741931
Si Si4 0.091500 0.729670 0.859108
Si Si5 0.636920 0.133023 0.040417
Si Si6 0.762711 0.319303 0.392791
O O1 0.423031 0.714750 0.233058
O O2 0.335584 0.782714 0.416922
O O3 0.000000 0.000000 0.500000
O O4 0.511105 0.056205 0.090466
O O5 0.530496 0.471426 0.134829
O O6 0.702523 0.340688 0.199121
O O7 0.948511 0.604064 0.837142
O O8 0.736821 0.352471 0.857458
O O9 0.000000 0.500000 0.500000
O O10 0.617649 0.777463 0.749233
O O11 0.186253 0.801677 0.676804
O O12 0.860645 0.929300 0.979127
O O13 0.000000 0.500000 0.000000
O O14 0.500000 0.500000 0.500000
#
# Coordination Sequence:
#
# PCOD9110857 Si02
#       6
#     2   2   2   2   2   2
#     4  12  23  36  68 101 127 171 222 271 335 386
#     4  11  23  43  64 103 134 163 229 278 316 402
#     4  11  27  46  66  92 138 184 220 263 330 392
#     4  10  20  42  66  98 130 162 215 281 328 380
#     4  11  24  45  65  94 136 173 219 274 327 394
#     4  11  21  39  67  99 134 167 206 281 340 379
#
# _framework density 21.771424
#
# number of rings (size 3 to 8) (size 9 to 14) (size 15 to 20)
#    0.000    1.000    5.000    3.000    4.667    3.333 
#    0.000    0.833    0.000    0.000    0.000    0.000 
#    0.000    0.000    0.000    0.000    0.000    0.000 
#
# Total GULP energy -66902.283016 kJ/mol
# GULP energy per Si atom -5575.190251 kJ/mol
# Density = 2.172187 g / cm^3
# Si number density = 21.771424 Si / 1000 Ang^3
#
#
#
# Elastic Constant Matrix: (Units=GPa)
#
#
# Indices 1 2 3 4 5 6 
#
# 1 82.3828 24.1484 -8.4780 2.8822 -4.0885 -8.8061
# 2 24.1484 148.0002 10.5389 38.8485 -6.4265 -7.8041
# 3 -8.4780 10.5389 57.7290 21.9282 1.3483 -6.5409
# 4 2.8822 38.8485 21.9282 39.7240 -8.8743 -1.0553
# 5 -4.0885 -6.4265 1.3483 -8.8743 36.3987 9.6949
# 6 -8.8061 -7.8041 -6.5409 -1.0553 9.6949 30.5402
#
#
#
# Elastic Compliance Matrix: (Units=1/GPa)
#
#
# Indices 1 2 3 4 5 6 
#
# 1 0.013501 -0.002063 0.003040 -0.000573 -0.000180 0.004054
# 2 -0.002063 0.009958 0.002572 -0.011402 -0.002086 0.002769
# 3 0.003040 0.002572 0.025237 -0.017956 -0.006773 0.008469
# 4 -0.000573 -0.011402 -0.017956 0.048936 0.013013 -0.009364
# 5 -0.000180 -0.002086 -0.006773 0.013013 0.033788 -0.012312
# 6 0.004054 0.002769 0.008469 -0.009364 -0.012312 0.040019
#
#
# Mechanical properties :
#
#
# Convention : Reuss Voigt Hill
#
# Bulk Modulus (GPa) = 17.92237 37.83673 27.87955
# Shear Modulus (GPa) = 27.33173 38.79276 33.06225
#
# Velocity S-wave (km/s) = 3.54700 4.22574 3.90116
# Velocity P-wave (km/s) = 5.00249 6.42075 5.75547
#
# Compressibility (1/GPa) = 0.05579620
#
# Stress axis : x y z
#
# Youngs Moduli (GPa) = 74.07118 100.41725 39.62379
#
# Poissons Ratio (x) = 0.20716 -0.12047
# Poissons Ratio (y) = 0.15281 -0.10193
# Poissons Ratio (z) = -0.22521 -0.25832
#
# Static dielectric constant tensor:
#      x y z
#    x 2.012900 -0.107490 0.080840 
#    y -0.107490 1.911700 -0.053910 
#    z 0.080840 -0.053910 1.919520 
# 
# From -- ./inp_files/101601.got.cif
#   From: 2010.05.17/outbox.cif.g08.bks.cpg/sg2_51_cif.got.tgz:101601.got - 2010.06.03 11:33:40.
