data_PCOD9110080
_publ_section_title
;
Structure prediction by ZEFSAII (Michael W. Deem and Ramdas Pophale) SiO2 
 PCOD9110080
Probable space group: P -1
;
_chemical_formula_sum "Si O2"
_cell_formula_units_Z 14
_cell_length_a 8.212696
_cell_length_b 8.480923
_cell_length_c 12.253342
_cell_angle_alpha 54.277352
_cell_angle_beta 54.193220
_cell_angle_gamma 56.685653
_cell_volume 533.249909
_symmetry_space_group_name_H-M "P -1"
_symmetry_group_IT_number 2
_symmetry_cell_setting 'triclinic'
loop_
_space_group_symop_operation_xyz
x,y,z
-x,-y,-z
loop_
_atom_site_type_symbol
_atom_site_label
_atom_site_fract_x
_atom_site_fract_y
_atom_site_fract_z
Si Si1 0.502739 0.572361 0.163271
Si Si2 0.030545 0.073783 0.080051
Si Si3 0.086641 0.480523 0.353190
Si Si4 0.884707 0.531465 0.188878
Si Si5 0.279642 0.148298 0.132871
Si Si6 0.346357 0.871504 0.646344
Si Si7 0.767849 0.995201 0.575262
O O1 0.252702 0.608474 0.235432
O O2 0.651993 0.589369 0.202245
O O3 0.573699 0.325973 0.230497
O O4 0.580879 0.701616 0.991521
O O5 0.248807 0.030004 0.083630
O O6 0.868706 0.014747 0.250458
O O7 0.001542 0.314215 0.971041
O O8 0.000000 0.000000 0.000000
O O9 0.196744 0.236649 0.387340
O O10 0.000000 0.500000 0.500000
O O11 0.908189 0.551760 0.301095
O O12 0.043580 0.305807 0.187224
O O13 0.349482 0.994874 0.268484
O O14 0.500000 0.000000 0.500000
O O15 0.314671 0.822529 0.552365
O O16 0.000000 0.000000 0.500000
#
# Coordination Sequence:
#
# PCOD9110080 Si02
#       7
#     2   2   2   2   2   2   2
#     4  11  21  43  69  94 127 177 233 260 325 414
#     4  11  22  38  66  97 136 167 216 283 341 383
#     4  11  26  41  64  97 136 172 219 283 334 384
#     4  10  21  41  69  94 125 177 221 272 324 403
#     4  10  20  41  69  94 128 178 223 269 329 403
#     4  12  22  38  66 100 127 172 224 271 325 402
#     4  11  22  40  68  95 129 173 217 272 332 396
#
# _framework density 26.254104999999999
#
# number of rings (size 3 to 8) (size 9 to 14) (size 15 to 20)
#    0.000    1.143    5.714    1.714    2.000    4.000 
#    0.000    4.286    0.000    5.143    0.000    0.000 
#    0.000    0.000    0.000    0.000    0.000    0.000 
#
# Total GULP energy -78034.931566 kJ/mol
# GULP energy per Si atom -5573.923683 kJ/mol
# Density = 2.619435 g / cm^3
# Si number density = 26.254105 Si / 1000 Ang^3
#
#
#
# Elastic Constant Matrix: (Units=GPa)
#
#
# Indices 1 2 3 4 5 6 
#
# 1 100.2655 3.0371 43.9387 14.4393 -17.0331 36.5867
# 2 3.0371 76.9089 14.1745 -9.8273 -11.2122 16.2898
# 3 43.9387 14.1745 187.7812 -18.1704 -7.6164 27.6626
# 4 14.4393 -9.8273 -18.1704 31.4831 20.4110 -1.8034
# 5 -17.0331 -11.2122 -7.6164 20.4110 62.3840 -13.8001
# 6 36.5867 16.2898 27.6626 -1.8034 -13.8001 29.4169
#
#
#
# Elastic Compliance Matrix: (Units=1/GPa)
#
#
# Indices 1 2 3 4 5 6 
#
# 1 0.026105 0.004459 -0.003692 -0.019092 0.007259 -0.029231
# 2 0.004459 0.016138 0.000044 0.001995 0.000318 -0.014253
# 3 -0.003692 0.000044 0.007330 0.008002 -0.003492 -0.003473
# 4 -0.019092 0.001995 0.008002 0.060327 -0.021706 0.008631
# 5 0.007259 0.000318 -0.003492 -0.021706 0.025820 0.004862
# 6 -0.029231 -0.014253 -0.003473 0.008631 0.004862 0.084318
#
#
# Mechanical properties :
#
#
# Convention : Reuss Voigt Hill
#
# Bulk Modulus (GPa) = 19.53247 54.13959 36.83603
# Shear Modulus (GPa) = 21.23312 44.91047 33.07180
#
# Velocity S-wave (km/s) = 2.84695 4.14044 3.55305
# Velocity P-wave (km/s) = 4.27349 6.59725 5.55817
#
# Compressibility (1/GPa) = 0.05119679
#
# Stress axis : x y z
#
# Youngs Moduli (GPa) = 38.30679 61.96422 136.42092
#
# Poissons Ratio (x) = -0.27633 0.50364
# Poissons Ratio (y) = -0.17083 -0.00600
# Poissons Ratio (z) = 0.14142 -0.00272
#
# Static dielectric constant tensor:
#      x y z
#    x 1.906740 -0.163230 0.186030 
#    y -0.163230 2.119740 0.064090 
#    z 0.186030 0.064090 1.994140 
# 
# From -- ./inp_files/381194.got.cif
#   From: 2010.05.17/outbox.cif.g08.bks.cpg/sg2_191_cif.got.tgz:381194.got - 2010.06.03 11:33:40.
