data_PCOD9110391
_publ_section_title
;
Structure prediction by ZEFSAII (Michael W. Deem and Ramdas Pophale) SiO2 
 PCOD9110391
Probable space group: P -1
;
_chemical_formula_sum "Si O2"
_cell_formula_units_Z 15
_cell_length_a 17.753577
_cell_length_b 9.398634
_cell_length_c 9.788997
_cell_angle_alpha 61.448654
_cell_angle_beta 151.289424
_cell_angle_gamma 124.134940
_cell_volume 649.058246
_symmetry_space_group_name_H-M "P -1"
_symmetry_group_IT_number 2
_symmetry_cell_setting 'triclinic'
loop_
_space_group_symop_operation_xyz
x,y,z
-x,-y,-z
loop_
_atom_site_type_symbol
_atom_site_label
_atom_site_fract_x
_atom_site_fract_y
_atom_site_fract_z
Si Si1 0.720589 0.428648 0.434293
Si Si2 0.341227 0.041076 0.678408
Si Si3 0.360795 0.231716 0.886594
Si Si4 0.314543 0.567794 0.307639
Si Si5 0.000000 0.000000 0.500000
Si Si6 0.339040 0.245688 0.329992
Si Si7 0.005809 0.124954 0.690279
Si Si8 0.981609 0.421008 0.352319
O O1 0.674192 0.591195 0.229623
O O2 0.754121 0.446036 0.641759
O O3 0.881815 0.449928 0.588007
O O4 0.552628 0.266590 0.218182
O O5 0.349204 0.195543 0.723001
O O6 0.344061 0.091471 0.503911
O O7 0.163792 0.898014 0.493004
O O8 0.500000 0.000000 0.000000
O O9 0.214439 0.080228 0.794886
O O10 0.340059 0.396731 0.366701
O O11 0.502113 0.700736 0.539386
O O12 0.194568 0.610844 0.985295
O O13 0.993799 0.047111 0.303428
O O14 0.167887 0.207157 0.995486
O O15 0.004956 0.232368 0.497987
O O16 0.000000 0.500000 0.500000
#
# Coordination Sequence:
#
# PCOD9110391 Si02
#       8
#     2   2   2   2   1   2   2   2
#     4  11  23  41  66  99 134 174 224 278 334 394
#     4  11  24  41  64  96 134 174 224 274 330 402
#     4  10  22  38  68  92 129 174 225 263 334 395
#     4  11  24  40  66  99 135 171 219 284 336 390
#     4  10  20  42  60  94 126 176 220 266 322 402
#     4  11  23  41  66  95 134 173 226 271 336 401
#     4  11  23  41  66  95 128 183 221 272 333 402
#     4  12  25  41  68 100 133 171 224 287 335 388
#
# _framework density 23.110405
#
# number of rings (size 3 to 8) (size 9 to 14) (size 15 to 20)
#    0.000    1.067    4.000    2.400    5.600    0.000 
#    0.000    1.333    0.000    4.800    0.000    0.000 
#    0.000    0.000    0.000    0.000    0.000    0.000 
#
# Total GULP energy -83547.163823 kJ/mol
# GULP energy per Si atom -5569.810922 kJ/mol
# Density = 2.305780 g / cm^3
# Si number density = 23.110405 Si / 1000 Ang^3
#
#
#
# Elastic Constant Matrix: (Units=GPa)
#
#
# Indices 1 2 3 4 5 6 
#
# 1 117.6914 29.7351 51.4933 14.8082 -0.4411 33.0588
# 2 29.7351 52.5518 50.2278 11.6862 7.0873 20.8077
# 3 51.4933 50.2278 161.4227 19.9742 19.5264 39.1577
# 4 14.8082 11.6862 19.9742 43.3863 5.6050 2.2767
# 5 -0.4411 7.0873 19.5264 5.6050 36.0722 3.9566
# 6 33.0588 20.8077 39.1577 2.2767 3.9566 30.6328
#
#
#
# Elastic Compliance Matrix: (Units=1/GPa)
#
#
# Indices 1 2 3 4 5 6 
#
# 1 0.013070 -0.001508 -0.000577 -0.003482 0.002673 -0.012429
# 2 -0.001508 0.031099 -0.005643 -0.004505 -0.001079 -0.011809
# 3 -0.000577 -0.005643 0.011055 -0.002445 -0.003511 -0.009040
# 4 -0.003482 -0.004505 -0.002445 0.026509 -0.002868 0.008343
# 5 0.002673 -0.001079 -0.003511 -0.002868 0.030465 -0.001385
# 6 -0.012429 -0.011809 -0.009040 0.008343 -0.001385 0.065194
#
#
# Mechanical properties :
#
#
# Convention : Reuss Voigt Hill
#
# Bulk Modulus (GPa) = 25.14723 66.06425 45.60574
# Shear Modulus (GPa) = 24.25959 35.36558 29.81259
#
# Velocity S-wave (km/s) = 3.24346 3.91613 3.59556
# Velocity P-wave (km/s) = 4.99316 7.00689 6.08392
#
# Compressibility (1/GPa) = 0.03976581
#
# Stress axis : x y z
#
# Youngs Moduli (GPa) = 76.51235 32.15584 90.45543
#
# Poissons Ratio (x) = 0.04851 0.05223
# Poissons Ratio (y) = 0.11542 0.51043
# Poissons Ratio (z) = 0.04418 0.18145
#
# Static dielectric constant tensor:
#      x y z
#    x 1.740340 0.210800 0.067830 
#    y 0.210800 1.599270 0.009370 
#    z 0.067830 0.009370 1.882400 
# 
# From -- ./inp_files/199052.got.cif
#   From: 2010.05.17/outbox.cif.g08.bks.cpg/sg2_100_cif.got.tgz:199052.got - 2010.06.03 11:33:40.
