data_PCOD9110423
_publ_section_title
;
Structure prediction by ZEFSAII (Michael W. Deem and Ramdas Pophale) SiO2 
 PCOD9110423
Probable space group: P -1
;
_chemical_formula_sum "Si O2"
_cell_formula_units_Z 14
_cell_length_a 14.122867
_cell_length_b 9.026457
_cell_length_c 5.252782
_cell_angle_alpha 110.016799
_cell_angle_beta 99.949791
_cell_angle_gamma 106.541404
_cell_volume 575.346156
_symmetry_space_group_name_H-M "P -1"
_symmetry_group_IT_number 2
_symmetry_cell_setting 'triclinic'
loop_
_space_group_symop_operation_xyz
x,y,z
-x,-y,-z
loop_
_atom_site_type_symbol
_atom_site_label
_atom_site_fract_x
_atom_site_fract_y
_atom_site_fract_z
Si Si1 0.779799 0.912169 0.319142
Si Si2 0.766496 0.216526 0.780246
Si Si3 0.094686 0.675562 0.673487
Si Si4 0.950302 0.849772 0.689165
Si Si5 0.555960 0.969700 0.759368
Si Si6 0.223690 0.493749 0.381112
Si Si7 0.336012 0.267126 0.345620
O O1 0.883769 0.891085 0.459795
O O2 0.699430 0.791855 0.418568
O O3 0.765793 0.090032 0.473428
O O4 0.743030 0.844476 0.979292
O O5 0.672051 0.105620 0.848601
O O6 0.766219 0.399834 0.810577
O O7 0.875513 0.252780 0.988830
O O8 0.191121 0.620967 0.617414
O O9 0.000000 0.500000 0.500000
O O10 0.044552 0.800264 0.600633
O O11 0.870018 0.686121 0.710789
O O12 0.000000 0.000000 0.000000
O O13 0.500000 0.000000 0.500000
O O14 0.565244 0.785321 0.675304
O O15 0.500000 0.000000 0.000000
O O16 0.325824 0.449478 0.429441
#
# Coordination Sequence:
#
# PCOD9110423 Si02
#       7
#     2   2   2   2   2   2   2
#     4  10  22  41  67  97 140 189 240 281 345 403
#     4  11  24  42  70 101 141 186 234 298 361 417
#     4  10  23  41  64  99 150 186 242 279 354 402
#     4  10  20  42  62 101 143 193 252 288 326 412
#     4  11  25  48  79 106 132 176 241 301 364 434
#     4  10  25  39  66  97 145 190 228 285 362 417
#     4  10  23  45  70 100 136 181 227 290 355 430
#
# _framework density 24.333175000000001
#
# number of rings (size 3 to 8) (size 9 to 14) (size 15 to 20)
#    0.000    1.714    1.429    1.714   12.000    2.286 
#    2.571    5.000    0.000    0.000    0.000    0.000 
#    0.000    0.000    0.000    0.000    0.000    0.000 
#
# Total GULP energy -78049.316683 kJ/mol
# GULP energy per Si atom -5574.951192 kJ/mol
# Density = 2.427779 g / cm^3
# Si number density = 24.333175 Si / 1000 Ang^3
#
#
#
# Elastic Constant Matrix: (Units=GPa)
#
#
# Indices 1 2 3 4 5 6 
#
# 1 127.6388 53.6557 34.2810 -2.9042 -30.5763 -42.8888
# 2 53.6557 169.7419 20.7014 -14.2172 -2.0293 -32.2018
# 3 34.2810 20.7014 81.7782 -2.9248 -3.8336 -4.8071
# 4 -2.9042 -14.2172 -2.9248 33.2503 -2.9003 1.8234
# 5 -30.5763 -2.0293 -3.8336 -2.9003 44.4848 1.9316
# 6 -42.8888 -32.2018 -4.8071 1.8234 1.9316 62.7978
#
#
#
# Elastic Compliance Matrix: (Units=1/GPa)
#
#
# Indices 1 2 3 4 5 6 
#
# 1 0.015395 -0.002519 -0.004851 0.000217 0.009692 0.008547
# 2 -0.002519 0.007344 -0.000658 0.002636 -0.001367 0.001961
# 3 -0.004851 -0.000658 0.014205 0.000508 -0.001998 -0.002516
# 4 0.000217 0.002636 0.000508 0.031439 0.002339 0.000554
# 5 0.009692 -0.001367 -0.001998 0.002339 0.028850 0.004810
# 6 0.008547 0.001961 -0.002516 0.000554 0.004810 0.022410
#
#
# Mechanical properties :
#
#
# Convention : Reuss Voigt Hill
#
# Bulk Modulus (GPa) = 47.87482 66.27058 57.07270
# Shear Modulus (GPa) = 35.04773 46.14129 40.59451
#
# Velocity S-wave (km/s) = 3.79928 4.35930 4.08889
# Velocity P-wave (km/s) = 6.24207 7.25477 6.76739
#
# Compressibility (1/GPa) = 0.02088781
#
# Stress axis : x y z
#
# Youngs Moduli (GPa) = 64.95589 136.16172 70.39822
#
# Poissons Ratio (x) = 0.34303 0.34152
# Poissons Ratio (y) = 0.16364 0.04629
# Poissons Ratio (z) = 0.31512 0.08954
#
# Static dielectric constant tensor:
#      x y z
#    x 2.059300 0.060970 -0.074430 
#    y 0.060970 2.009490 -0.081360 
#    z -0.074430 -0.081360 2.035910 
# 
# From -- ./inp_files/89340.got.cif
#   From: 2010.05.17/outbox.cif.g08.bks.cpg/sg2_45_cif.got.tgz:89340.got - 2010.06.03 11:33:40.
