data_PCOD9110474
_publ_section_title
;
Structure prediction by ZEFSAII (Michael W. Deem and Ramdas Pophale) SiO2 
 PCOD9110474
Probable space group: P -1
;
_chemical_formula_sum "Si O2"
_cell_formula_units_Z 16
_cell_length_a 11.111671
_cell_length_b 13.292779
_cell_length_c 8.605488
_cell_angle_alpha 116.422024
_cell_angle_beta 82.162109
_cell_angle_gamma 141.776773
_cell_volume 650.069157
_symmetry_space_group_name_H-M "P -1"
_symmetry_group_IT_number 2
_symmetry_cell_setting 'triclinic'
loop_
_space_group_symop_operation_xyz
x,y,z
-x,-y,-z
loop_
_atom_site_type_symbol
_atom_site_label
_atom_site_fract_x
_atom_site_fract_y
_atom_site_fract_z
Si Si1 0.029842 0.063634 0.305967
Si Si2 0.578077 0.239350 0.107397
Si Si3 0.149058 0.940772 0.396969
Si Si4 0.276204 0.865554 0.096996
Si Si5 0.611559 0.328747 0.692127
Si Si6 0.437834 0.324674 0.994725
Si Si7 0.369450 0.438276 0.328371
Si Si8 0.985105 0.479242 0.306035
O O1 0.142091 0.039925 0.344748
O O2 0.148321 0.208566 0.239709
O O3 0.013858 0.145990 0.500968
O O4 0.792418 0.848228 0.159065
O O5 0.819301 0.446716 0.253085
O O6 0.456207 0.087961 0.165983
O O7 0.605131 0.163108 0.917772
O O8 0.442688 0.238851 0.073958
O O9 0.377003 0.108054 0.552945
O O10 0.134541 0.815125 0.217340
O O11 0.131794 0.721940 0.875988
O O12 0.605816 0.399340 0.897623
O O13 0.658674 0.451801 0.627150
O O14 0.781112 0.358138 0.686852
O O15 0.480992 0.472858 0.177645
O O16 0.500000 0.500000 0.500000
O O17 0.000000 0.500000 0.500000
#
# Coordination Sequence:
#
# PCOD9110474 Si02
#       8
#     2   2   2   2   2   2   2   2
#     4  10  23  39  65  91 127 168 210 253 314 381
#     4   9  21  39  61  92 121 167 216 250 312 366
#     4  10  20  42  62  93 130 163 208 260 312 375
#     4   9  20  37  68  89 124 169 209 257 310 374
#     4  11  25  41  63  93 130 165 210 262 322 361
#     4  11  25  43  63  90 132 168 210 259 313 384
#     4  12  25  40  64  96 126 166 210 265 318 370
#     4  10  22  38  64  91 125 166 209 262 311 369
#
# _framework density 24.612765
#
# number of rings (size 3 to 8) (size 9 to 14) (size 15 to 20)
#    0.750    1.000    1.250    2.250    5.250    1.500 
#    0.000    3.750    0.000    0.000    0.000    0.000 
#    0.000    0.000    0.000    0.000    0.000    0.000 
#
# Total GULP energy -89386.759903 kJ/mol
# GULP energy per Si atom -5586.672494 kJ/mol
# Density = 2.455675 g / cm^3
# Si number density = 24.612765 Si / 1000 Ang^3
#
#
#
# Elastic Constant Matrix: (Units=GPa)
#
#
# Indices 1 2 3 4 5 6 
#
# 1 68.8108 4.8396 21.9425 9.0442 -6.1365 18.8284
# 2 4.8396 62.7934 4.9091 -7.6755 4.6202 14.2278
# 3 21.9425 4.9091 105.3351 -12.3800 -19.9984 20.2063
# 4 9.0442 -7.6755 -12.3800 28.9180 15.4027 -1.7030
# 5 -6.1365 4.6202 -19.9984 15.4027 41.2910 0.5698
# 6 18.8284 14.2278 20.2063 -1.7030 0.5698 38.9043
#
#
#
# Elastic Compliance Matrix: (Units=1/GPa)
#
#
# Indices 1 2 3 4 5 6 
#
# 1 0.019803 -0.001288 -0.002636 -0.011457 0.006199 -0.008337
# 2 -0.001288 0.018671 0.000566 0.007820 -0.004840 -0.006086
# 3 -0.002636 0.000566 0.012235 0.003688 0.004167 -0.005186
# 4 -0.011457 0.007820 0.003688 0.052993 -0.020606 0.003391
# 5 0.006199 -0.004840 0.004167 -0.020606 0.035453 -0.004816
# 6 -0.008337 -0.006086 -0.005186 0.003391 -0.004816 0.034877
#
#
# Mechanical properties :
#
#
# Convention : Reuss Voigt Hill
#
# Bulk Modulus (GPa) = 22.72999 33.36908 28.04953
# Shear Modulus (GPa) = 25.58682 35.50588 30.54635
#
# Velocity S-wave (km/s) = 3.22774 3.80225 3.52671
# Velocity P-wave (km/s) = 4.81105 5.73265 5.29195
#
# Compressibility (1/GPa) = 0.04399475
#
# Stress axis : x y z
#
# Youngs Moduli (GPa) = 50.49635 53.55858 81.72944
#
# Poissons Ratio (x) = 0.06898 0.21540
# Poissons Ratio (y) = 0.06503 -0.04624
# Poissons Ratio (z) = 0.13309 -0.03030
#
# Static dielectric constant tensor:
#      x y z
#    x 1.964550 0.001310 -0.019940 
#    y 0.001310 1.993310 -0.007290 
#    z -0.019940 -0.007290 1.974690 
# 
# From -- ./inp_files/270901.got.cif
#   From: 2010.05.17/outbox.cif.g08.bks.cpg/sg2_136_cif.got.tgz:270901.got - 2010.06.03 11:33:40.
