data_PCOD9110421
_publ_section_title
;
Structure prediction by ZEFSAII (Michael W. Deem and Ramdas Pophale) SiO2 
 PCOD9110421
Probable space group: P -1
;
_chemical_formula_sum "Si O2"
_cell_formula_units_Z 12
_cell_length_a 9.716082
_cell_length_b 5.728594
_cell_length_c 21.404316
_cell_angle_alpha 75.255743
_cell_angle_beta 31.629750
_cell_angle_gamma 88.381038
_cell_volume 560.947019
_symmetry_space_group_name_H-M "P -1"
_symmetry_group_IT_number 2
_symmetry_cell_setting 'triclinic'
loop_
_space_group_symop_operation_xyz
x,y,z
-x,-y,-z
loop_
_atom_site_type_symbol
_atom_site_label
_atom_site_fract_x
_atom_site_fract_y
_atom_site_fract_z
Si Si1 0.380546 0.234075 0.021827
Si Si2 0.368319 0.675938 0.214527
Si Si3 0.752827 0.132367 0.304192
Si Si4 0.195219 0.719405 0.583070
Si Si5 0.599245 0.675418 0.660619
Si Si6 0.119521 0.924963 0.375165
O O1 0.452337 0.312339 0.916481
O O2 0.500000 0.500000 0.000000
O O3 0.048013 0.120039 0.171456
O O4 0.500000 0.000000 0.000000
O O5 0.443824 0.524660 0.252798
O O6 0.363799 0.930492 0.232766
O O7 0.036009 0.551643 0.330746
O O8 0.776169 0.258337 0.355223
O O9 0.656020 0.310455 0.282265
O O10 0.506280 0.845283 0.424843
O O11 0.039753 0.908703 0.607006
O O12 0.853199 0.671165 0.517721
O O13 0.724901 0.950005 0.629798
#
# Coordination Sequence:
#
# PCOD9110421 Si02
#       6
#     2   2   2   2   2   2
#     4  12  27  48  69  96 134 180 222 276 334 400
#     4  11  21  38  68  92 130 176 218 262 338 398
#     4  10  20  42  61  97 130 168 222 274 331 380
#     4   9  19  38  65  92 128 167 220 275 319 390
#     4   9  20  36  61  93 135 164 214 277 324 395
#     4   9  18  37  60  94 130 170 213 266 335 388
#
# _framework density 21.392396000000002
#
# number of rings (size 3 to 8) (size 9 to 14) (size 15 to 20)
#    0.000    2.000    1.667    2.500    2.333    0.667 
#    9.000    5.833    0.000    0.000    0.000    0.000 
#    0.000    0.000    0.000    0.000    0.000    0.000 
#
# Total GULP energy -66863.924294 kJ/mol
# GULP energy per Si atom -5571.993691 kJ/mol
# Density = 2.134371 g / cm^3
# Si number density = 21.392396 Si / 1000 Ang^3
#
#
#
# Elastic Constant Matrix: (Units=GPa)
#
#
# Indices 1 2 3 4 5 6 
#
# 1 138.9691 20.9776 38.9839 8.2997 6.1724 -9.8639
# 2 20.9776 43.6389 23.4639 16.1912 -1.2112 0.0151
# 3 38.9839 23.4639 126.3991 27.9470 5.0833 8.3838
# 4 8.2997 16.1912 27.9470 25.4584 -0.3533 4.5379
# 5 6.1724 -1.2112 5.0833 -0.3533 40.3927 8.4583
# 6 -9.8639 0.0151 8.3838 4.5379 8.4583 16.4489
#
#
#
# Elastic Compliance Matrix: (Units=1/GPa)
#
#
# Indices 1 2 3 4 5 6 
#
# 1 0.009133 -0.003203 -0.002788 0.000620 -0.002852 0.008196
# 2 -0.003203 0.031996 -0.001063 -0.018733 0.000708 0.003396
# 3 -0.002788 -0.001063 0.011555 -0.010276 -0.000180 -0.004633
# 4 0.000620 -0.018733 -0.010276 0.064908 0.004232 -0.014456
# 5 -0.002852 0.000708 -0.000180 0.004232 0.028977 -0.017687
# 6 0.008196 0.003396 -0.004633 -0.014456 -0.017687 0.081151
#
#
# Mechanical properties :
#
#
# Convention : Reuss Voigt Hill
#
# Bulk Modulus (GPa) = 25.92388 52.87310 39.39849
# Shear Modulus (GPa) = 19.63190 31.49878 25.56534
#
# Velocity S-wave (km/s) = 3.03265 3.84139 3.46072
# Velocity P-wave (km/s) = 4.94036 6.66667 5.86735
#
# Compressibility (1/GPa) = 0.03857447
#
# Stress axis : x y z
#
# Youngs Moduli (GPa) = 109.49460 31.25428 86.53931
#
# Poissons Ratio (x) = 0.10011 0.24129
# Poissons Ratio (y) = 0.35072 0.09203
# Poissons Ratio (z) = 0.30529 0.03324
#
# Static dielectric constant tensor:
#      x y z
#    x 1.760850 0.018410 -0.006040 
#    y 0.018410 1.900690 -0.044070 
#    z -0.006040 -0.044070 1.802100 
# 
# From -- ./inp_files/68263.got.cif
#   From: 2010.05.17/outbox.cif.g08.bks.cpg/sg2_35_cif.got.tgz:68263.got - 2010.06.03 11:33:40.
