data_PCOD9110141
_publ_section_title
;
Structure prediction by ZEFSAII (Michael W. Deem and Ramdas Pophale) SiO2 
 PCOD9110141
Probable space group: P -1
;
_chemical_formula_sum "Si O2"
_cell_formula_units_Z 14
_cell_length_a 9.079794
_cell_length_b 14.975358
_cell_length_c 11.287625
_cell_angle_alpha 28.661075
_cell_angle_beta 127.389935
_cell_angle_gamma 119.486509
_cell_volume 581.546836
_symmetry_space_group_name_H-M "P -1"
_symmetry_group_IT_number 2
_symmetry_cell_setting 'triclinic'
loop_
_space_group_symop_operation_xyz
x,y,z
-x,-y,-z
loop_
_atom_site_type_symbol
_atom_site_label
_atom_site_fract_x
_atom_site_fract_y
_atom_site_fract_z
Si Si1 0.125359 0.278233 0.180527
Si Si2 0.566445 0.465326 0.940800
Si Si3 0.648154 0.297330 0.601116
Si Si4 0.536557 0.812910 0.153537
Si Si5 0.206812 0.060217 0.035806
Si Si6 0.249223 0.840001 0.762240
Si Si7 0.951162 0.663923 0.188016
O O1 0.282704 0.390092 0.185885
O O2 0.656100 0.261552 0.187425
O O3 0.198436 0.059020 0.457927
O O4 0.092656 0.375493 0.922824
O O5 0.386378 0.521114 0.707087
O O6 0.933208 0.262997 0.174272
O O7 0.500000 0.500000 0.000000
O O8 0.499988 0.332677 0.593622
O O9 0.845806 0.256435 0.809806
O O10 0.652699 0.124598 0.710009
O O11 0.737872 0.804582 0.200696
O O12 0.389429 0.818337 0.968267
O O13 0.500000 0.000000 0.000000
O O14 0.199864 0.175922 0.018507
O O15 0.000000 0.000000 0.000000
O O16 0.000000 0.500000 0.500000
#
# Coordination Sequence:
#
# PCOD9110141 Si02
#       7
#     2   2   2   2   2   2   2
#     4  11  25  49  71 103 145 191 245 288 365 435
#     4  12  28  46  70 107 149 190 244 293 361 433
#     4  10  22  44  64 100 135 175 236 287 349 419
#     4  10  20  41  70 103 133 176 237 289 352 423
#     4   9  21  38  64  97 134 176 217 289 358 411
#     4  11  26  47  76 102 145 195 236 301 360 430
#     4  11  23  41  66 100 138 179 234 293 354 414
#
# _framework density 24.073727000000002
#
# number of rings (size 3 to 8) (size 9 to 14) (size 15 to 20)
#    0.000    1.429    1.429    3.000    6.000    2.286 
#    2.571    0.000    0.000    0.000    0.000    0.000 
#    0.000    0.000    0.000    0.000    0.000    0.000 
#
# Total GULP energy -78163.533048 kJ/mol
# GULP energy per Si atom -5583.109503 kJ/mol
# Density = 2.401893 g / cm^3
# Si number density = 24.073727 Si / 1000 Ang^3
#
#
#
# Elastic Constant Matrix: (Units=GPa)
#
#
# Indices 1 2 3 4 5 6 
#
# 1 147.2289 38.0433 27.6560 1.1015 -4.9520 -8.8027
# 2 38.0433 77.4988 3.1775 1.5952 10.8075 9.5415
# 3 27.6560 3.1775 72.3545 9.0924 -2.2709 -6.1562
# 4 1.1015 1.5952 9.0924 33.6394 -7.7763 0.5231
# 5 -4.9520 10.8075 -2.2709 -7.7763 32.6248 -5.6442
# 6 -8.8027 9.5415 -6.1562 0.5231 -5.6442 45.3481
#
#
#
# Elastic Compliance Matrix: (Units=1/GPa)
#
#
# Indices 1 2 3 4 5 6 
#
# 1 0.008995 -0.005201 -0.003048 0.001599 0.003755 0.002875
# 2 -0.005201 0.017274 0.000842 -0.002649 -0.008036 -0.005500
# 3 -0.003048 0.000842 0.015587 -0.004277 -0.000444 0.001341
# 4 0.001599 -0.002649 -0.004277 0.032989 0.008860 0.001009
# 5 0.003755 -0.008036 -0.000444 0.008860 0.037155 0.006882
# 6 0.002875 -0.005500 0.001341 0.001009 0.006882 0.024794
#
#
# Mechanical properties :
#
#
# Convention : Reuss Voigt Hill
#
# Bulk Modulus (GPa) = 36.98029 48.31509 42.64769
# Shear Modulus (GPa) = 31.12910 37.53616 34.33263
#
# Velocity S-wave (km/s) = 3.59983 3.95298 3.78053
# Velocity P-wave (km/s) = 5.71603 6.39905 6.06716
#
# Compressibility (1/GPa) = 0.02704143
#
# Stress axis : x y z
#
# Youngs Moduli (GPa) = 111.17397 57.88943 64.15792
#
# Poissons Ratio (x) = 0.30109 0.19556
# Poissons Ratio (y) = 0.57822 -0.05403
# Poissons Ratio (z) = 0.33888 -0.04875
#
# Static dielectric constant tensor:
#      x y z
#    x 1.993910 0.090830 -0.071420 
#    y 0.090830 2.001820 -0.111480 
#    z -0.071420 -0.111480 1.987150 
# 
# From -- ./inp_files/400938.got.cif
#   From: 2010.05.17/outbox.cif.g08.bks.cpg/sg2_201_cif.got.tgz:400938.got - 2010.06.03 11:33:40.
