data_PCOD9110297
_publ_section_title
;
Structure prediction by ZEFSAII (Michael W. Deem and Ramdas Pophale) SiO2 
 PCOD9110297
Probable space group: P -1
;
_chemical_formula_sum "Si O2"
_cell_formula_units_Z 16
_cell_length_a 9.665213
_cell_length_b 9.221183
_cell_length_c 13.925168
_cell_angle_alpha 69.731123
_cell_angle_beta 82.711624
_cell_angle_gamma 133.492772
_cell_volume 712.611230
_symmetry_space_group_name_H-M "P -1"
_symmetry_group_IT_number 2
_symmetry_cell_setting 'triclinic'
loop_
_space_group_symop_operation_xyz
x,y,z
-x,-y,-z
loop_
_atom_site_type_symbol
_atom_site_label
_atom_site_fract_x
_atom_site_fract_y
_atom_site_fract_z
Si Si1 0.146006 0.389210 0.804352
Si Si2 0.961464 0.101965 0.557839
Si Si3 0.749969 0.177928 0.970009
Si Si4 0.541664 0.380592 0.582625
Si Si5 0.453900 0.136642 0.466307
Si Si6 0.675238 0.774909 0.155128
Si Si7 0.295667 0.554888 0.970583
Si Si8 0.298453 0.279711 0.163372
O O1 0.330127 0.588327 0.661950
O O2 0.135447 0.193662 0.856311
O O3 0.233560 0.513161 0.874202
O O4 0.921009 0.295899 0.839713
O O5 0.187897 0.398213 0.482534
O O6 0.753192 0.011778 0.551787
O O7 0.884570 0.957255 0.697362
O O8 0.000000 0.000000 0.500000
O O9 0.788996 0.363031 0.989917
O O10 0.500000 0.000000 0.000000
O O11 0.749175 0.008558 0.059663
O O12 0.500000 0.500000 0.500000
O O13 0.420414 0.155651 0.575064
O O14 0.440424 0.302529 0.714340
O O15 0.500000 0.000000 0.500000
O O16 0.484491 0.532127 0.156685
O O17 0.561278 0.732509 0.901693
O O18 0.201055 0.324683 0.090420
#
# Coordination Sequence:
#
# PCOD9110297 Si02
#       8
#     2   2   2   2   2   2   2   2
#     4  11  24  48  64  96 142 176 231 283 345 422
#     4  12  22  44  76 101 138 187 234 287 340 421
#     4  12  26  41  67  99 137 174 231 290 342 403
#     4  12  24  45  75 106 135 185 241 279 350 419
#     4  12  28  48  70 106 146 182 231 298 350 412
#     4  11  22  44  69  99 136 181 228 284 343 417
#     4  10  22  42  65  97 130 180 220 280 345 405
#     4  10  20  41  72  97 139 175 230 278 347 416
#
# _framework density 22.452634
#
# number of rings (size 3 to 8) (size 9 to 14) (size 15 to 20)
#    0.000    0.750    7.500    0.750    1.750    4.500 
#    0.000    0.000    0.000    0.000    0.000    0.000 
#    0.000    0.000    0.000    0.000    0.000    0.000 
#
# Total GULP energy -89412.938478 kJ/mol
# GULP energy per Si atom -5588.308655 kJ/mol
# Density = 2.240153 g / cm^3
# Si number density = 22.452634 Si / 1000 Ang^3
#
#
#
# Elastic Constant Matrix: (Units=GPa)
#
#
# Indices 1 2 3 4 5 6 
#
# 1 137.2155 15.3994 25.9493 -7.5274 -10.6065 -16.3750
# 2 15.3994 55.3108 -2.7306 11.3103 -2.1493 -4.7294
# 3 25.9493 -2.7306 93.1467 12.5358 -10.4603 3.3524
# 4 -7.5274 11.3103 12.5358 26.2277 -1.5072 1.3532
# 5 -10.6065 -2.1493 -10.4603 -1.5072 29.7458 -4.0510
# 6 -16.3750 -4.7294 3.3524 1.3532 -4.0510 39.0240
#
#
#
# Elastic Compliance Matrix: (Units=1/GPa)
#
#
# Indices 1 2 3 4 5 6 
#
# 1 0.009279 -0.003476 -0.003286 0.005691 0.002713 0.003839
# 2 -0.003476 0.021827 0.003293 -0.011996 0.001083 0.001432
# 3 -0.003286 0.003293 0.013289 -0.008459 0.003106 -0.001506
# 4 0.005691 -0.011996 -0.008459 0.049014 0.000676 0.000031
# 5 0.002713 0.001083 0.003106 0.000676 0.036439 0.004762
# 6 0.003839 0.001432 -0.001506 0.000031 0.004762 0.028032
#
#
# Mechanical properties :
#
#
# Convention : Reuss Voigt Hill
#
# Bulk Modulus (GPa) = 26.69722 40.32324 33.51023
# Shear Modulus (GPa) = 28.19988 35.46984 31.83486
#
# Velocity S-wave (km/s) = 3.54781 3.97893 3.76954
# Velocity P-wave (km/s) = 5.35714 6.25360 5.82264
#
# Compressibility (1/GPa) = 0.03745708
#
# Stress axis : x y z
#
# Youngs Moduli (GPa) = 107.76515 45.81389 75.24944
#
# Poissons Ratio (x) = 0.15924 0.24730
# Poissons Ratio (y) = 0.37456 -0.24777
# Poissons Ratio (z) = 0.35415 -0.15085
#
# Static dielectric constant tensor:
#      x y z
#    x 1.904210 0.048830 -0.086690 
#    y 0.048830 1.866590 -0.023500 
#    z -0.086690 -0.023500 1.854410 
# 
# From -- ./inp_files/494658.got.cif
#   From: 2010.05.17/outbox.cif.g08.bks.cpg/sg2_248_cif.got.tgz:494658.got - 2010.06.03 11:33:40.
