data_PCOD9110877
_publ_section_title
;
Structure prediction by ZEFSAII (Michael W. Deem and Ramdas Pophale) SiO2 
 PCOD9110877
Probable space group: P -1
;
_chemical_formula_sum "Si O2"
_cell_formula_units_Z 16
_cell_length_a 19.797167
_cell_length_b 10.595339
_cell_length_c 8.102988
_cell_angle_alpha 50.324579
_cell_angle_beta 99.162867
_cell_angle_gamma 137.223758
_cell_volume 716.109769
_symmetry_space_group_name_H-M "P -1"
_symmetry_group_IT_number 2
_symmetry_cell_setting 'triclinic'
loop_
_space_group_symop_operation_xyz
x,y,z
-x,-y,-z
loop_
_atom_site_type_symbol
_atom_site_label
_atom_site_fract_x
_atom_site_fract_y
_atom_site_fract_z
Si Si1 0.131787 0.185758 0.934631
Si Si2 0.757758 0.135153 0.979671
Si Si3 0.755084 0.991603 0.454655
Si Si4 0.336727 0.836664 0.601521
Si Si5 0.025186 0.676773 0.512635
Si Si6 0.449115 0.581093 0.955740
Si Si7 0.324344 0.353679 0.757621
Si Si8 0.449487 0.039128 0.827436
O O1 0.222529 0.504647 0.771996
O O2 0.207060 0.236939 0.779098
O O3 0.099669 0.979763 0.222635
O O4 0.000000 0.000000 0.000000
O O5 0.769551 0.045344 0.221781
O O6 0.708948 0.903628 0.025473
O O7 0.659366 0.078501 0.026499
O O8 0.891833 0.462885 0.706898
O O9 0.707643 0.071873 0.436191
O O10 0.885759 0.220510 0.400405
O O11 0.649500 0.647526 0.747339
O O12 0.432783 0.063435 0.299944
O O13 0.396589 0.883415 0.754974
O O14 0.000000 0.500000 0.500000
O O15 0.374122 0.496900 0.838809
O O16 0.500000 0.500000 0.000000
O O17 0.437108 0.613147 0.462944
O O18 0.500000 0.000000 0.000000
#
# Coordination Sequence:
#
# PCOD9110877 Si02
#       8
#     2   2   2   2   2   2   2   2
#     4  12  26  43  67 100 137 176 228 278 335 394
#     4  11  24  43  68  97 135 176 226 281 328 402
#     4  10  20  42  67 102 129 175 225 279 335 396
#     4   9  22  42  68  98 137 176 221 276 335 403
#     4  12  23  43  69  97 131 180 232 271 332 405
#     4   9  18  39  68  96 127 169 225 275 326 392
#     4  11  23  45  65  99 132 177 233 272 331 401
#     4  10  24  45  66 100 140 175 219 276 351 394
#
# _framework density 22.342942000000001
#
# number of rings (size 3 to 8) (size 9 to 14) (size 15 to 20)
#    0.000    1.500    2.500    2.250    1.750    4.000 
#    4.500    2.500    0.000    0.000    0.000    0.000 
#    0.000    0.000    0.000    0.000    0.000    0.000 
#
# Total GULP energy -89441.397675 kJ/mol
# GULP energy per Si atom -5590.087355 kJ/mol
# Density = 2.229209 g / cm^3
# Si number density = 22.342942 Si / 1000 Ang^3
#
#
#
# Elastic Constant Matrix: (Units=GPa)
#
#
# Indices 1 2 3 4 5 6 
#
# 1 109.9851 33.2196 27.9170 -5.5175 -21.5150 29.7268
# 2 33.2196 96.3068 46.1551 -18.8957 2.7484 17.5959
# 3 27.9170 46.1551 143.9139 -37.3671 -17.7788 7.2623
# 4 -5.5175 -18.8957 -37.3671 38.9397 8.2396 2.9348
# 5 -21.5150 2.7484 -17.7788 8.2396 41.5912 -2.5459
# 6 29.7268 17.5959 7.2623 2.9348 -2.5459 37.2485
#
#
#
# Elastic Compliance Matrix: (Units=1/GPa)
#
#
# Indices 1 2 3 4 5 6 
#
# 1 0.013924 -0.003264 -0.000616 -0.000970 0.006802 -0.008909
# 2 -0.003264 0.015120 -0.003296 0.005210 -0.005415 -0.004675
# 3 -0.000616 -0.003296 0.010536 0.007860 0.002819 -0.000432
# 4 -0.000970 0.005210 0.007860 0.037217 -0.005258 -0.006511
# 5 0.006802 -0.005415 0.002819 -0.005258 0.030109 -0.000948
# 6 -0.008909 -0.004675 -0.000432 -0.006511 -0.000948 0.036698
#
#
# Mechanical properties :
#
#
# Convention : Reuss Voigt Hill
#
# Bulk Modulus (GPa) = 39.64056 62.75436 51.19746
# Shear Modulus (GPa) = 30.05399 39.75015 34.90207
#
# Velocity S-wave (km/s) = 3.67157 4.22250 3.95664
# Velocity P-wave (km/s) = 5.97949 7.20559 6.62098
#
# Compressibility (1/GPa) = 0.02522668
#
# Stress axis : x y z
#
# Youngs Moduli (GPa) = 71.81618 66.13670 94.91094
#
# Poissons Ratio (x) = 0.21590 0.05848
# Poissons Ratio (y) = 0.23444 0.31286
# Poissons Ratio (z) = 0.04425 0.21801
#
# Static dielectric constant tensor:
#      x y z
#    x 1.891640 0.000740 0.026420 
#    y 0.000740 1.888810 0.007060 
#    z 0.026420 0.007060 1.847670 
# 
# From -- ./inp_files/345872.got.cif
#   From: 2010.05.17/outbox.cif.g08.bks.cpg/sg2_173_cif.got.tgz:345872.got - 2010.06.03 11:33:40.
