data_PCOD9110190
_publ_section_title
;
Structure prediction by ZEFSAII (Michael W. Deem and Ramdas Pophale) SiO2 
 PCOD9110190
Probable space group: P -1
;
_chemical_formula_sum "Si O2"
_cell_formula_units_Z 16
_cell_length_a 19.678161
_cell_length_b 11.680870
_cell_length_c 7.846467
_cell_angle_alpha 44.807453
_cell_angle_beta 133.682065
_cell_angle_gamma 149.518242
_cell_volume 628.709532
_symmetry_space_group_name_H-M "P -1"
_symmetry_group_IT_number 2
_symmetry_cell_setting 'triclinic'
loop_
_space_group_symop_operation_xyz
x,y,z
-x,-y,-z
loop_
_atom_site_type_symbol
_atom_site_label
_atom_site_fract_x
_atom_site_fract_y
_atom_site_fract_z
Si Si1 0.320580 0.863126 0.207370
Si Si2 0.780900 0.200238 0.285411
Si Si3 0.824212 0.773366 0.092033
Si Si4 0.049251 0.405733 0.382495
Si Si5 0.525857 0.684607 0.469550
Si Si6 0.443217 0.662504 0.707921
Si Si7 0.261607 0.505201 0.080207
Si Si8 0.008687 0.177351 0.223665
O O1 0.188781 0.677577 0.297527
O O2 0.395087 0.781470 0.435538
O O3 0.423860 0.131437 0.167110
O O4 0.278795 0.846938 0.958855
O O5 0.937662 0.349560 0.367348
O O6 0.681608 0.941942 0.466977
O O7 0.763028 0.348091 0.196298
O O8 0.913084 0.723889 0.341184
O O9 0.681637 0.570794 0.157905
O O10 0.789530 0.705751 0.905542
O O11 0.906572 0.028630 0.043859
O O12 0.986641 0.287880 0.209203
O O13 0.500000 0.500000 0.500000
O O14 0.477991 0.601039 0.668085
O O15 0.420441 0.684805 0.209475
O O16 0.162406 0.379889 0.203780
O O17 0.000000 0.000000 0.500000
#
# Coordination Sequence:
#
# PCOD9110190 Si02
#       8
#     2   2   2   2   2   2   2   2
#     4  10  20  41  70  97 130 172 228 279 322 409
#     4  12  25  41  69  97 139 174 229 281 325 407
#     4  10  23  41  72  95 139 177 227 274 330 408
#     4  10  22  41  64 102 132 177 220 275 348 380
#     4  12  28  45  66  97 139 176 222 279 346 401
#     4  10  22  43  69  96 130 179 225 272 344 384
#     4  12  24  45  68 102 129 180 234 272 334 395
#     4  10  21  41  70  96 138 176 215 278 336 404
#
# _framework density 25.448955999999999
#
# number of rings (size 3 to 8) (size 9 to 14) (size 15 to 20)
#    0.000    1.250    2.500    3.375   10.500    0.500 
#    2.250    1.250    0.000    0.000    0.000    0.000 
#    0.000    0.000    0.000    0.000    0.000    0.000 
#
# Total GULP energy -89699.742870 kJ/mol
# GULP energy per Si atom -5606.233929 kJ/mol
# Density = 2.539103 g / cm^3
# Si number density = 25.448956 Si / 1000 Ang^3
#
#
#
# Elastic Constant Matrix: (Units=GPa)
#
#
# Indices 1 2 3 4 5 6 
#
# 1 140.0289 53.6809 14.6361 0.5622 7.3934 -8.1382
# 2 53.6809 128.1016 -2.2798 5.6354 6.8077 -6.0522
# 3 14.6361 -2.2798 38.0330 10.8998 13.7835 3.7000
# 4 0.5622 5.6354 10.8998 38.4162 -1.8403 -8.0708
# 5 7.3934 6.8077 13.7835 -1.8403 32.0308 5.8837
# 6 -8.1382 -6.0522 3.7000 -8.0708 5.8837 37.1220
#
#
#
# Elastic Compliance Matrix: (Units=1/GPa)
#
#
# Indices 1 2 3 4 5 6 
#
# 1 0.009283 -0.004000 -0.004901 0.002350 0.000529 0.002298
# 2 -0.004000 0.009843 0.003964 -0.002604 -0.003070 0.000253
# 3 -0.004901 0.003964 0.038506 -0.013169 -0.016200 -0.004562
# 4 0.002350 -0.002604 -0.013169 0.031959 0.006159 0.007375
# 5 0.000529 -0.003070 -0.016200 0.006159 0.039761 -0.003733
# 6 0.002298 0.000253 -0.004562 0.007375 -0.003733 0.030133
#
#
# Mechanical properties :
#
#
# Convention : Reuss Voigt Hill
#
# Bulk Modulus (GPa) = 20.93956 48.69309 34.81632
# Shear Modulus (GPa) = 26.98627 37.52222 32.25425
#
# Velocity S-wave (km/s) = 3.25992 3.84397 3.56393
# Velocity P-wave (km/s) = 4.73449 6.23511 5.53589
#
# Compressibility (1/GPa) = 0.04775649
#
# Stress axis : x y z
#
# Youngs Moduli (GPa) = 107.71892 101.59636 25.97030
#
# Poissons Ratio (x) = 0.40642 0.12728
# Poissons Ratio (y) = 0.43091 -0.10294
# Poissons Ratio (z) = 0.52795 -0.40271
#
# Static dielectric constant tensor:
#      x y z
#    x 2.001940 -0.107400 0.048890 
#    y -0.107400 2.085600 -0.028720 
#    z 0.048890 -0.028720 2.102730 
# 
# From -- ./inp_files/205160.got.cif
#   From: 2010.05.17/outbox.cif.g08.bks.cpg/sg2_103_cif.got.tgz:205160.got - 2010.06.03 11:33:40.
