data_PCOD9110769
_publ_section_title
;
Structure prediction by ZEFSAII (Michael W. Deem and Ramdas Pophale) SiO2 
 PCOD9110769
Probable space group: P -1
;
_chemical_formula_sum "Si O2"
_cell_formula_units_Z 16
_cell_length_a 13.885295
_cell_length_b 8.864135
_cell_length_c 12.878398
_cell_angle_alpha 130.104810
_cell_angle_beta 41.944285
_cell_angle_gamma 136.313710
_cell_volume 712.124589
_symmetry_space_group_name_H-M "P -1"
_symmetry_group_IT_number 2
_symmetry_cell_setting 'triclinic'
loop_
_space_group_symop_operation_xyz
x,y,z
-x,-y,-z
loop_
_atom_site_type_symbol
_atom_site_label
_atom_site_fract_x
_atom_site_fract_y
_atom_site_fract_z
Si Si1 0.266079 0.176121 0.053271
Si Si2 0.856948 0.407331 0.736930
Si Si3 0.078541 0.262683 0.564651
Si Si4 0.402950 0.260951 0.747748
Si Si5 0.482050 0.951578 0.113168
Si Si6 0.736028 0.430332 0.639632
Si Si7 0.051718 0.939704 0.822559
Si Si8 0.572513 0.635088 0.606001
O O1 0.307883 0.397194 0.185218
O O2 0.326075 0.246133 0.917370
O O3 0.359564 0.047257 0.963954
O O4 0.067020 0.025616 0.148527
O O5 0.666164 0.299976 0.870373
O O6 0.824625 0.342304 0.610516
O O7 0.926870 0.307759 0.725500
O O8 0.973705 0.672038 0.764092
O O9 0.140001 0.408177 0.474174
O O10 0.243632 0.332429 0.524747
O O11 0.000000 0.000000 0.500000
O O12 0.569069 0.247505 0.637735
O O13 0.248605 0.074339 0.722709
O O14 0.476055 0.486411 0.718723
O O15 0.434895 0.132115 0.281334
O O16 0.500000 0.000000 0.000000
O O17 0.000000 0.000000 0.000000
O O18 0.500000 0.500000 0.500000
#
# Coordination Sequence:
#
# PCOD9110769 Si02
#       8
#     2   2   2   2   2   2   2   2
#     4  10  21  39  68  97 127 170 226 275 328 393
#     4  11  23  42  67  97 131 172 230 272 327 400
#     4  11  23  44  65  95 138 178 225 272 337 401
#     4  10  20  42  66  90 131 172 216 272 335 395
#     4  12  25  42  72 102 135 175 229 278 338 402
#     4  10  21  38  69  97 129 171 223 279 324 399
#     4   9  22  37  64  96 130 164 217 276 331 386
#     4  11  27  46  66  97 140 182 217 280 348 400
#
# _framework density 22.467979
#
# number of rings (size 3 to 8) (size 9 to 14) (size 15 to 20)
#    0.000    1.500    2.500    2.250    8.750    4.000 
#    2.250    2.500    0.000    0.000    0.000    0.000 
#    0.000    0.000    0.000    0.000    0.000    0.000 
#
# Total GULP energy -89145.691162 kJ/mol
# GULP energy per Si atom -5571.605698 kJ/mol
# Density = 2.241684 g / cm^3
# Si number density = 22.467979 Si / 1000 Ang^3
#
#
#
# Elastic Constant Matrix: (Units=GPa)
#
#
# Indices 1 2 3 4 5 6 
#
# 1 185.1838 52.5429 33.1902 13.2971 -43.2835 27.0257
# 2 52.5429 89.1088 2.9687 -4.9060 -16.1594 25.6954
# 3 33.1902 2.9687 40.1024 10.7845 -6.4083 2.2787
# 4 13.2971 -4.9060 10.7845 30.4451 -7.6197 -11.8716
# 5 -43.2835 -16.1594 -6.4083 -7.6197 47.5024 -10.1816
# 6 27.0257 25.6954 2.2787 -11.8716 -10.1816 41.6413
#
#
#
# Elastic Compliance Matrix: (Units=1/GPa)
#
#
# Indices 1 2 3 4 5 6 
#
# 1 0.009334 -0.003626 -0.005789 -0.002330 0.005512 -0.002820
# 2 -0.003626 0.015477 0.002155 0.000880 0.000927 -0.006837
# 3 -0.005789 0.002155 0.032082 -0.010213 -0.002461 -0.002842
# 4 -0.002330 0.000880 -0.010213 0.046001 0.007720 0.016530
# 5 0.005512 0.000927 -0.002461 0.007720 0.028395 0.005129
# 6 -0.002820 -0.006837 -0.002842 0.016530 0.005129 0.036186
#
#
# Mechanical properties :
#
#
# Convention : Reuss Voigt Hill
#
# Bulk Modulus (GPa) = 23.59960 54.64428 39.12194
# Shear Modulus (GPa) = 25.49478 38.96398 32.22938
#
# Velocity S-wave (km/s) = 3.37221 4.16889 3.79153
# Velocity P-wave (km/s) = 5.06842 6.89541 6.05126
#
# Compressibility (1/GPa) = 0.04237360
#
# Stress axis : x y z
#
# Youngs Moduli (GPa) = 107.13949 64.61289 31.16991
#
# Poissons Ratio (x) = 0.23431 0.18043
# Poissons Ratio (y) = 0.38852 -0.06719
# Poissons Ratio (z) = 0.62019 -0.13927
#
# Static dielectric constant tensor:
#      x y z
#    x 1.492040 -0.099020 0.056150 
#    y -0.099020 1.814480 -0.015600 
#    z 0.056150 -0.015600 2.032210 
# 
# From -- ./inp_files/529057.got.cif
#   From: 2010.05.17/outbox.cif.g08.bks.cpg/sg2_265_cif.got.tgz:529057.got - 2010.06.03 11:33:40.
