data_PCOD9110956
_publ_section_title
;
Structure prediction by ZEFSAII (Michael W. Deem and Ramdas Pophale) SiO2 
 PCOD9110956
Probable space group: P -1
;
_chemical_formula_sum "Si O2"
_cell_formula_units_Z 14
_cell_length_a 28.565064
_cell_length_b 9.414269
_cell_length_c 19.774443
_cell_angle_alpha 151.798151
_cell_angle_beta 163.301752
_cell_angle_gamma 25.905407
_cell_volume 659.266656
_symmetry_space_group_name_H-M "P -1"
_symmetry_group_IT_number 2
_symmetry_cell_setting 'triclinic'
loop_
_space_group_symop_operation_xyz
x,y,z
-x,-y,-z
loop_
_atom_site_type_symbol
_atom_site_label
_atom_site_fract_x
_atom_site_fract_y
_atom_site_fract_z
Si Si1 0.043906 0.304358 0.778407
Si Si2 0.776659 0.351327 0.329561
Si Si3 0.624821 0.617211 0.678506
Si Si4 0.425076 0.749735 0.202389
Si Si5 0.489562 0.809419 0.023531
Si Si6 0.345288 0.689572 0.553707
Si Si7 0.012304 0.197542 0.842468
O O1 0.898699 0.485524 0.597069
O O2 0.971120 0.320895 0.760026
O O3 0.120440 0.925875 0.699642
O O4 0.206077 0.412260 0.055253
O O5 0.623019 0.639664 0.198988
O O6 0.697309 0.171253 0.198167
O O7 0.500000 0.500000 0.500000
O O8 0.676618 0.410878 0.594635
O O9 0.541491 0.992669 0.693138
O O10 0.561179 0.627701 0.401876
O O11 0.456749 0.432547 0.067473
O O12 0.217242 0.929387 0.012869
O O13 0.520016 0.131787 0.184014
O O14 0.146460 0.903237 0.396028
O O15 0.000000 0.500000 0.000000
#
# Coordination Sequence:
#
# PCOD9110956 Si02
#       7
#     2   2   2   2   2   2   2
#     4  10  20  42  67  97 133 182 221 282 342 401
#     4  10  21  41  70  95 138 177 223 284 347 394
#     4  11  23  43  69 101 134 175 231 280 338 409
#     4  11  24  46  70  97 141 186 222 281 350 397
#     4  11  23  43  68 102 134 180 232 278 342 411
#     4  12  25  43  70 103 137 181 229 282 343 413
#     4  11  22  43  66  96 138 181 228 274 335 418
#
# _framework density 21.235716
#
# number of rings (size 3 to 8) (size 9 to 14) (size 15 to 20)
#    0.000    1.143    5.714    2.571    2.000    0.571 
#    7.714    0.714    0.000    0.000    0.000    0.000 
#    0.000    0.000    0.000    0.000    0.000    0.000 
#
# Total GULP energy -78223.865524 kJ/mol
# GULP energy per Si atom -5587.418966 kJ/mol
# Density = 2.118738 g / cm^3
# Si number density = 21.235716 Si / 1000 Ang^3
#
#
#
# Elastic Constant Matrix: (Units=GPa)
#
#
# Indices 1 2 3 4 5 6 
#
# 1 107.0249 17.0404 71.8727 -7.7454 -13.0109 -4.5797
# 2 17.0404 36.2125 19.6253 -1.9971 -3.3701 -2.8676
# 3 71.8727 19.6253 127.7511 -2.8513 -9.1507 8.0239
# 4 -7.7454 -1.9971 -2.8513 34.5565 -1.5420 -3.8147
# 5 -13.0109 -3.3701 -9.1507 -1.5420 32.3137 15.1142
# 6 -4.5797 -2.8676 8.0239 -3.8147 15.1142 24.1920
#
#
#
# Elastic Compliance Matrix: (Units=1/GPa)
#
#
# Indices 1 2 3 4 5 6 
#
# 1 0.016449 -0.002037 -0.009115 0.003495 0.001386 0.005581
# 2 -0.002037 0.031196 -0.004066 0.001585 -0.001327 0.005740
# 3 -0.009115 -0.004066 0.014522 -0.002005 0.004742 -0.010303
# 4 0.003495 0.001585 -0.002005 0.030360 -0.000698 0.006738
# 5 0.001386 -0.001327 0.004742 -0.000698 0.047209 -0.031072
# 6 0.005581 0.005740 -0.010303 0.006738 -0.031072 0.066965
#
#
# Mechanical properties :
#
#
# Convention : Reuss Voigt Hill
#
# Bulk Modulus (GPa) = 31.51523 54.22949 42.87236
# Shear Modulus (GPa) = 20.18451 29.04245 24.61348
#
# Velocity S-wave (km/s) = 3.08636 3.70215 3.40819
# Velocity P-wave (km/s) = 5.25107 6.62321 5.97665
#
# Compressibility (1/GPa) = 0.03173069
#
# Stress axis : x y z
#
# Youngs Moduli (GPa) = 60.79365 32.05579 68.86003
#
# Poissons Ratio (x) = 0.06530 0.62763
# Poissons Ratio (y) = 0.12385 0.28001
# Poissons Ratio (z) = 0.55410 0.13035
#
# Static dielectric constant tensor:
#      x y z
#    x 1.762490 -0.011890 0.020670 
#    y -0.011890 1.773390 -0.020190 
#    z 0.020670 -0.020190 1.797960 
# 
# From -- ./inp_files/186809.got.cif
#   From: 2010.05.17/outbox.cif.g08.bks.cpg/sg2_94_cif.got.tgz:186809.got - 2010.06.03 11:33:40.
