data_PCOD9110951
_publ_section_title
;
Structure prediction by ZEFSAII (Michael W. Deem and Ramdas Pophale) SiO2 
 PCOD9110951
Probable space group: P -1
;
_chemical_formula_sum "Si O2"
_cell_formula_units_Z 16
_cell_length_a 9.108420
_cell_length_b 12.007022
_cell_length_c 14.946730
_cell_angle_alpha 150.917470
_cell_angle_beta 87.654659
_cell_angle_gamma 100.728147
_cell_volume 754.866931
_symmetry_space_group_name_H-M "P -1"
_symmetry_group_IT_number 2
_symmetry_cell_setting 'triclinic'
loop_
_space_group_symop_operation_xyz
x,y,z
-x,-y,-z
loop_
_atom_site_type_symbol
_atom_site_label
_atom_site_fract_x
_atom_site_fract_y
_atom_site_fract_z
Si Si1 0.850061 0.235597 0.221318
Si Si2 0.410255 0.019159 0.648369
Si Si3 0.764521 0.168902 0.976009
Si Si4 0.934291 0.999106 0.365355
Si Si5 0.348578 0.610783 0.216382
Si Si6 0.893198 0.764601 0.649059
Si Si7 0.424101 0.126445 0.921205
Si Si8 0.004977 0.613297 0.206607
O O1 0.852348 0.224411 0.107236
O O2 0.827183 0.487905 0.428391
O O3 0.007485 0.226223 0.257195
O O4 0.709711 0.020802 0.113219
O O5 0.250862 0.080102 0.679447
O O6 0.553348 0.233979 0.758245
O O7 0.423017 0.982753 0.727725
O O8 0.394787 0.784075 0.423892
O O9 0.861227 0.374327 0.050508
O O10 0.592002 0.177376 0.995381
O O11 0.771038 0.908162 0.763287
O O12 0.993482 0.780353 0.241043
O O13 0.996775 0.217496 0.587977
O O14 0.989401 0.098187 0.335608
O O15 0.166911 0.558300 0.167221
O O16 0.392301 0.371189 0.064419
#
# Coordination Sequence:
#
# PCOD9110951 Si02
#       8
#     2   2   2   2   2   2   2   2
#     4  11  25  47  66  92 129 169 222 268 315 374
#     4  10  22  42  63  96 132 169 213 252 327 383
#     4  12  26  42  65 100 129 170 214 266 320 379
#     4  10  20  42  67  96 132 167 209 268 323 378
#     4  10  23  41  68  97 132 172 205 268 321 384
#     4  11  24  43  72  92 125 172 216 270 318 376
#     4  12  25  42  66  94 132 174 213 262 317 387
#     4  10  22  39  69  99 131 165 210 265 326 382
#
# _framework density 21.195789000000001
#
# number of rings (size 3 to 8) (size 9 to 14) (size 15 to 20)
#    0.000    1.250    2.500    2.625    1.750    4.000 
#    0.000    0.000    0.000    0.000    0.000    0.000 
#    0.000    0.000    0.000    0.000    0.000    0.000 
#
# Total GULP energy -89566.765674 kJ/mol
# GULP energy per Si atom -5597.922855 kJ/mol
# Density = 2.114755 g / cm^3
# Si number density = 21.195789 Si / 1000 Ang^3
#
#
#
# Elastic Constant Matrix: (Units=GPa)
#
#
# Indices 1 2 3 4 5 6 
#
# 1 37.6865 -20.4723 13.7331 11.9538 -15.6955 -3.0447
# 2 -20.4723 45.8435 0.9413 -5.5612 -3.9031 -5.3761
# 3 13.7331 0.9413 50.2533 11.3098 -9.1879 -9.5546
# 4 11.9538 -5.5612 11.3098 34.8444 1.2828 3.7553
# 5 -15.6955 -3.9031 -9.1879 1.2828 22.4054 5.9582
# 6 -3.0447 -5.3761 -9.5546 3.7553 5.9582 28.5057
#
#
#
# Elastic Compliance Matrix: (Units=1/GPa)
#
#
# Indices 1 2 3 4 5 6 
#
# 1 0.087556 0.042482 -0.006293 -0.024149 0.066322 0.004574
# 2 0.042482 0.043445 -0.003036 -0.008540 0.035109 0.005500
# 3 -0.006293 -0.003036 0.025526 -0.007563 0.003975 0.007477
# 4 -0.024149 -0.008540 -0.007563 0.039675 -0.021812 -0.007393
# 5 0.066322 0.035109 0.003975 -0.021812 0.100934 -0.003186
# 6 0.004574 0.005500 0.007477 -0.007393 -0.003186 0.040752
#
#
# Mechanical properties :
#
#
# Convention : Reuss Voigt Hill
#
# Bulk Modulus (GPa) = 4.48764 13.57638 9.03201
# Shear Modulus (GPa) = 14.45669 26.45652 20.45661
#
# Velocity S-wave (km/s) = 2.61445 3.53682 3.11002
# Velocity P-wave (km/s) = 3.35196 4.80603 4.14328
#
# Compressibility (1/GPa) = 0.22283438
#
# Stress axis : x y z
#
# Youngs Moduli (GPa) = 11.42126 23.01748 39.17549
#
# Poissons Ratio (x) = -0.97784 0.24651
# Poissons Ratio (y) = -0.48520 0.11895
# Poissons Ratio (z) = 0.07187 0.06989
#
# Static dielectric constant tensor:
#      x y z
#    x 1.724700 -0.008760 0.000620 
#    y -0.008760 1.719890 -0.032670 
#    z 0.000620 -0.032670 1.784940 
# 
# From -- ./inp_files/400106.got.cif
#   From: 2010.05.17/outbox.cif.g08.bks.cpg/sg2_201_cif.got.tgz:400106.got - 2010.06.03 11:33:40.
