data_PCOD9110929
_publ_section_title
;
Structure prediction by ZEFSAII (Michael W. Deem and Ramdas Pophale) SiO2 
 PCOD9110929
Probable space group: P -1
;
_chemical_formula_sum "Si O2"
_cell_formula_units_Z 16
_cell_length_a 5.129151
_cell_length_b 18.981545
_cell_length_c 11.319913
_cell_angle_alpha 111.460168
_cell_angle_beta 60.508583
_cell_angle_gamma 133.746959
_cell_volume 692.430114
_symmetry_space_group_name_H-M "P -1"
_symmetry_group_IT_number 2
_symmetry_cell_setting 'triclinic'
loop_
_space_group_symop_operation_xyz
x,y,z
-x,-y,-z
loop_
_atom_site_type_symbol
_atom_site_label
_atom_site_fract_x
_atom_site_fract_y
_atom_site_fract_z
Si Si1 0.642724 0.063104 0.284460
Si Si2 0.107225 0.758706 0.999760
Si Si3 0.884780 0.717226 0.279204
Si Si4 0.926655 0.888145 0.011953
Si Si5 0.628438 0.904186 0.301256
Si Si6 0.435826 0.567635 0.489019
Si Si7 0.513537 0.734943 0.702286
Si Si8 0.387809 0.163895 0.480311
O O1 0.310016 0.074564 0.363597
O O2 0.760944 0.051832 0.123417
O O3 0.046540 0.165309 0.306798
O O4 0.515881 0.972396 0.337411
O O5 0.525658 0.848252 0.014416
O O6 0.225725 0.709130 0.856575
O O7 0.943174 0.801603 0.986503
O O8 0.841844 0.700796 0.138198
O O9 0.692627 0.625515 0.351111
O O10 0.768447 0.782606 0.393040
O O11 0.337845 0.793005 0.248412
O O12 0.975478 0.940801 0.155995
O O13 0.571750 0.877767 0.434308
O O14 0.500000 0.500000 0.500000
O O15 0.525659 0.650068 0.610111
O O16 0.000000 0.500000 0.500000
O O17 0.372082 0.756532 0.629251
#
# Coordination Sequence:
#
# PCOD9110929 Si02
#       8
#     2   2   2   2   2   2   2   2
#     4  11  23  38  60  94 135 178 223 268 316 382
#     4  10  20  42  67  93 128 175 215 271 316 384
#     4  10  24  41  66  95 129 173 218 269 328 389
#     4  10  21  40  60  93 132 181 225 258 313 376
#     4  11  23  38  60  94 135 178 223 268 316 382
#     4  11  27  45  73  99 129 165 215 269 341 400
#     4  10  24  41  66  95 129 173 218 269 328 389
#     4  11  20  36  59  82 132 165 224 257 328 361
#
# _framework density 23.107023999999999
#
# number of rings (size 3 to 8) (size 9 to 14) (size 15 to 20)
#    0.000    1.500    2.500    2.250    7.000    2.000 
#    0.000    3.750    0.000    0.000    0.000    0.000 
#    0.000    0.000    0.000    0.000    0.000    0.000 
#
# Total GULP energy -89093.183122 kJ/mol
# GULP energy per Si atom -5568.323945 kJ/mol
# Density = 2.305443 g / cm^3
# Si number density = 23.107024 Si / 1000 Ang^3
#
#
#
# Elastic Constant Matrix: (Units=GPa)
#
#
# Indices 1 2 3 4 5 6 
#
# 1 78.3677 53.0216 21.3941 -13.3482 0.0406 -21.0779
# 2 53.0216 133.4779 43.9759 -17.8740 13.8105 -34.9402
# 3 21.3941 43.9759 195.0648 -14.8026 21.5211 -26.1369
# 4 -13.3482 -17.8740 -14.8026 28.6922 -2.7662 7.6382
# 5 0.0406 13.8105 21.5211 -2.7662 23.0667 -0.9742
# 6 -21.0779 -34.9402 -26.1369 7.6382 -0.9742 49.7539
#
#
#
# Elastic Compliance Matrix: (Units=1/GPa)
#
#
# Indices 1 2 3 4 5 6 
#
# 1 0.018725 -0.006576 -0.000460 0.004180 0.004942 0.002527
# 2 -0.006576 0.012689 -0.000505 0.002527 -0.006586 0.005343
# 3 -0.000460 -0.000505 0.006320 0.001575 -0.005302 0.002425
# 4 0.004180 0.002527 0.001575 0.039803 0.001711 -0.001704
# 5 0.004942 -0.006586 -0.005302 0.001711 0.052246 -0.004556
# 6 0.002527 0.005343 0.002425 -0.001704 -0.004556 0.026368
#
#
# Mechanical properties :
#
#
# Convention : Reuss Voigt Hill
#
# Bulk Modulus (GPa) = 44.14967 71.52149 57.83558
# Shear Modulus (GPa) = 27.96657 39.53715 33.75186
#
# Velocity S-wave (km/s) = 3.48272 4.14097 3.82602
# Velocity P-wave (km/s) = 5.94311 7.34050 6.67845
#
# Compressibility (1/GPa) = 0.02265023
#
# Stress axis : x y z
#
# Youngs Moduli (GPa) = 53.40559 78.80876 158.22055
#
# Poissons Ratio (x) = 0.51826 0.07285
# Poissons Ratio (y) = 0.35121 0.07992
# Poissons Ratio (z) = 0.02459 0.03981
#
# Static dielectric constant tensor:
#      x y z
#    x 2.016330 0.052900 -0.024440 
#    y 0.052900 1.833070 -0.008290 
#    z -0.024440 -0.008290 2.071990 
# 
# From -- ./inp_files/128443.got.cif
#   From: 2010.05.17/outbox.cif.g08.bks.cpg/sg2_65_cif.got.tgz:128443.got - 2010.06.03 11:33:40.
