data_PCOD9110586
_publ_section_title
;
Structure prediction by ZEFSAII (Michael W. Deem and Ramdas Pophale) SiO2 
 PCOD9110586
Probable space group: P -1
;
_chemical_formula_sum "Si O2"
_cell_formula_units_Z 15
_cell_length_a 12.742556
_cell_length_b 19.864056
_cell_length_c 12.550544
_cell_angle_alpha 157.669264
_cell_angle_beta 137.360997
_cell_angle_gamma 30.184371
_cell_volume 571.859027
_symmetry_space_group_name_H-M "P -1"
_symmetry_group_IT_number 2
_symmetry_cell_setting 'triclinic'
loop_
_space_group_symop_operation_xyz
x,y,z
-x,-y,-z
loop_
_atom_site_type_symbol
_atom_site_label
_atom_site_fract_x
_atom_site_fract_y
_atom_site_fract_z
Si Si1 0.546734 0.725802 0.684558
Si Si2 0.009329 0.958832 0.825694
Si Si3 0.120972 0.488408 0.200449
Si Si4 0.397891 0.334034 0.750111
Si Si5 0.214796 0.548661 0.148048
Si Si6 0.143757 0.860284 0.235935
Si Si7 0.261123 0.256356 0.340570
Si Si8 0.500000 0.500000 0.500000
O O1 0.748511 0.642866 0.785341
O O2 0.605733 0.707547 0.579229
O O3 0.539779 0.537602 0.454516
O O4 0.336656 0.016261 0.985689
O O5 0.959569 0.789521 0.525648
O O6 0.264372 0.785461 0.739343
O O7 0.877939 0.170999 0.950326
O O8 0.000000 0.000000 0.000000
O O9 0.292937 0.433121 0.159321
O O10 0.989612 0.423135 0.976518
O O11 0.636389 0.198016 0.685159
O O12 0.335945 0.213054 0.456592
O O13 0.208947 0.634425 0.019333
O O14 0.383204 0.354205 0.896767
O O15 0.080235 0.845623 0.472878
O O16 0.000000 0.500000 0.500000
#
# Coordination Sequence:
#
# PCOD9110586 Si02
#       8
#     2   2   2   2   2   2   2   1
#     4  10  23  44  62 100 133 174 222 284 338 402
#     4  10  23  41  65  96 134 172 222 285 334 401
#     4   9  20  40  65  91 125 171 218 270 342 390
#     4  11  24  41  66  96 130 179 224 267 335 406
#     4  10  20  42  64  90 130 168 219 275 327 399
#     4  10  24  42  61  98 131 174 224 272 329 397
#     4  11  25  43  70  98 138 180 229 279 344 406
#     4  10  24  40  66  96 134 174 220 276 340 392
#
# _framework density 26.230242000000001
#
# number of rings (size 3 to 8) (size 9 to 14) (size 15 to 20)
#    0.000    1.867    0.000    2.000    5.600    5.333 
#    7.200   10.667    0.000    0.000    0.000    0.000 
#    0.000    0.000    0.000    0.000    0.000    0.000 
#
# Total GULP energy -83583.719492 kJ/mol
# GULP energy per Si atom -5572.247966 kJ/mol
# Density = 2.617054 g / cm^3
# Si number density = 26.230242 Si / 1000 Ang^3
#
#
#
# Elastic Constant Matrix: (Units=GPa)
#
#
# Indices 1 2 3 4 5 6 
#
# 1 81.3268 -6.0415 24.3328 -4.8739 -11.1773 19.9912
# 2 -6.0415 58.4209 5.5871 11.9656 -17.0248 22.4165
# 3 24.3328 5.5871 112.8113 4.9268 -12.9908 5.1156
# 4 -4.8739 11.9656 4.9268 40.1822 11.7025 -13.6872
# 5 -11.1773 -17.0248 -12.9908 11.7025 40.6020 -4.7615
# 6 19.9912 22.4165 5.1156 -13.6872 -4.7615 43.5335
#
#
#
# Elastic Compliance Matrix: (Units=1/GPa)
#
#
# Indices 1 2 3 4 5 6 
#
# 1 0.020114 0.016394 -0.002181 -0.012795 0.013054 -0.020017
# 2 0.016394 0.052689 0.001275 -0.038171 0.032949 -0.043207
# 3 -0.002181 0.001275 0.009950 -0.003528 0.003959 -0.001500
# 4 -0.012795 -0.038171 -0.003528 0.058562 -0.032754 0.040775
# 5 0.013054 0.032949 0.003959 -0.032754 0.049425 -0.028318
# 6 -0.020017 -0.043207 -0.001500 0.040775 -0.028318 0.064310
#
#
# Mechanical properties :
#
#
# Convention : Reuss Voigt Hill
#
# Bulk Modulus (GPa) = 8.79275 33.36842 21.08059
# Shear Modulus (GPa) = 19.08516 40.10891 29.59704
#
# Velocity S-wave (km/s) = 2.70033 3.91463 3.36274
# Velocity P-wave (km/s) = 3.61688 5.76033 4.80953
#
# Compressibility (1/GPa) = 0.11373003
#
# Stress axis : x y z
#
# Youngs Moduli (GPa) = 49.71595 18.97918 100.50700
#
# Poissons Ratio (x) = -0.31115 0.21918
# Poissons Ratio (y) = -0.81506 -0.12813
# Poissons Ratio (z) = 0.10842 -0.02420
#
# Static dielectric constant tensor:
#      x y z
#    x 2.130170 0.018160 -0.034400 
#    y 0.018160 2.029870 -0.067910 
#    z -0.034400 -0.067910 2.098500 
# 
# From -- ./inp_files/437130.got.cif
#   From: 2010.05.17/outbox.cif.g08.bks.cpg/sg2_219_cif.got.tgz:437130.got - 2010.06.03 11:33:40.
