data_PCOD9110400
_publ_section_title
;
Structure prediction by ZEFSAII (Michael W. Deem and Ramdas Pophale) SiO2 
 PCOD9110400
Probable space group: P -1
;
_chemical_formula_sum "Si O2"
_cell_formula_units_Z 14
_cell_length_a 8.743198
_cell_length_b 9.465829
_cell_length_c 17.989149
_cell_angle_alpha 132.482547
_cell_angle_beta 136.322584
_cell_angle_gamma 62.407130
_cell_volume 757.323709
_symmetry_space_group_name_H-M "P -1"
_symmetry_group_IT_number 2
_symmetry_cell_setting 'triclinic'
loop_
_space_group_symop_operation_xyz
x,y,z
-x,-y,-z
loop_
_atom_site_type_symbol
_atom_site_label
_atom_site_fract_x
_atom_site_fract_y
_atom_site_fract_z
Si Si1 0.084591 0.084715 0.291642
Si Si2 0.999486 0.128578 0.970647
Si Si3 0.217925 0.629243 0.647537
Si Si4 0.163306 0.717159 0.276705
Si Si5 0.359989 0.415796 0.135916
Si Si6 0.452613 0.428655 0.539259
Si Si7 0.723172 0.504568 0.032747
O O1 0.260426 0.262766 0.411179
O O2 0.864007 0.171962 0.279623
O O3 0.055522 0.991519 0.166673
O O4 0.165160 0.933111 0.326128
O O5 0.825629 0.296129 0.982114
O O6 0.236990 0.238201 0.073492
O O7 0.000000 0.000000 0.000000
O O8 0.381076 0.553780 0.741746
O O9 0.374749 0.608904 0.624054
O O10 0.000000 0.500000 0.500000
O O11 0.232208 0.596314 0.185586
O O12 0.338520 0.662241 0.380428
O O13 0.919420 0.637506 0.185508
O O14 0.322686 0.403453 0.031058
O O15 0.500000 0.500000 0.500000
O O16 0.500000 0.500000 0.000000
#
# Coordination Sequence:
#
# PCOD9110400 Si02
#       7
#     2   2   2   2   2   2   2
#     4  11  21  40  63  88 120 159 207 242 304 365
#     4  11  24  38  62  94 121 160 205 249 302 362
#     4   9  22  38  60  86 119 158 200 242 302 350
#     4  10  20  42  61  84 120 165 197 242 305 365
#     4  10  20  42  61  82 128 163 195 246 308 362
#     4  10  23  40  64  88 119 159 204 252 304 356
#     4  11  23  39  61  89 125 159 201 250 306 358
#
# _framework density 18.486149999999999
#
# number of rings (size 3 to 8) (size 9 to 14) (size 15 to 20)
#    0.000    1.714    2.857    1.286    8.000    2.857 
#    0.000    0.714    0.000    0.000    0.000    0.000 
#    0.000    0.000    0.000    0.000    0.000    0.000 
#
# Total GULP energy -78027.730061 kJ/mol
# GULP energy per Si atom -5573.409290 kJ/mol
# Density = 1.844408 g / cm^3
# Si number density = 18.486150 Si / 1000 Ang^3
#
#
#
# Elastic Constant Matrix: (Units=GPa)
#
#
# Indices 1 2 3 4 5 6 
#
# 1 103.9234 87.8853 48.1416 -10.3325 -3.7098 3.5329
# 2 87.8853 99.6912 27.6407 -3.0578 -6.1577 11.7187
# 3 48.1416 27.6407 81.4338 -7.3405 1.3704 -2.4516
# 4 -10.3325 -3.0578 -7.3405 30.1952 -1.0811 -1.6255
# 5 -3.7098 -6.1577 1.3704 -1.0811 30.6903 -3.8702
# 6 3.5329 11.7187 -2.4516 -1.6255 -3.8702 26.2913
#
#
#
# Elastic Compliance Matrix: (Units=1/GPa)
#
#
# Indices 1 2 3 4 5 6 
#
# 1 0.060266 -0.049475 -0.017352 0.012108 0.000213 0.013116
# 2 -0.049475 0.052587 0.009981 -0.009990 0.001727 -0.016224
# 3 -0.017352 0.009981 0.019121 -0.000342 -0.001025 -0.000506
# 4 0.012108 -0.009990 -0.000342 0.036500 0.001424 0.005260
# 5 0.000213 0.001727 -0.001025 0.001424 0.033573 0.004136
# 6 0.013116 -0.016224 -0.000506 0.005260 0.004136 0.044391
#
#
# Mechanical properties :
#
#
# Convention : Reuss Voigt Hill
#
# Bulk Modulus (GPa) = 54.69772 68.04262 61.37017
# Shear Modulus (GPa) = 13.65277 25.52740 19.59009
#
# Velocity S-wave (km/s) = 2.72056 3.72007 3.25886
# Velocity P-wave (km/s) = 6.28660 7.43903 6.88696
#
# Compressibility (1/GPa) = 0.01828230
#
# Stress axis : x y z
#
# Youngs Moduli (GPa) = 16.59305 19.01602 52.29791
#
# Poissons Ratio (x) = 0.94082 0.90747
# Poissons Ratio (y) = 0.82095 -0.52199
# Poissons Ratio (z) = 0.28792 -0.18980
#
# Static dielectric constant tensor:
#      x y z
#    x 1.634360 -0.025190 0.011500 
#    y -0.025190 1.630420 0.008320 
#    z 0.011500 0.008320 1.674700 
# 
# From -- ./inp_files/168382.got.cif
#   From: 2010.05.17/outbox.cif.g08.bks.cpg/sg2_85_cif.got.tgz:168382.got - 2010.06.03 11:33:40.
