data_PCOD9110616
_publ_section_title
;
Structure prediction by ZEFSAII (Michael W. Deem and Ramdas Pophale) SiO2 
 PCOD9110616
Probable space group: P -1
;
_chemical_formula_sum "Si O2"
_cell_formula_units_Z 16
_cell_length_a 14.321260
_cell_length_b 11.164275
_cell_length_c 9.311861
_cell_angle_alpha 94.245958
_cell_angle_beta 73.222174
_cell_angle_gamma 149.664540
_cell_volume 671.089149
_symmetry_space_group_name_H-M "P -1"
_symmetry_group_IT_number 2
_symmetry_cell_setting 'triclinic'
loop_
_space_group_symop_operation_xyz
x,y,z
-x,-y,-z
loop_
_atom_site_type_symbol
_atom_site_label
_atom_site_fract_x
_atom_site_fract_y
_atom_site_fract_z
Si Si1 0.106252 0.600892 0.115886
Si Si2 0.290137 0.320383 0.505802
Si Si3 0.806477 0.578488 0.906945
Si Si4 0.348387 0.093410 0.986323
Si Si5 0.473584 0.193841 0.625252
Si Si6 0.129236 0.904201 0.539390
Si Si7 0.054805 0.215679 0.824195
Si Si8 0.156225 0.538414 0.597135
O O1 0.205167 0.578493 0.080116
O O2 0.928853 0.429973 0.299328
O O3 0.000000 0.500000 0.000000
O O4 0.267946 0.885822 0.083423
O O5 0.500000 0.500000 0.500000
O O6 0.361411 0.516538 0.408093
O O7 0.140197 0.202245 0.688420
O O8 0.191901 0.098379 0.453243
O O9 0.580422 0.375921 0.947269
O O10 0.974822 0.772086 0.724672
O O11 0.873931 0.711996 0.037137
O O12 0.341758 0.055348 0.816177
O O13 0.188801 0.025232 0.086481
O O14 0.616977 0.231986 0.549984
O O15 0.332210 0.067682 0.538549
O O16 0.009594 0.689300 0.464409
O O17 0.149302 0.438497 0.726493
#
# Coordination Sequence:
#
# PCOD9110616 Si02
#       8
#     2   2   2   2   2   2   2   2
#     4  11  22  44  67  91 129 171 208 267 323 373
#     4   9  22  41  69  94 127 173 213 258 326 371
#     4  12  23  42  66  94 133 168 214 265 313 382
#     4  11  22  41  65  96 129 169 213 260 321 381
#     4  10  20  42  64  95 133 164 210 270 313 377
#     4  11  22  42  66  94 130 166 213 268 313 377
#     4  10  22  42  67  91 134 166 213 265 317 375
#     4  10  22  40  67  93 125 165 217 256 328 373
#
# _framework density 23.841840000000001
#
# number of rings (size 3 to 8) (size 9 to 14) (size 15 to 20)
#    0.000    1.500    5.000    0.375    0.000    9.000 
#    2.250    3.125    0.000    0.000    0.000    0.000 
#    0.000    0.000    0.000    0.000    0.000    0.000 
#
# Total GULP energy -89555.271628 kJ/mol
# GULP energy per Si atom -5597.204477 kJ/mol
# Density = 2.378757 g / cm^3
# Si number density = 23.841840 Si / 1000 Ang^3
#
#
#
# Elastic Constant Matrix: (Units=GPa)
#
#
# Indices 1 2 3 4 5 6 
#
# 1 74.2041 43.4966 36.4141 6.8595 -28.6167 20.9297
# 2 43.4966 85.7865 22.1521 4.1970 -9.5762 15.3725
# 3 36.4141 22.1521 111.8163 -0.8558 -22.9964 11.0314
# 4 6.8595 4.1970 -0.8558 28.6461 5.3148 -3.5277
# 5 -28.6167 -9.5762 -22.9964 5.3148 46.0436 -13.9444
# 6 20.9297 15.3725 11.0314 -3.5277 -13.9444 39.9998
#
#
#
# Elastic Compliance Matrix: (Units=1/GPa)
#
#
# Indices 1 2 3 4 5 6 
#
# 1 0.029592 -0.010880 -0.004226 -0.008833 0.013117 -0.006343
# 2 -0.010880 0.017201 -0.000501 0.000574 -0.004161 -0.002180
# 3 -0.004226 -0.000501 0.010951 0.000953 0.002759 0.000429
# 4 -0.008833 0.000574 0.000953 0.039034 -0.007943 0.004812
# 5 0.013117 -0.004161 0.002759 -0.007943 0.032718 0.004680
# 6 -0.006343 -0.002180 0.000429 0.004812 0.004680 0.031094
#
#
# Mechanical properties :
#
#
# Convention : Reuss Voigt Hill
#
# Bulk Modulus (GPa) = 37.69211 52.88141 45.28676
# Shear Modulus (GPa) = 24.91957 34.25417 29.58687
#
# Velocity S-wave (km/s) = 3.23647 3.79453 3.52655
# Velocity P-wave (km/s) = 5.45984 6.43632 5.96808
#
# Compressibility (1/GPa) = 0.02653075
#
# Stress axis : x y z
#
# Youngs Moduli (GPa) = 33.79340 58.13755 91.31647
#
# Poissons Ratio (x) = 0.63252 0.38586
# Poissons Ratio (y) = 0.36766 0.04574
# Poissons Ratio (z) = 0.14280 0.02912
#
# Static dielectric constant tensor:
#      x y z
#    x 1.926720 -0.042680 0.006850 
#    y -0.042680 1.928480 -0.032750 
#    z 0.006850 -0.032750 1.885910 
# 
# From -- ./inp_files/221923.got.cif
#   From: 2010.05.17/outbox.cif.g08.bks.cpg/sg2_111_cif.got.tgz:221923.got - 2010.06.03 11:33:40.
