data_PCOD9110470
_publ_section_title
;
Structure prediction by ZEFSAII (Michael W. Deem and Ramdas Pophale) SiO2 
 PCOD9110470
Probable space group: P -1
;
_chemical_formula_sum "Si O2"
_cell_formula_units_Z 16
_cell_length_a 9.736204
_cell_length_b 17.578775
_cell_length_c 14.159541
_cell_angle_alpha 155.958266
_cell_angle_beta 58.381541
_cell_angle_gamma 136.257155
_cell_volume 598.454482
_symmetry_space_group_name_H-M "P -1"
_symmetry_group_IT_number 2
_symmetry_cell_setting 'triclinic'
loop_
_space_group_symop_operation_xyz
x,y,z
-x,-y,-z
loop_
_atom_site_type_symbol
_atom_site_label
_atom_site_fract_x
_atom_site_fract_y
_atom_site_fract_z
Si Si1 0.142149 0.253417 0.537591
Si Si2 0.263698 0.736353 0.101662
Si Si3 0.951255 0.141468 0.116643
Si Si4 0.931293 0.786164 0.207756
Si Si5 0.501854 0.930955 0.047081
Si Si6 0.974195 0.595765 0.423927
Si Si7 0.408473 0.734228 0.343488
Si Si8 0.581017 0.405493 0.615700
O O1 0.984346 0.952035 0.283146
O O2 0.082789 0.276583 0.480541
O O3 0.398059 0.391313 0.618169
O O4 0.128941 0.431056 0.810773
O O5 0.103199 0.756037 0.130739
O O6 0.455489 0.844441 0.076576
O O7 0.393097 0.949215 0.381060
O O8 0.965702 0.310642 0.384717
O O9 0.158131 0.325493 0.179749
O O10 0.695542 0.956240 0.963842
O O11 0.000000 0.000000 0.000000
O O12 0.000000 0.000000 0.500000
O O13 0.684325 0.488190 0.951849
O O14 0.561727 0.195522 0.328999
O O15 0.259575 0.706295 0.832613
O O16 0.182805 0.659698 0.373241
O O17 0.482231 0.681242 0.350782
#
# Coordination Sequence:
#
# PCOD9110470 Si02
#       8
#     2   2   2   2   2   2   2   2
#     4  11  23  45  73  98 138 185 222 279 349 401
#     4  10  21  45  67 100 140 172 224 282 332 412
#     4  12  25  38  59 101 137 177 236 278 310 391
#     4  12  26  47  73 106 135 168 229 289 341 422
#     4  10  20  42  62  91 135 176 224 281 315 391
#     4  11  23  41  69  93 136 186 219 274 338 388
#     4  11  22  45  73  95 135 186 221 276 351 399
#     4  11  23  41  68  95 136 183 229 272 332 395
#
# _framework density 26.735534000000001
#
# number of rings (size 3 to 8) (size 9 to 14) (size 15 to 20)
#    0.000    1.000    7.500    1.875    1.750    3.500 
#    0.000    0.625    0.000    0.000    0.000    0.000 
#    0.000    0.000    0.000    0.000    0.000    0.000 
#
# Total GULP energy -89575.668725 kJ/mol
# GULP energy per Si atom -5598.479295 kJ/mol
# Density = 2.667468 g / cm^3
# Si number density = 26.735534 Si / 1000 Ang^3
#
#
#
# Elastic Constant Matrix: (Units=GPa)
#
#
# Indices 1 2 3 4 5 6 
#
# 1 143.2323 20.5126 36.5579 0.5693 -16.0237 16.3980
# 2 20.5126 53.7468 20.7050 11.9026 0.8367 3.3974
# 3 36.5579 20.7050 155.2684 14.3559 1.5490 13.1251
# 4 0.5693 11.9026 14.3559 38.7735 -3.6389 6.5786
# 5 -16.0237 0.8367 1.5490 -3.6389 59.7842 -1.7508
# 6 16.3980 3.3974 13.1251 6.5786 -1.7508 42.5234
#
#
#
# Elastic Compliance Matrix: (Units=1/GPa)
#
#
# Indices 1 2 3 4 5 6 
#
# 1 0.008366 -0.002905 -0.001563 0.002033 0.002367 -0.002728
# 2 -0.002905 0.021724 -0.001688 -0.006271 -0.001397 0.000818
# 3 -0.001563 -0.001688 0.007334 -0.002033 -0.000746 -0.001242
# 4 0.002033 -0.006271 -0.002033 0.029355 0.002352 -0.004100
# 5 0.002367 -0.001397 -0.000746 0.002352 0.017537 -0.000213
# 6 -0.002728 0.000818 -0.001242 -0.004100 -0.000213 0.025512
#
#
# Mechanical properties :
#
#
# Convention : Reuss Voigt Hill
#
# Bulk Modulus (GPa) = 39.82458 56.42207 48.12332
# Shear Modulus (GPa) = 38.31075 46.51433 42.41254
#
# Velocity S-wave (km/s) = 3.78954 4.17561 3.98725
# Velocity P-wave (km/s) = 5.83743 6.66312 6.26390
#
# Compressibility (1/GPa) = 0.02511012
#
# Stress axis : x y z
#
# Youngs Moduli (GPa) = 119.53357 46.03279 136.34923
#
# Poissons Ratio (x) = 0.13373 0.21315
# Poissons Ratio (y) = 0.34727 0.23019
# Poissons Ratio (z) = 0.18686 0.07772
#
# Static dielectric constant tensor:
#      x y z
#    x 2.046350 -0.037120 -0.007610 
#    y -0.037120 2.177370 -0.010700 
#    z -0.007610 -0.010700 2.175420 
# 
# From -- ./inp_files/562773.got.cif
#   From: 2010.05.17/outbox.cif.g08.bks.cpg/sg2_282_cif.got.tgz:562773.got - 2010.06.03 11:33:40.
