data_PCOD9110958
_publ_section_title
;
Structure prediction by ZEFSAII (Michael W. Deem and Ramdas Pophale) SiO2 
 PCOD9110958
Probable space group: P -1
;
_chemical_formula_sum "Si O2"
_cell_formula_units_Z 16
_cell_length_a 12.380647
_cell_length_b 12.269866
_cell_length_c 8.933868
_cell_angle_alpha 63.427463
_cell_angle_beta 46.968377
_cell_angle_gamma 88.957959
_cell_volume 797.130214
_symmetry_space_group_name_H-M "P -1"
_symmetry_group_IT_number 2
_symmetry_cell_setting 'triclinic'
loop_
_space_group_symop_operation_xyz
x,y,z
-x,-y,-z
loop_
_atom_site_type_symbol
_atom_site_label
_atom_site_fract_x
_atom_site_fract_y
_atom_site_fract_z
Si Si1 0.686332 0.333362 0.639448
Si Si2 0.273076 0.134030 0.643389
Si Si3 0.943355 0.170906 0.962850
Si Si4 0.160638 0.238165 0.178988
Si Si5 0.079551 0.410596 0.903840
Si Si6 0.854413 0.167237 0.701539
Si Si7 0.611797 0.872941 0.136426
Si Si8 0.566305 0.652013 0.900440
O O1 0.765613 0.481826 0.400853
O O2 0.825853 0.291024 0.587840
O O3 0.564257 0.222483 0.706800
O O4 0.575795 0.331083 0.885188
O O5 0.379040 0.152013 0.680990
O O6 0.369331 0.238116 0.359508
O O7 0.115707 0.160571 0.818265
O O8 0.197128 0.975859 0.764866
O O9 0.914171 0.188500 0.804165
O O10 0.959478 0.294838 0.975186
O O11 0.285185 0.319351 0.143133
O O12 0.988495 0.150479 0.479144
O O13 0.132671 0.335025 0.027044
O O14 0.251773 0.162611 0.052161
O O15 0.000000 0.500000 0.000000
O O16 0.680805 0.033367 0.946171
O O17 0.500000 0.500000 0.000000
#
# Coordination Sequence:
#
# PCOD9110958 Si02
#       8
#     2   2   2   2   2   2   2   2
#     4  11  26  42  61  95 137 170 210 268 333 389
#     4  10  20  42  67  98 123 166 221 269 319 373
#     4  10  22  40  69  93 127 166 220 274 311 382
#     4  11  23  39  68  95 126 172 222 266 317 391
#     4  12  25  43  62  97 130 174 213 269 331 383
#     4  11  22  44  65  99 128 171 215 271 326 384
#     4  10  23  41  69  95 131 168 214 274 324 388
#     4  11  25  41  65  97 131 175 215 266 323 395
#
# _framework density 20.072004
#
# number of rings (size 3 to 8) (size 9 to 14) (size 15 to 20)
#    0.000    1.250    3.750    1.500    1.750    4.500 
#    2.250    1.250    0.000    0.000    0.000    0.000 
#    0.000    0.000    0.000    0.000    0.000    0.000 
#
# Total GULP energy -89429.879022 kJ/mol
# GULP energy per Si atom -5589.367439 kJ/mol
# Density = 2.002632 g / cm^3
# Si number density = 20.072004 Si / 1000 Ang^3
#
#
#
# Elastic Constant Matrix: (Units=GPa)
#
#
# Indices 1 2 3 4 5 6 
#
# 1 64.1401 16.6161 29.7318 -11.8915 21.8963 7.0451
# 2 16.6161 79.2864 25.0995 -17.8014 9.1827 20.9518
# 3 29.7318 25.0995 120.1416 -13.4396 29.0977 20.0503
# 4 -11.8915 -17.8014 -13.4396 23.0579 -5.8105 -2.6477
# 5 21.8963 9.1827 29.0977 -5.8105 30.6939 3.4270
# 6 7.0451 20.9518 20.0503 -2.6477 3.4270 25.1524
#
#
#
# Elastic Compliance Matrix: (Units=1/GPa)
#
#
# Indices 1 2 3 4 5 6 
#
# 1 0.022244 -0.000674 -0.001032 0.006768 -0.013145 -0.002343
# 2 -0.000674 0.019669 0.000399 0.012936 -0.001667 -0.014925
# 3 -0.001032 0.000399 0.012685 0.003742 -0.009758 -0.008432
# 4 0.006768 0.012936 0.003742 0.057877 -0.000225 -0.009531
# 5 -0.013145 -0.001667 -0.009758 -0.000225 0.051008 0.005876
# 6 -0.002343 -0.014925 -0.008432 -0.009531 0.005876 0.057763
#
#
# Mechanical properties :
#
#
# Convention : Reuss Voigt Hill
#
# Bulk Modulus (GPa) = 19.23678 45.16255 32.19966
# Shear Modulus (GPa) = 20.73086 28.58888 24.65987
#
# Velocity S-wave (km/s) = 3.21725 3.77811 3.50890
# Velocity P-wave (km/s) = 4.83793 6.44835 5.70030
#
# Compressibility (1/GPa) = 0.05198376
#
# Stress axis : x y z
#
# Youngs Moduli (GPa) = 44.95691 50.84220 78.83502
#
# Poissons Ratio (x) = 0.03425 0.08136
# Poissons Ratio (y) = 0.03029 -0.03147
# Poissons Ratio (z) = 0.04640 -0.02029
#
# Static dielectric constant tensor:
#      x y z
#    x 1.676620 0.002430 -0.011590 
#    y 0.002430 1.709610 0.010210 
#    z -0.011590 0.010210 1.707970 
# 
# From -- ./inp_files/189278.got.cif
#   From: 2010.05.17/outbox.cif.g08.bks.cpg/sg2_95_cif.got.tgz:189278.got - 2010.06.03 11:33:40.
