data_PCOD9110741
_publ_section_title
;
Structure prediction by ZEFSAII (Michael W. Deem and Ramdas Pophale) SiO2 
 PCOD9110741
Probable space group: P -1
;
_chemical_formula_sum "Si O2"
_cell_formula_units_Z 13
_cell_length_a 11.604391
_cell_length_b 9.499850
_cell_length_c 14.951184
_cell_angle_alpha 37.994882
_cell_angle_beta 144.288435
_cell_angle_gamma 133.295281
_cell_volume 587.397022
_symmetry_space_group_name_H-M "P -1"
_symmetry_group_IT_number 2
_symmetry_cell_setting 'triclinic'
loop_
_space_group_symop_operation_xyz
x,y,z
-x,-y,-z
loop_
_atom_site_type_symbol
_atom_site_label
_atom_site_fract_x
_atom_site_fract_y
_atom_site_fract_z
Si Si1 0.333620 0.480217 0.215382
Si Si2 0.954957 0.414956 0.298857
Si Si3 0.031967 0.707489 0.028197
Si Si4 0.737817 0.731309 0.296123
Si Si5 0.355352 0.990060 0.747038
Si Si6 0.500000 0.500000 0.500000
Si Si7 0.229634 0.192409 0.920298
O O1 0.190799 0.658591 0.076679
O O2 0.519435 0.590159 0.219610
O O3 0.427994 0.392230 0.409034
O O4 0.182837 0.314720 0.141927
O O5 0.812206 0.596048 0.151683
O O6 0.041909 0.515654 0.208111
O O7 0.125266 0.399515 0.486789
O O8 0.832818 0.163424 0.337502
O O9 0.102968 0.954921 0.990252
O O10 0.702241 0.964353 0.209293
O O11 0.833827 0.769870 0.240843
O O12 0.422060 0.247631 0.623918
O O13 0.542790 0.853840 0.918737
#
# Coordination Sequence:
#
# PCOD9110741 Si02
#       7
#     2   2   2   2   2   1   2
#     4  10  22  40  71  97 134 169 238 280 329 389
#     4  12  27  44  68 104 143 181 220 282 352 403
#     4  11  23  41  69 100 136 182 226 275 338 408
#     4  11  24  44  69 101 133 178 234 286 330 398
#     4  11  24  43  74  96 137 177 238 275 341 399
#     4  10  20  42  66 106 128 168 220 300 318 388
#     4  12  25  45  69 101 144 180 225 280 342 410
#
# _framework density 22.131539
#
# number of rings (size 3 to 8) (size 9 to 14) (size 15 to 20)
#    0.000    0.923    3.077    5.077    6.462    0.000 
#    0.000    0.769    0.000    0.000    0.000    0.000 
#    0.000    0.000    0.000    0.000    0.000    0.000 
#
# Total GULP energy -72429.959281 kJ/mol
# GULP energy per Si atom -5571.535329 kJ/mol
# Density = 2.208117 g / cm^3
# Si number density = 22.131539 Si / 1000 Ang^3
#
#
#
# Elastic Constant Matrix: (Units=GPa)
#
#
# Indices 1 2 3 4 5 6 
#
# 1 72.1039 18.5406 24.8447 -12.9777 -5.4308 4.8826
# 2 18.5406 99.0010 13.5937 -0.7521 2.2721 22.2930
# 3 24.8447 13.5937 71.5825 4.2299 -18.5611 15.4997
# 4 -12.9777 -0.7521 4.2299 27.5434 -4.6501 7.3975
# 5 -5.4308 2.2721 -18.5611 -4.6501 34.8312 -10.5469
# 6 4.8826 22.2930 15.4997 7.3975 -10.5469 27.7340
#
#
#
# Elastic Compliance Matrix: (Units=1/GPa)
#
#
# Indices 1 2 3 4 5 6 
#
# 1 0.018522 -0.002584 -0.006266 0.009766 0.001056 0.000115
# 2 -0.002584 0.013626 -0.000366 0.001761 -0.005098 -0.012701
# 3 -0.006266 -0.000366 0.019568 -0.003147 0.007256 -0.005939
# 4 0.009766 0.001761 -0.003147 0.045173 0.001917 -0.012696
# 5 0.001056 -0.005098 0.007256 0.001917 0.037443 0.013584
# 6 0.000115 -0.012701 -0.005939 -0.012696 0.013584 0.058118
#
#
# Mechanical properties :
#
#
# Convention : Reuss Voigt Hill
#
# Bulk Modulus (GPa) = 30.04624 39.62728 34.83676
# Shear Modulus (GPa) = 22.52499 30.40229 26.46364
#
# Velocity S-wave (km/s) = 3.19372 3.71038 3.46170
# Velocity P-wave (km/s) = 5.21589 6.02496 5.63496
#
# Compressibility (1/GPa) = 0.03328204
#
# Stress axis : x y z
#
# Youngs Moduli (GPa) = 53.98998 73.39121 51.10487
#
# Poissons Ratio (x) = 0.18967 0.32022
# Poissons Ratio (y) = 0.13953 0.01872
# Poissons Ratio (z) = 0.33830 0.02688
#
# Static dielectric constant tensor:
#      x y z
#    x 1.321390 0.332950 1.058800 
#    y 0.332950 1.589190 -0.603580 
#    z 1.058800 -0.603580 -0.229050 
# 
# From -- ./inp_files/512698.got.cif
#   From: 2010.05.17/outbox.cif.g08.bks.cpg/sg2_257_cif.got.tgz:512698.got - 2010.06.03 11:33:40.
