data_PCOD9110431
_publ_section_title
;
Structure prediction by ZEFSAII (Michael W. Deem and Ramdas Pophale) SiO2 
 PCOD9110431
Probable space group: P -1
;
_chemical_formula_sum "Si O2"
_cell_formula_units_Z 14
_cell_length_a 12.024471
_cell_length_b 15.130156
_cell_length_c 10.457520
_cell_angle_alpha 21.285939
_cell_angle_beta 124.858582
_cell_angle_gamma 124.456027
_cell_volume 563.207786
_symmetry_space_group_name_H-M "P -1"
_symmetry_group_IT_number 2
_symmetry_cell_setting 'triclinic'
loop_
_space_group_symop_operation_xyz
x,y,z
-x,-y,-z
loop_
_atom_site_type_symbol
_atom_site_label
_atom_site_fract_x
_atom_site_fract_y
_atom_site_fract_z
Si Si1 0.536138 0.628470 0.009313
Si Si2 0.662889 0.860489 0.441008
Si Si3 0.839027 0.715156 0.531785
Si Si4 0.942384 0.474694 0.697742
Si Si5 0.556090 0.966570 0.794484
Si Si6 0.109419 0.820818 0.697719
Si Si7 0.209172 0.657047 0.484708
O O1 0.496899 0.838808 0.604541
O O2 0.551138 0.724645 0.034355
O O3 0.416976 0.405279 0.228581
O O4 0.677522 0.531708 0.192661
O O5 0.731525 0.844617 0.369085
O O6 0.547397 0.043626 0.140300
O O7 0.776493 0.962886 0.481900
O O8 0.849883 0.653040 0.472701
O O9 0.989291 0.850872 0.480508
O O10 0.170025 0.567567 0.037034
O O11 0.865500 0.365119 0.670613
O O12 0.089964 0.599404 0.586703
O O13 0.959020 0.267302 0.093429
O O14 0.703266 0.086765 0.772962
#
# Coordination Sequence:
#
# PCOD9110431 Si02
#       7
#     2   2   2   2   2   2   2
#     4  10  23  39  62  86 118 156 204 248 289 347
#     4  11  19  36  62  87 116 153 196 246 300 338
#     4   9  20  35  56  90 122 154 190 243 292 351
#     4   9  21  40  60  90 122 155 193 243 294 359
#     4  10  23  39  61  88 114 158 203 250 288 346
#     4   9  20  35  57  91 124 150 193 240 294 354
#     4  10  20  42  62  85 122 155 198 243 295 353
#
# _framework density 24.857610999999999
#
# number of rings (size 3 to 8) (size 9 to 14) (size 15 to 20)
#    0.857    1.429    0.000    3.000    4.000    2.286 
#    5.143    7.143    0.000    0.000    0.000    0.000 
#    0.000    0.000    0.000    0.000    0.000    0.000 
#
# Total GULP energy -78251.658671 kJ/mol
# GULP energy per Si atom -5589.404191 kJ/mol
# Density = 2.480103 g / cm^3
# Si number density = 24.857611 Si / 1000 Ang^3
#
#
#
# Elastic Constant Matrix: (Units=GPa)
#
#
# Indices 1 2 3 4 5 6 
#
# 1 169.9185 59.8533 41.6952 -27.4430 1.7310 -12.5969
# 2 59.8533 143.2860 35.5485 -43.5119 -7.0508 -2.0497
# 3 41.6952 35.5485 62.8124 -17.0355 9.4109 1.2522
# 4 -27.4430 -43.5119 -17.0355 44.0783 -4.4991 3.5177
# 5 1.7310 -7.0508 9.4109 -4.4991 28.5178 -7.6986
# 6 -12.5969 -2.0497 1.2522 3.5177 -7.6986 44.5321
#
#
#
# Elastic Compliance Matrix: (Units=1/GPa)
#
#
# Indices 1 2 3 4 5 6 
#
# 1 0.007914 -0.001696 -0.004106 0.001614 0.001353 0.002382
# 2 -0.001696 0.011924 -0.003873 0.009794 0.005993 0.000440
# 3 -0.004106 -0.003873 0.022731 0.001789 -0.008916 -0.003661
# 4 0.001614 0.009794 0.001789 0.034824 0.007045 -0.000676
# 5 0.001353 0.005993 -0.008916 0.007045 0.042603 0.007718
# 6 0.002382 0.000440 -0.003661 -0.000676 0.007718 0.024640
#
#
# Mechanical properties :
#
#
# Convention : Reuss Voigt Hill
#
# Bulk Modulus (GPa) = 43.06689 72.24567 57.65628
# Shear Modulus (GPa) = 29.11633 39.35364 34.23498
#
# Velocity S-wave (km/s) = 3.42617 3.98321 3.71515
# Velocity P-wave (km/s) = 5.74583 7.09095 6.45353
#
# Compressibility (1/GPa) = 0.02321969
#
# Stress axis : x y z
#
# Youngs Moduli (GPa) = 126.36454 83.86497 43.99241
#
# Poissons Ratio (x) = 0.14228 0.18061
# Poissons Ratio (y) = 0.21437 0.17036
# Poissons Ratio (z) = 0.51879 0.32477
#
# Static dielectric constant tensor:
#      x y z
#    x 1.972410 -0.014980 0.060380 
#    y -0.014980 1.954120 0.040030 
#    z 0.060380 0.040030 2.064160 
# 
# From -- ./inp_files/432312.got.cif
#   From: 2010.05.17/outbox.cif.g08.bks.cpg/sg2_217_cif.got.tgz:432312.got - 2010.06.03 11:33:40.
