data_PCOD9110023
_publ_section_title
;
Structure prediction by ZEFSAII (Michael W. Deem and Ramdas Pophale) SiO2 
 PCOD9110023
Probable space group: P -1
;
_chemical_formula_sum "Si O2"
_cell_formula_units_Z 12
_cell_length_a 9.044246
_cell_length_b 11.046196
_cell_length_c 9.725622
_cell_angle_alpha 92.669694
_cell_angle_beta 135.472957
_cell_angle_gamma 110.904101
_cell_volume 565.362201
_symmetry_space_group_name_H-M "P -1"
_symmetry_group_IT_number 2
_symmetry_cell_setting 'triclinic'
loop_
_space_group_symop_operation_xyz
x,y,z
-x,-y,-z
loop_
_atom_site_type_symbol
_atom_site_label
_atom_site_fract_x
_atom_site_fract_y
_atom_site_fract_z
Si Si1 0.836030 0.129580 0.563163
Si Si2 0.139050 0.067421 0.239898
Si Si3 0.940735 0.399564 0.318426
Si Si4 0.793902 0.081777 0.235633
Si Si5 0.406132 0.679101 0.579416
Si Si6 0.565933 0.651056 0.989523
O O1 0.791113 0.040538 0.389322
O O2 0.699409 0.216669 0.465579
O O3 0.138689 0.240248 0.781288
O O4 0.755966 0.024319 0.634425
O O5 0.366589 0.234296 0.373097
O O6 0.935237 0.047950 0.214405
O O7 0.000000 0.000000 0.000000
O O8 0.941233 0.258109 0.341838
O O9 0.000000 0.500000 0.500000
O O10 0.163894 0.517940 0.373575
O O11 0.649800 0.334111 0.082280
O O12 0.500000 0.000000 0.000000
O O13 0.520578 0.662602 0.797341
O O14 0.500000 0.500000 0.000000
#
# Coordination Sequence:
#
# PCOD9110023 Si02
#       6
#     2   2   2   2   2   2
#     4  12  22  44  73  99 136 187 232 281 338 412
#     4  12  26  43  67 101 147 184 223 284 353 406
#     4  10  20  41  69 101 133 177 227 290 333 400
#     4  12  25  45  72 104 137 181 240 283 333 421
#     4  11  22  42  68 103 139 179 229 285 344 411
#     4  11  19  37  71 102 130 175 234 275 341 405
#
# _framework density 21.225331000000001
#
# number of rings (size 3 to 8) (size 9 to 14) (size 15 to 20)
#    0.000    0.667    6.667    4.000    0.000    0.667 
#    0.000    0.000    0.000    4.000    0.000    0.000 
#    0.000    0.000    0.000    0.000    0.000    0.000 
#
# Total GULP energy -66978.408269 kJ/mol
# GULP energy per Si atom -5581.534022 kJ/mol
# Density = 2.117702 g / cm^3
# Si number density = 21.225331 Si / 1000 Ang^3
#
#
#
# Elastic Constant Matrix: (Units=GPa)
#
#
# Indices 1 2 3 4 5 6 
#
# 1 77.1405 19.4400 38.6731 -6.7516 12.4152 8.5533
# 2 19.4400 124.2298 21.6854 -16.1730 -9.0719 19.7345
# 3 38.6731 21.6854 98.7904 -21.2098 6.7549 11.5940
# 4 -6.7516 -16.1730 -21.2098 42.7012 9.4149 6.1921
# 5 12.4152 -9.0719 6.7549 9.4149 33.4828 8.1669
# 6 8.5533 19.7345 11.5940 6.1921 8.1669 44.2107
#
#
#
# Elastic Compliance Matrix: (Units=1/GPa)
#
#
# Indices 1 2 3 4 5 6 
#
# 1 0.017426 -0.002122 -0.005902 0.000311 -0.005978 0.000184
# 2 -0.002122 0.009947 -0.000349 0.003135 0.003915 -0.005100
# 3 -0.005902 -0.000349 0.014533 0.007060 -0.002062 -0.003122
# 4 0.000311 0.003135 0.007060 0.030786 -0.007841 -0.006175
# 5 -0.005978 0.003915 -0.002062 -0.007841 0.037184 -0.005821
# 6 0.000184 -0.005100 -0.003122 -0.006175 -0.005821 0.027619
#
#
# Mechanical properties :
#
#
# Convention : Reuss Voigt Hill
#
# Bulk Modulus (GPa) = 39.74560 51.08420 45.41490
# Shear Modulus (GPa) = 30.74547 38.76976 34.75762
#
# Velocity S-wave (km/s) = 3.81008 4.27849 4.05106
# Velocity P-wave (km/s) = 6.17429 6.96614 6.58213
#
# Compressibility (1/GPa) = 0.02516002
#
# Stress axis : x y z
#
# Youngs Moduli (GPa) = 57.38593 100.53573 68.81119
#
# Poissons Ratio (x) = 0.21333 0.40611
# Poissons Ratio (y) = 0.12177 0.02400
# Poissons Ratio (z) = 0.33868 0.03506
#
# Static dielectric constant tensor:
#      x y z
#    x 1.805400 0.010180 0.014480 
#    y 0.010180 1.828980 -0.010160 
#    z 0.014480 -0.010160 1.802670 
# 
# From -- ./inp_files/172594.got.cif
#   From: 2010.05.17/outbox.cif.g08.bks.cpg/sg2_87_cif.got.tgz:172594.got - 2010.06.03 11:33:40.
