data_PCOD9110011
_publ_section_title
;
Structure prediction by ZEFSAII (Michael W. Deem and Ramdas Pophale) SiO2 
 PCOD9110011
Probable space group: P -1
;
_chemical_formula_sum "Si O2"
_cell_formula_units_Z 16
_cell_length_a 21.139157
_cell_length_b 8.111974
_cell_length_c 8.394481
_cell_angle_alpha 121.855849
_cell_angle_beta 58.969207
_cell_angle_gamma 147.165228
_cell_volume 654.794632
_symmetry_space_group_name_H-M "P -1"
_symmetry_group_IT_number 2
_symmetry_cell_setting 'triclinic'
loop_
_space_group_symop_operation_xyz
x,y,z
-x,-y,-z
loop_
_atom_site_type_symbol
_atom_site_label
_atom_site_fract_x
_atom_site_fract_y
_atom_site_fract_z
Si Si1 0.436570 0.397412 0.286830
Si Si2 0.400868 0.552089 0.074633
Si Si3 0.182910 0.730768 0.394353
Si Si4 0.975917 0.676847 0.117160
Si Si5 0.820757 0.712568 0.703825
Si Si6 0.053846 0.793132 0.745306
Si Si7 0.789470 0.584924 0.319115
Si Si8 0.533732 0.155684 0.362584
O O1 0.418397 0.471561 0.178021
O O2 0.478847 0.641397 0.487381
O O3 0.309564 0.055705 0.330930
O O4 0.532221 0.429091 0.138905
O O5 0.262930 0.307946 0.105564
O O6 0.457430 0.881627 0.195221
O O7 0.182514 0.506346 0.328681
O O8 0.138918 0.780339 0.620181
O O9 0.077807 0.541186 0.305222
O O10 0.842675 0.478965 0.183217
O O11 0.047789 0.931781 0.291647
O O12 0.039904 0.870373 0.969802
O O13 0.000000 0.500000 0.000000
O O14 0.767698 0.585244 0.531636
O O15 0.110252 0.061339 0.687822
O O16 0.670692 0.381694 0.273919
O O17 0.500000 0.000000 0.500000
#
# Coordination Sequence:
#
# PCOD9110011 Si02
#       8
#     2   2   2   2   2   2   2   2
#     4  10  21  42  68 100 127 190 229 283 334 417
#     4  10  23  41  72  96 140 179 240 277 345 411
#     4  11  24  42  71  93 143 176 231 280 353 401
#     4  12  29  41  67 106 138 175 226 288 348 407
#     4  12  25  45  65 103 141 176 222 293 348 399
#     4  11  25  45  67 101 130 185 230 272 341 428
#     4  12  23  46  74  93 138 180 228 281 340 413
#     4  10  20  41  69 100 125 179 238 273 333 408
#
# _framework density 24.435141999999999
#
# number of rings (size 3 to 8) (size 9 to 14) (size 15 to 20)
#    0.000    1.000    5.000    1.500    7.000    2.500 
#    2.250    0.625    0.000    0.000    0.000    0.000 
#    0.000    0.000    0.000    0.000    0.000    0.000 
#
# Total GULP energy -89606.517324 kJ/mol
# GULP energy per Si atom -5600.407333 kJ/mol
# Density = 2.437953 g / cm^3
# Si number density = 24.435142 Si / 1000 Ang^3
#
#
#
# Elastic Constant Matrix: (Units=GPa)
#
#
# Indices 1 2 3 4 5 6 
#
# 1 60.1011 7.5455 36.8212 -6.5115 -33.3698 -5.7956
# 2 7.5455 85.1255 25.2296 -2.8982 -11.4974 -9.3653
# 3 36.8212 25.2296 95.8806 -11.7159 -36.1586 8.2689
# 4 -6.5115 -2.8982 -11.7159 34.7060 5.1218 -11.0579
# 5 -33.3698 -11.4974 -36.1586 5.1218 45.7304 1.6514
# 6 -5.7956 -9.3653 8.2689 -11.0579 1.6514 35.1951
#
#
#
# Elastic Compliance Matrix: (Units=1/GPa)
#
#
# Indices 1 2 3 4 5 6 
#
# 1 0.031044 0.002393 -0.006029 0.003756 0.017795 0.007510
# 2 0.002393 0.013645 -0.004231 0.001694 0.001444 0.005484
# 3 -0.006029 -0.004231 0.017853 0.001233 0.008743 -0.006336
# 4 0.003756 0.001694 0.001233 0.033706 -0.000044 0.011372
# 5 0.017795 0.001444 0.008743 -0.000044 0.042160 -0.000732
# 6 0.007510 0.005484 -0.006336 0.011372 -0.000732 0.036205
#
#
# Mechanical properties :
#
#
# Convention : Reuss Voigt Hill
#
# Bulk Modulus (GPa) = 21.36432 42.25552 31.80992
# Shear Modulus (GPa) = 24.27787 34.56036 29.41912
#
# Velocity S-wave (km/s) = 3.15550 3.76489 3.47359
# Velocity P-wave (km/s) = 4.69452 6.01911 5.39760
#
# Compressibility (1/GPa) = 0.04680700
#
# Stress axis : x y z
#
# Youngs Moduli (GPa) = 32.21280 73.28595 56.01370
#
# Poissons Ratio (x) = -0.17536 0.33772
# Poissons Ratio (y) = -0.07708 0.23699
# Poissons Ratio (z) = 0.19422 0.31007
#
# Static dielectric constant tensor:
#      x y z
#    x 1.970060 -0.021570 0.001400 
#    y -0.021570 1.912350 -0.019960 
#    z 0.001400 -0.019960 1.955530 
# 
# From -- ./inp_files/299550.got.cif
#   From: 2010.05.17/outbox.cif.g08.bks.cpg/sg2_150_cif.got.tgz:299550.got - 2010.06.03 11:33:40.
