data_PCOD9110698
_publ_section_title
;
Structure prediction by ZEFSAII (Michael W. Deem and Ramdas Pophale) SiO2 
 PCOD9110698
Probable space group: P -1
;
_chemical_formula_sum "Si O2"
_cell_formula_units_Z 12
_cell_length_a 14.871214
_cell_length_b 12.294768
_cell_length_c 9.161795
_cell_angle_alpha 124.311045
_cell_angle_beta 139.682075
_cell_angle_gamma 29.152267
_cell_volume 499.455270
_symmetry_space_group_name_H-M "P -1"
_symmetry_group_IT_number 2
_symmetry_cell_setting 'triclinic'
loop_
_space_group_symop_operation_xyz
x,y,z
-x,-y,-z
loop_
_atom_site_type_symbol
_atom_site_label
_atom_site_fract_x
_atom_site_fract_y
_atom_site_fract_z
Si Si1 0.792438 0.751900 0.643552
Si Si2 0.944292 0.103281 0.171649
Si Si3 0.257927 0.472530 0.860742
Si Si4 0.904343 0.446759 0.752748
Si Si5 0.243596 0.003648 0.982798
Si Si6 0.507439 0.335487 0.380490
O O1 0.859720 0.551070 0.623254
O O2 0.500000 0.000000 0.500000
O O3 0.869603 0.810355 0.895119
O O4 0.974752 0.645359 0.657200
O O5 0.767222 0.366914 0.126700
O O6 0.823746 0.088284 0.116146
O O7 0.209852 0.929217 0.439974
O O8 0.000000 0.000000 0.000000
O O9 0.386956 0.387719 0.116857
O O10 0.461214 0.219592 0.844010
O O11 0.655170 0.593108 0.633048
O O12 0.000000 0.500000 0.000000
O O13 0.099530 0.174198 0.793178
O O14 0.500000 0.500000 0.500000
#
# Coordination Sequence:
#
# PCOD9110698 Si02
#       6
#     2   2   2   2   2   2
#     4  11  23  44  68  92 135 179 217 275 335 397
#     4  12  22  43  68  95 137 174 220 276 333 393
#     4  12  25  43  67  99 134 173 226 280 326 396
#     4  10  20  42  65  93 128 172 223 265 328 399
#     4  11  24  43  64 100 132 171 228 274 330 395
#     4  12  21  42  72  93 132 183 220 268 340 389
#
# _framework density 24.026176
#
# number of rings (size 3 to 8) (size 9 to 14) (size 15 to 20)
#    0.000    0.667    8.333    1.500    0.000    2.000 
#    3.000    0.000    0.000    0.000    0.000    0.000 
#    0.000    0.000    0.000    0.000    0.000    0.000 
#
# Total GULP energy -67016.456269 kJ/mol
# GULP energy per Si atom -5584.704689 kJ/mol
# Density = 2.397149 g / cm^3
# Si number density = 24.026176 Si / 1000 Ang^3
#
#
#
# Elastic Constant Matrix: (Units=GPa)
#
#
# Indices 1 2 3 4 5 6 
#
# 1 132.4624 62.3212 35.3947 -19.3688 30.5255 38.4163
# 2 62.3212 128.7672 15.2687 -28.8134 -2.0906 2.0013
# 3 35.3947 15.2687 90.3406 -31.1814 10.5794 -5.8971
# 4 -19.3688 -28.8134 -31.1814 50.9373 -2.5192 -6.5708
# 5 30.5255 -2.0906 10.5794 -2.5192 47.6858 -1.7818
# 6 38.4163 2.0013 -5.8971 -6.5708 -1.7818 46.0106
#
#
#
# Elastic Compliance Matrix: (Units=1/GPa)
#
#
# Indices 1 2 3 4 5 6 
#
# 1 0.026150 -0.013043 -0.010390 -0.007741 -0.016325 -0.024336
# 2 -0.013043 0.015429 0.005459 0.009165 0.008768 0.012567
# 3 -0.010390 0.005459 0.018946 0.012577 0.003830 0.012810
# 4 -0.007741 0.009165 0.012577 0.031395 0.004687 0.012342
# 5 -0.016325 0.008768 0.003830 0.004687 0.031787 0.015640
# 6 -0.024336 0.012567 0.012810 0.012342 0.015640 0.045516
#
#
# Mechanical properties :
#
#
# Convention : Reuss Voigt Hill
#
# Bulk Modulus (GPa) = 40.68729 64.17105 52.42917
# Shear Modulus (GPa) = 23.43422 44.83245 34.13333
#
# Velocity S-wave (km/s) = 3.12647 4.32439 3.77327
# Velocity P-wave (km/s) = 5.47763 7.19031 6.39159
#
# Compressibility (1/GPa) = 0.02457770
#
# Stress axis : x y z
#
# Youngs Moduli (GPa) = 38.24130 64.81286 52.78221
#
# Poissons Ratio (x) = 0.84536 0.54838
# Poissons Ratio (y) = 0.49879 -0.28815
# Poissons Ratio (z) = 0.39731 -0.35383
#
# Static dielectric constant tensor:
#      x y z
#    x 2.227650 0.015130 -0.039000 
#    y 0.015130 1.869770 0.054450 
#    z -0.039000 0.054450 2.168720 
# 
# From -- ./inp_files/246639.got.cif
#   From: 2010.05.17/outbox.cif.g08.bks.cpg/sg2_124_cif.got.tgz:246639.got - 2010.06.03 11:33:40.
