data_PCOD9110432
_publ_section_title
;
Structure prediction by ZEFSAII (Michael W. Deem and Ramdas Pophale) SiO2 
 PCOD9110432
Probable space group: P -1
;
_chemical_formula_sum "Si O2"
_cell_formula_units_Z 14
_cell_length_a 14.520732
_cell_length_b 11.220511
_cell_length_c 17.069745
_cell_angle_alpha 31.274312
_cell_angle_beta 33.402759
_cell_angle_gamma 28.442848
_cell_volume 647.462092
_symmetry_space_group_name_H-M "P -1"
_symmetry_group_IT_number 2
_symmetry_cell_setting 'triclinic'
loop_
_space_group_symop_operation_xyz
x,y,z
-x,-y,-z
loop_
_atom_site_type_symbol
_atom_site_label
_atom_site_fract_x
_atom_site_fract_y
_atom_site_fract_z
Si Si1 0.058072 0.897083 0.187936
Si Si2 0.699014 0.851455 0.140142
Si Si3 0.105985 0.095882 0.546891
Si Si4 0.618584 0.680665 0.780081
Si Si5 0.333921 0.993520 0.671916
Si Si6 0.445723 0.466481 0.646383
Si Si7 0.183314 0.532378 0.578212
O O1 0.211865 0.651929 0.154941
O O2 0.066725 0.769338 0.338932
O O3 0.828321 0.031239 0.245396
O O4 0.131349 0.098763 0.031748
O O5 0.597486 0.769183 0.193207
O O6 0.800377 0.596211 0.275618
O O7 0.515043 0.138699 0.151842
O O8 0.257513 0.186652 0.403415
O O9 0.019773 0.187401 0.468712
O O10 0.237828 0.762181 0.649804
O O11 0.458195 0.755119 0.783130
O O12 0.212800 0.290491 0.636622
O O13 0.500000 0.000000 0.500000
O O14 0.500000 0.500000 0.500000
O O15 0.632532 0.430200 0.581896
#
# Coordination Sequence:
#
# PCOD9110432 Si02
#       7
#     2   2   2   2   2   2   2
#     4  12  24  39  62  93 128 151 198 256 305 352
#     4  10  24  43  59  89 127 162 192 253 306 348
#     4  12  21  38  66  91 112 161 208 246 291 356
#     4  11  21  39  61  90 122 161 200 242 301 368
#     4  11  19  35  60  89 122 155 198 244 302 356
#     4  10  20  42  62  85 122 158 207 243 288 364
#     4  10  21  37  63  88 114 159 208 238 292 360
#
# _framework density 21.622886999999999
#
# number of rings (size 3 to 8) (size 9 to 14) (size 15 to 20)
#    0.000    1.143    7.143    1.714    0.000    5.143 
#    2.571    0.714    0.000    0.000    0.000    0.000 
#    0.000    0.000    0.000    0.000    0.000    0.000 
#
# Total GULP energy -78147.750238 kJ/mol
# GULP energy per Si atom -5581.982160 kJ/mol
# Density = 2.157367 g / cm^3
# Si number density = 21.622887 Si / 1000 Ang^3
#
#
#
# Elastic Constant Matrix: (Units=GPa)
#
#
# Indices 1 2 3 4 5 6 
#
# 1 57.9916 14.7196 26.2523 5.3695 -21.3043 -8.9271
# 2 14.7196 54.0378 12.1848 3.3381 -9.1368 -8.5785
# 3 26.2523 12.1848 117.0812 14.5651 -39.6605 -1.0639
# 4 5.3695 3.3381 14.5651 9.0173 -0.0344 -4.5721
# 5 -21.3043 -9.1368 -39.6605 -0.0344 33.7941 -1.3042
# 6 -8.9271 -8.5785 -1.0639 -4.5721 -1.3042 28.7039
#
#
#
# Elastic Compliance Matrix: (Units=1/GPa)
#
#
# Indices 1 2 3 4 5 6 
#
# 1 0.026145 -0.002555 0.003298 -0.016991 0.019864 0.005686
# 2 -0.002555 0.020996 0.000838 -0.005080 0.005235 0.004940
# 3 0.003298 0.000838 0.022091 -0.039315 0.028079 -0.002892
# 4 -0.016991 -0.005080 -0.039315 0.196549 -0.057235 0.020447
# 5 0.019864 0.005235 0.028079 -0.057235 0.076546 0.003144
# 6 0.005686 0.004940 -0.002892 0.020447 0.003144 0.041376
#
#
# Mechanical properties :
#
#
# Convention : Reuss Voigt Hill
#
# Bulk Modulus (GPa) = 13.81333 37.26932 25.54132
# Shear Modulus (GPa) = 12.35569 26.03331 19.19450
#
# Velocity S-wave (km/s) = 2.39303 3.47359 2.98265
# Velocity P-wave (km/s) = 3.74668 5.77592 4.86821
#
# Compressibility (1/GPa) = 0.07239382
#
# Stress axis : x y z
#
# Youngs Moduli (GPa) = 38.24750 47.62895 45.26781
#
# Poissons Ratio (x) = 0.12167 -0.14928
# Poissons Ratio (y) = 0.09770 -0.03793
# Poissons Ratio (z) = -0.12613 -0.03991
#
# Static dielectric constant tensor:
#      x y z
#    x 1.807540 0.000720 0.014010 
#    y 0.000720 1.869280 0.008820 
#    z 0.014010 0.008820 1.780800 
# 
# From -- ./inp_files/272949.got.cif
#   From: 2010.05.17/outbox.cif.g08.bks.cpg/sg2_137_cif.got.tgz:272949.got - 2010.06.03 11:33:40.
