data_PCOD9110737
_publ_section_title
;
Structure prediction by ZEFSAII (Michael W. Deem and Ramdas Pophale) SiO2 
 PCOD9110737
Probable space group: P -1
;
_chemical_formula_sum "Si O2"
_cell_formula_units_Z 14
_cell_length_a 6.669611
_cell_length_b 11.441404
_cell_length_c 12.267897
_cell_angle_alpha 59.530826
_cell_angle_beta 57.434377
_cell_angle_gamma 44.870538
_cell_volume 544.064144
_symmetry_space_group_name_H-M "P -1"
_symmetry_group_IT_number 2
_symmetry_cell_setting 'triclinic'
loop_
_space_group_symop_operation_xyz
x,y,z
-x,-y,-z
loop_
_atom_site_type_symbol
_atom_site_label
_atom_site_fract_x
_atom_site_fract_y
_atom_site_fract_z
Si Si1 0.817117 0.802603 0.539524
Si Si2 0.602378 0.618238 0.773020
Si Si3 0.000000 0.000000 0.500000
Si Si4 0.281427 0.485719 0.962399
Si Si5 0.639950 0.012100 0.797566
Si Si6 0.804105 0.683889 0.360885
Si Si7 0.293116 0.882649 0.041397
Si Si8 0.500000 0.500000 0.500000
O O1 0.596210 0.780746 0.682104
O O2 0.805391 0.767830 0.431962
O O3 0.815386 0.961581 0.487285
O O4 0.149666 0.646379 0.554432
O O5 0.302788 0.632743 0.844812
O O6 0.860790 0.480496 0.680656
O O7 0.708279 0.537472 0.900197
O O8 0.133623 0.043163 0.339427
O O9 0.575910 0.312588 0.910496
O O10 0.000000 0.500000 0.000000
O O11 0.330287 0.184404 0.762078
O O12 0.744078 0.057088 0.852683
O O13 0.551171 0.891269 0.913469
O O14 0.579718 0.632044 0.455275
O O15 0.000000 0.000000 0.000000
#
# Coordination Sequence:
#
# PCOD9110737 Si02
#       8
#     2   2   1   2   2   2   2   1
#     4  11  25  43  69 107 149 198 251 313 386 456
#     4  10  23  41  68 110 141 186 257 313 377 457
#     4  12  26  48  68 110 152 198 252 318 382 458
#     4  11  24  44  73 106 143 193 252 324 374 450
#     4  11  26  46  70 109 147 200 257 311 386 472
#     4  11  23  43  74 105 148 203 250 312 387 466
#     4  11  26  49  76 104 152 205 253 313 394 473
#     4  10  20  42  66 104 142 192 248 302 378 456
#
# _framework density 25.732261000000001
#
# number of rings (size 3 to 8) (size 9 to 14) (size 15 to 20)
#    0.000    1.143    1.429    4.286    4.000    9.714 
#    5.143    0.000    0.000    0.000    0.000    0.000 
#    0.000    0.000    0.000    0.000    0.000    0.000 
#
# Total GULP energy -77954.956326 kJ/mol
# GULP energy per Si atom -5568.211166 kJ/mol
# Density = 2.567369 g / cm^3
# Si number density = 25.732261 Si / 1000 Ang^3
#
#
#
# Elastic Constant Matrix: (Units=GPa)
#
#
# Indices 1 2 3 4 5 6 
#
# 1 156.3910 28.2396 73.8813 -1.8652 -17.4614 35.6326
# 2 28.2396 56.3290 10.1137 -6.5720 -1.4812 8.3295
# 3 73.8813 10.1137 118.0297 3.6232 -5.4264 17.5234
# 4 -1.8652 -6.5720 3.6232 29.5948 11.1487 2.9061
# 5 -17.4614 -1.4812 -5.4264 11.1487 51.8030 -1.6810
# 6 35.6326 8.3295 17.5234 2.9061 -1.6810 50.7452
#
#
#
# Elastic Compliance Matrix: (Units=1/GPa)
#
#
# Indices 1 2 3 4 5 6 
#
# 1 0.011383 -0.003798 -0.005887 0.000001 0.002941 -0.005240
# 2 -0.003798 0.020263 0.000587 0.004965 -0.001747 -0.001204
# 3 -0.005887 0.000587 0.012151 -0.001586 -0.000356 -0.000080
# 4 0.000001 0.004965 -0.001586 0.038523 -0.008404 -0.002753
# 5 0.002941 -0.001747 -0.000356 -0.008404 0.022002 -0.000446
# 6 -0.005240 -0.001204 -0.000080 -0.002753 -0.000446 0.023754
#
#
# Mechanical properties :
#
#
# Convention : Reuss Voigt Hill
#
# Bulk Modulus (GPa) = 39.05925 61.69100 50.37512
# Shear Modulus (GPa) = 32.29875 40.99625 36.64750
#
# Velocity S-wave (km/s) = 3.54670 3.99580 3.77793
# Velocity P-wave (km/s) = 5.65546 6.73163 6.21687
#
# Compressibility (1/GPa) = 0.02560213
#
# Stress axis : x y z
#
# Youngs Moduli (GPa) = 87.84850 49.35175 82.29605
#
# Poissons Ratio (x) = 0.18742 0.48447
# Poissons Ratio (y) = 0.33361 -0.04830
# Poissons Ratio (z) = 0.51715 -0.02896
#
# Static dielectric constant tensor:
#      x y z
#    x 2.069520 -0.047460 0.023490 
#    y -0.047460 2.090830 0.006260 
#    z 0.023490 0.006260 1.962820 
# 
# From -- ./inp_files/63273.got.cif
#   From: 2010.05.17/outbox.cif.g08.bks.cpg/sg2_32_cif.got.tgz:63273.got - 2010.06.03 11:33:40.
