data_PCOD9110287
_publ_section_title
;
Structure prediction by ZEFSAII (Michael W. Deem and Ramdas Pophale) SiO2 
 PCOD9110287
Probable space group: P -1
;
_chemical_formula_sum "Si O2"
_cell_formula_units_Z 12
_cell_length_a 14.950526
_cell_length_b 14.527400
_cell_length_c 7.109933
_cell_angle_alpha 45.076144
_cell_angle_beta 140.772448
_cell_angle_gamma 149.957350
_cell_volume 485.814078
_symmetry_space_group_name_H-M "P -1"
_symmetry_group_IT_number 2
_symmetry_cell_setting 'triclinic'
loop_
_space_group_symop_operation_xyz
x,y,z
-x,-y,-z
loop_
_atom_site_type_symbol
_atom_site_label
_atom_site_fract_x
_atom_site_fract_y
_atom_site_fract_z
Si Si1 0.483463 0.636843 0.201056
Si Si2 0.809984 0.300324 0.889607
Si Si3 0.460762 0.650728 0.694192
Si Si4 0.960730 0.689206 0.036153
Si Si5 0.147611 0.959640 0.628782
Si Si6 0.151597 0.244241 0.865409
O O1 0.253341 0.519328 0.047594
O O2 0.003692 0.837159 0.750999
O O3 0.657915 0.836881 0.283598
O O4 0.496696 0.663551 0.958662
O O5 0.611468 0.256844 0.623182
O O6 0.790834 0.147394 0.175720
O O7 0.000000 0.500000 0.000000
O O8 0.869850 0.301534 0.768476
O O9 0.660952 0.724971 0.821675
O O10 0.270485 0.431966 0.665589
O O11 0.500000 0.500000 0.500000
O O12 0.947531 0.741996 0.144544
O O13 0.008823 0.925483 0.288218
#
# Coordination Sequence:
#
# PCOD9110287 Si02
#       6
#     2   2   2   2   2   2
#     4  11  24  43  72 109 147 190 243 303 364 428
#     4  10  21  45  76 102 147 194 234 304 367 426
#     4  10  21  40  72 105 148 187 241 303 365 425
#     4   9  23  43  73 103 142 191 237 297 360 432
#     4  10  23  46  74 106 147 186 246 304 358 434
#     4  10  20  41  72 105 143 190 240 298 359 435
#
# _framework density 24.700807000000001
#
# number of rings (size 3 to 8) (size 9 to 14) (size 15 to 20)
#    1.000    1.000    1.667    1.000    0.000    7.333 
#    0.000   16.667    3.667    0.000    0.000    0.000 
#    0.000    0.000    0.000    0.000    0.000    0.000 
#
# Total GULP energy -67129.127231 kJ/mol
# GULP energy per Si atom -5594.093936 kJ/mol
# Density = 2.464459 g / cm^3
# Si number density = 24.700807 Si / 1000 Ang^3
#
#
#
# Elastic Constant Matrix: (Units=GPa)
#
#
# Indices 1 2 3 4 5 6 
#
# 1 99.1727 41.2409 13.9992 10.0984 -2.4800 -4.2474
# 2 41.2409 175.7836 13.5402 14.9932 -14.1766 -20.6108
# 3 13.9992 13.5402 100.1155 -0.5739 10.5907 -18.5961
# 4 10.0984 14.9932 -0.5739 23.6283 -5.4605 -4.4274
# 5 -2.4800 -14.1766 10.5907 -5.4605 43.5119 -1.2013
# 6 -4.2474 -20.6108 -18.5961 -4.4274 -1.2013 36.7375
#
#
#
# Elastic Compliance Matrix: (Units=1/GPa)
#
#
# Indices 1 2 3 4 5 6 
#
# 1 0.011644 -0.002466 -0.001523 -0.003750 -0.000275 -0.001269
# 2 -0.002466 0.007035 -0.000212 -0.002327 0.002003 0.003340
# 3 -0.001523 -0.000212 0.011567 0.001520 -0.002624 0.005658
# 4 -0.003750 -0.002327 0.001520 0.047455 0.004749 0.004905
# 5 -0.000275 0.002003 -0.002624 0.004749 0.024886 0.001150
# 6 -0.001269 0.003340 0.005658 0.004905 0.001150 0.032440
#
#
# Mechanical properties :
#
#
# Convention : Reuss Voigt Hill
#
# Bulk Modulus (GPa) = 45.77384 56.95918 51.36651
# Shear Modulus (GPa) = 33.17638 41.19496 37.18567
#
# Velocity S-wave (km/s) = 3.66885 4.08825 3.88421
# Velocity P-wave (km/s) = 6.04308 6.73756 6.39975
#
# Compressibility (1/GPa) = 0.02184654
#
# Stress axis : x y z
#
# Youngs Moduli (GPa) = 85.87822 142.14225 86.45093
#
# Poissons Ratio (x) = 0.35047 0.13166
# Poissons Ratio (y) = 0.21175 0.01829
# Poissons Ratio (z) = 0.13078 0.03008
#
# Static dielectric constant tensor:
#      x y z
#    x 1.980630 0.006210 0.007330 
#    y 0.006210 1.972320 -0.057820 
#    z 0.007330 -0.057820 1.971680 
# 
# From -- ./inp_files/244747.got.cif
#   From: 2010.05.17/outbox.cif.g08.bks.cpg/sg2_123_cif.got.tgz:244747.got - 2010.06.03 11:33:40.
