data_PCOD9110459
_publ_section_title
;
Structure prediction by ZEFSAII (Michael W. Deem and Ramdas Pophale) SiO2 
 PCOD9110459
Probable space group: P -1
;
_chemical_formula_sum "Si O2"
_cell_formula_units_Z 16
_cell_length_a 9.902807
_cell_length_b 19.871679
_cell_length_c 21.213727
_cell_angle_alpha 160.414183
_cell_angle_beta 143.660239
_cell_angle_gamma 46.167459
_cell_volume 781.600398
_symmetry_space_group_name_H-M "P -1"
_symmetry_group_IT_number 2
_symmetry_cell_setting 'triclinic'
loop_
_space_group_symop_operation_xyz
x,y,z
-x,-y,-z
loop_
_atom_site_type_symbol
_atom_site_label
_atom_site_fract_x
_atom_site_fract_y
_atom_site_fract_z
Si Si1 0.258682 0.845002 0.241317
Si Si2 0.302944 0.197468 0.422832
Si Si3 0.243381 0.569176 0.111183
Si Si4 0.516261 0.007144 0.937884
Si Si5 0.426888 0.584970 0.982209
Si Si6 0.013511 0.186188 0.421632
Si Si7 0.060602 0.142321 0.085665
Si Si8 0.250131 0.503870 0.567220
O O1 0.175954 0.667893 0.108475
O O2 0.500000 0.000000 0.500000
O O3 0.081374 0.977044 0.279784
O O4 0.339621 0.771403 0.140706
O O5 0.537895 0.269423 0.621076
O O6 0.081322 0.217117 0.400142
O O7 0.351618 0.362801 0.528497
O O8 0.182693 0.960772 0.138218
O O9 0.365550 0.398968 0.978154
O O10 0.000000 0.500000 0.000000
O O11 0.719308 0.912514 0.910364
O O12 0.579802 0.252082 0.157131
O O13 0.249453 0.856784 0.687047
O O14 0.500000 0.000000 0.000000
O O15 0.196335 0.396464 0.705549
O O16 0.500000 0.500000 0.000000
O O17 0.167864 0.384738 0.364019
O O18 0.000000 0.000000 0.000000
O O19 0.000000 0.500000 0.500000
#
# Coordination Sequence:
#
# PCOD9110459 Si02
#       8
#     2   2   2   2   2   2   2   2
#     4  11  20  41  67  84 124 168 205 248 310 367
#     4  10  20  42  62  90 127 166 202 252 314 368
#     4  10  22  40  62  94 129 157 207 260 301 367
#     4  12  24  42  63  96 127 154 215 264 298 374
#     4   9  19  40  64  85 124 167 202 250 313 359
#     4  11  22  40  65  92 124 162 210 257 305 365
#     4  10  21  43  64  89 126 168 201 252 316 374
#     4  11  22  42  65  87 126 168 202 252 314 366
#
# _framework density 20.470818999999999
#
# number of rings (size 3 to 8) (size 9 to 14) (size 15 to 20)
#    0.000    1.500    7.500    0.000    1.750    1.500 
#   13.500    0.625    0.000    0.000    0.000    0.000 
#    0.000    0.000    0.000    0.000    0.000    0.000 
#
# Total GULP energy -89094.117574 kJ/mol
# GULP energy per Si atom -5568.382348 kJ/mol
# Density = 2.042423 g / cm^3
# Si number density = 20.470819 Si / 1000 Ang^3
#
#
#
# Elastic Constant Matrix: (Units=GPa)
#
#
# Indices 1 2 3 4 5 6 
#
# 1 148.5130 27.4406 53.0970 -5.7860 3.2107 -15.5137
# 2 27.4406 60.2231 7.8217 -3.8931 -1.8376 3.1241
# 3 53.0970 7.8217 101.5314 -11.2789 -11.4598 -9.5100
# 4 -5.7860 -3.8931 -11.2789 27.0489 1.1788 2.6605
# 5 3.2107 -1.8376 -11.4598 1.1788 45.3087 -1.9737
# 6 -15.5137 3.1241 -9.5100 2.6605 -1.9737 36.1437
#
#
#
# Elastic Compliance Matrix: (Units=1/GPa)
#
#
# Indices 1 2 3 4 5 6 
#
# 1 0.009466 -0.003976 -0.004638 -0.000709 -0.001850 0.003138
# 2 -0.003976 0.018679 0.000718 0.002413 0.001016 -0.003254
# 3 -0.004638 0.000718 0.013236 0.004343 0.003650 0.001310
# 4 -0.000709 0.002413 0.004343 0.039192 0.000129 -0.002248
# 5 -0.001850 0.001016 0.003650 0.000129 0.023221 0.001337
# 6 0.003138 -0.003254 0.001310 -0.002248 0.001337 0.029878
#
#
# Mechanical properties :
#
#
# Convention : Reuss Voigt Hill
#
# Bulk Modulus (GPa) = 39.07698 54.10958 46.59328
# Shear Modulus (GPa) = 31.64655 36.49413 34.07034
#
# Velocity S-wave (km/s) = 3.93610 4.22683 4.08405
# Velocity P-wave (km/s) = 6.30775 7.09305 6.71190
#
# Compressibility (1/GPa) = 0.02559051
#
# Stress axis : x y z
#
# Youngs Moduli (GPa) = 105.63693 53.53557 75.54971
#
# Poissons Ratio (x) = 0.21286 0.35040
# Poissons Ratio (y) = 0.42002 -0.05427
# Poissons Ratio (z) = 0.48994 -0.03846
#
# Static dielectric constant tensor:
#      x y z
#    x 1.746600 0.011350 0.008960 
#    y 0.011350 1.833900 -0.007830 
#    z 0.008960 -0.007830 1.818130 
# 
# From -- ./inp_files/492566.got.cif
#   From: 2010.05.17/outbox.cif.g08.bks.cpg/sg2_247_cif.got.tgz:492566.got - 2010.06.03 11:33:40.
