data_PCOD9110742
_publ_section_title
;
Structure prediction by ZEFSAII (Michael W. Deem and Ramdas Pophale) SiO2 
 PCOD9110742
Probable space group: P -1
;
_chemical_formula_sum "Si O2"
_cell_formula_units_Z 13
_cell_length_a 11.643471
_cell_length_b 8.996557
_cell_length_c 17.547378
_cell_angle_alpha 52.282866
_cell_angle_beta 155.864263
_cell_angle_gamma 127.237081
_cell_volume 588.282959
_symmetry_space_group_name_H-M "P -1"
_symmetry_group_IT_number 2
_symmetry_cell_setting 'triclinic'
loop_
_space_group_symop_operation_xyz
x,y,z
-x,-y,-z
loop_
_atom_site_type_symbol
_atom_site_label
_atom_site_fract_x
_atom_site_fract_y
_atom_site_fract_z
Si Si1 0.667224 0.992149 0.181250
Si Si2 0.652315 0.073664 0.835132
Si Si3 0.288434 0.233285 0.159435
Si Si4 0.500000 0.000000 0.500000
Si Si5 0.729360 0.563414 0.356130
Si Si6 0.326814 0.638900 0.455573
Si Si7 0.777568 0.713209 0.591092
O O1 0.480107 0.992228 0.143537
O O2 0.770384 0.788097 0.307646
O O3 0.926007 0.160646 0.282280
O O4 0.500000 0.000000 0.000000
O O5 0.444439 0.194195 0.625291
O O6 0.682602 0.889929 0.859845
O O7 0.956060 0.204482 0.986669
O O8 0.444224 0.449711 0.181014
O O9 0.455519 0.139034 0.357314
O O10 0.230792 0.837990 0.355501
O O11 0.708001 0.500012 0.450962
O O12 0.000000 0.500000 0.500000
O O13 0.651602 0.721419 0.598340
O O14 0.211942 0.504421 0.358238
#
# Coordination Sequence:
#
# PCOD9110742 Si02
#       7
#     2   2   2   1   2   2   2
#     4  12  29  45  70 103 141 187 234 298 342 415
#     4  11  23  45  69 100 138 181 236 282 353 408
#     4  10  24  41  72 101 139 181 226 290 347 420
#     4  10  20  42  66 106 132 170 228 280 342 412
#     4  11  25  44  70 104 141 184 229 286 353 411
#     4  10  23  39  74  99 128 186 223 281 341 421
#     4  11  23  46  69  99 135 182 235 281 352 412
#
# _framework density 22.098210000000002
#
# number of rings (size 3 to 8) (size 9 to 14) (size 15 to 20)
#    0.000    1.231    3.077    1.385    8.615    3.077 
#    0.000    0.769    0.000    0.000    0.000    0.000 
#    0.000    0.000    0.000    0.000    0.000    0.000 
#
# Total GULP energy -72420.957435 kJ/mol
# GULP energy per Si atom -5570.842880 kJ/mol
# Density = 2.204791 g / cm^3
# Si number density = 22.098210 Si / 1000 Ang^3
#
#
#
# Elastic Constant Matrix: (Units=GPa)
#
#
# Indices 1 2 3 4 5 6 
#
# 1 161.9378 7.4362 40.4789 10.4968 6.3383 26.7148
# 2 7.4362 93.3281 2.0224 20.2064 11.2647 24.3858
# 3 40.4789 2.0224 56.9177 25.8862 10.3560 12.9218
# 4 10.4968 20.2064 25.8862 38.6479 13.3634 1.7989
# 5 6.3383 11.2647 10.3560 13.3634 29.3271 2.6549
# 6 26.7148 24.3858 12.9218 1.7989 2.6549 20.9072
#
#
#
# Elastic Compliance Matrix: (Units=1/GPa)
#
#
# Indices 1 2 3 4 5 6 
#
# 1 0.009044 0.003261 -0.002680 -0.001636 -0.000291 -0.013526
# 2 0.003261 0.027722 0.018933 -0.025077 -0.002472 -0.045731
# 3 -0.002680 0.018933 0.046029 -0.037274 -0.002011 -0.043644
# 4 -0.001636 -0.025077 -0.037274 0.066031 -0.011480 0.050154
# 5 -0.000291 -0.002472 -0.002011 -0.011480 0.041027 0.000276
# 6 -0.013526 -0.045731 -0.043644 0.050154 0.000276 0.141077
#
#
# Mechanical properties :
#
#
# Convention : Reuss Voigt Hill
#
# Bulk Modulus (GPa) = 8.20869 45.78429 26.99649
# Shear Modulus (GPa) = 15.03709 35.25951 25.14830
#
# Velocity S-wave (km/s) = 2.61141 3.99881 3.37712
# Velocity P-wave (km/s) = 3.57984 6.48723 5.23925
#
# Compressibility (1/GPa) = 0.12182219
#
# Stress axis : x y z
#
# Youngs Moduli (GPa) = 110.56783 36.07284 21.72528
#
# Poissons Ratio (x) = -0.11763 0.05823
# Poissons Ratio (y) = -0.36055 -0.41132
# Poissons Ratio (z) = 0.29636 -0.68296
#
# Static dielectric constant tensor:
#      x y z
#    x 1.852970 -0.109820 -0.001270 
#    y -0.109820 1.935690 0.021630 
#    z -0.001270 0.021630 1.722240 
# 
# From -- ./inp_files/377821.got.cif
#   From: 2010.05.17/outbox.cif.g08.bks.cpg/sg2_189_cif.got.tgz:377821.got - 2010.06.03 11:33:40.
