data_PCOD9110937
_publ_section_title
;
Structure prediction by ZEFSAII (Michael W. Deem and Ramdas Pophale) SiO2 
 PCOD9110937
Probable space group: P -1
;
_chemical_formula_sum "Si O2"
_cell_formula_units_Z 16
_cell_length_a 17.262480
_cell_length_b 8.034136
_cell_length_c 10.880180
_cell_angle_alpha 58.578785
_cell_angle_beta 54.905479
_cell_angle_gamma 32.717822
_cell_volume 664.907326
_symmetry_space_group_name_H-M "P -1"
_symmetry_group_IT_number 2
_symmetry_cell_setting 'triclinic'
loop_
_space_group_symop_operation_xyz
x,y,z
-x,-y,-z
loop_
_atom_site_type_symbol
_atom_site_label
_atom_site_fract_x
_atom_site_fract_y
_atom_site_fract_z
Si Si1 0.516607 0.258501 0.374109
Si Si2 0.740191 0.583181 0.482597
Si Si3 0.814804 0.683862 0.895738
Si Si4 0.789237 0.348179 0.882984
Si Si5 0.256876 0.805811 0.764000
Si Si6 0.961473 0.497941 0.398782
Si Si7 0.521917 0.237438 0.096777
Si Si8 0.106461 0.686066 0.808040
O O1 0.340288 0.496010 0.431805
O O2 0.576090 0.369091 0.327530
O O3 0.571377 0.138516 0.230220
O O4 0.601815 0.953823 0.489951
O O5 0.870654 0.440332 0.509880
O O6 0.819973 0.498097 0.313201
O O7 0.820683 0.502147 0.860912
O O8 0.895646 0.732073 0.734335
O O9 0.898997 0.472246 0.022068
O O10 0.645962 0.977845 0.984888
O O11 0.639269 0.601474 0.842224
O O12 0.759791 0.244701 0.062505
O O13 0.939778 0.030646 0.806467
O O14 0.208957 0.698082 0.766449
O O15 0.146996 0.160679 0.692511
O O16 0.000000 0.500000 0.500000
O O17 0.500000 0.500000 0.000000
#
# Coordination Sequence:
#
# PCOD9110937 Si02
#       8
#     2   2   2   2   2   2   2   2
#     4  10  22  44  61  95 138 178 216 279 328 401
#     4  10  24  41  69  94 130 180 226 269 340 389
#     4  11  23  44  69  97 133 177 225 273 335 393
#     4  11  22  41  68 101 134 171 222 287 331 389
#     4  10  20  42  67  94 132 167 228 268 337 394
#     4  11  24  43  66  98 133 177 219 276 333 403
#     4  12  25  41  66 101 136 176 224 279 332 393
#     4  11  21  42  75 102 122 179 228 282 329 394
#
# _framework density 24.063503999999998
#
# number of rings (size 3 to 8) (size 9 to 14) (size 15 to 20)
#    0.000    1.250    5.000    1.125    3.500    1.000 
#    2.250    1.250    0.000    0.000    0.000    0.000 
#    0.000    0.000    0.000    0.000    0.000    0.000 
#
# Total GULP energy -89439.189894 kJ/mol
# GULP energy per Si atom -5589.949368 kJ/mol
# Density = 2.400873 g / cm^3
# Si number density = 24.063504 Si / 1000 Ang^3
#
#
#
# Elastic Constant Matrix: (Units=GPa)
#
#
# Indices 1 2 3 4 5 6 
#
# 1 100.8976 15.9511 39.1078 13.4953 -19.3830 -35.0707
# 2 15.9511 85.5001 21.9804 9.6099 -0.2376 -12.1731
# 3 39.1078 21.9804 86.1667 10.4398 -18.7528 -12.2286
# 4 13.4953 9.6099 10.4398 35.3816 -5.4863 -4.6923
# 5 -19.3830 -0.2376 -18.7528 -5.4863 42.7766 8.2586
# 6 -35.0707 -12.1731 -12.2286 -4.6923 8.2586 28.4877
#
#
#
# Elastic Compliance Matrix: (Units=1/GPa)
#
#
# Indices 1 2 3 4 5 6 
#
# 1 0.020391 0.001129 -0.005561 -0.003187 0.002142 0.022052
# 2 0.001129 0.013478 -0.003288 -0.002694 -0.002354 0.005977
# 3 -0.005561 -0.003288 0.015727 -0.001295 0.004789 -0.003102
# 4 -0.003187 -0.002694 -0.001295 0.030768 0.002148 -0.001185
# 5 0.002142 -0.002354 0.004789 0.002148 0.027467 -0.003922
# 6 0.022052 0.005977 -0.003102 -0.001185 -0.003922 0.064416
#
#
# Mechanical properties :
#
#
# Convention : Reuss Voigt Hill
#
# Bulk Modulus (GPa) = 29.27778 47.40478 38.34128
# Shear Modulus (GPa) = 25.11658 34.36418 29.74038
#
# Velocity S-wave (km/s) = 3.23424 3.78307 3.51937
# Velocity P-wave (km/s) = 5.11276 6.23095 5.69935
#
# Compressibility (1/GPa) = 0.03415560
#
# Stress axis : x y z
#
# Youngs Moduli (GPa) = 49.04210 74.19639 63.58438
#
# Poissons Ratio (x) = -0.08379 0.35358
# Poissons Ratio (y) = -0.05538 0.20909
# Poissons Ratio (z) = 0.27271 0.24399
#
# Static dielectric constant tensor:
#      x y z
#    x 2.287500 -0.581880 -0.444750 
#    y -0.581880 2.777830 0.624660 
#    z -0.444750 0.624660 2.397190 
# 
# From -- ./inp_files/461990.got.cif
#   From: 2010.05.17/outbox.cif.g08.bks.cpg/sg2_231_cif.got.tgz:461990.got - 2010.06.03 11:33:40.
