data_PCOD9110640
_publ_section_title
;
Structure prediction by ZEFSAII (Michael W. Deem and Ramdas Pophale) SiO2 
 PCOD9110640
Probable space group: P -1
;
_chemical_formula_sum "Si O2"
_cell_formula_units_Z 16
_cell_length_a 26.811593
_cell_length_b 11.886836
_cell_length_c 5.650075
_cell_angle_alpha 141.216855
_cell_angle_beta 44.405304
_cell_angle_gamma 144.627464
_cell_volume 637.343161
_symmetry_space_group_name_H-M "P -1"
_symmetry_group_IT_number 2
_symmetry_cell_setting 'triclinic'
loop_
_space_group_symop_operation_xyz
x,y,z
-x,-y,-z
loop_
_atom_site_type_symbol
_atom_site_label
_atom_site_fract_x
_atom_site_fract_y
_atom_site_fract_z
Si Si1 0.818851 0.765944 0.163104
Si Si2 0.638218 0.311198 0.105771
Si Si3 0.115367 0.051725 0.262823
Si Si4 0.225342 0.870843 0.094552
Si Si5 0.028653 0.450880 0.072726
Si Si6 0.720809 0.992375 0.362731
Si Si7 0.513451 0.870386 0.044764
Si Si8 0.559095 0.499295 0.999624
O O1 0.738303 0.506937 0.027195
O O2 0.872792 0.828859 0.330359
O O3 0.786510 0.928076 0.537317
O O4 0.866412 0.820111 0.836538
O O5 0.613289 0.413307 0.565409
O O6 0.594009 0.056569 0.916339
O O7 0.575417 0.271879 0.038610
O O8 0.190240 0.003233 0.934057
O O9 0.021504 0.813014 0.184089
O O10 0.133370 0.629452 0.008311
O O11 0.270673 0.895034 0.229863
O O12 0.274185 0.901251 0.733996
O O13 0.000000 0.500000 0.500000
O O14 0.000000 0.500000 0.000000
O O15 0.635933 0.739887 0.227597
O O16 0.513248 0.685886 0.880922
O O17 0.500000 0.000000 0.500000
O O18 0.500000 0.500000 0.000000
#
# Coordination Sequence:
#
# PCOD9110640 Si02
#       8
#     2   2   2   2   2   2   2   2
#     4  10  17  26  44  63  88 126 160 198 238 301
#     4  10  19  34  53  70  95 133 177 210 260 309
#     4  10  17  26  40  63  93 123 163 195 245 300
#     4  10  17  27  42  60  92 128 165 195 244 304
#     4  12  16  24  37  61  89 128 159 197 236 298
#     4  10  18  30  43  62  91 129 168 198 245 300
#     4   9  20  35  51  71  94 126 174 217 263 308
#     4  11  22  34  51  74 101 135 177 221 257 301
#
# _framework density 25.104213999999999
#
# number of rings (size 3 to 8) (size 9 to 14) (size 15 to 20)
#    0.000    1.750    7.500    1.500    1.750    0.500 
#    0.000    0.000    0.000    0.000    0.000    0.000 
#    0.000    0.000    0.000   12.375    2.000    1.125 
#
# Total GULP energy -89478.735303 kJ/mol
# GULP energy per Si atom -5592.420956 kJ/mol
# Density = 2.504708 g / cm^3
# Si number density = 25.104214 Si / 1000 Ang^3
#
#
#
# Elastic Constant Matrix: (Units=GPa)
#
#
# Indices 1 2 3 4 5 6 
#
# 1 76.4397 41.8573 47.9565 0.5788 46.1935 -8.5058
# 2 41.8573 209.3842 74.4136 14.5742 33.8718 -15.4709
# 3 47.9565 74.4136 112.8760 1.5724 41.7268 -5.9680
# 4 0.5788 14.5742 1.5724 59.6003 -4.2913 15.6838
# 5 46.1935 33.8718 41.7268 -4.2913 61.4442 -3.2709
# 6 -8.5058 -15.4709 -5.9680 15.6838 -3.2709 45.3052
#
#
#
# Elastic Compliance Matrix: (Units=1/GPa)
#
#
# Indices 1 2 3 4 5 6 
#
# 1 0.026788 -0.000595 -0.004611 -0.002184 -0.016631 0.003774
# 2 -0.000595 0.006662 -0.003712 -0.002206 -0.000731 0.002385
# 3 -0.004611 -0.003712 0.014942 0.000391 -0.004641 -0.000635
# 4 -0.002184 -0.002206 0.000391 0.019595 0.003554 -0.007638
# 5 -0.016631 -0.000731 -0.004641 0.003554 0.032428 -0.002873
# 6 0.003774 0.002385 -0.000635 -0.007638 -0.002873 0.025949
#
#
# Mechanical properties :
#
#
# Convention : Reuss Voigt Hill
#
# Bulk Modulus (GPa) = 32.72660 80.79498 56.76079
# Shear Modulus (GPa) = 32.38670 48.90143 40.64407
#
# Velocity S-wave (km/s) = 3.59568 4.41833 4.02806
# Velocity P-wave (km/s) = 5.50483 7.63430 6.65529
#
# Compressibility (1/GPa) = 0.03055619
#
# Stress axis : x y z
#
# Youngs Moduli (GPa) = 37.33059 150.10122 66.92614
#
# Poissons Ratio (x) = 0.08934 0.30857
# Poissons Ratio (y) = 0.02222 0.24843
# Poissons Ratio (z) = 0.17212 0.55717
#
# Static dielectric constant tensor:
#      x y z
#    x 2.072010 0.072620 0.022280 
#    y 0.072620 2.073560 0.104280 
#    z 0.022280 0.104280 2.333120 
# 
# From -- ./inp_files/44221.got.cif
#   From: 2010.05.17/outbox.cif.g08.bks.cpg/sg2_23_cif.got.tgz:44221.got - 2010.06.03 11:33:40.
