data_PCOD9110604
_publ_section_title
;
Structure prediction by ZEFSAII (Michael W. Deem and Ramdas Pophale) SiO2 
 PCOD9110604
Probable space group: P -1
;
_chemical_formula_sum "Si O2"
_cell_formula_units_Z 16
_cell_length_a 9.278043
_cell_length_b 9.307978
_cell_length_c 21.124787
_cell_angle_alpha 140.970297
_cell_angle_beta 35.820900
_cell_angle_gamma 129.853373
_cell_volume 672.057332
_symmetry_space_group_name_H-M "P -1"
_symmetry_group_IT_number 2
_symmetry_cell_setting 'triclinic'
loop_
_space_group_symop_operation_xyz
x,y,z
-x,-y,-z
loop_
_atom_site_type_symbol
_atom_site_label
_atom_site_fract_x
_atom_site_fract_y
_atom_site_fract_z
Si Si1 0.438034 0.199665 0.802999
Si Si2 0.628155 0.816716 0.523503
Si Si3 0.110389 0.556733 0.636079
Si Si4 0.225068 0.410240 0.350091
Si Si5 0.418788 0.939824 0.853358
Si Si6 0.348087 0.229512 0.640958
Si Si7 0.004121 0.436794 0.083551
Si Si8 0.768111 0.604509 0.879260
O O1 0.629097 0.398454 0.823347
O O2 0.551876 0.066649 0.657740
O O3 0.411499 0.021492 0.810696
O O4 0.175937 0.322321 0.930613
O O5 0.362410 0.684273 0.569211
O O6 0.805379 0.702959 0.473060
O O7 0.747907 0.764099 0.395251
O O8 0.885260 0.597273 0.683283
O O9 0.022263 0.648437 0.766291
O O10 0.325732 0.173672 0.258788
O O11 0.443486 0.590086 0.348642
O O12 0.000000 0.500000 0.500000
O O13 0.201982 0.754514 0.885838
O O14 0.376749 0.163058 0.986555
O O15 0.121293 0.317619 0.794238
O O16 0.500000 0.000000 0.500000
O O17 0.183807 0.461470 0.088318
#
# Coordination Sequence:
#
# PCOD9110604 Si02
#       8
#     2   2   2   2   2   2   2   2
#     4  11  23  37  66  96 128 161 216 259 314 365
#     4  11  23  43  66  95 121 173 207 261 304 385
#     4  11  23  41  67  89 130 157 225 250 311 373
#     4  11  23  41  63  94 121 172 204 264 310 373
#     4  10  21  39  65  90 127 166 214 252 316 375
#     4  11  25  42  66  93 133 161 209 254 330 368
#     4  10  20  42  64  93 122 175 207 254 310 380
#     4  11  22  38  63  97 126 164 208 269 308 367
#
# _framework density 23.807492
#
# number of rings (size 3 to 8) (size 9 to 14) (size 15 to 20)
#    0.000    1.250    2.500    5.250    5.250    4.000 
#    0.000    0.625    0.000    0.000    0.000    0.000 
#    0.000    0.000    0.000    0.000    0.000    0.000 
#
# Total GULP energy -89346.922279 kJ/mol
# GULP energy per Si atom -5584.182642 kJ/mol
# Density = 2.375331 g / cm^3
# Si number density = 23.807492 Si / 1000 Ang^3
#
#
#
# Elastic Constant Matrix: (Units=GPa)
#
#
# Indices 1 2 3 4 5 6 
#
# 1 75.2155 5.9922 53.6216 13.9086 -9.7484 5.1164
# 2 5.9922 39.1579 14.9813 13.2058 1.0119 8.3962
# 3 53.6216 14.9813 191.1857 16.3917 -29.1018 -3.9951
# 4 13.9086 13.2058 16.3917 37.5642 -5.9760 2.8130
# 5 -9.7484 1.0119 -29.1018 -5.9760 50.1437 -0.5379
# 6 5.1164 8.3962 -3.9951 2.8130 -0.5379 22.2010
#
#
#
# Elastic Compliance Matrix: (Units=1/GPa)
#
#
# Indices 1 2 3 4 5 6 
#
# 1 0.017823 0.001810 -0.004840 -0.004744 0.000000 -0.005061
# 2 0.001810 0.032581 -0.002928 -0.010485 -0.003383 -0.012019
# 3 -0.004840 -0.002928 0.007432 -0.000147 0.003453 0.003662
# 4 -0.004744 -0.010485 -0.000147 0.032546 0.003093 0.000983
# 5 0.000000 -0.003383 0.003453 0.003093 0.022406 0.002052
# 6 -0.005061 -0.012019 0.003662 0.000983 0.002052 0.051339
#
#
# Mechanical properties :
#
#
# Convention : Reuss Voigt Hill
#
# Bulk Modulus (GPa) = 21.77678 50.52770 36.15224
# Shear Modulus (GPa) = 26.13013 37.37937 31.75475
#
# Velocity S-wave (km/s) = 3.31654 3.96671 3.65610
# Velocity P-wave (km/s) = 4.88188 6.49994 5.74813
#
# Compressibility (1/GPa) = 0.04592048
#
# Stress axis : x y z
#
# Youngs Moduli (GPa) = 56.10823 30.69235 134.55247
#
# Poissons Ratio (x) = -0.05554 0.65117
# Poissons Ratio (y) = -0.10153 0.39395
# Poissons Ratio (z) = 0.27154 0.08986
#
# Static dielectric constant tensor:
#      x y z
#    x -0.032970 -0.523340 -0.461430 
#    y -0.523340 1.851230 -0.103860 
#    z -0.461430 -0.103860 1.853890 
# 
# From -- ./inp_files/406519.got.cif
#   From: 2010.05.17/outbox.cif.g08.bks.cpg/sg2_204_cif.got.tgz:406519.got - 2010.06.03 11:33:40.
