data_PCOD9110212
_publ_section_title
;
Structure prediction by ZEFSAII (Michael W. Deem and Ramdas Pophale) SiO2 
 PCOD9110212
Probable space group: P -1
;
_chemical_formula_sum "Si O2"
_cell_formula_units_Z 14
_cell_length_a 9.140117
_cell_length_b 14.103716
_cell_length_c 14.597432
_cell_angle_alpha 138.851532
_cell_angle_beta 138.287186
_cell_angle_gamma 28.841690
_cell_volume 574.490029
_symmetry_space_group_name_H-M "P -1"
_symmetry_group_IT_number 2
_symmetry_cell_setting 'triclinic'
loop_
_space_group_symop_operation_xyz
x,y,z
-x,-y,-z
loop_
_atom_site_type_symbol
_atom_site_label
_atom_site_fract_x
_atom_site_fract_y
_atom_site_fract_z
Si Si1 0.759672 0.691321 0.094096
Si Si2 0.239263 0.740884 0.951186
Si Si3 0.948124 0.151061 0.660729
Si Si4 0.287283 0.507846 0.543147
Si Si5 0.645266 0.257759 0.789006
Si Si6 0.756651 0.802955 0.662115
Si Si7 0.808311 0.751745 0.357716
O O1 0.429285 0.762401 0.991361
O O2 0.864478 0.629194 0.204745
O O3 0.784033 0.852300 0.206031
O O4 0.000000 0.500000 0.000000
O O5 0.206511 0.817215 0.094726
O O6 0.466741 0.494078 0.876280
O O7 0.908185 0.840619 0.832387
O O8 0.638837 0.381241 0.645491
O O9 0.859693 0.141255 0.714746
O O10 0.000000 0.000000 0.500000
O O11 0.038464 0.662343 0.617969
O O12 0.559054 0.988768 0.381439
O O13 0.132732 0.644114 0.478336
O O14 0.380472 0.258548 0.666101
O O15 0.707058 0.669559 0.585508
#
# Coordination Sequence:
#
# PCOD9110212 Si02
#       7
#     2   2   2   2   2   2   2
#     4  11  23  42  67 100 139 187 229 282 352 421
#     4  10  20  41  74  98 132 178 235 288 345 404
#     4  12  25  44  68 103 149 188 227 281 358 428
#     4  11  22  41  65  98 144 188 223 287 352 414
#     4  10  20  41  71 100 131 181 229 289 343 408
#     4  11  21  40  70 106 135 176 235 298 350 400
#     4  11  24  40  70 104 130 179 244 291 338 413
#
# _framework density 24.369440999999998
#
# number of rings (size 3 to 8) (size 9 to 14) (size 15 to 20)
#    0.000    1.143    4.286    2.143    0.000    4.000 
#    0.000    5.000    0.000    6.000    0.000    0.000 
#    0.000    0.000    0.000    0.000    0.000    0.000 
#
# Total GULP energy -78307.192423 kJ/mol
# GULP energy per Si atom -5593.370887 kJ/mol
# Density = 2.431398 g / cm^3
# Si number density = 24.369441 Si / 1000 Ang^3
#
#
#
# Elastic Constant Matrix: (Units=GPa)
#
#
# Indices 1 2 3 4 5 6 
#
# 1 143.1291 14.0366 51.1984 6.5696 -3.8297 -11.1771
# 2 14.0366 131.2732 40.6274 -5.5820 1.7532 -4.5212
# 3 51.1984 40.6274 129.7864 2.9318 -11.0007 -8.3354
# 4 6.5696 -5.5820 2.9318 48.2248 -5.9110 5.0067
# 5 -3.8297 1.7532 -11.0007 -5.9110 50.5523 -0.1602
# 6 -11.1771 -4.5212 -8.3354 5.0067 -0.1602 18.0412
#
#
#
# Elastic Compliance Matrix: (Units=1/GPa)
#
#
# Indices 1 2 3 4 5 6 
#
# 1 0.008472 0.000141 -0.003098 -0.001413 -0.000189 0.004243
# 2 0.000141 0.008535 -0.002772 0.000973 -0.000773 0.000669
# 3 -0.003098 -0.002772 0.010119 -0.000498 0.002012 0.002217
# 4 -0.001413 0.000973 -0.000498 0.022078 0.002310 -0.006968
# 5 -0.000189 -0.000773 0.002012 0.002310 0.020503 0.000160
# 6 0.004243 0.000669 0.002217 -0.006968 0.000160 0.061185
#
#
# Mechanical properties :
#
#
# Convention : Reuss Voigt Hill
#
# Bulk Modulus (GPa) = 63.81956 68.43485 66.12720
# Shear Modulus (GPa) = 33.88168 43.25208 38.56688
#
# Velocity S-wave (km/s) = 3.73276 4.21747 3.98250
# Velocity P-wave (km/s) = 6.69502 7.20134 6.95279
#
# Compressibility (1/GPa) = 0.01566918
#
# Stress axis : x y z
#
# Youngs Moduli (GPa) = 118.03348 117.16123 98.82376
#
# Poissons Ratio (x) = -0.01657 0.30615
# Poissons Ratio (y) = -0.01670 0.27395
# Poissons Ratio (z) = 0.36566 0.32479
#
# Static dielectric constant tensor:
#      x y z
#    x 1.976970 -0.004800 0.008640 
#    y -0.004800 1.966990 0.011100 
#    z 0.008640 0.011100 1.964160 
# 
# From -- ./inp_files/503297.got.cif
#   From: 2010.05.17/outbox.cif.g08.bks.cpg/sg2_252_cif.got.tgz:503297.got - 2010.06.03 11:33:40.
