data_PCOD9110464
_publ_section_title
;
Structure prediction by ZEFSAII (Michael W. Deem and Ramdas Pophale) SiO2 
 PCOD9110464
Probable space group: P -1
;
_chemical_formula_sum "Si O2"
_cell_formula_units_Z 13
_cell_length_a 7.758150
_cell_length_b 7.577765
_cell_length_c 11.771410
_cell_angle_alpha 114.060412
_cell_angle_beta 129.218575
_cell_angle_gamma 86.549708
_cell_volume 470.078568
_symmetry_space_group_name_H-M "P -1"
_symmetry_group_IT_number 2
_symmetry_cell_setting 'triclinic'
loop_
_space_group_symop_operation_xyz
x,y,z
-x,-y,-z
loop_
_atom_site_type_symbol
_atom_site_label
_atom_site_fract_x
_atom_site_fract_y
_atom_site_fract_z
Si Si1 0.324357 0.279125 0.882851
Si Si2 0.195870 0.949093 0.915801
Si Si3 0.723862 0.359951 0.498952
Si Si4 0.000000 0.000000 0.500000
Si Si5 0.300857 0.970715 0.215078
Si Si6 0.933874 0.732401 0.556570
Si Si7 0.127507 0.617691 0.194333
O O1 0.357552 0.144488 0.970349
O O2 0.087323 0.329795 0.825287
O O3 0.500000 0.500000 0.000000
O O4 0.250537 0.131199 0.706199
O O5 0.952213 0.995666 0.856976
O O6 0.118735 0.771249 0.744798
O O7 0.289443 0.895872 0.059820
O O8 0.927687 0.262585 0.506688
O O9 0.767606 0.456618 0.668145
O O10 0.745463 0.532192 0.458347
O O11 0.492122 0.182597 0.357672
O O12 0.870987 0.933175 0.555469
O O13 0.318082 0.802566 0.267183
O O14 0.000000 0.500000 0.000000
#
# Coordination Sequence:
#
# PCOD9110464 Si02
#       7
#     2   2   2   1   2   2   2
#     4  10  22  39  66  92 123 170 213 263 319 373
#     4   9  21  41  60  89 126 164 209 261 305 389
#     4  11  23  39  63  94 124 163 208 266 321 373
#     4  10  20  42  62  90 132 158 212 262 306 388
#     4  10  22  40  62  87 128 168 209 254 320 383
#     4  10  22  39  63  90 124 161 207 270 311 374
#     4  11  23  42  58  90 132 163 210 263 316 388
#
# _framework density 27.654955000000001
#
# number of rings (size 3 to 8) (size 9 to 14) (size 15 to 20)
#    0.000    1.846    1.538    1.385    2.154    3.692 
#    8.308    0.000    0.000    0.000    0.000    0.000 
#    0.000    0.000    0.000    0.000    0.000    0.000 
#
# Total GULP energy -72538.527291 kJ/mol
# GULP energy per Si atom -5579.886715 kJ/mol
# Density = 2.759201 g / cm^3
# Si number density = 27.654955 Si / 1000 Ang^3
#
#
#
# Elastic Constant Matrix: (Units=GPa)
#
#
# Indices 1 2 3 4 5 6 
#
# 1 98.8297 40.2378 50.2796 2.3416 -0.3307 32.8583
# 2 40.2378 211.6308 80.9497 26.4353 10.7983 70.0739
# 3 50.2796 80.9497 164.7756 6.3593 -25.2529 42.1827
# 4 2.3416 26.4353 6.3593 57.3678 18.3057 6.3150
# 5 -0.3307 10.7983 -25.2529 18.3057 54.8060 3.7510
# 6 32.8583 70.0739 42.1827 6.3150 3.7510 52.7582
#
#
#
# Elastic Compliance Matrix: (Units=1/GPa)
#
#
# Indices 1 2 3 4 5 6 
#
# 1 0.013676 0.000991 -0.002941 0.000490 -0.001121 -0.007462
# 2 0.000991 0.009373 -0.002214 -0.002506 -0.001278 -0.010905
# 3 -0.002941 -0.002214 0.009818 -0.001380 0.005630 -0.003313
# 4 0.000490 -0.002506 -0.001380 0.020789 -0.007230 0.002152
# 5 -0.001121 -0.001278 0.005630 -0.007230 0.023701 -0.002926
# 6 -0.007462 -0.010905 -0.003313 0.002152 -0.002926 0.040685
#
#
# Mechanical properties :
#
#
# Convention : Reuss Voigt Hill
#
# Bulk Modulus (GPa) = 40.74981 90.90781 65.82881
# Shear Modulus (GPa) = 37.16097 53.23767 45.19932
#
# Velocity S-wave (km/s) = 3.66968 4.39232 4.04716
# Velocity P-wave (km/s) = 5.72035 7.65943 6.75978
#
# Compressibility (1/GPa) = 0.02453999
#
# Stress axis : x y z
#
# Youngs Moduli (GPa) = 73.11823 106.69173 101.85221
#
# Poissons Ratio (x) = -0.10576 0.29950
# Poissons Ratio (y) = -0.07248 0.22555
# Poissons Ratio (z) = 0.21500 0.23627
#
# Static dielectric constant tensor:
#      x y z
#    x 2.711030 -0.952450 -0.100620 
#    y -0.952450 3.802530 0.074450 
#    z -0.100620 0.074450 2.349950 
# 
# From -- ./inp_files/152253.got.cif
#   From: 2010.05.17/outbox.cif.g08.bks.cpg/sg2_77_cif.got.tgz:152253.got - 2010.06.03 11:33:40.
