data_PCOD9110509
_publ_section_title
;
Structure prediction by ZEFSAII (Michael W. Deem and Ramdas Pophale) SiO2 
 PCOD9110509
Probable space group: P -1
;
_chemical_formula_sum "Si O2"
_cell_formula_units_Z 14
_cell_length_a 14.381915
_cell_length_b 14.604333
_cell_length_c 9.002080
_cell_angle_alpha 103.471294
_cell_angle_beta 85.467876
_cell_angle_gamma 28.494912
_cell_volume 694.039760
_symmetry_space_group_name_H-M "P -1"
_symmetry_group_IT_number 2
_symmetry_cell_setting 'triclinic'
loop_
_space_group_symop_operation_xyz
x,y,z
-x,-y,-z
loop_
_atom_site_type_symbol
_atom_site_label
_atom_site_fract_x
_atom_site_fract_y
_atom_site_fract_z
Si Si1 0.742762 0.204414 0.045518
Si Si2 0.489177 0.762099 0.774450
Si Si3 0.590498 0.137410 0.498935
Si Si4 0.288658 0.153452 0.982146
Si Si5 0.745731 0.680623 0.211706
Si Si6 0.527050 0.359371 0.830797
Si Si7 0.848553 0.416213 0.866570
O O1 0.654628 0.198208 0.150359
O O2 0.548347 0.472213 0.171352
O O3 0.734506 0.180083 0.863647
O O4 0.000000 0.000000 0.000000
O O5 0.559724 0.697289 0.568505
O O6 0.717792 0.554242 0.778060
O O7 0.324506 0.008086 0.922407
O O8 0.468454 0.160790 0.600224
O O9 0.588653 0.223386 0.650566
O O10 0.866737 0.865046 0.305074
O O11 0.319708 0.166385 0.816987
O O12 0.009354 0.442814 0.170572
O O13 0.500000 0.000000 0.000000
O O14 0.797976 0.552060 0.030809
O O15 0.288319 0.543275 0.020810
#
# Coordination Sequence:
#
# PCOD9110509 Si02
#       7
#     2   2   2   2   2   2   2
#     4  10  21  40  67  90 124 168 208 253 308 374
#     4  11  23  39  64  95 125 164 212 257 310 368
#     4  11  23  40  65  94 128 162 207 261 309 369
#     4  11  22  42  67  91 124 167 209 258 307 370
#     4  10  23  41  65  88 124 168 206 251 319 365
#     4   9  22  41  62  93 125 167 207 250 316 365
#     4  10  20  42  63  90 128 164 206 257 306 370
#
# _framework density 20.171755999999998
#
# number of rings (size 3 to 8) (size 9 to 14) (size 15 to 20)
#    0.000    1.714    2.857    0.857    2.000    3.429 
#    0.000   11.429    0.000    0.000    0.000    0.000 
#    0.000    0.000    0.000    0.000    0.000    0.000 
#
# Total GULP energy -78206.653339 kJ/mol
# GULP energy per Si atom -5586.189524 kJ/mol
# Density = 2.012584 g / cm^3
# Si number density = 20.171756 Si / 1000 Ang^3
#
#
#
# Elastic Constant Matrix: (Units=GPa)
#
#
# Indices 1 2 3 4 5 6 
#
# 1 99.6969 48.7617 28.7337 1.1409 -23.1823 7.9605
# 2 48.7617 103.6976 32.0325 -9.2055 -14.5998 -9.7884
# 3 28.7337 32.0325 86.8663 -3.8102 -4.2698 -6.2962
# 4 1.1409 -9.2055 -3.8102 16.6858 2.7167 -3.6826
# 5 -23.1823 -14.5998 -4.2698 2.7167 17.1823 -4.7991
# 6 7.9605 -9.7884 -6.2962 -3.6826 -4.7991 52.8710
#
#
#
# Elastic Compliance Matrix: (Units=1/GPa)
#
#
# Indices 1 2 3 4 5 6 
#
# 1 0.019254 -0.006196 -0.003745 -0.009640 0.020381 -0.003314
# 2 -0.006196 0.015044 -0.002634 0.008485 0.003635 0.004325
# 3 -0.003745 -0.002634 0.013773 0.002928 -0.003894 0.001567
# 4 -0.009640 0.008485 0.002928 0.069779 -0.014162 0.006946
# 5 0.020381 0.003635 -0.003894 -0.014162 0.091299 0.004441
# 6 -0.003314 0.004325 0.001567 0.006946 0.004441 0.021287
#
#
# Mechanical properties :
#
#
# Convention : Reuss Voigt Hill
#
# Bulk Modulus (GPa) = 43.62844 56.59072 50.10958
# Shear Modulus (GPa) = 18.99511 29.39667 24.19589
#
# Velocity S-wave (km/s) = 3.07199 3.82163 3.46713
# Velocity P-wave (km/s) = 5.85306 6.89844 6.39714
#
# Compressibility (1/GPa) = 0.02292083
#
# Stress axis : x y z
#
# Youngs Moduli (GPa) = 51.93605 66.47235 72.60796
#
# Poissons Ratio (x) = 0.41187 0.27194
# Poissons Ratio (y) = 0.32180 0.19122
# Poissons Ratio (z) = 0.19452 0.17506
#
# Static dielectric constant tensor:
#      x y z
#    x 1.741230 -0.004650 0.010700 
#    y -0.004650 1.743720 -0.004460 
#    z 0.010700 -0.004460 1.692150 
# 
# From -- ./inp_files/315414.got.cif
#   From: 2010.05.17/outbox.cif.g08.bks.cpg/sg2_158_cif.got.tgz:315414.got - 2010.06.03 11:33:40.
