data_PCOD9110558
_publ_section_title
;
Structure prediction by ZEFSAII (Michael W. Deem and Ramdas Pophale) SiO2 
 PCOD9110558
Probable space group: P -1
;
_chemical_formula_sum "Si O2"
_cell_formula_units_Z 16
_cell_length_a 22.743252
_cell_length_b 6.757549
_cell_length_c 9.312841
_cell_angle_alpha 126.040533
_cell_angle_beta 50.631356
_cell_angle_gamma 135.425358
_cell_volume 751.595834
_symmetry_space_group_name_H-M "P -1"
_symmetry_group_IT_number 2
_symmetry_cell_setting 'triclinic'
loop_
_space_group_symop_operation_xyz
x,y,z
-x,-y,-z
loop_
_atom_site_type_symbol
_atom_site_label
_atom_site_fract_x
_atom_site_fract_y
_atom_site_fract_z
Si Si1 0.841767 0.295349 0.164105
Si Si2 0.628156 0.321593 0.760310
Si Si3 0.955950 0.163242 0.451497
Si Si4 0.007830 0.746855 0.240404
Si Si5 0.380081 0.276330 0.480083
Si Si6 0.512301 0.781247 0.289072
Si Si7 0.657506 0.712723 0.144184
Si Si8 0.234905 0.313640 0.552248
O O1 0.796605 0.470680 0.261490
O O2 0.902683 0.469871 0.285497
O O3 0.759395 0.960084 0.140449
O O4 0.923286 0.334953 0.959287
O O5 0.532127 0.242337 0.806462
O O6 0.703342 0.545646 0.625650
O O7 0.631516 0.034538 0.629683
O O8 0.647471 0.465655 0.948508
O O9 0.953269 0.128985 0.611544
O O10 0.000000 0.500000 0.500000
O O11 0.856132 0.987560 0.469373
O O12 0.005660 0.995836 0.257550
O O13 0.452970 0.473907 0.331399
O O14 0.396948 0.398194 0.668339
O O15 0.292187 0.268346 0.559793
O O16 0.613734 0.858780 0.180479
O O17 0.500000 0.000000 0.500000
#
# Coordination Sequence:
#
# PCOD9110558 Si02
#       8
#     2   2   2   2   2   2   2   2
#     4  10  20  42  64  87 127 169 211 263 322 375
#     4  11  24  44  66  95 130 170 216 261 319 382
#     4  10  21  37  63  91 127 166 212 264 319 374
#     4   9  21  40  62  89 124 167 213 263 316 378
#     4  11  24  44  65  97 133 167 212 266 317 381
#     4  11  23  46  68  92 135 170 208 266 322 377
#     4  12  23  40  70  95 126 173 214 264 321 379
#     4  10  22  42  63  92 134 170 209 271 320 375
#
# _framework density 21.288036000000002
#
# number of rings (size 3 to 8) (size 9 to 14) (size 15 to 20)
#    0.000    1.500    2.500    2.250    1.750    2.500 
#   13.500    1.875    0.000    0.000    0.000    0.000 
#    0.000    0.000    0.000    0.000    0.000    0.000 
#
# Total GULP energy -89258.162146 kJ/mol
# GULP energy per Si atom -5578.635134 kJ/mol
# Density = 2.123958 g / cm^3
# Si number density = 21.288036 Si / 1000 Ang^3
#
#
#
# Elastic Constant Matrix: (Units=GPa)
#
#
# Indices 1 2 3 4 5 6 
#
# 1 120.0723 14.3167 33.4566 3.9700 -4.6161 8.6923
# 2 14.3167 70.2997 19.2917 8.7537 9.3184 2.7858
# 3 33.4566 19.2917 92.6941 22.1566 1.4477 -9.1962
# 4 3.9700 8.7537 22.1566 17.8053 8.1394 1.1358
# 5 -4.6161 9.3184 1.4477 8.1394 27.9745 -0.4056
# 6 8.6923 2.7858 -9.1962 1.1358 -0.4056 32.0181
#
#
#
# Elastic Compliance Matrix: (Units=1/GPa)
#
#
# Indices 1 2 3 4 5 6 
#
# 1 0.010000 -0.001216 -0.004749 0.004054 0.001062 -0.004104
# 2 -0.001216 0.016143 -0.002479 -0.002266 -0.004816 -0.001767
# 3 -0.004749 -0.002479 0.020003 -0.026230 0.006759 0.008266
# 4 0.004054 -0.002266 -0.026230 0.102210 -0.027137 -0.012407
# 5 0.001062 -0.004816 0.006759 -0.027137 0.045125 0.003606
# 6 -0.004104 -0.001767 0.008266 -0.012407 0.003606 0.035360
#
#
# Mechanical properties :
#
#
# Convention : Reuss Voigt Hill
#
# Bulk Modulus (GPa) = 34.17991 46.35511 40.26751
# Shear Modulus (GPa) = 19.57079 29.95966 24.76523
#
# Velocity S-wave (km/s) = 3.03534 3.75553 3.41448
# Velocity P-wave (km/s) = 5.32683 6.37400 5.87380
#
# Compressibility (1/GPa) = 0.02925695
#
# Stress axis : x y z
#
# Youngs Moduli (GPa) = 99.99516 61.94459 49.99357
#
# Poissons Ratio (x) = 0.07535 0.23743
# Poissons Ratio (y) = 0.12163 0.12395
# Poissons Ratio (z) = 0.47489 0.15358
#
# Static dielectric constant tensor:
#      x y z
#    x 1.893340 -0.023250 -0.043570 
#    y -0.023250 1.825010 0.052080 
#    z -0.043570 0.052080 1.827440 
# 
# From -- ./inp_files/116636.got.cif
#   From: 2010.05.17/outbox.cif.g08.bks.cpg/sg2_59_cif.got.tgz:116636.got - 2010.06.03 11:33:40.
