data_PCOD9110262
_publ_section_title
;
Structure prediction by ZEFSAII (Michael W. Deem and Ramdas Pophale) SiO2 
 PCOD9110262
Probable space group: P -1
;
_chemical_formula_sum "Si O2"
_cell_formula_units_Z 16
_cell_length_a 13.852232
_cell_length_b 14.511483
_cell_length_c 11.152841
_cell_angle_alpha 60.121099
_cell_angle_beta 148.700763
_cell_angle_gamma 138.319145
_cell_volume 708.047809
_symmetry_space_group_name_H-M "P -1"
_symmetry_group_IT_number 2
_symmetry_cell_setting 'triclinic'
loop_
_space_group_symop_operation_xyz
x,y,z
-x,-y,-z
loop_
_atom_site_type_symbol
_atom_site_label
_atom_site_fract_x
_atom_site_fract_y
_atom_site_fract_z
Si Si1 0.556472 0.063419 0.208084
Si Si2 0.350700 0.225462 0.610969
Si Si3 0.051500 0.504750 0.843457
Si Si4 0.825842 0.663543 0.060899
Si Si5 0.010366 0.616541 0.496666
Si Si6 0.663738 0.987726 0.597651
Si Si7 0.889605 0.092726 0.345539
Si Si8 0.519811 0.700998 0.569049
O O1 0.560855 0.969115 0.365768
O O2 0.763114 0.125441 0.279875
O O3 0.693797 0.217198 0.320015
O O4 0.277280 0.971607 0.912853
O O5 0.336417 0.248622 0.440699
O O6 0.190456 0.231504 0.534080
O O7 0.195490 0.051668 0.585575
O O8 0.659512 0.350093 0.891957
O O9 0.077569 0.399066 0.875235
O O10 0.982845 0.569559 0.633855
O O11 0.791633 0.402527 0.716489
O O12 0.814161 0.613994 0.217144
O O13 0.042560 0.846483 0.182029
O O14 0.583816 0.621627 0.764577
O O15 0.000000 0.500000 0.500000
O O16 0.500000 0.000000 0.500000
O O17 0.623240 0.846016 0.659590
#
# Coordination Sequence:
#
# PCOD9110262 Si02
#       8
#     2   2   2   2   2   2   2   2
#     4  10  20  41  71  99 127 176 226 284 336 390
#     4  11  24  43  65  98 131 177 227 282 337 394
#     4  11  23  45  67  96 140 177 221 278 342 401
#     4  10  24  43  64 100 134 178 225 271 335 400
#     4   9  20  41  67  95 132 173 224 268 331 400
#     4  11  22  42  69 100 137 178 223 275 338 406
#     4  10  22  41  69  98 129 172 235 287 324 392
#     4  12  25  43  68 101 140 178 222 275 343 408
#
# _framework density 22.597345000000001
#
# number of rings (size 3 to 8) (size 9 to 14) (size 15 to 20)
#    0.000    1.500    3.750    0.750    1.750    2.000 
#    0.000    6.250    0.000    0.000    0.000    0.000 
#    0.000    0.000    0.000    0.000    0.000    0.000 
#
# Total GULP energy -89200.235726 kJ/mol
# GULP energy per Si atom -5575.014733 kJ/mol
# Density = 2.254591 g / cm^3
# Si number density = 22.597345 Si / 1000 Ang^3
#
#
#
# Elastic Constant Matrix: (Units=GPa)
#
#
# Indices 1 2 3 4 5 6 
#
# 1 68.7090 26.5476 47.6645 -4.3340 5.2416 11.2097
# 2 26.5476 93.2938 40.1895 -7.6469 9.2663 -5.7007
# 3 47.6645 40.1895 116.5264 -15.9569 10.0165 12.0740
# 4 -4.3340 -7.6469 -15.9569 27.4798 4.3338 4.9732
# 5 5.2416 9.2663 10.0165 4.3338 29.3346 2.6693
# 6 11.2097 -5.7007 12.0740 4.9732 2.6693 13.1712
#
#
#
# Elastic Compliance Matrix: (Units=1/GPa)
#
#
# Indices 1 2 3 4 5 6 
#
# 1 0.023577 -0.005231 -0.005759 0.002055 0.000738 -0.017976
# 2 -0.005231 0.015604 -0.004984 -0.001931 -0.003575 0.017229
# 3 -0.005759 -0.004984 0.015842 0.010079 -0.002931 -0.014990
# 4 0.002055 -0.001931 0.010079 0.048417 -0.007755 -0.028534
# 5 0.000738 -0.003575 -0.002931 -0.007755 0.037614 -0.004184
# 6 -0.017976 0.017229 -0.014990 -0.028534 -0.004184 0.124043
#
#
# Mechanical properties :
#
#
# Convention : Reuss Voigt Hill
#
# Bulk Modulus (GPa) = 43.34039 56.37027 49.85533
# Shear Modulus (GPa) = 16.40765 24.93896 20.67331
#
# Velocity S-wave (km/s) = 2.69752 3.32569 3.02794
# Velocity P-wave (km/s) = 5.37803 6.30449 5.85960
#
# Compressibility (1/GPa) = 0.02307317
#
# Stress axis : x y z
#
# Youngs Moduli (GPa) = 42.41496 64.08558 63.12421
#
# Poissons Ratio (x) = 0.33525 0.36353
# Poissons Ratio (y) = 0.22189 0.31463
# Poissons Ratio (z) = 0.24427 0.31942
#
# Static dielectric constant tensor:
#      x y z
#    x 1.890410 -0.034680 -0.044010 
#    y -0.034680 1.835550 -0.031180 
#    z -0.044010 -0.031180 1.824330 
# 
# From -- ./inp_files/455664.got.cif
#   From: 2010.05.17/outbox.cif.g08.bks.cpg/sg2_228_cif.got.tgz:455664.got - 2010.06.03 11:33:40.
