data_PCOD9110879
_publ_section_title
;
Structure prediction by ZEFSAII (Michael W. Deem and Ramdas Pophale) SiO2 
 PCOD9110879
Probable space group: P -1
;
_chemical_formula_sum "Si O2"
_cell_formula_units_Z 16
_cell_length_a 13.603849
_cell_length_b 4.908587
_cell_length_c 11.817205
_cell_angle_alpha 69.995321
_cell_angle_beta 54.168512
_cell_angle_gamma 90.737951
_cell_volume 577.150335
_symmetry_space_group_name_H-M "P -1"
_symmetry_group_IT_number 2
_symmetry_cell_setting 'triclinic'
loop_
_space_group_symop_operation_xyz
x,y,z
-x,-y,-z
loop_
_atom_site_type_symbol
_atom_site_label
_atom_site_fract_x
_atom_site_fract_y
_atom_site_fract_z
Si Si1 0.782537 0.163047 0.234526
Si Si2 0.482604 0.360112 0.765208
Si Si3 0.396417 0.932496 0.443027
Si Si4 0.812746 0.031636 0.581692
Si Si5 0.952339 0.080439 0.695238
Si Si6 0.064928 0.261342 0.827541
Si Si7 0.616934 0.408355 0.879137
Si Si8 0.249244 0.524816 0.008087
O O1 0.653983 0.164466 0.384567
O O2 0.892802 0.419542 0.185064
O O3 0.785824 0.259613 0.089462
O O4 0.811323 0.845057 0.273881
O O5 0.494446 0.189287 0.666990
O O6 0.556705 0.230858 0.832932
O O7 0.349641 0.382370 0.897559
O O8 0.560761 0.707575 0.645097
O O9 0.272588 0.821985 0.460478
O O10 0.875191 0.198144 0.631523
O O11 0.720250 0.713726 0.729451
O O12 0.924095 0.966000 0.442126
O O13 0.864512 0.755329 0.838884
O O14 0.990431 0.260600 0.760764
O O15 0.000000 0.000000 0.000000
O O16 0.500000 0.500000 0.000000
O O17 0.683821 0.289744 0.953830
#
# Coordination Sequence:
#
# PCOD9110879 Si02
#       8
#     2   2   2   2   2   2   2   2
#     4  12  26  43  69  98 134 180 223 278 331 400
#     4  10  23  44  70  97 133 177 220 281 333 394
#     4  11  23  44  69  98 136 174 225 273 336 398
#     4   9  19  38  70  99 135 172 223 274 336 392
#     4  10  20  42  67 102 134 175 223 280 329 401
#     4  12  25  45  66  97 140 180 223 268 337 397
#     4   8  17  39  65  96 132 171 217 272 330 391
#     4  10  22  42  66 100 135 175 227 272 336 398
#
# _framework density 27.72241
#
# number of rings (size 3 to 8) (size 9 to 14) (size 15 to 20)
#    0.000    1.750    2.500    1.125    1.750    2.000 
#    2.250   23.125    0.000    0.000    0.000    0.000 
#    0.000    0.000    0.000    0.000    0.000    0.000 
#
# Total GULP energy -89847.057901 kJ/mol
# GULP energy per Si atom -5615.441119 kJ/mol
# Density = 2.765931 g / cm^3
# Si number density = 27.722410 Si / 1000 Ang^3
#
#
#
# Elastic Constant Matrix: (Units=GPa)
#
#
# Indices 1 2 3 4 5 6 
#
# 1 152.0486 35.9000 38.2378 -0.5644 28.7449 12.8985
# 2 35.9000 104.4508 28.0310 5.5702 6.6240 5.0093
# 3 38.2378 28.0310 184.4683 2.5085 -8.0525 11.2035
# 4 -0.5644 5.5702 2.5085 40.3288 4.6547 1.5903
# 5 28.7449 6.6240 -8.0525 4.6547 54.8638 2.2874
# 6 12.8985 5.0093 11.2035 1.5903 2.2874 36.8592
#
#
#
# Elastic Compliance Matrix: (Units=1/GPa)
#
#
# Indices 1 2 3 4 5 6 
#
# 1 0.008481 -0.002193 -0.001512 0.001103 -0.004412 -0.001984
# 2 -0.002193 0.010736 -0.001149 -0.001410 -0.000185 -0.000270
# 3 -0.001512 -0.001149 0.006075 -0.000411 0.001910 -0.001262
# 4 0.001103 -0.001410 -0.000411 0.025369 -0.002579 -0.001004
# 5 -0.004412 -0.000185 0.001910 -0.002579 0.021068 -0.000208
# 6 -0.001984 -0.000270 -0.001262 -0.001004 -0.000208 0.028301
#
#
# Mechanical properties :
#
#
# Convention : Reuss Voigt Hill
#
# Bulk Modulus (GPa) = 64.17157 71.70061 67.93609
# Shear Modulus (GPa) = 43.50333 48.99694 46.25014
#
# Velocity S-wave (km/s) = 3.96567 4.20862 4.08895
# Velocity P-wave (km/s) = 6.64582 7.03822 6.84483
#
# Compressibility (1/GPa) = 0.01558322
#
# Stress axis : x y z
#
# Youngs Moduli (GPa) = 117.90610 93.14463 164.61933
#
# Poissons Ratio (x) = 0.20429 0.24888
# Poissons Ratio (y) = 0.25859 0.18919
# Poissons Ratio (z) = 0.17826 0.10705
#
# Static dielectric constant tensor:
#      x y z
#    x 2.222520 0.033380 -0.004530 
#    y 0.033380 2.025340 0.010460 
#    z -0.004530 0.010460 2.158130 
# 
# From -- ./inp_files/440398.got.cif
#   From: 2010.05.17/outbox.cif.g08.bks.cpg/sg2_221_cif.got.tgz:440398.got - 2010.06.03 11:33:40.
