data_PCOD9110294
_publ_section_title
;
Structure prediction by ZEFSAII (Michael W. Deem and Ramdas Pophale) SiO2 
 PCOD9110294
Probable space group: P -1
;
_chemical_formula_sum "Si O2"
_cell_formula_units_Z 15
_cell_length_a 8.485691
_cell_length_b 10.627686
_cell_length_c 16.284696
_cell_angle_alpha 119.022627
_cell_angle_beta 150.151769
_cell_angle_gamma 63.523291
_cell_volume 638.089010
_symmetry_space_group_name_H-M "P -1"
_symmetry_group_IT_number 2
_symmetry_cell_setting 'triclinic'
loop_
_space_group_symop_operation_xyz
x,y,z
-x,-y,-z
loop_
_atom_site_type_symbol
_atom_site_label
_atom_site_fract_x
_atom_site_fract_y
_atom_site_fract_z
Si Si1 0.410985 0.801182 0.322547
Si Si2 0.247202 0.411569 0.470565
Si Si3 0.392764 0.731344 0.840346
Si Si4 0.992122 0.990474 0.670761
Si Si5 0.000000 0.000000 0.500000
Si Si6 0.308521 0.697436 0.502981
Si Si7 0.217458 0.422403 0.889711
Si Si8 0.953997 0.637759 0.962560
O O1 0.550683 0.658135 0.385772
O O2 0.712480 0.896223 0.472793
O O3 0.189393 0.891535 0.316027
O O4 0.216295 0.750545 0.140855
O O5 0.299268 0.576819 0.530709
O O6 0.384063 0.327183 0.424485
O O7 0.884258 0.380055 0.313001
O O8 0.616982 0.710615 0.856440
O O9 0.207579 0.886199 0.794030
O O10 0.626679 0.691425 0.009668
O O11 0.149849 0.037159 0.673086
O O12 0.756616 0.143125 0.444109
O O13 0.016211 0.652682 0.299893
O O14 0.015790 0.558654 0.880730
O O15 0.500000 0.500000 0.000000
O O16 0.000000 0.500000 0.000000
#
# Coordination Sequence:
#
# PCOD9110294 Si02
#       8
#     2   2   2   2   1   2   2   2
#     4  10  21  45  67  96 132 178 221 280 331 399
#     4  10  20  41  72  97 131 174 229 278 329 391
#     4  10  22  42  69 102 129 177 226 274 338 405
#     4  10  24  42  68  94 137 175 224 274 336 397
#     4  12  26  42  66 100 136 176 224 276 340 394
#     4  11  24  41  67 100 136 175 220 283 334 397
#     4  11  23  44  66  98 137 173 218 285 336 393
#     4  10  23  39  66  96 133 170 222 275 336 394
#
# _framework density 23.507691000000001
#
# number of rings (size 3 to 8) (size 9 to 14) (size 15 to 20)
#    0.000    1.600    2.667    1.600    1.867    4.800 
#    0.000   10.000    0.000    2.400    0.000    0.000 
#    0.000    0.000    0.000    0.000    0.000    0.000 
#
# Total GULP energy -83647.052616 kJ/mol
# GULP energy per Si atom -5576.470174 kJ/mol
# Density = 2.345419 g / cm^3
# Si number density = 23.507691 Si / 1000 Ang^3
#
#
#
# Elastic Constant Matrix: (Units=GPa)
#
#
# Indices 1 2 3 4 5 6 
#
# 1 24.0213 8.9288 23.4068 -0.6241 9.5046 -6.3754
# 2 8.9288 114.0102 32.4028 -11.0100 -5.7447 -4.0211
# 3 23.4068 32.4028 126.5408 -3.4534 -1.0598 -12.2028
# 4 -0.6241 -11.0100 -3.4534 38.6798 -1.1849 -8.6993
# 5 9.5046 -5.7447 -1.0598 -1.1849 40.5899 -4.4946
# 6 -6.3754 -4.0211 -12.2028 -8.6993 -4.4946 28.6132
#
#
#
# Elastic Compliance Matrix: (Units=1/GPa)
#
#
# Indices 1 2 3 4 5 6 
#
# 1 0.059266 -0.002247 -0.009841 0.000525 -0.013696 0.006701
# 2 -0.002247 0.009928 -0.001900 0.002983 0.002115 0.001323
# 3 -0.009841 -0.001900 0.010520 0.000933 0.002639 0.002725
# 4 0.000525 0.002983 0.000933 0.029149 0.002299 0.010158
# 5 -0.013696 0.002115 0.002639 0.002299 0.028675 0.003575
# 6 0.006701 0.001323 0.002725 0.010158 0.003575 0.041440
#
#
# Mechanical properties :
#
#
# Convention : Reuss Voigt Hill
#
# Bulk Modulus (GPa) = 19.32865 43.78324 31.55594
# Shear Modulus (GPa) = 22.30144 34.89882 28.60013
#
# Velocity S-wave (km/s) = 3.08342 3.85719 3.49180
# Velocity P-wave (km/s) = 4.57348 6.20506 5.45066
#
# Compressibility (1/GPa) = 0.05173666
#
# Stress axis : x y z
#
# Youngs Moduli (GPa) = 16.87314 100.72097 95.05851
#
# Poissons Ratio (x) = 0.22637 0.93550
# Poissons Ratio (y) = 0.03792 0.18060
# Poissons Ratio (z) = 0.16605 0.19136
#
# Static dielectric constant tensor:
#      x y z
#    x 2.070330 0.064010 0.021600 
#    y 0.064010 1.930720 -0.003370 
#    z 0.021600 -0.003370 2.001580 
# 
# From -- ./inp_files/203010.got.cif
#   From: 2010.05.17/outbox.cif.g08.bks.cpg/sg2_102_cif.got.tgz:203010.got - 2010.06.03 11:33:40.
