data_PCOD9110739
_publ_section_title
;
Structure prediction by ZEFSAII (Michael W. Deem and Ramdas Pophale) SiO2 
 PCOD9110739
Probable space group: P -1
;
_chemical_formula_sum "Si O2"
_cell_formula_units_Z 15
_cell_length_a 14.523143
_cell_length_b 9.780343
_cell_length_c 11.958256
_cell_angle_alpha 118.644117
_cell_angle_beta 46.042867
_cell_angle_gamma 81.395529
_cell_volume 692.999202
_symmetry_space_group_name_H-M "P -1"
_symmetry_group_IT_number 2
_symmetry_cell_setting 'triclinic'
loop_
_space_group_symop_operation_xyz
x,y,z
-x,-y,-z
loop_
_atom_site_type_symbol
_atom_site_label
_atom_site_fract_x
_atom_site_fract_y
_atom_site_fract_z
Si Si1 0.000000 0.500000 0.000000
Si Si2 0.929483 0.002646 0.680109
Si Si3 0.272552 0.277143 0.899533
Si Si4 0.388438 0.253173 0.240732
Si Si5 0.046112 0.369006 0.523355
Si Si6 0.426010 0.256034 0.464489
Si Si7 0.357911 0.586261 0.259293
Si Si8 0.434190 0.439383 0.730228
O O1 0.124372 0.359924 0.958867
O O2 0.205240 0.394831 0.732773
O O3 0.129091 0.818317 0.511949
O O4 0.860768 0.887195 0.678326
O O5 0.000000 0.000000 0.500000
O O6 0.760250 0.273267 0.974693
O O7 0.402233 0.294132 0.745326
O O8 0.409783 0.020133 0.739414
O O9 0.148826 0.476330 0.179733
O O10 0.173043 0.376996 0.486291
O O11 0.452250 0.252817 0.308241
O O12 0.393135 0.378053 0.189526
O O13 0.500000 0.000000 0.000000
O O14 0.000000 0.500000 0.500000
O O15 0.464560 0.377370 0.550048
O O16 0.405553 0.639967 0.351584
O O17 0.500000 0.500000 0.000000
#
# Coordination Sequence:
#
# PCOD9110739 Si02
#       8
#     1   2   2   2   2   2   2   2
#     4  10  20  42  66 104 148 184 232 282 362 430
#     4  12  24  43  70 104 142 187 231 296 356 422
#     4  11  23  43  70 105 147 185 239 297 351 436
#     4  12  27  46  76 107 143 190 245 307 361 430
#     4  12  23  44  70 104 144 181 242 302 355 421
#     4  11  26  46  71 111 144 193 241 293 372 425
#     4  12  26  47  70 105 144 189 242 297 368 425
#     4  11  25  43  69 103 145 187 236 289 355 442
#
# _framework density 21.645047999999999
#
# number of rings (size 3 to 8) (size 9 to 14) (size 15 to 20)
#    0.000    0.533    5.333    3.200    1.867    4.800 
#    0.000    0.667    0.000    0.000    0.000    0.000 
#    0.000    0.000    0.000    0.000    0.000    0.000 
#
# Total GULP energy -83532.518082 kJ/mol
# GULP energy per Si atom -5568.834539 kJ/mol
# Density = 2.159578 g / cm^3
# Si number density = 21.645048 Si / 1000 Ang^3
#
#
#
# Elastic Constant Matrix: (Units=GPa)
#
#
# Indices 1 2 3 4 5 6 
#
# 1 160.5662 48.5010 31.7367 14.2728 0.9496 -23.9500
# 2 48.5010 127.3886 27.8630 11.6418 7.9836 -16.2464
# 3 31.7367 27.8630 65.2219 7.5383 18.5623 -18.7306
# 4 14.2728 11.6418 7.5383 40.4506 -4.3779 -0.9431
# 5 0.9496 7.9836 18.5623 -4.3779 43.4377 -0.9152
# 6 -23.9500 -16.2464 -18.7306 -0.9431 -0.9152 36.2165
#
#
#
# Elastic Compliance Matrix: (Units=1/GPa)
#
#
# Indices 1 2 3 4 5 6 
#
# 1 0.007880 -0.002042 -0.002163 -0.001604 0.001032 0.003161
# 2 -0.002042 0.009527 -0.002106 -0.001689 -0.000939 0.001766
# 3 -0.002163 -0.002106 0.023112 -0.003764 -0.009627 0.009237
# 4 -0.001604 -0.001689 -0.003764 0.026905 0.004604 -0.002949
# 5 0.001032 -0.000939 -0.009627 0.004604 0.027667 -0.003899
# 6 0.003161 0.001766 0.009237 -0.002949 -0.003899 0.035096
#
#
# Mechanical properties :
#
#
# Convention : Reuss Voigt Hill
#
# Bulk Modulus (GPa) = 35.84678 63.26423 49.55551
# Shear Modulus (GPa) = 32.87129 40.35936 36.61532
#
# Velocity S-wave (km/s) = 3.90122 4.32279 4.11740
# Velocity P-wave (km/s) = 6.07370 7.36253 6.74895
#
# Compressibility (1/GPa) = 0.02789651
#
# Stress axis : x y z
#
# Youngs Moduli (GPa) = 126.89905 104.96806 43.26751
#
# Poissons Ratio (x) = 0.21437 0.09357
# Poissons Ratio (y) = 0.25915 0.09114
# Poissons Ratio (z) = 0.27444 0.22111
#
# Static dielectric constant tensor:
#      x y z
#    x 1.901460 0.017640 -0.177660 
#    y 0.017640 1.767200 -0.047950 
#    z -0.177660 -0.047950 2.062250 
# 
# From -- ./inp_files/446290.got.cif
#   From: 2010.05.17/outbox.cif.g08.bks.cpg/sg2_224_cif.got.tgz:446290.got - 2010.06.03 11:33:40.
