data_PCOD9110835
_publ_section_title
;
Structure prediction by ZEFSAII (Michael W. Deem and Ramdas Pophale) SiO2 
 PCOD9110835
Probable space group: P -1
;
_chemical_formula_sum "Si O2"
_cell_formula_units_Z 16
_cell_length_a 9.408314
_cell_length_b 20.593103
_cell_length_c 6.981063
_cell_angle_alpha 68.121700
_cell_angle_beta 99.498337
_cell_angle_gamma 143.679571
_cell_volume 720.572305
_symmetry_space_group_name_H-M "P -1"
_symmetry_group_IT_number 2
_symmetry_cell_setting 'triclinic'
loop_
_space_group_symop_operation_xyz
x,y,z
-x,-y,-z
loop_
_atom_site_type_symbol
_atom_site_label
_atom_site_fract_x
_atom_site_fract_y
_atom_site_fract_z
Si Si1 0.564994 0.212000 0.409513
Si Si2 0.177736 0.935173 0.674281
Si Si3 0.100355 0.604991 0.023845
Si Si4 0.976348 0.074536 0.927386
Si Si5 0.305238 0.244560 0.492979
Si Si6 0.656086 0.509681 0.153307
Si Si7 0.090468 0.670949 0.306898
Si Si8 0.544248 0.075659 0.089606
O O1 0.648598 0.270115 0.155371
O O2 0.423709 0.218355 0.479929
O O3 0.816614 0.299004 0.490936
O O4 0.390693 0.075883 0.522323
O O5 0.302537 0.907712 0.739394
O O6 0.947118 0.845087 0.582040
O O7 0.066175 0.915229 0.877908
O O8 0.115052 0.608644 0.255252
O O9 0.000000 0.500000 0.000000
O O10 0.880186 0.574184 0.994109
O O11 0.215142 0.202489 0.738136
O O12 0.724301 0.998974 0.846161
O O13 0.000000 0.000000 0.000000
O O14 0.490077 0.379425 0.329662
O O15 0.818786 0.594756 0.284137
O O16 0.500000 0.500000 0.000000
O O17 0.285837 0.798671 0.105760
O O18 0.500000 0.000000 0.000000
#
# Coordination Sequence:
#
# PCOD9110835 Si02
#       8
#     2   2   2   2   2   2   2   2
#     4  12  22  42  68 101 124 176 225 267 335 397
#     4  11  25  41  65  96 139 168 221 276 326 399
#     4  10  24  43  69  94 127 174 221 267 329 385
#     4  11  23  41  63  99 132 172 218 269 340 385
#     4  12  25  40  66  95 137 174 219 271 338 389
#     4  10  24  47  65  96 136 171 220 276 329 392
#     4  10  22  43  71  89 138 165 220 281 316 388
#     4  10  20  42  66  95 133 170 215 272 327 395
#
# _framework density 22.204573
#
# number of rings (size 3 to 8) (size 9 to 14) (size 15 to 20)
#    0.750    0.500    5.000    1.125    1.750    4.500 
#    2.250    0.625    0.000    0.000    0.000    0.000 
#    0.000    0.000    0.000    0.000    0.000    0.000 
#
# Total GULP energy -89312.628547 kJ/mol
# GULP energy per Si atom -5582.039284 kJ/mol
# Density = 2.215403 g / cm^3
# Si number density = 22.204573 Si / 1000 Ang^3
#
#
#
# Elastic Constant Matrix: (Units=GPa)
#
#
# Indices 1 2 3 4 5 6 
#
# 1 89.4549 -5.2831 4.1821 -3.4131 -0.0954 18.7667
# 2 -5.2831 76.4479 3.3187 1.1260 -3.6805 10.3495
# 3 4.1821 3.3187 86.4542 -16.7302 -19.3529 -4.8428
# 4 -3.4131 1.1260 -16.7302 34.3357 0.9790 2.3245
# 5 -0.0954 -3.6805 -19.3529 0.9790 31.1413 2.1165
# 6 18.7667 10.3495 -4.8428 2.3245 2.1165 34.1888
#
#
#
# Elastic Compliance Matrix: (Units=1/GPa)
#
#
# Indices 1 2 3 4 5 6 
#
# 1 0.013070 0.002017 -0.000837 0.001360 0.000260 -0.008012
# 2 0.002017 0.014082 -0.000621 -0.000236 0.001669 -0.005545
# 3 -0.000837 -0.000621 0.015070 0.006906 0.008953 0.001758
# 4 0.001360 -0.000236 0.006906 0.032680 0.003385 -0.002128
# 5 0.000260 0.001669 0.008953 0.003385 0.037900 -0.001956
# 6 -0.008012 -0.005545 0.001758 -0.002128 -0.001956 0.035841
#
#
# Mechanical properties :
#
#
# Convention : Reuss Voigt Hill
#
# Bulk Modulus (GPa) = 23.07361 28.53250 25.80305
# Shear Modulus (GPa) = 30.86976 36.60911 33.73944
#
# Velocity S-wave (km/s) = 3.73264 4.06485 3.90228
# Velocity P-wave (km/s) = 5.38431 5.90833 5.65239
#
# Compressibility (1/GPa) = 0.04333956
#
# Stress axis : x y z
#
# Youngs Moduli (GPa) = 76.51078 71.01449 66.35650
#
# Poissons Ratio (x) = -0.14322 0.05554
# Poissons Ratio (y) = -0.15430 0.04119
# Poissons Ratio (z) = 0.06404 0.04409
#
# Static dielectric constant tensor:
#      x y z
#    x 1.909530 -0.070840 -0.023290 
#    y -0.070840 1.916010 0.094130 
#    z -0.023290 0.094130 1.906430 
# 
# From -- ./inp_files/223474.got.cif
#   From: 2010.05.17/outbox.cif.g08.bks.cpg/sg2_112_cif.got.tgz:223474.got - 2010.06.03 11:33:40.
