data_PCOD9110974
_publ_section_title
;
Structure prediction by ZEFSAII (Michael W. Deem and Ramdas Pophale) SiO2 
 PCOD9110974
Probable space group: P -1
;
_chemical_formula_sum "Si O2"
_cell_formula_units_Z 16
_cell_length_a 8.720869
_cell_length_b 13.690339
_cell_length_c 12.513765
_cell_angle_alpha 108.506927
_cell_angle_beta 32.080588
_cell_angle_gamma 100.272809
_cell_volume 740.186714
_symmetry_space_group_name_H-M "P -1"
_symmetry_group_IT_number 2
_symmetry_cell_setting 'triclinic'
loop_
_space_group_symop_operation_xyz
x,y,z
-x,-y,-z
loop_
_atom_site_type_symbol
_atom_site_label
_atom_site_fract_x
_atom_site_fract_y
_atom_site_fract_z
Si Si1 0.609184 0.980785 0.050922
Si Si2 0.304157 0.910014 0.590986
Si Si3 0.893607 0.302824 0.831213
Si Si4 0.153333 0.514658 0.722401
Si Si5 0.581986 0.819718 0.615287
Si Si6 0.620336 0.607142 0.953708
Si Si7 0.524005 0.809519 0.207045
Si Si8 0.100073 0.716877 0.941765
O O1 0.495452 0.886820 0.149302
O O2 0.500966 0.081648 0.224057
O O3 0.963085 0.954911 0.829111
O O4 0.500000 0.000000 0.000000
O O5 0.439637 0.843028 0.590032
O O6 0.338437 0.851268 0.435589
O O7 0.500000 0.000000 0.500000
O O8 0.545160 0.337007 0.031823
O O9 0.038254 0.407090 0.772313
O O10 0.072123 0.220550 0.615038
O O11 0.953646 0.255078 0.894886
O O12 0.500000 0.500000 0.500000
O O13 0.066571 0.597930 0.897920
O O14 0.968846 0.574773 0.752073
O O15 0.424899 0.729529 0.723680
O O16 0.498567 0.692369 0.145924
O O17 0.500000 0.500000 0.000000
O O18 0.864331 0.794413 0.038823
#
# Coordination Sequence:
#
# PCOD9110974 Si02
#       8
#     2   2   2   2   2   2   2   2
#     4  12  29  43  65 101 140 174 225 284 340 405
#     4  12  24  45  70  96 131 180 229 279 335 399
#     4  11  23  41  69  97 135 178 223 281 339 395
#     4  10  20  42  68 100 135 175 224 277 332 407
#     4  12  24  41  68  99 132 174 232 276 336 403
#     4   9  23  43  68  99 138 172 221 278 336 399
#     4  11  23  44  71  95 137 179 225 278 339 404
#     4  11  22  40  68 100 130 176 227 278 333 403
#
# _framework density 21.616166
#
# number of rings (size 3 to 8) (size 9 to 14) (size 15 to 20)
#    0.000    1.000    5.000    1.500    3.500    0.500 
#    0.000    0.625    2.750    0.000    0.000    0.000 
#    0.000    0.000    0.000    0.000    0.000    0.000 
#
# Total GULP energy -89318.763272 kJ/mol
# GULP energy per Si atom -5582.422705 kJ/mol
# Density = 2.156697 g / cm^3
# Si number density = 21.616166 Si / 1000 Ang^3
#
#
#
# Elastic Constant Matrix: (Units=GPa)
#
#
# Indices 1 2 3 4 5 6 
#
# 1 117.3434 33.6015 50.6346 2.1356 -6.7451 -17.3024
# 2 33.6015 92.5608 39.3140 14.9566 18.1777 8.0483
# 3 50.6346 39.3140 110.5130 10.5981 -3.0767 -4.2246
# 4 2.1356 14.9566 10.5981 25.0102 2.3792 3.5863
# 5 -6.7451 18.1777 -3.0767 2.3792 46.8585 3.9995
# 6 -17.3024 8.0483 -4.2246 3.5863 3.9995 31.9198
#
#
#
# Elastic Compliance Matrix: (Units=1/GPa)
#
#
# Indices 1 2 3 4 5 6 
#
# 1 0.012638 -0.004236 -0.004144 0.001992 0.002506 0.006833
# 2 -0.004236 0.016791 -0.003784 -0.006668 -0.006567 -0.005459
# 3 -0.004144 -0.003784 0.012649 -0.002986 0.001812 0.000491
# 4 0.001992 -0.006668 -0.002986 0.045412 0.000612 -0.002813
# 5 0.002506 -0.006567 0.001812 0.000612 0.024325 0.000137
# 6 0.006833 -0.005459 0.000491 -0.002813 0.000137 0.036772
#
#
# Mechanical properties :
#
#
# Convention : Reuss Voigt Hill
#
# Bulk Modulus (GPa) = 56.33833 63.05748 59.69791
# Shear Modulus (GPa) = 27.95916 33.88219 30.92067
#
# Velocity S-wave (km/s) = 3.60034 3.96339 3.78622
# Velocity P-wave (km/s) = 6.58809 7.08374 6.84041
#
# Compressibility (1/GPa) = 0.01774990
#
# Stress axis : x y z
#
# Youngs Moduli (GPa) = 79.12429 59.55671 79.05759
#
# Poissons Ratio (x) = 0.25229 0.32759
# Poissons Ratio (y) = 0.33518 0.29917
# Poissons Ratio (z) = 0.32787 0.22538
#
# Static dielectric constant tensor:
#      x y z
#    x 1.864030 0.005990 -0.015900 
#    y 0.005990 1.790210 0.018970 
#    z -0.015900 0.018970 1.784970 
# 
# From -- ./inp_files/81383.got.cif
#   From: 2010.05.17/outbox.cif.g08.bks.cpg/sg2_41_cif.got.tgz:81383.got - 2010.06.03 11:33:40.
