data_PCOD9110597
_publ_section_title
;
Structure prediction by ZEFSAII (Michael W. Deem and Ramdas Pophale) SiO2 
 PCOD9110597
Probable space group: P -1
;
_chemical_formula_sum "Si O2"
_cell_formula_units_Z 16
_cell_length_a 9.050521
_cell_length_b 14.279409
_cell_length_c 9.123260
_cell_angle_alpha 103.578285
_cell_angle_beta 142.267371
_cell_angle_gamma 61.481342
_cell_volume 611.229093
_symmetry_space_group_name_H-M "P -1"
_symmetry_group_IT_number 2
_symmetry_cell_setting 'triclinic'
loop_
_space_group_symop_operation_xyz
x,y,z
-x,-y,-z
loop_
_atom_site_type_symbol
_atom_site_label
_atom_site_fract_x
_atom_site_fract_y
_atom_site_fract_z
Si Si1 0.101531 0.902567 0.698818
Si Si2 0.234294 0.407469 0.749082
Si Si3 0.642417 0.544015 0.805050
Si Si4 0.199988 0.735308 0.978274
Si Si5 0.989353 0.074966 0.884276
Si Si6 0.857754 0.664897 0.824644
Si Si7 0.596550 0.864454 0.870828
Si Si8 0.992606 0.268079 0.610746
O O1 0.994722 0.841713 0.483965
O O2 0.185091 0.818284 0.869359
O O3 0.347752 0.906359 0.804632
O O4 0.912890 0.023243 0.665588
O O5 0.517806 0.373716 0.876039
O O6 0.000000 0.500000 0.500000
O O7 0.176991 0.305274 0.676412
O O8 0.256028 0.435519 0.947144
O O9 0.738470 0.585212 0.751682
O O10 0.312625 0.624540 0.584406
O O11 0.823926 0.411244 0.889424
O O12 0.174838 0.801302 0.133591
O O13 0.951302 0.705872 0.768901
O O14 0.297848 0.055882 0.082694
O O15 0.000000 0.000000 0.000000
O O16 0.606106 0.780913 0.725144
O O17 0.864499 0.772537 0.136864
#
# Coordination Sequence:
#
# PCOD9110597 Si02
#       8
#     2   2   2   2   2   2   2   2
#     4  11  21  42  67  92 124 170 211 262 323 380
#     4  12  25  42  65  95 129 175 215 261 312 380
#     4  11  23  43  61  90 132 169 221 250 324 375
#     4  10  20  42  64  92 129 159 216 258 327 369
#     4   9  22  41  71  92 125 169 205 269 327 369
#     4  10  21  40  62  89 127 167 209 266 306 378
#     4  11  21  43  66  95 126 167 216 258 320 383
#     4  12  22  39  68  90 131 170 216 263 305 386
#
# _framework density 26.176765
#
# number of rings (size 3 to 8) (size 9 to 14) (size 15 to 20)
#    0.000    1.250    5.000    1.125    1.750    2.000 
#    9.000    0.625    0.000    0.000    0.000    0.000 
#    0.000    0.000    0.000    0.000    0.000    0.000 
#
# Total GULP energy -89276.141484 kJ/mol
# GULP energy per Si atom -5579.758843 kJ/mol
# Density = 2.611719 g / cm^3
# Si number density = 26.176765 Si / 1000 Ang^3
#
#
#
# Elastic Constant Matrix: (Units=GPa)
#
#
# Indices 1 2 3 4 5 6 
#
# 1 190.1409 51.3062 34.7116 4.3554 -1.8822 1.1142
# 2 51.3062 121.8396 20.8977 2.4800 -3.9734 -7.9916
# 3 34.7116 20.8977 52.1121 -18.2218 -5.0418 -10.3159
# 4 4.3554 2.4800 -18.2218 30.1727 4.8390 2.8877
# 5 -1.8822 -3.9734 -5.0418 4.8390 15.1552 -5.0675
# 6 1.1142 -7.9916 -10.3159 2.8877 -5.0675 61.7771
#
#
#
# Elastic Compliance Matrix: (Units=1/GPa)
#
#
# Indices 1 2 3 4 5 6 
#
# 1 0.006877 -0.001979 -0.005442 -0.003907 -0.000614 -0.001156
# 2 -0.001979 0.009804 -0.003176 -0.002961 0.002590 0.001124
# 3 -0.005442 -0.003176 0.032179 0.019317 0.004544 0.004530
# 4 -0.003907 -0.002961 0.019317 0.047222 -0.009950 -0.000110
# 5 -0.000614 0.002590 0.004544 -0.009950 0.073825 0.007626
# 6 -0.001156 0.001124 0.004530 -0.000110 0.007626 0.017741
#
#
# Mechanical properties :
#
#
# Convention : Reuss Voigt Hill
#
# Bulk Modulus (GPa) = 36.14388 64.21373 50.17881
# Shear Modulus (GPa) = 22.92927 38.56613 30.74770
#
# Velocity S-wave (km/s) = 2.96284 3.84252 3.43099
# Velocity P-wave (km/s) = 5.05392 6.65362 5.90816
#
# Compressibility (1/GPa) = 0.02766720
#
# Stress axis : x y z
#
# Youngs Moduli (GPa) = 145.41638 101.99985 31.07662
#
# Poissons Ratio (x) = 0.20184 0.16911
# Poissons Ratio (y) = 0.28775 0.09869
# Poissons Ratio (z) = 0.79130 0.32391
#
# Static dielectric constant tensor:
#      x y z
#    x 2.047180 -0.030820 -0.033320 
#    y -0.030820 2.100710 0.087350 
#    z -0.033320 0.087350 2.175770 
# 
# From -- ./inp_files/77717.got.cif
#   From: 2010.05.17/outbox.cif.g08.bks.cpg/sg2_39_cif.got.tgz:77717.got - 2010.06.03 11:33:40.
