data_PCOD9110359
_publ_section_title
;
Structure prediction by ZEFSAII (Michael W. Deem and Ramdas Pophale) SiO2 
 PCOD9110359
Probable space group: P -1
;
_chemical_formula_sum "Si O2"
_cell_formula_units_Z 13
_cell_length_a 5.042018
_cell_length_b 10.120549
_cell_length_c 18.246689
_cell_angle_alpha 38.810136
_cell_angle_beta 114.607571
_cell_angle_gamma 102.536492
_cell_volume 521.045483
_symmetry_space_group_name_H-M "P -1"
_symmetry_group_IT_number 2
_symmetry_cell_setting 'triclinic'
loop_
_space_group_symop_operation_xyz
x,y,z
-x,-y,-z
loop_
_atom_site_type_symbol
_atom_site_label
_atom_site_fract_x
_atom_site_fract_y
_atom_site_fract_z
Si Si1 0.326152 0.716290 0.986737
Si Si2 0.664738 0.713532 0.292917
Si Si3 0.128689 0.214857 0.336109
Si Si4 0.500000 0.000000 0.000000
Si Si5 0.751418 0.283305 0.404735
Si Si6 0.198925 0.917236 0.266317
Si Si7 0.481635 0.745411 0.825799
O O1 0.465321 0.760985 0.905156
O O2 0.513463 0.778997 0.048814
O O3 0.308190 0.468526 0.085592
O O4 0.011267 0.878126 0.885554
O O5 0.566039 0.857984 0.146340
O O6 0.739982 0.469636 0.381430
O O7 0.398712 0.763526 0.298390
O O8 0.956559 0.791255 0.325098
O O9 0.426768 0.305794 0.320130
O O10 0.003141 0.286074 0.371835
O O11 0.847635 0.280916 0.223150
O O12 0.196258 0.956546 0.453828
O O13 0.417116 0.039229 0.284600
#
# Coordination Sequence:
#
# PCOD9110359 Si02
#       7
#     2   2   2   1   2   2   2
#     4  10  23  39  65  90 137 167 222 257 327 380
#     4  11  23  39  66  88 134 168 222 262 327 372
#     4  10  23  41  72  91 133 161 228 267 327 379
#     4  10  20  42  56  94 120 178 202 266 300 390
#     4  10  22  45  65 102 120 173 217 280 315 389
#     4  11  22  42  59  92 132 172 209 268 308 405
#     4  11  22  43  62 100 125 181 204 275 321 392
#
# _framework density 24.949836000000001
#
# number of rings (size 3 to 8) (size 9 to 14) (size 15 to 20)
#    0.000    1.538    3.077    2.308    2.154    3.692 
#   11.077    1.538    0.000    0.000    0.000    0.000 
#    0.000    0.000    0.000    0.000    0.000    0.000 
#
# Total GULP energy -72500.264989 kJ/mol
# GULP energy per Si atom -5576.943461 kJ/mol
# Density = 2.489305 g / cm^3
# Si number density = 24.949836 Si / 1000 Ang^3
#
#
#
# Elastic Constant Matrix: (Units=GPa)
#
#
# Indices 1 2 3 4 5 6 
#
# 1 101.9773 24.7559 27.0000 -17.2030 11.9990 -12.7372
# 2 24.7559 172.9343 25.5298 -35.5902 11.7718 -18.1675
# 3 27.0000 25.5298 43.9025 -4.9545 7.4942 -9.5618
# 4 -17.2030 -35.5902 -4.9545 46.6118 -10.5739 5.0746
# 5 11.9990 11.7718 7.4942 -10.5739 20.7829 2.0349
# 6 -12.7372 -18.1675 -9.5618 5.0746 2.0349 37.0080
#
#
#
# Elastic Compliance Matrix: (Units=1/GPa)
#
#
# Indices 1 2 3 4 5 6 
#
# 1 0.012744 0.000303 -0.006417 0.003074 -0.003913 0.002670
# 2 0.000303 0.007588 -0.003368 0.005094 -0.000893 0.002310
# 3 -0.006417 -0.003368 0.030697 -0.004046 -0.008011 0.005064
# 4 0.003074 0.005094 -0.004046 0.028936 0.011727 -0.002099
# 5 -0.003913 -0.000893 -0.008011 0.011727 0.060597 -0.008795
# 6 0.002670 0.002310 0.005064 -0.002099 -0.008795 0.031154
#
#
# Mechanical properties :
#
#
# Convention : Reuss Voigt Hill
#
# Bulk Modulus (GPa) = 31.18860 52.59838 41.89349
# Shear Modulus (GPa) = 24.82988 36.98243 30.90616
#
# Velocity S-wave (km/s) = 3.15809 3.85420 3.52338
# Velocity P-wave (km/s) = 5.08190 6.39796 5.77753
#
# Compressibility (1/GPa) = 0.03206300
#
# Stress axis : x y z
#
# Youngs Moduli (GPa) = 78.46707 131.78407 32.57665
#
# Poissons Ratio (x) = -0.03987 0.20905
# Poissons Ratio (y) = -0.02374 0.10973
# Poissons Ratio (z) = 0.50354 0.44390
#
# Static dielectric constant tensor:
#      x y z
#    x 1.963370 0.093370 0.064300 
#    y 0.093370 1.952740 -0.030840 
#    z 0.064300 -0.030840 1.958950 
# 
# From -- ./inp_files/547817.got.cif
#   From: 2010.05.17/outbox.cif.g08.bks.cpg/sg2_274_cif.got.tgz:547817.got - 2010.06.03 11:33:40.
