data_PCOD9110496
_publ_section_title
;
Structure prediction by ZEFSAII (Michael W. Deem and Ramdas Pophale) SiO2 
 PCOD9110496
Probable space group: P -1
;
_chemical_formula_sum "Si O2"
_cell_formula_units_Z 14
_cell_length_a 16.850107
_cell_length_b 9.164942
_cell_length_c 19.406200
_cell_angle_alpha 139.657120
_cell_angle_beta 157.893263
_cell_angle_gamma 53.686517
_cell_volume 645.329854
_symmetry_space_group_name_H-M "P -1"
_symmetry_group_IT_number 2
_symmetry_cell_setting 'triclinic'
loop_
_space_group_symop_operation_xyz
x,y,z
-x,-y,-z
loop_
_atom_site_type_symbol
_atom_site_label
_atom_site_fract_x
_atom_site_fract_y
_atom_site_fract_z
Si Si1 0.957106 0.099334 0.072963
Si Si2 0.112787 0.088017 0.340693
Si Si3 0.527662 0.963407 0.293036
Si Si4 0.714178 0.626043 0.101414
Si Si5 0.248789 0.628243 0.707129
Si Si6 0.796266 0.294492 0.496434
Si Si7 0.691069 0.851112 0.025947
O O1 0.077296 0.041529 0.214735
O O2 0.065460 0.405648 0.265628
O O3 0.679617 0.975076 0.826569
O O4 0.000000 0.000000 0.000000
O O5 0.301555 0.013411 0.498234
O O6 0.203705 0.389569 0.535983
O O7 0.874957 0.939359 0.142285
O O8 0.683948 0.122658 0.411879
O O9 0.390515 0.660939 0.057592
O O10 0.997411 0.755838 0.391374
O O11 0.497939 0.690728 0.969536
O O12 0.717609 0.660432 0.032638
O O13 0.000000 0.500000 0.500000
O O14 0.263159 0.901370 0.802445
O O15 0.570068 0.246640 0.250845
#
# Coordination Sequence:
#
# PCOD9110496 Si02
#       7
#     2   2   2   2   2   2   2
#     4  11  25  43  66  92 118 158 206 253 313 369
#     4  10  20  42  63  87 129 164 198 257 300 356
#     4  10  21  41  63  90 124 157 203 254 305 362
#     4  10  21  37  60  89 124 166 205 244 299 358
#     4   9  20  36  62  92 124 165 209 242 295 360
#     4  11  22  39  66  89 123 162 201 252 307 358
#     4  11  20  38  64  91 124 170 203 244 301 356
#
# _framework density 21.694333
#
# number of rings (size 3 to 8) (size 9 to 14) (size 15 to 20)
#    0.000    1.714    2.857    2.143    0.000    1.714 
#    0.000    6.429    0.000    0.000    0.000    0.000 
#    0.000    0.000    0.000    0.000    0.000    0.000 
#
# Total GULP energy -78050.631218 kJ/mol
# GULP energy per Si atom -5575.045087 kJ/mol
# Density = 2.164496 g / cm^3
# Si number density = 21.694333 Si / 1000 Ang^3
#
#
#
# Elastic Constant Matrix: (Units=GPa)
#
#
# Indices 1 2 3 4 5 6 
#
# 1 77.9637 25.5680 47.4259 1.2981 4.1030 27.5098
# 2 25.5680 53.8299 33.0657 -3.5422 -0.0796 22.8760
# 3 47.4259 33.0657 133.4287 -23.4145 22.1771 10.6037
# 4 1.2981 -3.5422 -23.4145 39.0412 10.2935 2.7807
# 5 4.1030 -0.0796 22.1771 10.2935 45.1852 4.1748
# 6 27.5098 22.8760 10.6037 2.7807 4.1748 37.3898
#
#
#
# Elastic Compliance Matrix: (Units=1/GPa)
#
#
# Indices 1 2 3 4 5 6 
#
# 1 0.023476 0.000567 -0.009353 -0.006682 0.005375 -0.015070
# 2 0.000567 0.030202 -0.007680 -0.002205 0.005863 -0.017208
# 3 -0.009353 -0.007680 0.015795 0.011239 -0.010161 0.007400
# 4 -0.006682 -0.002205 0.011239 0.035729 -0.013228 0.001898
# 5 0.005375 0.005863 -0.010161 -0.013228 0.030306 -0.007060
# 6 -0.015070 -0.017208 0.007400 0.001898 -0.007060 0.046910
#
#
# Mechanical properties :
#
#
# Convention : Reuss Voigt Hill
#
# Bulk Modulus (GPa) = 27.36621 53.03794 40.20207
# Shear Modulus (GPa) = 21.97503 34.93409 28.45456
#
# Velocity S-wave (km/s) = 3.18612 4.01719 3.62555
# Velocity P-wave (km/s) = 5.11635 6.78366 6.00812
#
# Compressibility (1/GPa) = 0.03654141
#
# Stress axis : x y z
#
# Youngs Moduli (GPa) = 42.59645 33.11089 63.30941
#
# Poissons Ratio (x) = -0.01879 0.59215
# Poissons Ratio (y) = -0.02417 0.48622
# Poissons Ratio (z) = 0.39841 0.25429
#
# Static dielectric constant tensor:
#      x y z
#    x 1.794660 -0.001220 0.026470 
#    y -0.001220 1.805270 0.018000 
#    z 0.026470 0.018000 1.782470 
# 
# From -- ./inp_files/315242.got.cif
#   From: 2010.05.17/outbox.cif.g08.bks.cpg/sg2_158_cif.got.tgz:315242.got - 2010.06.03 11:33:40.
