data_PCOD9110980
_publ_section_title
;
Structure prediction by ZEFSAII (Michael W. Deem and Ramdas Pophale) SiO2 
 PCOD9110980
Probable space group: P -1
;
_chemical_formula_sum "Si O2"
_cell_formula_units_Z 16
_cell_length_a 26.786153
_cell_length_b 27.399030
_cell_length_c 8.915342
_cell_angle_alpha 36.651354
_cell_angle_beta 144.513498
_cell_angle_gamma 169.520176
_cell_volume 690.797110
_symmetry_space_group_name_H-M "P -1"
_symmetry_group_IT_number 2
_symmetry_cell_setting 'triclinic'
loop_
_space_group_symop_operation_xyz
x,y,z
-x,-y,-z
loop_
_atom_site_type_symbol
_atom_site_label
_atom_site_fract_x
_atom_site_fract_y
_atom_site_fract_z
Si Si1 0.824571 0.924168 0.236628
Si Si2 0.356488 0.733926 0.024630
Si Si3 0.687204 0.758890 0.977268
Si Si4 0.296496 0.847063 0.745237
Si Si5 0.245565 0.455060 0.005906
Si Si6 0.658652 0.316424 0.546954
Si Si7 0.828040 0.714654 0.320242
Si Si8 0.058751 0.761932 0.922468
O O1 0.688663 0.788366 0.076632
O O2 0.545208 0.693623 0.218166
O O3 0.000000 0.000000 0.500000
O O4 0.044005 0.196712 0.112179
O O5 0.434372 0.769683 0.293872
O O6 0.082785 0.438111 0.028130
O O7 0.608208 0.945036 0.004522
O O8 0.311512 0.790211 0.797578
O O9 0.711304 0.681982 0.219653
O O10 0.421739 0.542893 0.760733
O O11 0.953650 0.041772 0.853586
O O12 0.973702 0.563823 0.704307
O O13 0.437540 0.063123 0.532222
O O14 0.500000 0.000000 0.000000
O O15 0.076085 0.358563 0.945997
O O16 0.307744 0.566837 0.738167
O O17 0.968002 0.767466 0.619432
#
# Coordination Sequence:
#
# PCOD9110980 Si02
#       8
#     2   2   2   2   2   2   2   2
#     4  12  26  45  69  93 134 183 233 267 337 403
#     4  11  23  40  71  98 130 178 226 262 336 408
#     4  10  22  40  63  93 117 169 225 267 324 388
#     4  10  20  42  68 101 134 170 220 276 333 393
#     4  12  28  45  67 100 140 175 225 281 340 389
#     4  11  23  43  70 100 133 172 223 285 322 391
#     4  10  22  39  62  90 132 160 210 282 326 375
#     4  12  25  42  63  97 141 174 218 271 346 392
#
# _framework density 23.161649000000001
#
# number of rings (size 3 to 8) (size 9 to 14) (size 15 to 20)
#    0.000    1.000    0.000    7.875    5.250    3.000 
#    0.000    3.750    0.000    0.000    0.000    0.000 
#    0.000    0.000    0.000    0.000    0.000    0.000 
#
# Total GULP energy -89559.382111 kJ/mol
# GULP energy per Si atom -5597.461382 kJ/mol
# Density = 2.310893 g / cm^3
# Si number density = 23.161649 Si / 1000 Ang^3
#
#
#
# Elastic Constant Matrix: (Units=GPa)
#
#
# Indices 1 2 3 4 5 6 
#
# 1 93.4178 6.2892 22.0720 -7.0582 10.8259 7.0019
# 2 6.2892 113.7028 29.1102 -11.6391 -0.6267 -1.0475
# 3 22.0720 29.1102 39.0480 -8.1590 6.0420 -6.3819
# 4 -7.0582 -11.6391 -8.1590 31.0238 2.8189 14.1777
# 5 10.8259 -0.6267 6.0420 2.8189 25.9560 1.0562
# 6 7.0019 -1.0475 -6.3819 14.1777 1.0562 52.5661
#
#
#
# Elastic Compliance Matrix: (Units=1/GPa)
#
#
# Indices 1 2 3 4 5 6 
#
# 1 0.013506 0.001635 -0.008088 0.003579 -0.003952 -0.003634
# 2 0.001635 0.011391 -0.009359 0.002936 0.001532 -0.001950
# 3 -0.008088 -0.009359 0.039715 0.003454 -0.006673 0.004915
# 4 0.003579 0.002936 0.003454 0.040562 -0.006191 -0.010815
# 5 -0.003952 0.001532 -0.006673 -0.006191 0.042415 0.000564
# 6 -0.003634 -0.001950 0.004915 -0.010815 0.000564 0.022971
#
#
# Mechanical properties :
#
#
# Convention : Reuss Voigt Hill
#
# Bulk Modulus (GPa) = 30.31241 40.12348 35.21795
# Shear Modulus (GPa) = 23.45430 34.48900 28.97165
#
# Velocity S-wave (km/s) = 3.18565 3.86302 3.54057
# Velocity P-wave (km/s) = 5.16206 6.10394 5.65265
#
# Compressibility (1/GPa) = 0.03298979
#
# Stress axis : x y z
#
# Youngs Moduli (GPa) = 74.03988 87.78515 25.17925
#
# Poissons Ratio (x) = -0.14350 0.20364
# Poissons Ratio (y) = -0.12103 0.23564
# Poissons Ratio (z) = 0.59881 0.82154
#
# Static dielectric constant tensor:
#      x y z
#    x 1.917900 0.034890 0.021790 
#    y 0.034890 1.833860 0.008630 
#    z 0.021790 0.008630 1.903370 
# 
# From -- ./inp_files/357979.got.cif
#   From: 2010.05.17/outbox.cif.g08.bks.cpg/sg2_179_cif.got.tgz:357979.got - 2010.06.03 11:33:40.
