data_PCOD9110433
_publ_section_title
;
Structure prediction by ZEFSAII (Michael W. Deem and Ramdas Pophale) SiO2 
 PCOD9110433
Probable space group: P -1
;
_chemical_formula_sum "Si O2"
_cell_formula_units_Z 14
_cell_length_a 9.036398
_cell_length_b 10.149107
_cell_length_c 14.813392
_cell_angle_alpha 116.140899
_cell_angle_beta 48.526691
_cell_angle_gamma 139.141136
_cell_volume 660.859834
_symmetry_space_group_name_H-M "P -1"
_symmetry_group_IT_number 2
_symmetry_cell_setting 'triclinic'
loop_
_space_group_symop_operation_xyz
x,y,z
-x,-y,-z
loop_
_atom_site_type_symbol
_atom_site_label
_atom_site_fract_x
_atom_site_fract_y
_atom_site_fract_z
Si Si1 0.271052 0.990074 0.700241
Si Si2 0.293515 0.963095 0.200182
Si Si3 0.813905 0.517967 0.268574
Si Si4 0.892358 0.280637 0.490868
Si Si5 0.113727 0.779967 0.887496
Si Si6 0.229925 0.205363 0.415367
Si Si7 0.896194 0.762761 0.151946
O O1 0.157483 0.831074 0.617088
O O2 0.124580 0.870829 0.816562
O O3 0.596961 0.129859 0.613511
O O4 0.221424 0.137447 0.749758
O O5 0.748437 0.563876 0.212577
O O6 0.200041 0.910119 0.118081
O O7 0.583806 0.054384 0.141408
O O8 0.276600 0.121632 0.286293
O O9 0.926441 0.413216 0.174934
O O10 0.527310 0.363274 0.389548
O O11 0.051933 0.743494 0.278271
O O12 0.000000 0.500000 0.500000
O O13 0.113655 0.300755 0.461940
O O14 0.909154 0.733297 0.032474
O O15 0.000000 0.000000 0.500000
#
# Coordination Sequence:
#
# PCOD9110433 Si02
#       7
#     2   2   2   2   2   2   2
#     4  11  24  40  59  93 122 158 200 248 305 358
#     4   9  21  38  61  87 120 157 204 240 302 354
#     4   9  21  37  61  89 118 155 205 243 300 352
#     4  11  23  41  63  83 124 161 198 249 307 355
#     4  11  21  38  64  93 123 155 203 250 295 360
#     4  11  21  38  62  88 116 157 204 258 293 352
#     4  10  20  42  62  85 127 164 196 246 302 358
#
# _framework density 21.184522000000001
#
# number of rings (size 3 to 8) (size 9 to 14) (size 15 to 20)
#    0.857    0.857    1.429    3.857    0.000    2.857 
#    0.000    0.000    0.000    4.286    0.000    0.000 
#    0.000    0.000    0.000    0.000    0.000    0.000 
#
# Total GULP energy -78109.356078 kJ/mol
# GULP energy per Si atom -5579.239720 kJ/mol
# Density = 2.113630 g / cm^3
# Si number density = 21.184522 Si / 1000 Ang^3
#
#
#
# Elastic Constant Matrix: (Units=GPa)
#
#
# Indices 1 2 3 4 5 6 
#
# 1 20.4599 -0.6702 -5.6930 5.0150 -5.4564 -1.8956
# 2 -0.6702 117.4664 13.6917 10.3473 -11.2818 -9.7604
# 3 -5.6930 13.6917 52.7652 -4.7407 6.6170 3.0033
# 4 5.0150 10.3473 -4.7407 18.8369 -3.6689 3.9252
# 5 -5.4564 -11.2818 6.6170 -3.6689 32.8126 -6.3117
# 6 -1.8956 -9.7604 3.0033 3.9252 -6.3117 29.6572
#
#
#
# Elastic Compliance Matrix: (Units=1/GPa)
#
#
# Indices 1 2 3 4 5 6 
#
# 1 0.057051 0.003210 0.002100 -0.016300 0.010034 0.008783
# 2 0.003210 0.010795 -0.004230 -0.008130 0.005424 0.006416
# 3 0.002100 -0.004230 0.021990 0.007354 -0.005813 -0.005695
# 4 -0.016300 -0.008130 0.007354 0.066163 -0.002224 -0.013692
# 5 0.010034 0.005424 -0.005813 -0.002224 0.037088 0.011202
# 6 0.008783 0.006416 -0.005695 -0.013692 0.011202 0.041165
#
#
# Mechanical properties :
#
#
# Convention : Reuss Voigt Hill
#
# Bulk Modulus (GPa) = 10.87026 22.81646 16.84336
# Shear Modulus (GPa) = 19.02899 28.48553 23.75726
#
# Velocity S-wave (km/s) = 3.00033 3.67091 3.35243
# Velocity P-wave (km/s) = 4.14066 5.36294 4.79094
#
# Compressibility (1/GPa) = 0.09199415
#
# Stress axis : x y z
#
# Youngs Moduli (GPa) = 17.52828 92.63860 45.47517
#
# Poissons Ratio (x) = -0.29738 -0.09549
# Poissons Ratio (y) = -0.05627 0.19238
# Poissons Ratio (z) = -0.03681 0.39190
#
# Static dielectric constant tensor:
#      x y z
#    x 1.781400 0.037840 0.011450 
#    y 0.037840 1.756220 -0.025430 
#    z 0.011450 -0.025430 1.800900 
# 
# From -- ./inp_files/447462.got.cif
#   From: 2010.05.17/outbox.cif.g08.bks.cpg/sg2_224_cif.got.tgz:447462.got - 2010.06.03 11:33:40.
