data_PCOD9110903
_publ_section_title
;
Structure prediction by ZEFSAII (Michael W. Deem and Ramdas Pophale) SiO2 
 PCOD9110903
Probable space group: P -1
;
_chemical_formula_sum "Si O2"
_cell_formula_units_Z 14
_cell_length_a 11.509618
_cell_length_b 15.236671
_cell_length_c 10.611404
_cell_angle_alpha 59.423413
_cell_angle_beta 144.530796
_cell_angle_gamma 145.337557
_cell_volume 535.898041
_symmetry_space_group_name_H-M "P -1"
_symmetry_group_IT_number 2
_symmetry_cell_setting 'triclinic'
loop_
_space_group_symop_operation_xyz
x,y,z
-x,-y,-z
loop_
_atom_site_type_symbol
_atom_site_label
_atom_site_fract_x
_atom_site_fract_y
_atom_site_fract_z
Si Si1 0.444337 0.955031 0.759835
Si Si2 0.599160 0.371337 0.657449
Si Si3 0.473337 0.789794 0.698327
Si Si4 0.776718 0.473224 0.153523
Si Si5 0.162992 0.367574 0.140747
Si Si6 0.527435 0.206445 0.949597
Si Si7 0.196218 0.055610 0.378293
O O1 0.459715 0.879277 0.716124
O O2 0.184934 0.936281 0.505728
O O3 0.340840 0.853950 0.871150
O O4 0.804438 0.163969 0.941596
O O5 0.399569 0.381460 0.405842
O O6 0.877935 0.553374 0.855256
O O7 0.438203 0.236471 0.728194
O O8 0.537196 0.257792 0.581097
O O9 0.487212 0.688170 0.861075
O O10 0.760047 0.922002 0.748206
O O11 0.106681 0.637615 0.409570
O O12 0.686689 0.525567 0.937123
O O13 0.802174 0.387503 0.141338
O O14 0.153287 0.040002 0.809436
#
# Coordination Sequence:
#
# PCOD9110903 Si02
#       7
#     2   2   2   2   2   2   2
#     4  11  23  40  68  94 132 169 216 265 324 373
#     4  10  23  43  66  92 137 165 218 270 318 389
#     4  10  22  42  65  97 135 166 218 269 311 396
#     4   9  20  42  65  88 131 174 202 266 332 363
#     4  10  20  42  67  90 126 174 206 272 324 365
#     4  10  23  45  65  95 134 169 212 275 321 374
#     4  12  23  39  69  99 127 175 219 257 323 395
#
# _framework density 26.124374
#
# number of rings (size 3 to 8) (size 9 to 14) (size 15 to 20)
#    0.000    1.714    2.857    0.857    0.000    3.429 
#    0.000   12.857    0.000    0.000    0.000    0.000 
#    0.000    0.000    0.000    0.000    0.000    0.000 
#
# Total GULP energy -78155.728927 kJ/mol
# GULP energy per Si atom -5582.552066 kJ/mol
# Density = 2.606491 g / cm^3
# Si number density = 26.124374 Si / 1000 Ang^3
#
#
#
# Elastic Constant Matrix: (Units=GPa)
#
#
# Indices 1 2 3 4 5 6 
#
# 1 72.6259 52.6986 35.6888 -8.5333 -34.1694 -19.3887
# 2 52.6986 183.4558 75.6951 -33.4060 -14.4741 -12.3781
# 3 35.6888 75.6951 133.5566 -16.3040 -35.4420 2.9370
# 4 -8.5333 -33.4060 -16.3040 83.5804 -6.1833 -15.9765
# 5 -34.1694 -14.4741 -35.4420 -6.1833 26.0971 9.7192
# 6 -19.3887 -12.3781 2.9370 -15.9765 9.7192 29.9430
#
#
#
# Elastic Compliance Matrix: (Units=1/GPa)
#
#
# Indices 1 2 3 4 5 6 
#
# 1 0.084678 -0.021389 0.028251 0.017287 0.138709 0.007419
# 2 -0.021389 0.014108 -0.013366 -0.001026 -0.040807 0.005992
# 3 0.028251 -0.013366 0.027777 0.006399 0.072578 -0.010101
# 4 0.017287 -0.001026 0.006399 0.018800 0.031506 0.009946
# 5 0.138709 -0.040807 0.072578 0.031506 0.310032 -0.017994
# 6 0.007419 0.005992 -0.010101 0.009946 -0.017994 0.052816
#
#
# Mechanical properties :
#
#
# Convention : Reuss Voigt Hill
#
# Bulk Modulus (GPa) = 8.80627 79.75590 44.28109
# Shear Modulus (GPa) = 8.94340 42.96117 25.95229
#
# Velocity S-wave (km/s) = 1.85225 4.05963 3.15526
# Velocity P-wave (km/s) = 2.82005 7.25049 5.50101
#
# Compressibility (1/GPa) = 0.11355545
#
# Stress axis : x y z
#
# Youngs Moduli (GPa) = 11.80938 70.88242 36.00078
#
# Poissons Ratio (x) = 1.51609 -1.01706
# Poissons Ratio (y) = 0.25259 0.48120
# Poissons Ratio (z) = -0.33363 0.94745
#
# Static dielectric constant tensor:
#      x y z
#    x 2.150450 0.065940 0.038340 
#    y 0.065940 2.035810 0.028790 
#    z 0.038340 0.028790 2.115330 
# 
# From -- ./inp_files/456949.got.cif
#   From: 2010.05.17/outbox.cif.g08.bks.cpg/sg2_229_cif.got.tgz:456949.got - 2010.06.03 11:33:40.
