data_PCOD9110246
_publ_section_title
;
Structure prediction by ZEFSAII (Michael W. Deem and Ramdas Pophale) SiO2 
 PCOD9110246
Probable space group: P -1
;
_chemical_formula_sum "Si O2"
_cell_formula_units_Z 14
_cell_length_a 16.756536
_cell_length_b 8.871844
_cell_length_c 16.607227
_cell_angle_alpha 112.382928
_cell_angle_beta 162.719014
_cell_angle_gamma 76.753044
_cell_volume 591.335863
_symmetry_space_group_name_H-M "P -1"
_symmetry_group_IT_number 2
_symmetry_cell_setting 'triclinic'
loop_
_space_group_symop_operation_xyz
x,y,z
-x,-y,-z
loop_
_atom_site_type_symbol
_atom_site_label
_atom_site_fract_x
_atom_site_fract_y
_atom_site_fract_z
Si Si1 0.337648 0.520548 0.652470
Si Si2 0.552539 0.185849 0.047258
Si Si3 0.736251 0.716919 0.761442
Si Si4 0.091491 0.446972 0.878941
Si Si5 0.498222 0.168663 0.583146
Si Si6 0.315549 0.861560 0.455770
Si Si7 0.224419 0.313292 0.654575
O O1 0.467802 0.690837 0.875083
O O2 0.246301 0.344119 0.586604
O O3 0.053538 0.516875 0.332637
O O4 0.593618 0.548640 0.840364
O O5 0.895724 0.282239 0.360444
O O6 0.302872 0.158878 0.733421
O O7 0.500000 0.000000 0.000000
O O8 0.500000 0.500000 0.500000
O O9 0.736419 0.786619 0.684559
O O10 0.601510 0.827474 0.706728
O O11 0.048478 0.752249 0.109965
O O12 0.849406 0.250186 0.645229
O O13 0.198372 0.629283 0.075547
O O14 0.500000 0.000000 0.500000
O O15 0.411098 0.075347 0.569182
O O16 0.500000 0.500000 0.000000
#
# Coordination Sequence:
#
# PCOD9110246 Si02
#       7
#     2   2   2   2   2   2   2
#     4  11  24  44  67  95 136 176 213 258 343 392
#     4  11  22  42  73 105 132 169 228 274 312 393
#     4  11  21  39  69  89 119 164 226 281 326 383
#     4  12  25  43  65  95 142 175 211 279 340 395
#     4  10  25  43  69  94 124 174 237 274 325 394
#     4  11  24  42  63  93 127 167 221 274 337 392
#     4  10  20  41  71  95 131 179 222 259 318 404
#
# _framework density 23.675208999999999
#
# number of rings (size 3 to 8) (size 9 to 14) (size 15 to 20)
#    0.000    1.143    1.429    6.429    2.000    2.286 
#    7.714    0.000    0.000    0.000    0.000    0.000 
#    0.000    0.000    0.000    0.000    0.000    0.000 
#
# Total GULP energy -78234.338904 kJ/mol
# GULP energy per Si atom -5588.167065 kJ/mol
# Density = 2.362132 g / cm^3
# Si number density = 23.675209 Si / 1000 Ang^3
#
#
#
# Elastic Constant Matrix: (Units=GPa)
#
#
# Indices 1 2 3 4 5 6 
#
# 1 64.0971 30.5714 -10.2405 10.5665 11.3293 11.2184
# 2 30.5714 119.3193 -3.7961 -2.8940 -4.6305 28.3640
# 3 -10.2405 -3.7961 25.6341 1.5648 3.4515 3.5008
# 4 10.5665 -2.8940 1.5648 21.0269 12.7234 2.7820
# 5 11.3293 -4.6305 3.4515 12.7234 39.3502 -11.3449
# 6 11.2184 28.3640 3.5008 2.7820 -11.3449 46.3560
#
#
#
# Elastic Compliance Matrix: (Units=1/GPa)
#
#
# Indices 1 2 3 4 5 6 
#
# 1 0.022982 -0.004959 0.010467 -0.008369 -0.006697 -0.004454
# 2 -0.004959 0.011236 0.000312 0.005312 -0.000785 -0.006209
# 3 0.010467 0.000312 0.045644 -0.002360 -0.008560 -0.008124
# 4 -0.008369 0.005312 -0.002360 0.066971 -0.021382 -0.010299
# 5 -0.006697 -0.000785 -0.008560 -0.021382 0.038814 0.013530
# 6 -0.004454 -0.006209 -0.008124 -0.010299 0.013530 0.030992
#
#
# Mechanical properties :
#
#
# Convention : Reuss Voigt Hill
#
# Bulk Modulus (GPa) = 10.92862 26.90222 18.91542
# Shear Modulus (GPa) = 21.23146 34.18101 27.70624
#
# Velocity S-wave (km/s) = 2.99788 3.80379 3.42462
# Velocity P-wave (km/s) = 4.07543 5.53890 4.86254
#
# Compressibility (1/GPa) = 0.09150288
#
# Stress axis : x y z
#
# Youngs Moduli (GPa) = 43.51247 89.00097 21.90847
#
# Poissons Ratio (x) = 0.44138 -0.22933
# Poissons Ratio (y) = 0.21579 -0.00684
# Poissons Ratio (z) = -0.45546 -0.02778
#
# Static dielectric constant tensor:
#      x y z
#    x 1.989810 0.055230 0.037630 
#    y 0.055230 1.984170 0.014760 
#    z 0.037630 0.014760 1.891720 
# 
# From -- ./inp_files/528856.got.cif
#   From: 2010.05.17/outbox.cif.g08.bks.cpg/sg2_265_cif.got.tgz:528856.got - 2010.06.03 11:33:40.
