data_PCOD9110530
_publ_section_title
;
Structure prediction by ZEFSAII (Michael W. Deem and Ramdas Pophale) SiO2 
 PCOD9110530
Probable space group: P -1
;
_chemical_formula_sum "Si O2"
_cell_formula_units_Z 16
_cell_length_a 12.861556
_cell_length_b 9.648293
_cell_length_c 11.483809
_cell_angle_alpha 52.445978
_cell_angle_beta 91.793521
_cell_angle_gamma 59.574704
_cell_volume 845.166543
_symmetry_space_group_name_H-M "P -1"
_symmetry_group_IT_number 2
_symmetry_cell_setting 'triclinic'
loop_
_space_group_symop_operation_xyz
x,y,z
-x,-y,-z
loop_
_atom_site_type_symbol
_atom_site_label
_atom_site_fract_x
_atom_site_fract_y
_atom_site_fract_z
Si Si1 0.443668 0.872927 0.029236
Si Si2 0.604777 0.720142 0.642327
Si Si3 0.416947 0.406553 0.038801
Si Si4 0.160259 0.343640 0.447348
Si Si5 0.550383 0.420498 0.412070
Si Si6 0.145677 0.655820 0.744559
Si Si7 0.841066 0.983206 0.554782
Si Si8 0.835977 0.682245 0.260707
O O1 0.517363 0.633324 0.226018
O O2 0.479324 0.817337 0.923268
O O3 0.500000 0.000000 0.000000
O O4 0.276635 0.063042 0.931337
O O5 0.612500 0.637626 0.814316
O O6 0.745272 0.624792 0.634149
O O7 0.540345 0.633960 0.613706
O O8 0.500000 0.000000 0.500000
O O9 0.500000 0.500000 0.000000
O O10 0.270454 0.542026 0.897754
O O11 0.190598 0.307782 0.605891
O O12 0.995753 0.562922 0.317573
O O13 0.187352 0.130878 0.487469
O O14 0.500000 0.500000 0.500000
O O15 0.708264 0.172093 0.533598
O O16 0.138124 0.856876 0.589660
O O17 0.176731 0.483606 0.729382
O O18 0.991499 0.774857 0.724369
#
# Coordination Sequence:
#
# PCOD9110530 Si02
#       8
#     2   2   2   2   2   2   2   2
#     4  12  24  41  68  94 129 172 218 263 320 386
#     4  12  25  42  66  96 129 170 216 269 327 375
#     4  12  24  43  65  96 131 171 223 263 315 389
#     4  10  23  41  67  96 131 167 217 266 320 387
#     4  12  27  43  62  97 133 167 214 271 326 383
#     4  10  21  39  68  93 124 168 218 263 313 383
#     4  10  20  42  63  95 124 168 217 259 322 378
#     4  10  22  42  66  97 128 173 214 261 323 386
#
# _framework density 18.931180000000001
#
# number of rings (size 3 to 8) (size 9 to 14) (size 15 to 20)
#    0.000    1.000    5.000    0.750    7.000    0.000 
#    2.250    1.875    0.000    0.000    0.000    0.000 
#    0.000    0.000    0.000    0.000    0.000    0.000 
#
# Total GULP energy -89148.341171 kJ/mol
# GULP energy per Si atom -5571.771323 kJ/mol
# Density = 1.888809 g / cm^3
# Si number density = 18.931180 Si / 1000 Ang^3
#
#
#
# Elastic Constant Matrix: (Units=GPa)
#
#
# Indices 1 2 3 4 5 6 
#
# 1 119.8461 137.9501 37.6948 16.2415 36.6355 -33.1907
# 2 137.9501 33.2455 107.0981 -15.7154 -39.6675 48.4071
# 3 37.6948 107.0981 54.0804 10.4205 49.0476 -36.0184
# 4 16.2415 -15.7154 10.4205 27.8310 -11.5232 10.2700
# 5 36.6355 -39.6675 49.0476 -11.5232 8.0586 26.9678
# 6 -33.1907 48.4071 -36.0184 10.2700 26.9678 16.3269
#
#
#
# Elastic Compliance Matrix: (Units=1/GPa)
#
#
# Indices 1 2 3 4 5 6 
#
# 1 0.012182 -0.002746 -0.011100 -0.000599 0.006985 -0.002743
# 2 -0.002746 0.005632 0.004327 -0.003133 -0.010031 0.005804
# 3 -0.011100 0.004327 0.015010 0.004370 -0.000768 -0.003759
# 4 -0.000599 -0.003133 0.004370 0.031028 -0.002457 0.002251
# 5 0.006985 -0.010031 -0.000768 -0.002457 0.022623 0.006424
# 6 -0.002743 0.005804 -0.003759 0.002251 0.006424 0.018143
#
#
# Mechanical properties :
#
#
# Convention : Reuss Voigt Hill
#
# Bulk Modulus (GPa) = 72.53203 85.85089 79.19146
# Shear Modulus (GPa) = 38.98579 5.40524 22.19552
#
# Velocity S-wave (km/s) = 4.54292 1.69157 3.42779
# Velocity P-wave (km/s) = 8.11876 7.01873 7.58870
#
# Compressibility (1/GPa) = 0.01378701
#
# Stress axis : x y z
#
# Youngs Moduli (GPa) = 82.08803 177.54620 66.62084
#
# Poissons Ratio (x) = 0.48748 0.73950
# Poissons Ratio (y) = 0.22538 -0.28826
# Poissons Ratio (z) = 0.91118 -0.76822
#
# Static dielectric constant tensor:
#      x y z
#    x 1.695240 0.005650 0.114790 
#    y 0.005650 1.669840 -0.029800 
#    z 0.114790 -0.029800 1.694670 
# 
# From -- ./inp_files/383369.got.cif
#   From: 2010.05.17/outbox.cif.g08.bks.cpg/sg2_192_cif.got.tgz:383369.got - 2010.06.03 11:33:40.
