data_PCOD9110448
_publ_section_title
;
Structure prediction by ZEFSAII (Michael W. Deem and Ramdas Pophale) SiO2 
 PCOD9110448
Probable space group: P -1
;
_chemical_formula_sum "Si O2"
_cell_formula_units_Z 12
_cell_length_a 15.320596
_cell_length_b 9.447533
_cell_length_c 8.001327
_cell_angle_alpha 102.906433
_cell_angle_beta 103.271339
_cell_angle_gamma 24.286123
_cell_volume 463.320999
_symmetry_space_group_name_H-M "P -1"
_symmetry_group_IT_number 2
_symmetry_cell_setting 'triclinic'
loop_
_space_group_symop_operation_xyz
x,y,z
-x,-y,-z
loop_
_atom_site_type_symbol
_atom_site_label
_atom_site_fract_x
_atom_site_fract_y
_atom_site_fract_z
Si Si1 0.844761 0.596706 0.482068
Si Si2 0.467640 0.299693 0.637604
Si Si3 0.538995 0.794720 0.752414
Si Si4 0.050456 0.718964 0.093182
Si Si5 0.400077 0.702308 0.836023
Si Si6 0.064094 0.791783 0.752489
O O1 0.970963 0.260900 0.436467
O O2 0.000000 0.500000 0.500000
O O3 0.685728 0.887250 0.631882
O O4 0.689218 0.811760 0.309075
O O5 0.378401 0.378057 0.440610
O O6 0.475766 0.461405 0.682993
O O7 0.307075 0.490701 0.762128
O O8 0.699130 0.675412 0.872952
O O9 0.486254 0.730608 0.822800
O O10 0.001888 0.800429 0.896812
O O11 0.858236 0.917791 0.152725
O O12 0.049539 0.887179 0.201347
O O13 0.500000 0.500000 0.000000
#
# Coordination Sequence:
#
# PCOD9110448 Si02
#       6
#     2   2   2   2   2   2
#     4  10  24  38  62  92 128 165 202 258 312 367
#     4   9  22  38  63  89 120 167 206 255 305 359
#     4  10  23  40  60  98 122 160 212 258 306 364
#     4  10  23  38  67  91 119 168 206 259 304 363
#     4  11  22  40  66  93 126 162 211 256 307 371
#     4  10  20  42  62  89 123 164 210 246 314 375
#
# _framework density 25.899971000000001
#
# number of rings (size 3 to 8) (size 9 to 14) (size 15 to 20)
#    1.000    1.000    0.000    4.000    4.667    4.667 
#    0.000    0.833    0.000    0.000    0.000    0.000 
#    0.000    0.000    0.000    0.000    0.000    0.000 
#
# Total GULP energy -66961.777940 kJ/mol
# GULP energy per Si atom -5580.148162 kJ/mol
# Density = 2.584102 g / cm^3
# Si number density = 25.899971 Si / 1000 Ang^3
#
#
#
# Elastic Constant Matrix: (Units=GPa)
#
#
# Indices 1 2 3 4 5 6 
#
# 1 103.8285 18.9823 7.8506 5.3444 -20.1575 -21.9923
# 2 18.9823 78.0359 18.0503 11.8533 -1.9112 -25.0656
# 3 7.8506 18.0503 50.1816 5.0156 -10.4562 -8.1483
# 4 5.3444 11.8533 5.0156 44.4776 1.3537 6.8145
# 5 -20.1575 -1.9112 -10.4562 1.3537 35.4206 1.2797
# 6 -21.9923 -25.0656 -8.1483 6.8145 1.2797 38.9498
#
#
#
# Elastic Compliance Matrix: (Units=1/GPa)
#
#
# Indices 1 2 3 4 5 6 
#
# 1 0.012799 -0.000337 0.001192 -0.002964 0.007459 0.007533
# 2 -0.000337 0.018692 -0.004209 -0.006298 -0.000621 0.012081
# 3 0.001192 -0.004209 0.023525 -0.002367 0.007376 0.003058
# 4 -0.002964 -0.006298 -0.002367 0.026535 -0.003351 -0.010754
# 5 0.007459 -0.000621 0.007376 -0.003351 0.034575 0.004805
# 6 0.007533 0.012081 0.003058 -0.010754 0.004805 0.040065
#
#
# Mechanical properties :
#
#
# Convention : Reuss Voigt Hill
#
# Bulk Modulus (GPa) = 20.70011 35.75695 28.22853
# Shear Modulus (GPa) = 27.93285 36.24711 32.08998
#
# Velocity S-wave (km/s) = 3.28760 3.74505 3.52376
# Velocity P-wave (km/s) = 4.73506 5.70406 5.24200
#
# Compressibility (1/GPa) = 0.04830891
#
# Stress axis : x y z
#
# Youngs Moduli (GPa) = 78.13228 53.49887 42.50768
#
# Poissons Ratio (x) = 0.01801 -0.05068
# Poissons Ratio (y) = 0.02630 0.17892
# Poissons Ratio (z) = -0.09316 0.22519
#
# Static dielectric constant tensor:
#      x y z
#    x 2.115240 0.274700 0.027100 
#    y 0.274700 2.619210 0.002020 
#    z 0.027100 0.002020 2.050350 
# 
# From -- ./inp_files/268393.got.cif
#   From: 2010.05.17/outbox.cif.g08.bks.cpg/sg2_135_cif.got.tgz:268393.got - 2010.06.03 11:33:40.
