data_PCOD9110378
_publ_section_title
;
Structure prediction by ZEFSAII (Michael W. Deem and Ramdas Pophale) SiO2 
 PCOD9110378
Probable space group: P -1
;
_chemical_formula_sum "Si O2"
_cell_formula_units_Z 14
_cell_length_a 8.910572
_cell_length_b 6.941708
_cell_length_c 18.318590
_cell_angle_alpha 123.607325
_cell_angle_beta 60.850214
_cell_angle_gamma 129.623495
_cell_volume 710.821171
_symmetry_space_group_name_H-M "P -1"
_symmetry_group_IT_number 2
_symmetry_cell_setting 'triclinic'
loop_
_space_group_symop_operation_xyz
x,y,z
-x,-y,-z
loop_
_atom_site_type_symbol
_atom_site_label
_atom_site_fract_x
_atom_site_fract_y
_atom_site_fract_z
Si Si1 0.882631 0.219529 0.335103
Si Si2 0.254243 0.203210 0.312175
Si Si3 0.351695 0.167790 0.812059
Si Si4 0.456176 0.792951 0.374134
Si Si5 0.111414 0.850749 0.413812
Si Si6 0.768924 0.397950 0.026421
Si Si7 0.472387 0.972925 0.120528
O O1 0.053886 0.179969 0.322088
O O2 0.959068 0.532615 0.378955
O O3 0.826698 0.091708 0.240529
O O4 0.674645 0.042065 0.390843
O O5 0.385164 0.513080 0.372919
O O6 0.369729 0.133992 0.209725
O O7 0.202850 0.991843 0.344675
O O8 0.517810 0.277103 0.731343
O O9 0.436585 0.100508 0.848348
O O10 0.279787 0.372564 0.892678
O O11 0.289274 0.875868 0.427820
O O12 0.000000 0.000000 0.500000
O O13 0.686846 0.283113 0.941373
O O14 0.646641 0.157756 0.061987
O O15 0.000000 0.500000 0.000000
#
# Coordination Sequence:
#
# PCOD9110378 Si02
#       7
#     2   2   2   2   2   2   2
#     4   9  22  38  62  92 120 160 208 253 306 373
#     4  11  20  40  66  86 122 168 203 253 310 371
#     4  10  20  42  60  87 124 161 206 248 305 363
#     4   9  21  41  61  89 123 161 204 253 304 373
#     4  11  24  41  64  96 124 158 208 258 312 373
#     4  11  24  39  58  95 124 160 212 254 299 359
#     4  11  22  38  63  87 125 166 202 257 305 353
#
# _framework density 19.695530999999999
#
# number of rings (size 3 to 8) (size 9 to 14) (size 15 to 20)
#    0.857    0.857    2.857    1.286    0.000    8.000 
#    0.000    1.429    0.000    0.000    0.000    0.000 
#    0.000    0.000    0.000    0.000    0.000    0.000 
#
# Total GULP energy -78136.803059 kJ/mol
# GULP energy per Si atom -5581.200218 kJ/mol
# Density = 1.965070 g / cm^3
# Si number density = 19.695531 Si / 1000 Ang^3
#
#
#
# Elastic Constant Matrix: (Units=GPa)
#
#
# Indices 1 2 3 4 5 6 
#
# 1 99.7962 64.0615 31.0122 10.4313 -9.0116 1.0038
# 2 64.0615 110.3415 23.2696 18.4453 5.0047 15.6088
# 3 31.0122 23.2696 60.6583 4.8139 -8.0880 -7.2863
# 4 10.4313 18.4453 4.8139 13.3452 -7.4337 -17.6757
# 5 -9.0116 5.0047 -8.0880 -7.4337 38.9562 -2.6337
# 6 1.0038 15.6088 -7.2863 -17.6757 -2.6337 21.9844
#
#
#
# Elastic Compliance Matrix: (Units=1/GPa)
#
#
# Indices 1 2 3 4 5 6 
#
# 1 0.017132 -0.006290 -0.006122 -0.009541 0.001283 -0.005863
# 2 -0.006290 0.004639 0.002365 0.026994 0.004948 0.020073
# 3 -0.006122 0.002365 0.019013 -0.012399 -0.000485 -0.005125
# 4 -0.009541 0.026994 -0.012399 -0.050604 -0.022381 -0.066206
# 5 0.001283 0.004948 -0.000485 -0.022381 0.019650 -0.019373
# 6 -0.005863 0.020073 -0.005125 -0.066206 -0.019373 -0.025747
#
#
# Mechanical properties :
#
#
# Convention : Reuss Voigt Hill
#
# Bulk Modulus (GPa) = 48.33344 56.38696 52.36020
# Shear Modulus (GPa) = 451.48563 25.02067 238.25315
#
# Velocity S-wave (km/s) = 15.15685 3.56810 11.01048
# Velocity P-wave (km/s) = 18.19067 6.75770 13.72164
#
# Compressibility (1/GPa) = 0.02068961
#
# Stress axis : x y z
#
# Youngs Moduli (GPa) = 58.36872 215.54571 52.59678
#
# Poissons Ratio (x) = 1.35569 0.32202
# Poissons Ratio (y) = 0.36711 -0.12437
# Poissons Ratio (z) = 0.35735 -0.50966
#
# Static dielectric constant tensor:
#      x y z
#    x 1.650950 0.025330 0.009940 
#    y 0.025330 1.700370 -0.014630 
#    z 0.009940 -0.014630 1.713200 
# 
# From -- ./inp_files/55096.got.cif
#   From: 2010.05.17/outbox.cif.g08.bks.cpg/sg2_28_cif.got.tgz:55096.got - 2010.06.03 11:33:40.
