data_PCOD9110437
_publ_section_title
;
Structure prediction by ZEFSAII (Michael W. Deem and Ramdas Pophale) SiO2 
 PCOD9110437
Probable space group: P -1
;
_chemical_formula_sum "Si O2"
_cell_formula_units_Z 12
_cell_length_a 19.755239
_cell_length_b 20.869834
_cell_length_c 7.567856
_cell_angle_alpha 133.900003
_cell_angle_beta 34.957728
_cell_angle_gamma 159.825977
_cell_volume 569.262148
_symmetry_space_group_name_H-M "P -1"
_symmetry_group_IT_number 2
_symmetry_cell_setting 'triclinic'
loop_
_space_group_symop_operation_xyz
x,y,z
-x,-y,-z
loop_
_atom_site_type_symbol
_atom_site_label
_atom_site_fract_x
_atom_site_fract_y
_atom_site_fract_z
Si Si1 0.693865 0.271309 0.676891
Si Si2 0.067970 0.287875 0.745750
Si Si3 0.097561 0.857896 0.546563
Si Si4 0.773178 0.923320 0.592363
Si Si5 0.364768 0.359538 0.684213
Si Si6 0.643345 0.052700 0.502043
O O1 0.605885 0.133498 0.737048
O O2 0.000000 0.500000 0.500000
O O3 0.600480 0.164388 0.485856
O O4 0.507785 0.231532 0.024697
O O5 0.382517 0.511675 0.508111
O O6 0.962220 0.241846 0.689626
O O7 0.000403 0.136436 0.606940
O O8 0.895969 0.211313 0.127870
O O9 0.276691 0.933577 0.456221
O O10 0.215063 0.029052 0.540772
O O11 0.815688 0.694769 0.924704
O O12 0.809322 0.843952 0.381572
O O13 0.500000 0.500000 0.500000
#
# Coordination Sequence:
#
# PCOD9110437 Si02
#       6
#     2   2   2   2   2   2
#     4  10  21  40  64  86 120 158 204 249 293 362
#     4   9  21  40  59  92 124 155 197 247 297 357
#     4  10  22  41  60  93 123 158 197 249 299 355
#     4   9  23  40  58  90 124 154 203 247 299 351
#     4  12  21  38  66  89 123 163 199 242 300 362
#     4  10  20  42  62  87 122 159 194 251 305 343
#
# _framework density 21.079919
#
# number of rings (size 3 to 8) (size 9 to 14) (size 15 to 20)
#    1.000    1.000    1.667    2.000    0.000    1.333 
#    3.000    0.833    0.000    0.000    0.000    0.000 
#    0.000    0.000    0.000    0.000    0.000    0.000 
#
# Total GULP energy -66877.239337 kJ/mol
# GULP energy per Si atom -5573.103278 kJ/mol
# Density = 2.103194 g / cm^3
# Si number density = 21.079919 Si / 1000 Ang^3
#
#
#
# Elastic Constant Matrix: (Units=GPa)
#
#
# Indices 1 2 3 4 5 6 
#
# 1 118.0556 1.8752 -1.7798 11.4773 3.4610 1.8976
# 2 1.8752 53.0845 4.5268 -5.5909 -1.7803 13.4204
# 3 -1.7798 4.5268 52.4699 -0.1899 9.7309 1.3413
# 4 11.4773 -5.5909 -0.1899 26.0336 -1.9455 -10.7541
# 5 3.4610 -1.7803 9.7309 -1.9455 19.6144 -5.3342
# 6 1.8976 13.4204 1.3413 -10.7541 -5.3342 27.3454
#
#
#
# Elastic Compliance Matrix: (Units=1/GPa)
#
#
# Indices 1 2 3 4 5 6 
#
# 1 0.009233 -0.000251 0.001106 -0.005896 -0.003772 -0.003626
# 2 -0.000251 0.021648 -0.001620 0.000487 0.000053 -0.010326
# 3 0.001106 -0.001620 0.021650 -0.003300 -0.012521 -0.004084
# 4 -0.005896 0.000487 -0.003300 0.051871 0.014261 0.023513
# 5 -0.003772 0.000053 -0.012521 0.014261 0.064455 0.019032
# 6 -0.003626 -0.010326 -0.004084 0.023513 0.019032 0.055048
#
#
# Mechanical properties :
#
#
# Convention : Reuss Voigt Hill
#
# Bulk Modulus (GPa) = 19.60764 25.87271 22.74017
# Shear Modulus (GPa) = 20.62379 29.19787 24.91083
#
# Velocity S-wave (km/s) = 3.13127 3.72574 3.44136
# Velocity P-wave (km/s) = 4.73233 5.55053 5.15768
#
# Compressibility (1/GPa) = 0.05100052
#
# Stress axis : x y z
#
# Youngs Moduli (GPa) = 108.30318 46.19263 46.18848
#
# Poissons Ratio (x) = 0.01160 -0.05107
# Poissons Ratio (y) = 0.02720 0.07484
# Poissons Ratio (z) = -0.11975 0.07485
#
# Static dielectric constant tensor:
#      x y z
#    x 1.781260 0.029350 -0.007640 
#    y 0.029350 1.773260 -0.016510 
#    z -0.007640 -0.016510 1.805020 
# 
# From -- ./inp_files/165903.got.cif
#   From: 2010.05.17/outbox.cif.g08.bks.cpg/sg2_83_cif.got.tgz:165903.got - 2010.06.03 11:33:40.
