data_PCOD9110521
_publ_section_title
;
Structure prediction by ZEFSAII (Michael W. Deem and Ramdas Pophale) SiO2 
 PCOD9110521
Probable space group: P -1
;
_chemical_formula_sum "Si O2"
_cell_formula_units_Z 16
_cell_length_a 9.114359
_cell_length_b 21.969989
_cell_length_c 5.317109
_cell_angle_alpha 116.120448
_cell_angle_beta 58.615283
_cell_angle_gamma 131.705319
_cell_volume 671.200807
_symmetry_space_group_name_H-M "P -1"
_symmetry_group_IT_number 2
_symmetry_cell_setting 'triclinic'
loop_
_space_group_symop_operation_xyz
x,y,z
-x,-y,-z
loop_
_atom_site_type_symbol
_atom_site_label
_atom_site_fract_x
_atom_site_fract_y
_atom_site_fract_z
Si Si1 0.235108 0.178683 0.068742
Si Si2 0.088841 0.979532 0.619880
Si Si3 0.728118 0.305607 0.823310
Si Si4 0.464594 0.448811 0.689709
Si Si5 0.067725 0.842293 0.082961
Si Si6 0.520093 0.048173 0.324077
Si Si7 0.797843 0.408864 0.443273
Si Si8 0.947329 0.721775 0.359967
O O1 0.485691 0.229504 0.952292
O O2 0.166405 0.234099 0.367890
O O3 0.087458 0.080953 0.120135
O O4 0.150965 0.178994 0.867537
O O5 0.332282 0.058885 0.552178
O O6 0.127908 0.912293 0.359465
O O7 0.000000 0.000000 0.500000
O O8 0.813838 0.364482 0.102202
O O9 0.737400 0.353374 0.648895
O O10 0.890829 0.280055 0.608344
O O11 0.500000 0.500000 0.500000
O O12 0.618675 0.420389 0.535520
O O13 0.232755 0.369192 0.725844
O O14 0.500000 0.500000 0.000000
O O15 0.239201 0.877182 0.776091
O O16 0.066731 0.771671 0.095229
O O17 0.500000 0.000000 0.500000
O O18 0.500000 0.000000 0.000000
O O19 0.000000 0.500000 0.500000
#
# Coordination Sequence:
#
# PCOD9110521 Si02
#       8
#     2   2   2   2   2   2   2   2
#     4  11  24  46  68 102 143 186 233 295 354 425
#     4  10  23  42  66 100 137 178 234 292 351 419
#     4  12  27  45  72 105 145 186 237 295 351 420
#     4  12  25  44  73 104 141 190 234 287 352 414
#     4  10  23  43  69  94 140 184 231 291 352 426
#     4  10  20  42  63  93 126 173 221 274 340 407
#     4  12  25  48  72 107 145 182 241 299 345 421
#     4  11  26  45  69 102 140 189 235 290 358 422
#
# _framework density 23.837872999999998
#
# number of rings (size 3 to 8) (size 9 to 14) (size 15 to 20)
#    0.000    1.000    2.500    3.375    7.000    0.500 
#    2.250    0.000    0.000    0.000    0.000    0.000 
#    0.000    0.000    0.000    0.000    0.000    0.000 
#
# Total GULP energy -89290.767744 kJ/mol
# GULP energy per Si atom -5580.672984 kJ/mol
# Density = 2.378362 g / cm^3
# Si number density = 23.837873 Si / 1000 Ang^3
#
#
#
# Elastic Constant Matrix: (Units=GPa)
#
#
# Indices 1 2 3 4 5 6 
#
# 1 164.9676 24.5122 -3.4276 -26.9198 -8.0987 -8.0740
# 2 24.5122 92.1522 -13.6928 -14.6780 -0.2495 -12.8137
# 3 -3.4276 -13.6928 47.2848 -8.1933 7.3180 -11.1884
# 4 -26.9198 -14.6780 -8.1933 46.4046 2.2501 12.5307
# 5 -8.0987 -0.2495 7.3180 2.2501 53.6329 -14.7479
# 6 -8.0740 -12.8137 -11.1884 12.5307 -14.7479 49.3910
#
#
#
# Elastic Compliance Matrix: (Units=1/GPa)
#
#
# Indices 1 2 3 4 5 6 
#
# 1 0.006896 -0.001087 0.000766 0.003654 0.000875 0.000353
# 2 -0.001087 0.012920 0.005071 0.003417 0.000012 0.003460
# 3 0.000766 0.005071 0.025121 0.005182 -0.002077 0.005197
# 4 0.003654 0.003417 0.005182 0.027151 -0.002660 -0.005025
# 5 0.000875 0.000012 -0.002077 -0.002660 0.020993 0.006619
# 6 0.000353 0.003460 0.005197 -0.005025 0.006619 0.025630
#
#
# Mechanical properties :
#
#
# Convention : Reuss Voigt Hill
#
# Bulk Modulus (GPa) = 18.36947 35.46538 26.91742
# Shear Modulus (GPa) = 39.26027 49.68653 44.47340
#
# Velocity S-wave (km/s) = 4.06269 4.57042 4.32402
# Velocity P-wave (km/s) = 5.45252 6.53925 6.02045
#
# Compressibility (1/GPa) = 0.05443816
#
# Stress axis : x y z
#
# Youngs Moduli (GPa) = 145.01679 77.40217 39.80664
#
# Poissons Ratio (x) = 0.08413 -0.03051
# Poissons Ratio (y) = 0.15762 -0.20187
# Poissons Ratio (z) = -0.11114 -0.39252
#
# Static dielectric constant tensor:
#      x y z
#    x 1.886080 0.054940 -0.140980 
#    y 0.054940 1.990570 0.034780 
#    z -0.140980 0.034780 2.062000 
# 
# From -- ./inp_files/53401.got.cif
#   From: 2010.05.17/outbox.cif.g08.bks.cpg/sg2_27_cif.got.tgz:53401.got - 2010.06.03 11:33:40.
