data_PCOD9110747
_publ_section_title
;
Structure prediction by ZEFSAII (Michael W. Deem and Ramdas Pophale) SiO2 
 PCOD9110747
Probable space group: P -1
;
_chemical_formula_sum "Si O2"
_cell_formula_units_Z 16
_cell_length_a 13.882817
_cell_length_b 12.828789
_cell_length_c 8.320499
_cell_angle_alpha 124.483550
_cell_angle_beta 109.512230
_cell_angle_gamma 114.797101
_cell_volume 715.864413
_symmetry_space_group_name_H-M "P -1"
_symmetry_group_IT_number 2
_symmetry_cell_setting 'triclinic'
loop_
_space_group_symop_operation_xyz
x,y,z
-x,-y,-z
loop_
_atom_site_type_symbol
_atom_site_label
_atom_site_fract_x
_atom_site_fract_y
_atom_site_fract_z
Si Si1 0.371892 0.778337 0.809873
Si Si2 0.011523 0.409393 0.282787
Si Si3 0.093902 0.963869 0.064458
Si Si4 0.437004 0.356665 0.489218
Si Si5 0.520043 0.684191 0.968601
Si Si6 0.312753 0.790892 0.158465
Si Si7 0.654594 0.439831 0.917838
Si Si8 0.157964 0.119564 0.589570
O O1 0.192083 0.600230 0.471252
O O2 0.454489 0.720819 0.834678
O O3 0.334078 0.786982 0.977551
O O4 0.500000 0.000000 0.000000
O O5 0.000000 0.500000 0.500000
O O6 0.006661 0.261456 0.216275
O O7 0.841809 0.263656 0.960873
O O8 0.259837 0.121757 0.188783
O O9 0.127076 0.013314 0.316268
O O10 0.000000 0.000000 0.000000
O O11 0.500000 0.500000 0.500000
O O12 0.568628 0.384060 0.651607
O O13 0.428025 0.460715 0.706716
O O14 0.483435 0.697565 0.138944
O O15 0.710255 0.832417 0.191710
O O16 0.259361 0.610741 0.061914
O O17 0.500000 0.000000 0.500000
O O18 0.764677 0.667610 0.215163
O O19 0.000000 0.000000 0.500000
#
# Coordination Sequence:
#
# PCOD9110747 Si02
#       8
#     2   2   2   2   2   2   2   2
#     4  10  23  43  66  93 132 179 229 287 345 410
#     4  10  24  44  68 101 140 181 226 285 360 416
#     4  12  25  41  68  97 142 176 229 288 351 416
#     4  11  22  37  64 101 128 170 226 279 338 413
#     4  10  20  42  66  85 135 178 223 282 355 398
#     4  10  22  41  71  95 131 181 228 275 347 421
#     4  10  20  42  66  87 129 180 221 275 347 407
#     4  11  24  41  64 100 130 181 233 286 344 412
#
# _framework density 22.350603
#
# number of rings (size 3 to 8) (size 9 to 14) (size 15 to 20)
#    0.000    1.500    2.500    2.250    8.750    4.000 
#    2.250    0.625    0.000    0.000    0.000    0.000 
#    0.000    0.000    0.000    0.000    0.000    0.000 
#
# Total GULP energy -89311.065459 kJ/mol
# GULP energy per Si atom -5581.941591 kJ/mol
# Density = 2.229973 g / cm^3
# Si number density = 22.350603 Si / 1000 Ang^3
#
#
#
# Elastic Constant Matrix: (Units=GPa)
#
#
# Indices 1 2 3 4 5 6 
#
# 1 87.1080 43.8438 34.5400 10.2350 25.7069 -19.7970
# 2 43.8438 111.7466 28.3145 10.9842 16.1517 -9.3005
# 3 34.5400 28.3145 90.4044 15.6387 18.7318 -2.4308
# 4 10.2350 10.9842 15.6387 38.0141 -0.4916 0.9494
# 5 25.7069 16.1517 18.7318 -0.4916 41.2772 1.9249
# 6 -19.7970 -9.3005 -2.4308 0.9494 1.9249 43.8113
#
#
#
# Elastic Compliance Matrix: (Units=1/GPa)
#
#
# Indices 1 2 3 4 5 6 
#
# 1 0.020407 -0.004698 -0.003570 -0.003006 -0.009684 0.008516
# 2 -0.004698 0.011443 -0.001312 -0.001522 -0.000989 0.000310
# 3 -0.003570 -0.001312 0.014403 -0.004614 -0.003816 -0.000825
# 4 -0.003006 -0.001522 -0.004614 0.029588 0.005045 -0.002800
# 5 -0.009684 -0.000989 -0.003816 0.005045 0.032732 -0.006345
# 6 0.008516 0.000310 -0.000825 -0.002800 -0.006345 0.027033
#
#
# Mechanical properties :
#
#
# Convention : Reuss Voigt Hill
#
# Bulk Modulus (GPa) = 36.91119 55.85060 46.38089
# Shear Modulus (GPa) = 30.52562 36.79124 33.65843
#
# Velocity S-wave (km/s) = 3.69963 4.06161 3.88484
# Velocity P-wave (km/s) = 5.89917 6.85844 6.39681
#
# Compressibility (1/GPa) = 0.02709206
#
# Stress axis : x y z
#
# Youngs Moduli (GPa) = 49.00353 87.38986 69.43060
#
# Poissons Ratio (x) = 0.41057 0.24784
# Poissons Ratio (y) = 0.23022 0.09113
# Poissons Ratio (z) = 0.17493 0.11470
#
# Static dielectric constant tensor:
#      x y z
#    x 1.852140 0.020680 0.006630 
#    y 0.020680 1.823350 -0.028480 
#    z 0.006630 -0.028480 1.924440 
# 
# From -- ./inp_files/308378.got.cif
#   From: 2010.05.17/outbox.cif.g08.bks.cpg/sg2_155_cif.got.tgz:308378.got - 2010.06.03 11:33:40.
