data_PCOD9110923
_publ_section_title
;
Structure prediction by ZEFSAII (Michael W. Deem and Ramdas Pophale) SiO2 
 PCOD9110923
Probable space group: P -1
;
_chemical_formula_sum "Si O2"
_cell_formula_units_Z 16
_cell_length_a 21.780651
_cell_length_b 27.170725
_cell_length_c 9.810519
_cell_angle_alpha 26.869159
_cell_angle_beta 151.821136
_cell_angle_gamma 161.339832
_cell_volume 812.624764
_symmetry_space_group_name_H-M "P -1"
_symmetry_group_IT_number 2
_symmetry_cell_setting 'triclinic'
loop_
_space_group_symop_operation_xyz
x,y,z
-x,-y,-z
loop_
_atom_site_type_symbol
_atom_site_label
_atom_site_fract_x
_atom_site_fract_y
_atom_site_fract_z
Si Si1 0.272556 0.887009 0.357267
Si Si2 0.976276 0.959816 0.894355
Si Si3 0.015381 0.512724 0.835546
Si Si4 0.600299 0.603429 0.079546
Si Si5 0.674434 0.923507 0.242204
Si Si6 0.558254 0.250679 0.525344
Si Si7 0.385008 0.612955 0.232352
Si Si8 0.619491 0.870790 0.814991
O O1 0.133931 0.696523 0.572769
O O2 0.500000 0.000000 0.500000
O O3 0.284295 0.966980 0.317937
O O4 0.227270 0.927421 0.033834
O O5 0.849272 0.964974 0.548184
O O6 0.831869 0.764382 0.097201
O O7 0.000000 0.000000 0.000000
O O8 0.192888 0.087915 0.941638
O O9 0.792957 0.379715 0.671663
O O10 0.158795 0.505741 0.083722
O O11 0.000000 0.500000 0.000000
O O12 0.583926 0.496671 0.421306
O O13 0.500000 0.500000 0.000000
O O14 0.506525 0.661685 0.795293
O O15 0.542481 0.875790 0.231496
O O16 0.525449 0.758331 0.263650
O O17 0.470921 0.160635 0.431498
O O18 0.460090 0.712363 0.992547
#
# Coordination Sequence:
#
# PCOD9110923 Si02
#       8
#     2   2   2   2   2   2   2   2
#     4  11  23  44  67  94 129 175 223 270 325 394
#     4  11  22  42  67  97 133 170 220 271 337 390
#     4  12  23  43  71  94 127 180 226 266 324 403
#     4  11  21  41  68  93 127 175 221 266 323 400
#     4  10  20  42  67  92 132 167 220 271 321 395
#     4  11  23  43  66  97 134 170 217 273 332 390
#     4  11  23  42  66  96 134 169 222 273 326 391
#     4  11  25  42  66  95 139 166 213 282 329 380
#
# _framework density 19.689285000000002
#
# number of rings (size 3 to 8) (size 9 to 14) (size 15 to 20)
#    0.000    1.000    8.750    0.000    3.500    4.000 
#    2.250    2.500    0.000    0.000    0.000    0.000 
#    0.000    0.000    0.000    0.000    0.000    0.000 
#
# Total GULP energy -89291.878733 kJ/mol
# GULP energy per Si atom -5580.742421 kJ/mol
# Density = 1.964447 g / cm^3
# Si number density = 19.689285 Si / 1000 Ang^3
#
#
#
# Elastic Constant Matrix: (Units=GPa)
#
#
# Indices 1 2 3 4 5 6 
#
# 1 92.0267 24.6083 22.7152 17.0070 -15.3802 5.6814
# 2 24.6083 91.9732 31.3623 21.9813 -12.8810 14.9792
# 3 22.7152 31.3623 80.8674 8.0874 -11.7445 -10.2402
# 4 17.0070 21.9813 8.0874 39.2339 5.4854 6.3639
# 5 -15.3802 -12.8810 -11.7445 5.4854 33.7059 12.0690
# 6 5.6814 14.9792 -10.2402 6.3639 12.0690 28.4710
#
#
#
# Elastic Compliance Matrix: (Units=1/GPa)
#
#
# Indices 1 2 3 4 5 6 
#
# 1 0.014699 0.001518 -0.003602 -0.006605 0.009878 -0.007738
# 2 0.001518 0.019852 -0.007405 -0.009363 0.013293 -0.016953
# 3 -0.003602 -0.007405 0.017286 0.000612 -0.002806 0.011885
# 4 -0.006605 -0.009363 0.000612 0.034647 -0.013628 0.004496
# 5 0.009878 0.013293 -0.002806 -0.013628 0.050667 -0.028406
# 6 -0.007738 -0.016953 0.011885 0.004496 -0.028406 0.060898
#
#
# Mechanical properties :
#
#
# Convention : Reuss Voigt Hill
#
# Bulk Modulus (GPa) = 30.43423 46.91546 38.67484
# Shear Modulus (GPa) = 21.93158 32.69425 27.31292
#
# Velocity S-wave (km/s) = 3.34111 4.07936 3.72855
# Velocity P-wave (km/s) = 5.51134 6.78733 6.18234
#
# Compressibility (1/GPa) = 0.03285774
#
# Stress axis : x y z
#
# Youngs Moduli (GPa) = 68.03186 50.37211 57.84998
#
# Poissons Ratio (x) = -0.07646 0.20839
# Poissons Ratio (y) = -0.10326 0.42840
# Poissons Ratio (z) = 0.24507 0.37303
#
# Static dielectric constant tensor:
#      x y z
#    x 1.659760 -0.008040 0.035700 
#    y -0.008040 1.665240 -0.019340 
#    z 0.035700 -0.019340 1.802410 
# 
# From -- ./inp_files/205744.got.cif
#   From: 2010.05.17/outbox.cif.g08.bks.cpg/sg2_103_cif.got.tgz:205744.got - 2010.06.03 11:33:40.
