data_PCOD9110594
_publ_section_title
;
Structure prediction by ZEFSAII (Michael W. Deem and Ramdas Pophale) SiO2 
 PCOD9110594
Probable space group: P -1
;
_chemical_formula_sum "Si O2"
_cell_formula_units_Z 15
_cell_length_a 7.907206
_cell_length_b 8.942397
_cell_length_c 13.737459
_cell_angle_alpha 92.558749
_cell_angle_beta 104.789743
_cell_angle_gamma 46.843428
_cell_volume 673.392548
_symmetry_space_group_name_H-M "P -1"
_symmetry_group_IT_number 2
_symmetry_cell_setting 'triclinic'
loop_
_space_group_symop_operation_xyz
x,y,z
-x,-y,-z
loop_
_atom_site_type_symbol
_atom_site_label
_atom_site_fract_x
_atom_site_fract_y
_atom_site_fract_z
Si Si1 0.134957 0.789534 0.648007
Si Si2 0.773602 0.586081 0.404201
Si Si3 0.500000 0.000000 0.000000
Si Si4 0.721898 0.355250 0.951721
Si Si5 0.541886 0.963460 0.688287
Si Si6 0.382808 0.823733 0.512278
Si Si7 0.221064 0.005124 0.127416
Si Si8 0.542894 0.227884 0.166402
O O1 0.169212 0.591791 0.656939
O O2 0.307949 0.753992 0.585055
O O3 0.226109 0.818946 0.759433
O O4 0.866927 0.981244 0.572254
O O5 0.562315 0.662272 0.450265
O O6 0.000000 0.500000 0.500000
O O7 0.682710 0.786147 0.339082
O O8 0.426787 0.964045 0.091333
O O9 0.592143 0.097974 0.075549
O O10 0.676750 0.527202 0.883507
O O11 0.732764 0.198947 0.883677
O O12 0.500000 0.500000 0.000000
O O13 0.969572 0.204293 0.045552
O O14 0.519068 0.885554 0.582796
O O15 0.756185 0.942291 0.759110
O O16 0.531041 0.836794 0.759781
#
# Coordination Sequence:
#
# PCOD9110594 Si02
#       8
#     2   2   1   2   2   2   2   2
#     4  10  22  42  66  92 127 170 211 259 319 380
#     4  12  23  40  65  95 129 168 214 263 315 375
#     4  10  20  42  64  92 126 168 206 268 312 370
#     4  11  22  43  66  93 126 172 211 264 321 375
#     4  10  22  41  62  95 129 168 212 264 314 375
#     4  10  22  43  65  90 131 167 208 264 317 379
#     4  10  23  42  67  94 130 161 220 260 316 385
#     4  10  22  42  66  94 130 169 214 261 322 378
#
# _framework density 22.275266999999999
#
# number of rings (size 3 to 8) (size 9 to 14) (size 15 to 20)
#    0.000    1.600    2.667    1.600    0.000    3.200 
#    4.800    2.667    0.000    0.000    0.000    0.000 
#    0.000    0.000    0.000    0.000    0.000    0.000 
#
# Total GULP energy -83504.824388 kJ/mol
# GULP energy per Si atom -5566.988293 kJ/mol
# Density = 2.222457 g / cm^3
# Si number density = 22.275267 Si / 1000 Ang^3
#
#
#
# Elastic Constant Matrix: (Units=GPa)
#
#
# Indices 1 2 3 4 5 6 
#
# 1 60.4229 38.3028 33.5082 -5.1222 8.1747 17.4605
# 2 38.3028 113.3289 68.2657 -6.9304 23.3724 25.7525
# 3 33.5082 68.2657 129.6052 8.5202 29.2667 24.8709
# 4 -5.1222 -6.9304 8.5202 43.7202 16.0900 0.9280
# 5 8.1747 23.3724 29.2667 16.0900 53.5495 6.2899
# 6 17.4605 25.7525 24.8709 0.9280 6.2899 35.0240
#
#
#
# Elastic Compliance Matrix: (Units=1/GPa)
#
#
# Indices 1 2 3 4 5 6 
#
# 1 0.022906 -0.004672 -0.002372 0.002614 -0.000203 -0.006332
# 2 -0.004672 0.016065 -0.005732 0.004694 -0.004010 -0.004816
# 3 -0.002372 -0.005732 0.012782 -0.002505 -0.003008 -0.003073
# 4 0.002614 0.004694 -0.002505 0.027842 -0.009202 -0.002061
# 5 -0.000203 -0.004010 -0.003008 -0.009202 0.024749 0.000985
# 6 -0.006332 -0.004816 -0.003073 -0.002061 0.000985 0.037310
#
#
# Mechanical properties :
#
#
# Convention : Reuss Voigt Hill
#
# Bulk Modulus (GPa) = 38.16912 64.83451 51.50181
# Shear Modulus (GPa) = 28.41884 37.34410 32.88147
#
# Velocity S-wave (km/s) = 3.57571 4.09893 3.84623
# Velocity P-wave (km/s) = 5.84979 7.18129 6.54946
#
# Compressibility (1/GPa) = 0.02619919
#
# Stress axis : x y z
#
# Youngs Moduli (GPa) = 43.65617 62.24882 78.23539
#
# Poissons Ratio (x) = 0.29085 0.18558
# Poissons Ratio (y) = 0.20398 0.44847
# Poissons Ratio (z) = 0.10356 0.35683
#
# Static dielectric constant tensor:
#      x y z
#    x 1.877350 -0.001680 0.001780 
#    y -0.001680 1.790330 0.001010 
#    z 0.001780 0.001010 1.822180 
# 
# From -- ./inp_files/105699.got.cif
#   From: 2010.05.17/outbox.cif.g08.bks.cpg/sg2_53_cif.got.tgz:105699.got - 2010.06.03 11:33:40.
