data_PCOD9110899
_publ_section_title
;
Structure prediction by ZEFSAII (Michael W. Deem and Ramdas Pophale) SiO2 
 PCOD9110899
Probable space group: P -1
;
_chemical_formula_sum "Si O2"
_cell_formula_units_Z 16
_cell_length_a 12.768995
_cell_length_b 9.094027
_cell_length_c 8.050008
_cell_angle_alpha 47.851059
_cell_angle_beta 84.546562
_cell_angle_gamma 81.326891
_cell_volume 685.099035
_symmetry_space_group_name_H-M "P -1"
_symmetry_group_IT_number 2
_symmetry_cell_setting 'triclinic'
loop_
_space_group_symop_operation_xyz
x,y,z
-x,-y,-z
loop_
_atom_site_type_symbol
_atom_site_label
_atom_site_fract_x
_atom_site_fract_y
_atom_site_fract_z
Si Si1 0.848850 0.195305 0.580663
Si Si2 0.458774 0.422110 0.333905
Si Si3 0.629934 0.142275 0.677476
Si Si4 0.495652 0.814933 0.831321
Si Si5 0.986934 0.557348 0.767157
Si Si6 0.785237 0.456040 0.717531
Si Si7 0.087972 0.139543 0.936394
Si Si8 0.717428 0.059863 0.100838
O O1 0.731401 0.205325 0.515471
O O2 0.833659 0.348925 0.623769
O O3 0.945916 0.260644 0.415519
O O4 0.871999 0.970088 0.816150
O O5 0.535199 0.319895 0.541330
O O6 0.484513 0.276874 0.282238
O O7 0.333551 0.442057 0.375138
O O8 0.488316 0.633134 0.099134
O O9 0.666744 0.100436 0.893074
O O10 0.587268 0.944230 0.769343
O O11 0.382171 0.951708 0.758193
O O12 0.866394 0.582441 0.701784
O O13 0.000000 0.500000 0.000000
O O14 0.040574 0.363843 0.803738
O O15 0.768731 0.262449 0.981693
O O16 0.186234 0.112068 0.814025
O O17 0.000000 0.000000 0.000000
#
# Coordination Sequence:
#
# PCOD9110899 Si02
#       8
#     2   2   2   2   2   2   2   2
#     4  10  24  41  65  93 126 168 225 260 308 406
#     4  10  22  38  62  89 130 168 197 264 328 363
#     4  10  21  39  58  90 123 161 211 258 306 380
#     4  10  21  38  59  91 128 162 209 257 312 383
#     4  12  25  42  67  97 130 164 215 278 326 369
#     4   9  20  40  60  91 126 165 217 255 307 398
#     4  10  20  42  67  88 126 176 210 259 322 374
#     4   9  20  37  64  92 121 162 219 255 302 395
#
# _framework density 23.354286999999999
#
# number of rings (size 3 to 8) (size 9 to 14) (size 15 to 20)
#    0.000    2.250    2.500    1.125    0.000   13.000 
#    0.000    0.000    0.000    0.000    0.000    0.000 
#    0.000    0.000    0.000    0.000    0.000    0.000 
#
# Total GULP energy -89436.769460 kJ/mol
# GULP energy per Si atom -5589.798091 kJ/mol
# Density = 2.330113 g / cm^3
# Si number density = 23.354287 Si / 1000 Ang^3
#
#
#
# Elastic Constant Matrix: (Units=GPa)
#
#
# Indices 1 2 3 4 5 6 
#
# 1 159.4640 20.5947 39.4327 -7.4604 -8.6517 12.0999
# 2 20.5947 41.2825 3.3965 -13.9087 -1.9743 12.2963
# 3 39.4327 3.3965 76.6528 -5.4823 -8.1511 8.7044
# 4 -7.4604 -13.9087 -5.4823 24.5859 -2.3265 -0.0859
# 5 -8.6517 -1.9743 -8.1511 -2.3265 42.9729 -17.6628
# 6 12.0999 12.2963 8.7044 -0.0859 -17.6628 27.2398
#
#
#
# Elastic Compliance Matrix: (Units=1/GPa)
#
#
# Indices 1 2 3 4 5 6 
#
# 1 0.007686 -0.003590 -0.003743 -0.000483 0.000546 -0.000245
# 2 -0.003590 0.038609 0.003360 0.020901 -0.005593 -0.020468
# 3 -0.003743 0.003360 0.015712 0.004333 0.000842 -0.004315
# 4 -0.000483 0.020901 0.004333 0.053318 0.000384 -0.010188
# 5 0.000546 -0.005593 0.000842 0.000384 0.032900 0.023348
# 6 -0.000245 -0.020468 -0.004315 -0.010188 0.023348 0.062545
#
#
# Mechanical properties :
#
#
# Convention : Reuss Voigt Hill
#
# Bulk Modulus (GPa) = 18.49763 44.91632 31.70697
# Shear Modulus (GPa) = 21.12050 33.22474 27.17262
#
# Velocity S-wave (km/s) = 3.01051 3.77588 3.41471
# Velocity P-wave (km/s) = 4.47458 6.18741 5.39935
#
# Compressibility (1/GPa) = 0.05406098
#
# Stress axis : x y z
#
# Youngs Moduli (GPa) = 130.10749 25.90091 63.64488
#
# Poissons Ratio (x) = 0.09298 0.23825
# Poissons Ratio (y) = 0.46705 -0.21387
# Poissons Ratio (z) = 0.48706 -0.08704
#
# Static dielectric constant tensor:
#      x y z
#    x 1.932870 -0.021190 0.013290 
#    y -0.021190 1.902440 -0.012790 
#    z 0.013290 -0.012790 1.933280 
# 
# From -- ./inp_files/241994.got.cif
#   From: 2010.05.17/outbox.cif.g08.bks.cpg/sg2_121_cif.got.tgz:241994.got - 2010.06.03 11:33:40.
