data_PCOD9110557
_publ_section_title
;
Structure prediction by ZEFSAII (Michael W. Deem and Ramdas Pophale) SiO2 
 PCOD9110557
Probable space group: P -1
;
_chemical_formula_sum "Si O2"
_cell_formula_units_Z 16
_cell_length_a 20.390399
_cell_length_b 7.565253
_cell_length_c 7.869555
_cell_angle_alpha 71.656523
_cell_angle_beta 67.259450
_cell_angle_gamma 125.013398
_cell_volume 645.466506
_symmetry_space_group_name_H-M "P -1"
_symmetry_group_IT_number 2
_symmetry_cell_setting 'triclinic'
loop_
_space_group_symop_operation_xyz
x,y,z
-x,-y,-z
loop_
_atom_site_type_symbol
_atom_site_label
_atom_site_fract_x
_atom_site_fract_y
_atom_site_fract_z
Si Si1 0.994302 0.599048 0.300345
Si Si2 0.823326 0.608451 0.747010
Si Si3 0.457950 0.703846 0.674516
Si Si4 0.386924 0.666322 0.135419
Si Si5 0.027317 0.300718 0.205417
Si Si6 0.604151 0.719910 0.688696
Si Si7 0.188079 0.576921 0.637017
Si Si8 0.233083 0.308297 0.857114
O O1 0.974112 0.393800 0.246656
O O2 0.000000 0.500000 0.500000
O O3 0.890613 0.533869 0.412434
O O4 0.118466 0.953270 0.036800
O O5 0.714154 0.395991 0.792780
O O6 0.873243 0.522312 0.802522
O O7 0.791209 0.647232 0.946611
O O8 0.926696 0.944815 0.458188
O O9 0.554162 0.741375 0.577021
O O10 0.500000 0.000000 0.500000
O O11 0.415525 0.643973 0.927491
O O12 0.350809 0.439774 0.736308
O O13 0.359247 0.417765 0.340029
O O14 0.500000 0.000000 0.000000
O O15 0.089461 0.388391 0.940415
O O16 0.712728 0.061925 0.549660
O O17 0.500000 0.500000 0.000000
O O18 0.245513 0.496884 0.647083
#
# Coordination Sequence:
#
# PCOD9110557 Si02
#       8
#     2   2   2   2   2   2   2   2
#     4  12  24  38  62  98 126 157 206 260 308 362
#     4   9  19  40  64  83 126 168 200 244 316 370
#     4  10  20  42  64  87 118 164 207 251 311 360
#     4  10  22  40  61  90 122 158 207 256 304 366
#     4  10  21  40  62  90 120 168 202 251 308 368
#     4  10  22  40  66  88 121 167 207 249 314 369
#     4  11  23  42  63  88 127 164 209 250 312 375
#     4  10  21  40  65  89 124 163 208 254 302 370
#
# _framework density 24.788274999999999
#
# number of rings (size 3 to 8) (size 9 to 14) (size 15 to 20)
#    0.000    1.750    2.500    1.500    3.500    1.000 
#    6.750    0.625    0.000    0.000    0.000    0.000 
#    0.000    0.000    0.000    0.000    0.000    0.000 
#
# Total GULP energy -89472.451095 kJ/mol
# GULP energy per Si atom -5592.028193 kJ/mol
# Density = 2.473186 g / cm^3
# Si number density = 24.788275 Si / 1000 Ang^3
#
#
#
# Elastic Constant Matrix: (Units=GPa)
#
#
# Indices 1 2 3 4 5 6 
#
# 1 200.8166 44.4405 20.3061 -24.6252 10.1459 28.7597
# 2 44.4405 60.1382 11.8299 -13.7411 6.3815 20.5229
# 3 20.3061 11.8299 55.6244 -14.6891 16.5928 22.4163
# 4 -24.6252 -13.7411 -14.6891 57.8496 1.8931 -3.7269
# 5 10.1459 6.3815 16.5928 1.8931 39.7459 -3.3828
# 6 28.7597 20.5229 22.4163 -3.7269 -3.3828 50.8939
#
#
#
# Elastic Compliance Matrix: (Units=1/GPa)
#
#
# Indices 1 2 3 4 5 6 
#
# 1 0.006329 -0.003364 0.000259 0.001861 -0.001468 -0.002296
# 2 -0.003364 0.022981 0.002199 0.004201 -0.004659 -0.008337
# 3 0.000259 0.002199 0.029538 0.007672 -0.014344 -0.014435
# 4 0.001861 0.004201 0.007672 0.020893 -0.005771 -0.004979
# 5 -0.001468 -0.004659 -0.014344 -0.005771 0.033467 0.010828
# 6 -0.002296 -0.008337 -0.014435 -0.004979 0.010828 0.031021
#
#
# Mechanical properties :
#
#
# Convention : Reuss Voigt Hill
#
# Bulk Modulus (GPa) = 17.53236 52.19247 34.86241
# Shear Modulus (GPa) = 30.29384 45.69805 37.99595
#
# Velocity S-wave (km/s) = 3.49965 4.29830 3.91937
# Velocity P-wave (km/s) = 4.83924 6.76275 5.88018
#
# Compressibility (1/GPa) = 0.05703740
#
# Stress axis : x y z
#
# Youngs Moduli (GPa) = 158.00473 43.51507 33.85514
#
# Poissons Ratio (x) = 0.14636 -0.00878
# Poissons Ratio (y) = 0.53145 -0.07446
# Poissons Ratio (z) = -0.04098 -0.09570
#
# Static dielectric constant tensor:
#      x y z
#    x 2.042450 -0.002610 -0.040160 
#    y -0.002610 2.068850 0.201830 
#    z -0.040160 0.201830 2.121650 
# 
# From -- ./inp_files/216003.got.cif
#   From: 2010.05.17/outbox.cif.g08.bks.cpg/sg2_109_cif.got.tgz:216003.got - 2010.06.03 11:33:40.
