data_PCOD9110995
_publ_section_title
;
Structure prediction by ZEFSAII (Michael W. Deem and Ramdas Pophale) SiO2 
 PCOD9110995
Probable space group: P -1
;
_chemical_formula_sum "Si O2"
_cell_formula_units_Z 14
_cell_length_a 9.906374
_cell_length_b 5.339942
_cell_length_c 15.325025
_cell_angle_alpha 85.542622
_cell_angle_beta 41.320948
_cell_angle_gamma 82.136155
_cell_volume 529.854112
_symmetry_space_group_name_H-M "P -1"
_symmetry_group_IT_number 2
_symmetry_cell_setting 'triclinic'
loop_
_space_group_symop_operation_xyz
x,y,z
-x,-y,-z
loop_
_atom_site_type_symbol
_atom_site_label
_atom_site_fract_x
_atom_site_fract_y
_atom_site_fract_z
Si Si1 0.733460 0.517321 0.410645
Si Si2 0.613176 0.825681 0.782560
Si Si3 0.811021 0.828471 0.505706
Si Si4 0.630712 0.888011 0.312594
Si Si5 0.006627 0.868097 0.905505
Si Si6 0.355936 0.373567 0.864453
Si Si7 0.083757 0.070484 0.233844
O O1 0.500000 0.500000 0.500000
O O2 0.768112 0.560505 0.494279
O O3 0.745152 0.777245 0.346139
O O4 0.902791 0.300847 0.304110
O O5 0.788253 0.816528 0.620799
O O6 0.474235 0.603622 0.832718
O O7 0.722374 0.810524 0.823478
O O8 0.485005 0.102928 0.833282
O O9 0.610892 0.021044 0.568275
O O10 0.008207 0.896700 0.353658
O O11 0.662995 0.673374 0.228935
O O12 0.748889 0.128317 0.227162
O O13 0.891412 0.023337 0.875408
O O14 0.873144 0.633660 0.985122
O O15 0.000000 0.000000 0.000000
#
# Coordination Sequence:
#
# PCOD9110995 Si02
#       7
#     2   2   2   2   2   2   2
#     4  12  22  36  67 101 142 178 224 284 353 419
#     4  11  27  46  72 101 145 189 237 281 347 418
#     4  11  23  43  65 102 146 179 225 286 353 423
#     4  10  20  42  68 104 139 180 230 289 358 413
#     4  10  23  45  72 100 135 181 235 297 351 408
#     4  10  25  48  71 101 140 189 240 291 339 409
#     4  12  26  42  69 106 136 187 232 285 351 426
#
# _framework density 26.422370999999998
#
# number of rings (size 3 to 8) (size 9 to 14) (size 15 to 20)
#    0.000    1.143    2.857    2.571    4.000    5.143 
#    0.000    8.571    0.000    0.000    0.000    0.000 
#    0.000    0.000    0.000    0.000    0.000    0.000 
#
# Total GULP energy -78205.556075 kJ/mol
# GULP energy per Si atom -5586.111148 kJ/mol
# Density = 2.636223 g / cm^3
# Si number density = 26.422371 Si / 1000 Ang^3
#
#
#
# Elastic Constant Matrix: (Units=GPa)
#
#
# Indices 1 2 3 4 5 6 
#
# 1 164.7207 51.9938 33.8458 -4.5634 21.8326 44.6669
# 2 51.9938 119.1647 26.3194 -4.6087 -3.5364 23.2134
# 3 33.8458 26.3194 92.3718 -22.7324 8.2291 19.3929
# 4 -4.5634 -4.6087 -22.7324 34.1589 7.0156 -12.7053
# 5 21.8326 -3.5364 8.2291 7.0156 29.9852 3.0144
# 6 44.6669 23.2134 19.3929 -12.7053 3.0144 41.7231
#
#
#
# Elastic Compliance Matrix: (Units=1/GPa)
#
#
# Indices 1 2 3 4 5 6 
#
# 1 0.010457 -0.002802 -0.000957 -0.001764 -0.006337 -0.009271
# 2 -0.002802 0.010805 -0.002534 -0.002748 0.004957 -0.003029
# 3 -0.000957 -0.002534 0.015260 0.010584 -0.006167 -0.000991
# 4 -0.001764 -0.002748 0.010584 0.043127 -0.013300 0.012592
# 5 -0.006337 0.004957 -0.006167 -0.013300 0.043382 -0.000292
# 6 -0.009271 -0.003029 -0.000991 0.012592 -0.000292 0.039894
#
#
# Mechanical properties :
#
#
# Convention : Reuss Voigt Hill
#
# Bulk Modulus (GPa) = 41.77478 66.73057 54.25267
# Shear Modulus (GPa) = 27.24979 38.77999 33.01489
#
# Velocity S-wave (km/s) = 3.21489 3.83521 3.53867
# Velocity P-wave (km/s) = 5.44292 6.70238 6.10522
#
# Compressibility (1/GPa) = 0.02393789
#
# Stress axis : x y z
#
# Youngs Moduli (GPa) = 95.63334 92.55247 65.52912
#
# Poissons Ratio (x) = 0.25929 0.06268
# Poissons Ratio (y) = 0.26792 0.16604
# Poissons Ratio (z) = 0.09148 0.23451
#
# Static dielectric constant tensor:
#      x y z
#    x 2.047460 -0.019530 0.074910 
#    y -0.019530 2.211860 -0.146680 
#    z 0.074910 -0.146680 2.339080 
# 
# From -- ./inp_files/364855.got.cif
#   From: 2010.05.17/outbox.cif.g08.bks.cpg/sg2_183_cif.got.tgz:364855.got - 2010.06.03 11:33:40.
