data_PCOD9110467
_publ_section_title
;
Structure prediction by ZEFSAII (Michael W. Deem and Ramdas Pophale) SiO2 
 PCOD9110467
Probable space group: P -1
;
_chemical_formula_sum "Si O2"
_cell_formula_units_Z 16
_cell_length_a 8.970772
_cell_length_b 11.556777
_cell_length_c 7.771555
_cell_angle_alpha 100.902663
_cell_angle_beta 124.437379
_cell_angle_gamma 75.548836
_cell_volume 642.310248
_symmetry_space_group_name_H-M "P -1"
_symmetry_group_IT_number 2
_symmetry_cell_setting 'triclinic'
loop_
_space_group_symop_operation_xyz
x,y,z
-x,-y,-z
loop_
_atom_site_type_symbol
_atom_site_label
_atom_site_fract_x
_atom_site_fract_y
_atom_site_fract_z
Si Si1 0.800813 0.269666 0.822139
Si Si2 0.834724 0.853297 0.529925
Si Si3 0.435940 0.256580 0.461635
Si Si4 0.418848 0.762505 0.806816
Si Si5 0.685865 0.902846 0.093756
Si Si6 0.106953 0.649241 0.468981
Si Si7 0.944956 0.577601 0.815285
Si Si8 0.155436 0.928605 0.947793
O O1 0.584707 0.322019 0.671881
O O2 0.892694 0.283526 0.699623
O O3 0.906621 0.335119 0.051645
O O4 0.801581 0.138764 0.863815
O O5 0.649700 0.829259 0.491360
O O6 0.792902 0.919702 0.341253
O O7 0.958515 0.727000 0.517009
O O8 0.952893 0.919216 0.751500
O O9 0.548682 0.193678 0.354320
O O10 0.259755 0.345443 0.296598
O O11 0.313913 0.650823 0.676133
O O12 0.278924 0.845542 0.863264
O O13 0.619308 0.774013 0.017310
O O14 0.797090 0.939868 0.014631
O O15 0.500000 0.000000 0.000000
O O16 0.058694 0.520681 0.361480
O O17 0.000000 0.500000 0.000000
#
# Coordination Sequence:
#
# PCOD9110467 Si02
#       8
#     2   2   2   2   2   2   2   2
#     4  10  21  42  64  92 127 164 204 260 300 366
#     4  11  22  39  64  90 125 165 206 256 307 368
#     4  11  22  40  64  91 127 168 204 251 312 359
#     4   9  21  38  61  88 125 159 201 258 301 364
#     4  10  21  38  62  91 122 162 207 253 311 367
#     4   9  22  41  63  88 126 162 205 256 311 358
#     4  10  22  40  65  90 127 163 208 254 308 366
#     4  10  20  42  62  91 127 162 206 259 305 368
#
# _framework density 24.910081000000002
#
# number of rings (size 3 to 8) (size 9 to 14) (size 15 to 20)
#    0.000    2.000    1.250    1.875    3.500    5.000 
#    0.000   14.375    0.000    0.000    0.000    0.000 
#    0.000    0.000    0.000    0.000    0.000    0.000 
#
# Total GULP energy -89306.400634 kJ/mol
# GULP energy per Si atom -5581.650040 kJ/mol
# Density = 2.485338 g / cm^3
# Si number density = 24.910081 Si / 1000 Ang^3
#
#
#
# Elastic Constant Matrix: (Units=GPa)
#
#
# Indices 1 2 3 4 5 6 
#
# 1 142.9613 27.7677 24.8180 10.6767 -0.5918 9.2036
# 2 27.7677 73.8787 22.8454 6.7039 10.5484 -1.8066
# 3 24.8180 22.8454 112.4051 -5.2896 27.1708 9.5950
# 4 10.6767 6.7039 -5.2896 36.8946 19.2672 -4.6830
# 5 -0.5918 10.5484 27.1708 19.2672 45.0243 1.8928
# 6 9.2036 -1.8066 9.5950 -4.6830 1.8928 22.7434
#
#
#
# Elastic Compliance Matrix: (Units=1/GPa)
#
#
# Indices 1 2 3 4 5 6 
#
# 1 0.008627 -0.002803 -0.002339 -0.005263 0.004610 -0.004194
# 2 -0.002803 0.015798 -0.002439 -0.000928 -0.002012 0.003394
# 3 -0.002339 -0.002439 0.013119 0.008414 -0.010887 -0.002143
# 4 -0.005263 -0.000928 0.008414 0.043777 -0.024064 0.009523
# 5 0.004610 -0.002012 -0.010887 -0.024064 0.039849 -0.005703
# 6 -0.004194 0.003394 -0.002143 0.009523 -0.005703 0.049275
#
#
# Mechanical properties :
#
#
# Convention : Reuss Voigt Hill
#
# Bulk Modulus (GPa) = 44.67770 53.34527 49.01149
# Shear Modulus (GPa) = 25.89749 37.85341 31.87545
#
# Velocity S-wave (km/s) = 3.22784 3.90244 3.58106
# Velocity P-wave (km/s) = 5.64504 6.46274 6.06768
#
# Compressibility (1/GPa) = 0.02238253
#
# Stress axis : x y z
#
# Youngs Moduli (GPa) = 115.90888 63.30027 76.22441
#
# Poissons Ratio (x) = 0.17740 0.17831
# Poissons Ratio (y) = 0.32484 0.18592
# Poissons Ratio (z) = 0.27114 0.15440
#
# Static dielectric constant tensor:
#      x y z
#    x 1.997760 0.013190 0.015540 
#    y 0.013190 2.036340 0.045820 
#    z 0.015540 0.045820 1.994080 
# 
# From -- ./inp_files/187937.got.cif
#   From: 2010.05.17/outbox.cif.g08.bks.cpg/sg2_94_cif.got.tgz:187937.got - 2010.06.03 11:33:40.
