data_PCOD9110639
_publ_section_title
;
Structure prediction by ZEFSAII (Michael W. Deem and Ramdas Pophale) SiO2 
 PCOD9110639
Probable space group: P -1
;
_chemical_formula_sum "Si O2"
_cell_formula_units_Z 15
_cell_length_a 9.637075
_cell_length_b 7.456133
_cell_length_c 20.991760
_cell_angle_alpha 125.967787
_cell_angle_beta 41.167998
_cell_angle_gamma 93.455193
_cell_volume 560.378816
_symmetry_space_group_name_H-M "P -1"
_symmetry_group_IT_number 2
_symmetry_cell_setting 'triclinic'
loop_
_space_group_symop_operation_xyz
x,y,z
-x,-y,-z
loop_
_atom_site_type_symbol
_atom_site_label
_atom_site_fract_x
_atom_site_fract_y
_atom_site_fract_z
Si Si1 0.827156 0.816882 0.825289
Si Si2 0.881007 0.747599 0.476498
Si Si3 0.692082 0.503634 0.312890
Si Si4 0.734317 0.123522 0.788101
Si Si5 0.159008 0.107379 0.696850
Si Si6 0.866494 0.387297 0.985263
Si Si7 0.468977 0.528336 0.267049
Si Si8 0.000000 0.500000 0.500000
O O1 0.046902 0.451491 0.650667
O O2 0.013064 0.784787 0.810793
O O3 0.764110 0.006632 0.824297
O O4 0.500000 0.000000 0.000000
O O5 0.223690 0.514990 0.341435
O O6 0.738461 0.725800 0.579590
O O7 0.728828 0.094614 0.587142
O O8 0.750542 0.706908 0.307172
O O9 0.630758 0.397702 0.251195
O O10 0.411797 0.747949 0.508402
O O11 0.409931 0.362979 0.917316
O O12 0.876848 0.257822 0.778980
O O13 0.927791 0.810957 0.613586
O O14 0.110838 0.126083 0.793277
O O15 0.694765 0.380227 0.099085
O O16 0.000000 0.500000 0.000000
#
# Coordination Sequence:
#
# PCOD9110639 Si02
#       8
#     2   2   2   2   2   2   2   1
#     4  11  26  43  65  93 139 177 220 276 338 407
#     4  10  22  41  72  97 129 177 225 273 340 406
#     4  11  24  44  68 100 135 175 229 284 332 397
#     4  11  25  43  70  97 134 183 223 271 341 408
#     4  11  24  43  72 102 131 178 233 281 334 397
#     4  12  25  42  69 104 140 170 228 291 337 389
#     4  11  23  42  72 102 130 174 227 286 333 396
#     4  10  20  42  64  98 130 172 220 270 332 404
#
# _framework density 26.767607000000002
#
# number of rings (size 3 to 8) (size 9 to 14) (size 15 to 20)
#    0.000    1.067    2.667    3.600    5.600    0.533 
#    0.000    4.667    0.000    0.000    0.000    0.000 
#    0.000    0.000    0.000    0.000    0.000    0.000 
#
# Total GULP energy -83801.629897 kJ/mol
# GULP energy per Si atom -5586.775326 kJ/mol
# Density = 2.670668 g / cm^3
# Si number density = 26.767607 Si / 1000 Ang^3
#
#
#
# Elastic Constant Matrix: (Units=GPa)
#
#
# Indices 1 2 3 4 5 6 
#
# 1 204.9735 35.6884 58.9575 -5.1437 -0.7693 -27.5083
# 2 35.6884 53.1690 29.5582 -11.5067 9.6145 -19.7710
# 3 58.9575 29.5582 107.6540 -4.5050 19.2648 -13.1904
# 4 -5.1437 -11.5067 -4.5050 26.7003 1.6041 16.0258
# 5 -0.7693 9.6145 19.2648 1.6041 47.4976 5.2016
# 6 -27.5083 -19.7710 -13.1904 16.0258 5.2016 50.4905
#
#
#
# Elastic Compliance Matrix: (Units=1/GPa)
#
#
# Indices 1 2 3 4 5 6 
#
# 1 0.006408 -0.002569 -0.002911 -0.001725 0.001632 0.002104
# 2 -0.002569 0.027768 -0.004230 0.007075 -0.004912 0.006629
# 3 -0.002911 -0.004230 0.012921 -0.000360 -0.004497 0.000711
# 4 -0.001725 0.007075 -0.000360 0.048257 -0.001473 -0.013429
# 5 0.001632 -0.004912 -0.004497 -0.001473 0.024414 -0.004257
# 6 0.002104 0.006629 0.000711 -0.013429 -0.004257 0.028435
#
#
# Mechanical properties :
#
#
# Convention : Reuss Voigt Hill
#
# Bulk Modulus (GPa) = 36.12918 68.24498 52.18708
# Shear Modulus (GPa) = 28.27250 41.04385 34.65817
#
# Velocity S-wave (km/s) = 3.25348 3.92004 3.60221
# Velocity P-wave (km/s) = 5.25739 6.78525 6.06959
#
# Compressibility (1/GPa) = 0.02767846
#
# Stress axis : x y z
#
# Youngs Moduli (GPa) = 156.04294 36.01214 77.39154
#
# Poissons Ratio (x) = 0.09253 0.22526
# Poissons Ratio (y) = 0.40094 0.32735
# Poissons Ratio (z) = 0.45418 0.15233
#
# Static dielectric constant tensor:
#      x y z
#    x 2.059650 0.094150 -0.114440 
#    y 0.094150 2.043830 0.110240 
#    z -0.114440 0.110240 2.003240 
# 
# From -- ./inp_files/587520.got.cif
#   From: 2010.05.17/outbox.cif.g08.bks.cpg/sg2_294_cif.got.tgz:587520.got - 2010.06.03 11:33:40.
