data_PCOD9110479
_publ_section_title
;
Structure prediction by ZEFSAII (Michael W. Deem and Ramdas Pophale) SiO2 
 PCOD9110479
Probable space group: P -1
;
_chemical_formula_sum "Si O2"
_cell_formula_units_Z 13
_cell_length_a 11.151581
_cell_length_b 11.158824
_cell_length_c 10.753217
_cell_angle_alpha 49.999753
_cell_angle_beta 122.764071
_cell_angle_gamma 148.059948
_cell_volume 542.254273
_symmetry_space_group_name_H-M "P -1"
_symmetry_group_IT_number 2
_symmetry_cell_setting 'triclinic'
loop_
_space_group_symop_operation_xyz
x,y,z
-x,-y,-z
loop_
_atom_site_type_symbol
_atom_site_label
_atom_site_fract_x
_atom_site_fract_y
_atom_site_fract_z
Si Si1 0.151884 0.781627 0.920834
Si Si2 0.000000 0.000000 0.000000
Si Si3 0.309025 0.567308 0.843626
Si Si4 0.409476 0.781919 0.235854
Si Si5 0.283033 0.098795 0.323925
Si Si6 0.998521 0.568598 0.591328
Si Si7 0.299747 0.445146 0.181443
O O1 0.971977 0.764569 0.852428
O O2 0.321849 0.967910 0.780562
O O3 0.311765 0.861536 0.069601
O O4 0.000000 0.500000 0.000000
O O5 0.184486 0.304097 0.906216
O O6 0.120844 0.025717 0.173240
O O7 0.499424 0.777848 0.711598
O O8 0.124084 0.546204 0.760749
O O9 0.407901 0.612753 0.005668
O O10 0.364109 0.601849 0.232757
O O11 0.256634 0.623455 0.375507
O O12 0.352366 0.307403 0.306889
O O13 0.145534 0.850288 0.484381
O O14 0.000000 0.500000 0.500000
#
# Coordination Sequence:
#
# PCOD9110479 Si02
#       7
#     2   1   2   2   2   2   2
#     4   9  19  39  65  99 125 171 223 273 326 394
#     4  10  20  42  62  94 134 166 234 264 324 396
#     4  11  23  43  69 102 132 180 228 278 336 402
#     4  10  22  41  66  98 133 173 223 281 335 397
#     4  11  25  42  68 102 136 182 221 280 343 400
#     4  12  25  46  66  97 141 180 223 279 344 406
#     4  10  21  40  68 100 130 170 229 280 332 400
#
# _framework density 23.973994000000001
#
# number of rings (size 3 to 8) (size 9 to 14) (size 15 to 20)
#    0.000    1.538    3.077    2.308    0.000    9.231 
#    8.308    0.769    0.000    0.000    0.000    0.000 
#    0.000    0.000    0.000    0.000    0.000    0.000 
#
# Total GULP energy -72494.495949 kJ/mol
# GULP energy per Si atom -5576.499688 kJ/mol
# Density = 2.391943 g / cm^3
# Si number density = 23.973994 Si / 1000 Ang^3
#
#
#
# Elastic Constant Matrix: (Units=GPa)
#
#
# Indices 1 2 3 4 5 6 
#
# 1 123.2672 37.1338 31.8513 -23.6224 -26.3061 15.2526
# 2 37.1338 75.0447 29.9737 -21.5837 -20.1502 -6.2309
# 3 31.8513 29.9737 96.4990 -33.9962 -7.6964 4.7206
# 4 -23.6224 -21.5837 -33.9962 43.1585 11.9236 -16.1680
# 5 -26.3061 -20.1502 -7.6964 11.9236 38.5808 -8.4321
# 6 15.2526 -6.2309 4.7206 -16.1680 -8.4321 34.5154
#
#
#
# Elastic Compliance Matrix: (Units=1/GPa)
#
#
# Indices 1 2 3 4 5 6 
#
# 1 0.011277 -0.004124 -0.002005 -0.000360 0.004245 -0.004585
# 2 -0.004124 0.022232 -0.002096 0.009700 0.008150 0.012657
# 3 -0.002005 -0.002096 0.015568 0.012055 -0.002327 0.003457
# 4 -0.000360 0.009700 0.012055 0.045904 -0.002329 0.021195
# 5 0.004245 0.008150 -0.002327 -0.002329 0.034934 0.007357
# 6 -0.004585 0.012657 0.003457 0.021195 0.007357 0.044537
#
#
# Mechanical properties :
#
#
# Convention : Reuss Voigt Hill
#
# Bulk Modulus (GPa) = 30.64962 54.74761 42.69862
# Shear Modulus (GPa) = 24.77966 36.30774 30.54370
#
# Velocity S-wave (km/s) = 3.21846 3.89583 3.57323
# Velocity P-wave (km/s) = 5.15981 6.56677 5.90534
#
# Compressibility (1/GPa) = 0.03262683
#
# Stress axis : x y z
#
# Youngs Moduli (GPa) = 88.67545 44.97938 64.23409
#
# Poissons Ratio (x) = 0.18548 0.12881
# Poissons Ratio (y) = 0.36567 0.13466
# Poissons Ratio (z) = 0.17782 0.09429
#
# Static dielectric constant tensor:
#      x y z
#    x 1.937870 0.004460 -0.038450 
#    y 0.004460 1.938030 0.042760 
#    z -0.038450 0.042760 1.924020 
# 
# From -- ./inp_files/63932.got.cif
#   From: 2010.05.17/outbox.cif.g08.bks.cpg/sg2_32_cif.got.tgz:63932.got - 2010.06.03 11:33:40.
