data_PCOD9110910
_publ_section_title
;
Structure prediction by ZEFSAII (Michael W. Deem and Ramdas Pophale) SiO2 
 PCOD9110910
Probable space group: P -1
;
_chemical_formula_sum "Si O2"
_cell_formula_units_Z 16
_cell_length_a 5.806437
_cell_length_b 9.856527
_cell_length_c 23.943197
_cell_angle_alpha 133.293008
_cell_angle_beta 132.358238
_cell_angle_gamma 55.673615
_cell_volume 723.667283
_symmetry_space_group_name_H-M "P -1"
_symmetry_group_IT_number 2
_symmetry_cell_setting 'triclinic'
loop_
_space_group_symop_operation_xyz
x,y,z
-x,-y,-z
loop_
_atom_site_type_symbol
_atom_site_label
_atom_site_fract_x
_atom_site_fract_y
_atom_site_fract_z
Si Si1 0.110900 0.513705 0.381028
Si Si2 0.152997 0.928630 0.641382
Si Si3 0.128282 0.040780 0.971025
Si Si4 0.323634 0.301319 0.472623
Si Si5 0.869313 0.479356 0.036018
Si Si6 0.891692 0.854754 0.773880
Si Si7 0.916317 0.162824 0.777247
Si Si8 0.707800 0.885670 0.385449
O O1 0.206181 0.401013 0.422540
O O2 0.430036 0.578642 0.428468
O O3 0.972602 0.366396 0.277610
O O4 0.867234 0.713970 0.401864
O O5 0.527005 0.868941 0.698185
O O6 0.989145 0.744826 0.562788
O O7 0.064037 0.040439 0.600973
O O8 0.041777 0.072941 0.713946
O O9 0.945098 0.929310 0.865016
O O10 0.025031 0.265584 0.014180
O O11 0.500000 0.000000 0.000000
O O12 0.000000 0.000000 0.000000
O O13 0.521788 0.085376 0.435867
O O14 0.981286 0.644882 0.135732
O O15 0.500000 0.500000 0.000000
O O16 0.000000 0.500000 0.000000
O O17 0.023328 0.999833 0.795032
O O18 0.539006 0.194833 0.717356
#
# Coordination Sequence:
#
# PCOD9110910 Si02
#       8
#     2   2   2   2   2   2   2   2
#     4  11  22  41  67  94 136 177 223 279 349 415
#     4  10  20  42  67  90 135 172 227 285 337 415
#     4  12  29  47  70 107 151 181 236 310 360 429
#     4  10  22  43  62  96 134 180 223 277 343 412
#     4  12  25  45  74 100 131 193 240 287 365 433
#     4  11  23  44  67  94 134 181 222 285 357 416
#     4  10  22  42  68  92 130 177 231 284 341 426
#     4  10  22  41  62  96 132 173 227 283 333 415
#
# _framework density 22.109605999999999
#
# number of rings (size 3 to 8) (size 9 to 14) (size 15 to 20)
#    0.000    1.250    5.000    1.875    5.250    2.000 
#    4.500    0.000    0.000    0.000    0.000    0.000 
#    0.000    0.000    0.000    0.000    0.000    0.000 
#
# Total GULP energy -89248.194189 kJ/mol
# GULP energy per Si atom -5578.012137 kJ/mol
# Density = 2.205928 g / cm^3
# Si number density = 22.109606 Si / 1000 Ang^3
#
#
#
# Elastic Constant Matrix: (Units=GPa)
#
#
# Indices 1 2 3 4 5 6 
#
# 1 106.1916 59.7666 30.9390 7.3566 1.3476 1.1383
# 2 59.7666 165.9877 50.8160 24.9496 1.2560 -6.0790
# 3 30.9390 50.8160 147.5917 34.1295 5.4730 5.1192
# 4 7.3566 24.9496 34.1295 38.6740 2.9961 -1.6015
# 5 1.3476 1.2560 5.4730 2.9961 39.4231 8.3727
# 6 1.1383 -6.0790 5.1192 -1.6015 8.3727 27.0228
#
#
#
# Elastic Compliance Matrix: (Units=1/GPa)
#
#
# Indices 1 2 3 4 5 6 
#
# 1 0.012097 -0.004203 -0.001427 0.001622 0.000028 -0.001097
# 2 -0.004203 0.008545 -0.001339 -0.003429 -0.000148 0.002196
# 3 -0.001427 -0.001339 0.009273 -0.007135 -0.000149 -0.002374
# 4 0.001622 -0.003429 -0.007135 0.034367 -0.002257 0.003248
# 5 0.000028 -0.000148 -0.000149 -0.002257 0.027394 -0.008628
# 6 -0.001097 0.002196 -0.002374 0.003248 -0.008628 0.040861
#
#
# Mechanical properties :
#
#
# Convention : Reuss Voigt Hill
#
# Bulk Modulus (GPa) = 62.58477 78.09045 70.33761
# Shear Modulus (GPa) = 32.93773 39.57394 36.25583
#
# Velocity S-wave (km/s) = 3.86391 4.23531 4.05387
# Velocity P-wave (km/s) = 6.94798 7.70152 7.33444
#
# Compressibility (1/GPa) = 0.01597833
#
# Stress axis : x y z
#
# Youngs Moduli (GPa) = 82.66284 117.03089 107.83628
#
# Poissons Ratio (x) = 0.49191 0.15386
# Poissons Ratio (y) = 0.34745 0.14434
# Poissons Ratio (z) = 0.11794 0.15665
#
# Static dielectric constant tensor:
#      x y z
#    x 2.028460 0.003770 0.002610 
#    y 0.003770 1.842940 -0.037130 
#    z 0.002610 -0.037130 1.843190 
# 
# From -- ./inp_files/604092.got.cif
#   From: 2010.05.17/outbox.cif.g08.bks.cpg/sg2_303_cif.got.tgz:604092.got - 2010.06.03 11:33:40.
