data_PCOD9110820
_publ_section_title
;
Structure prediction by ZEFSAII (Michael W. Deem and Ramdas Pophale) SiO2 
 PCOD9110820
Probable space group: P -1
;
_chemical_formula_sum "Si O2"
_cell_formula_units_Z 14
_cell_length_a 8.700409
_cell_length_b 11.195185
_cell_length_c 7.738942
_cell_angle_alpha 77.307005
_cell_angle_beta 125.135854
_cell_angle_gamma 89.212331
_cell_volume 592.020591
_symmetry_space_group_name_H-M "P -1"
_symmetry_group_IT_number 2
_symmetry_cell_setting 'triclinic'
loop_
_space_group_symop_operation_xyz
x,y,z
-x,-y,-z
loop_
_atom_site_type_symbol
_atom_site_label
_atom_site_fract_x
_atom_site_fract_y
_atom_site_fract_z
Si Si1 0.151403 0.215039 0.276144
Si Si2 0.532508 0.275523 0.630887
Si Si3 0.786370 0.521096 0.084974
Si Si4 0.862900 0.402842 0.799731
Si Si5 0.447642 0.690213 0.960952
Si Si6 0.901559 0.140516 0.429679
Si Si7 0.181362 0.945790 0.246559
O O1 0.331563 0.278567 0.411083
O O2 0.028093 0.216960 0.371976
O O3 0.229805 0.071084 0.324139
O O4 0.004388 0.283758 0.015325
O O5 0.670760 0.364914 0.616008
O O6 0.652241 0.136484 0.727709
O O7 0.511373 0.307869 0.809390
O O8 0.687857 0.411929 0.135883
O O9 0.003608 0.535237 0.261440
O O10 0.802115 0.486383 0.903337
O O11 0.642387 0.647034 0.998366
O O12 0.316606 0.820293 0.786558
O O13 0.886434 0.144180 0.624129
O O14 0.000000 0.000000 0.500000
O O15 0.000000 0.000000 0.000000
#
# Coordination Sequence:
#
# PCOD9110820 Si02
#       7
#     2   2   2   2   2   2   2
#     4  11  22  41  65  97 133 169 218 270 327 393
#     4  11  22  39  64  97 134 171 218 264 326 397
#     4   9  20  38  73  92 128 182 213 273 324 376
#     4  10  20  42  66  94 133 171 221 272 323 376
#     4  10  20  43  67  97 136 171 221 268 328 385
#     4  10  21  40  66  95 130 170 215 271 323 392
#     4  11  22  42  66  95 133 171 216 272 335 388
#
# _framework density 23.647825000000001
#
# number of rings (size 3 to 8) (size 9 to 14) (size 15 to 20)
#    0.000    1.714    4.286    1.286    2.000    1.143 
#    0.000   10.714    0.000    0.000    0.000    0.000 
#    0.000    0.000    0.000    0.000    0.000    0.000 
#
# Total GULP energy -78219.711183 kJ/mol
# GULP energy per Si atom -5587.122227 kJ/mol
# Density = 2.359400 g / cm^3
# Si number density = 23.647825 Si / 1000 Ang^3
#
#
#
# Elastic Constant Matrix: (Units=GPa)
#
#
# Indices 1 2 3 4 5 6 
#
# 1 116.9917 35.0859 29.1107 15.1333 19.3591 -16.7743
# 2 35.0859 86.8000 12.4547 -3.1708 15.9358 -25.1486
# 3 29.1107 12.4547 62.5692 11.1992 15.6488 10.6051
# 4 15.1333 -3.1708 11.1992 34.1838 2.6930 12.1017
# 5 19.3591 15.9358 15.6488 2.6930 39.8692 -4.1114
# 6 -16.7743 -25.1486 10.6051 12.1017 -4.1114 48.1222
#
#
#
# Elastic Compliance Matrix: (Units=1/GPa)
#
#
# Indices 1 2 3 4 5 6 
#
# 1 0.012333 -0.002641 -0.004477 -0.005902 -0.002241 0.005198
# 2 -0.002641 0.015707 -0.002497 0.001135 -0.003343 0.007267
# 3 -0.004477 -0.002497 0.021749 -0.002206 -0.006001 -0.007616
# 4 -0.005902 0.001135 -0.002206 0.036296 -0.000218 -0.010124
# 5 -0.002241 -0.003343 -0.006001 -0.000218 0.030023 0.001414
# 6 0.005198 0.007267 -0.007616 -0.010124 0.001414 0.030735
#
#
# Mechanical properties :
#
#
# Convention : Reuss Voigt Hill
#
# Bulk Modulus (GPa) = 32.72157 46.62930 39.67544
# Shear Modulus (GPa) = 28.36751 37.08235 32.72493
#
# Velocity S-wave (km/s) = 3.46726 3.96423 3.72404
# Velocity P-wave (km/s) = 5.46774 6.38079 5.94183
#
# Compressibility (1/GPa) = 0.03056088
#
# Stress axis : x y z
#
# Youngs Moduli (GPa) = 81.08231 63.66479 45.97987
#
# Poissons Ratio (x) = 0.16814 0.20583
# Poissons Ratio (y) = 0.21414 0.11479
# Poissons Ratio (z) = 0.36297 0.15894
#
# Static dielectric constant tensor:
#      x y z
#    x 1.908410 0.037970 -0.006900 
#    y 0.037970 2.003890 0.004550 
#    z -0.006900 0.004550 1.870170 
# 
# From -- ./inp_files/179542.got.cif
#   From: 2010.05.17/outbox.cif.g08.bks.cpg/sg2_90_cif.got.tgz:179542.got - 2010.06.03 11:33:40.
