data_PCOD9110039
_publ_section_title
;
Structure prediction by ZEFSAII (Michael W. Deem and Ramdas Pophale) SiO2 
 PCOD9110039
Probable space group: P -1
;
_chemical_formula_sum "Si O2"
_cell_formula_units_Z 12
_cell_length_a 11.524008
_cell_length_b 8.469598
_cell_length_c 5.870471
_cell_angle_alpha 103.215946
_cell_angle_beta 115.478482
_cell_angle_gamma 68.028227
_cell_volume 478.116795
_symmetry_space_group_name_H-M "P -1"
_symmetry_group_IT_number 2
_symmetry_cell_setting 'triclinic'
loop_
_space_group_symop_operation_xyz
x,y,z
-x,-y,-z
loop_
_atom_site_type_symbol
_atom_site_label
_atom_site_fract_x
_atom_site_fract_y
_atom_site_fract_z
Si Si1 0.410944 0.873146 0.907054
Si Si2 0.143206 0.518446 0.545425
Si Si3 0.299723 0.835828 0.300260
Si Si4 0.140682 0.335880 0.094613
Si Si5 0.642555 0.533082 0.924341
Si Si6 0.034351 0.861053 0.286129
O O1 0.332084 0.895209 0.601198
O O2 0.346805 0.896008 0.118364
O O3 0.504752 0.674562 0.918065
O O4 0.500000 0.000000 0.000000
O O5 0.193972 0.340251 0.395274
O O6 0.257727 0.544087 0.809042
O O7 0.112613 0.682848 0.415993
O O8 0.000000 0.500000 0.500000
O O9 0.136791 0.880104 0.185845
O O10 0.365131 0.628260 0.279186
O O11 0.261650 0.365699 0.069162
O O12 0.000000 0.500000 0.000000
O O13 0.096448 0.177337 0.934144
O O14 0.000000 0.000000 0.500000
#
# Coordination Sequence:
#
# PCOD9110039 Si02
#       6
#     2   2   2   2   2   2
#     4  12  31  52  75 108 149 197 252 314 373 427
#     4  11  20  41  71 105 145 191 242 294 363 449
#     4  12  26  52  76 109 147 198 253 303 362 455
#     4  10  20  41  69 105 143 183 240 294 372 430
#     4  12  24  46  77 102 145 195 249 298 361 449
#     4  11  24  45  73 115 152 188 243 309 379 438
#
# _framework density 25.098472999999998
#
# number of rings (size 3 to 8) (size 9 to 14) (size 15 to 20)
#    0.000    0.667    6.667    2.500    4.667    0.000 
#    3.000    4.167    0.000    0.000    0.000    0.000 
#    0.000    0.000    0.000    0.000    0.000    0.000 
#
# Total GULP energy -66970.181145 kJ/mol
# GULP energy per Si atom -5580.848429 kJ/mol
# Density = 2.504135 g / cm^3
# Si number density = 25.098473 Si / 1000 Ang^3
#
#
#
# Elastic Constant Matrix: (Units=GPa)
#
#
# Indices 1 2 3 4 5 6 
#
# 1 157.7258 34.4959 40.8460 -5.3204 -33.9918 35.7170
# 2 34.4959 78.6753 36.1665 4.6448 -12.9247 21.7887
# 3 40.8460 36.1665 142.4290 21.1240 -9.6107 24.3714
# 4 -5.3204 4.6448 21.1240 47.1832 4.4492 3.9063
# 5 -33.9918 -12.9247 -9.6107 4.4492 37.0794 -0.8818
# 6 35.7170 21.7887 24.3714 3.9063 -0.8818 47.3810
#
#
#
# Elastic Compliance Matrix: (Units=1/GPa)
#
#
# Indices 1 2 3 4 5 6 
#
# 1 0.010210 -0.000759 -0.001254 0.001545 0.008426 -0.006673
# 2 -0.000759 0.016541 -0.002676 -0.000463 0.004300 -0.005540
# 3 -0.001254 -0.002676 0.009037 -0.003809 0.000666 -0.002146
# 4 0.001545 -0.000463 -0.003809 0.023442 -0.002568 -0.000973
# 5 0.008426 0.004300 0.000666 -0.002568 0.036488 -0.007781
# 6 -0.006673 -0.005540 -0.002146 -0.000973 -0.007781 0.029723
#
#
# Mechanical properties :
#
#
# Convention : Reuss Voigt Hill
#
# Bulk Modulus (GPa) = 37.86363 66.87188 52.36775
# Shear Modulus (GPa) = 34.81332 44.15017 39.48174
#
# Velocity S-wave (km/s) = 3.72838 4.19869 3.97050
# Velocity P-wave (km/s) = 5.80114 7.08569 6.47534
#
# Compressibility (1/GPa) = 0.02641057
#
# Stress axis : x y z
#
# Youngs Moduli (GPa) = 97.94242 60.45450 110.65285
#
# Poissons Ratio (x) = 0.04589 0.13877
# Poissons Ratio (y) = 0.07435 0.29609
# Poissons Ratio (z) = 0.12283 0.16177
#
# Static dielectric constant tensor:
#      x y z
#    x 2.013240 -0.018010 -0.195300 
#    y -0.018010 1.959700 -0.040290 
#    z -0.195300 -0.040290 1.853840 
# 
# From -- ./inp_files/60025.got.cif
#   From: 2010.05.17/outbox.cif.g08.bks.cpg/sg2_31_cif.got.tgz:60025.got - 2010.06.03 11:33:40.
