data_PCOD9110060
_publ_section_title
;
Structure prediction by ZEFSAII (Michael W. Deem and Ramdas Pophale) SiO2 
 PCOD9110060
Probable space group: P -1
;
_chemical_formula_sum "Si O2"
_cell_formula_units_Z 16
_cell_length_a 19.871491
_cell_length_b 6.404777
_cell_length_c 23.982541
_cell_angle_alpha 50.749820
_cell_angle_beta 18.541117
_cell_angle_gamma 58.399584
_cell_volume 715.046426
_symmetry_space_group_name_H-M "P -1"
_symmetry_group_IT_number 2
_symmetry_cell_setting 'triclinic'
loop_
_space_group_symop_operation_xyz
x,y,z
-x,-y,-z
loop_
_atom_site_type_symbol
_atom_site_label
_atom_site_fract_x
_atom_site_fract_y
_atom_site_fract_z
Si Si1 0.251690 0.184477 0.840339
Si Si2 0.867494 0.070640 0.312824
Si Si3 0.808322 0.668978 0.257213
Si Si4 0.607974 0.147071 0.990678
Si Si5 0.096654 0.210660 0.219448
Si Si6 0.507245 0.735289 0.575780
Si Si7 0.725920 0.122675 0.023962
Si Si8 0.848827 0.788896 0.698067
O O1 0.309603 0.247412 0.718733
O O2 0.274416 0.488795 0.799436
O O3 0.376003 0.047605 0.811456
O O4 0.012566 0.947016 0.063813
O O5 0.874836 0.390110 0.237353
O O6 0.908051 0.068569 0.347081
O O7 0.635902 0.852018 0.511223
O O8 0.071824 0.991684 0.136574
O O9 0.663151 0.603602 0.438107
O O10 0.573898 0.102900 0.091867
O O11 0.796421 0.453392 0.784513
O O12 0.698670 0.903730 0.937307
O O13 0.392020 0.164069 0.125250
O O14 0.171671 0.548625 0.096605
O O15 0.045520 0.148105 0.334634
O O16 0.500000 0.000000 0.500000
O O17 0.000000 0.000000 0.500000
#
# Coordination Sequence:
#
# PCOD9110060 Si02
#       8
#     2   2   2   2   2   2   2   2
#     4  11  23  41  66  90 123 170 217 267 318 380
#     4  11  21  42  66  85 131 173 205 271 327 364
#     4  11  24  43  61  90 127 165 221 270 319 376
#     4   9  21  41  66  94 134 164 199 266 315 375
#     4  10  20  41  69  91 133 171 204 262 325 377
#     4  12  25  41  61  90 127 166 220 274 323 371
#     4  10  21  42  65  92 126 169 213 258 322 375
#     4  10  21  41  70  98 126 164 211 251 315 387
#
# _framework density 22.376168
#
# number of rings (size 3 to 8) (size 9 to 14) (size 15 to 20)
#    0.000    1.500    3.750    0.750    0.000    3.500 
#    9.000    0.000    5.500    0.000    0.000    0.000 
#    0.000    0.000    0.000    0.000    0.000    0.000 
#
# Total GULP energy -89365.106095 kJ/mol
# GULP energy per Si atom -5585.319131 kJ/mol
# Density = 2.232524 g / cm^3
# Si number density = 22.376168 Si / 1000 Ang^3
#
#
#
# Elastic Constant Matrix: (Units=GPa)
#
#
# Indices 1 2 3 4 5 6 
#
# 1 167.9354 37.6019 45.3541 -30.4202 16.9202 10.4819
# 2 37.6019 143.7843 34.9254 -13.8697 -4.3122 1.4861
# 3 45.3541 34.9254 63.2840 -23.5041 3.1537 11.7400
# 4 -30.4202 -13.8697 -23.5041 28.7265 1.1870 -3.6076
# 5 16.9202 -4.3122 3.1537 1.1870 39.1079 -11.5077
# 6 10.4819 1.4861 11.7400 -3.6076 -11.5077 32.8974
#
#
#
# Elastic Compliance Matrix: (Units=1/GPa)
#
#
# Indices 1 2 3 4 5 6 
#
# 1 0.008699 -0.001173 -0.002414 0.006514 -0.004718 -0.002793
# 2 -0.001173 0.008367 -0.004664 -0.000815 0.002556 0.002465
# 3 -0.002414 -0.004664 0.028583 0.017650 -0.004965 -0.009021
# 4 0.006514 -0.000815 0.017650 0.055455 -0.007445 -0.004861
# 5 -0.004718 0.002556 -0.004965 -0.007445 0.032561 0.013733
# 6 -0.002793 0.002465 -0.009021 -0.004861 0.013733 0.038667
#
#
# Mechanical properties :
#
#
# Convention : Reuss Voigt Hill
#
# Bulk Modulus (GPa) = 34.31045 67.86293 51.08669
# Shear Modulus (GPa) = 25.18268 37.28783 31.23526
#
# Velocity S-wave (km/s) = 3.35837 4.08660 3.74025
# Velocity P-wave (km/s) = 5.51407 7.25679 6.44461
#
# Compressibility (1/GPa) = 0.02914564
#
# Stress axis : x y z
#
# Youngs Moduli (GPa) = 114.95545 119.51482 34.98625
#
# Poissons Ratio (x) = 0.14016 0.08447
# Poissons Ratio (y) = 0.13481 0.16319
# Poissons Ratio (z) = 0.27755 0.55747
#
# Static dielectric constant tensor:
#      x y z
#    x 1.852210 0.006590 -0.006090 
#    y 0.006590 1.846810 0.009530 
#    z -0.006090 0.009530 1.844810 
# 
# From -- ./inp_files/613412.got.cif
#   From: 2010.05.17/outbox.cif.g08.bks.cpg/sg2_307_cif.got.tgz:613412.got - 2010.06.03 11:33:40.
