data_PCOD9110411
_publ_section_title
;
Structure prediction by ZEFSAII (Michael W. Deem and Ramdas Pophale) SiO2 
 PCOD9110411
Probable space group: P -1
;
_chemical_formula_sum "Si O2"
_cell_formula_units_Z 16
_cell_length_a 10.013197
_cell_length_b 6.453659
_cell_length_c 26.196021
_cell_angle_alpha 51.218369
_cell_angle_beta 44.894635
_cell_angle_gamma 41.861765
_cell_volume 779.613929
_symmetry_space_group_name_H-M "P -1"
_symmetry_group_IT_number 2
_symmetry_cell_setting 'triclinic'
loop_
_space_group_symop_operation_xyz
x,y,z
-x,-y,-z
loop_
_atom_site_type_symbol
_atom_site_label
_atom_site_fract_x
_atom_site_fract_y
_atom_site_fract_z
Si Si1 0.115642 0.548770 0.913515
Si Si2 0.657830 0.821762 0.650470
Si Si3 0.796830 0.702800 0.178148
Si Si4 0.584236 0.416011 0.415975
Si Si5 0.340274 0.769063 0.685854
Si Si6 0.490107 0.407275 0.177807
Si Si7 0.995015 0.199492 0.800008
Si Si8 0.133831 0.670991 0.546712
O O1 0.078985 0.421991 0.890088
O O2 0.378357 0.418981 0.874562
O O3 0.021531 0.912221 0.870151
O O4 0.000000 0.500000 0.000000
O O5 0.577887 0.736284 0.634096
O O6 0.554023 0.715211 0.738690
O O7 0.925885 0.630035 0.615802
O O8 0.532968 0.205896 0.624121
O O9 0.656069 0.538762 0.248438
O O10 0.939882 0.623417 0.204104
O O11 0.646564 0.079908 0.155955
O O12 0.703659 0.210098 0.365447
O O13 0.363848 0.418658 0.493573
O O14 0.762328 0.313073 0.429758
O O15 0.159711 0.051322 0.728700
O O16 0.255527 0.605570 0.182589
O O17 0.000000 0.000000 0.500000
#
# Coordination Sequence:
#
# PCOD9110411 Si02
#       8
#     2   2   2   2   2   2   2   2
#     4  10  23  44  64  89 128 164 198 247 303 362
#     4  11  21  38  62  92 121 154 204 255 302 360
#     4  10  20  42  61  89 124 163 194 251 304 357
#     4  10  21  43  62  83 123 164 200 251 312 359
#     4  11  20  39  61  91 124 158 204 256 305 354
#     4  11  22  39  63  95 123 156 207 250 297 365
#     4  10  23  39  59  95 126 156 207 254 297 358
#     4   9  22  41  60  86 122 161 202 250 307 367
#
# _framework density 20.522977000000001
#
# number of rings (size 3 to 8) (size 9 to 14) (size 15 to 20)
#    0.000    1.750    5.000    0.000    3.500    5.000 
#    4.500    6.875    0.000    0.000    0.000    0.000 
#    0.000    0.000    0.000    0.000    0.000    0.000 
#
# Total GULP energy -89194.505602 kJ/mol
# GULP energy per Si atom -5574.656600 kJ/mol
# Density = 2.047627 g / cm^3
# Si number density = 20.522977 Si / 1000 Ang^3
#
#
#
# Elastic Constant Matrix: (Units=GPa)
#
#
# Indices 1 2 3 4 5 6 
#
# 1 164.8223 57.1243 53.9751 20.3273 0.6330 -13.3082
# 2 57.1243 39.1677 21.7517 6.4363 4.7830 -2.6509
# 3 53.9751 21.7517 118.3258 17.5990 4.4500 9.2702
# 4 20.3273 6.4363 17.5990 14.0984 3.7168 3.6111
# 5 0.6330 4.7830 4.4500 3.7168 28.2697 7.8143
# 6 -13.3082 -2.6509 9.2702 3.6111 7.8143 37.9069
#
#
#
# Elastic Compliance Matrix: (Units=1/GPa)
#
#
# Indices 1 2 3 4 5 6 
#
# 1 0.015467 -0.019335 -0.002083 -0.013120 0.003568 0.005102
# 2 -0.019335 0.054498 -0.001969 0.008230 -0.009176 -0.001388
# 3 -0.002083 -0.001969 0.011420 -0.009793 0.000662 -0.002865
# 4 -0.013120 0.008230 -0.009793 0.103491 -0.010590 -0.009311
# 5 0.003568 -0.009176 0.000662 -0.010590 0.040011 -0.006790
# 6 0.005102 -0.001388 -0.002865 -0.009311 -0.006790 0.031062
#
#
# Mechanical properties :
#
#
# Convention : Reuss Voigt Hill
#
# Bulk Modulus (GPa) = 28.89322 65.33533 47.11427
# Shear Modulus (GPa) = 15.91037 28.68597 22.29817
#
# Velocity S-wave (km/s) = 2.78735 3.74270 3.29978
# Velocity P-wave (km/s) = 4.94652 7.11206 6.12575
#
# Compressibility (1/GPa) = 0.03461019
#
# Stress axis : x y z
#
# Youngs Moduli (GPa) = 64.65415 18.34919 87.56810
#
# Poissons Ratio (x) = 0.35478 0.18245
# Poissons Ratio (y) = 1.25010 0.17240
# Poissons Ratio (z) = 0.13471 0.03612
#
# Static dielectric constant tensor:
#      x y z
#    x 1.802810 0.023580 -0.016210 
#    y 0.023580 1.762240 0.004120 
#    z -0.016210 0.004120 1.776720 
# 
# From -- ./inp_files/143128.got.cif
#   From: 2010.05.17/outbox.cif.g08.bks.cpg/sg2_72_cif.got.tgz:143128.got - 2010.06.03 11:33:40.
