data_PCOD9110223
_publ_section_title
;
Structure prediction by ZEFSAII (Michael W. Deem and Ramdas Pophale) SiO2 
 PCOD9110223
Probable space group: P -1
;
_chemical_formula_sum "Si O2"
_cell_formula_units_Z 14
_cell_length_a 15.530527
_cell_length_b 13.570286
_cell_length_c 8.212674
_cell_angle_alpha 131.693838
_cell_angle_beta 97.208037
_cell_angle_gamma 41.867284
_cell_volume 578.129949
_symmetry_space_group_name_H-M "P -1"
_symmetry_group_IT_number 2
_symmetry_cell_setting 'triclinic'
loop_
_space_group_symop_operation_xyz
x,y,z
-x,-y,-z
loop_
_atom_site_type_symbol
_atom_site_label
_atom_site_fract_x
_atom_site_fract_y
_atom_site_fract_z
Si Si1 0.997740 0.312657 0.361828
Si Si2 0.155882 0.272979 0.646288
Si Si3 0.326452 0.744819 0.597282
Si Si4 0.619350 0.970997 0.981339
Si Si5 0.254874 0.546347 0.345490
Si Si6 0.697798 0.651376 0.200503
Si Si7 0.456651 0.777120 0.429967
O O1 0.093866 0.254708 0.475049
O O2 0.883177 0.337505 0.427656
O O3 0.160162 0.057056 0.988320
O O4 0.167795 0.361772 0.375123
O O5 0.184962 0.388424 0.736666
O O6 0.339437 0.961554 0.440689
O O7 0.000000 0.500000 0.000000
O O8 0.500000 0.500000 0.500000
O O9 0.227593 0.738871 0.531207
O O10 0.422347 0.678731 0.385871
O O11 0.480992 0.233816 0.111735
O O12 0.622938 0.030111 0.225043
O O13 0.500000 0.000000 0.000000
O O14 0.229175 0.500345 0.122162
O O15 0.658880 0.575743 0.219400
O O16 0.500000 0.000000 0.500000
#
# Coordination Sequence:
#
# PCOD9110223 Si02
#       7
#     2   2   2   2   2   2   2
#     4  11  24  45  74 106 141 180 233 297 345 413
#     4  11  20  44  71 108 138 168 236 296 353 403
#     4  12  28  47  67 100 147 193 231 278 346 426
#     4  10  20  41  71 103 133 177 237 289 347 401
#     4  11  23  48  71 101 142 186 234 286 350 411
#     4  10  22  41  73 100 137 179 225 295 349 402
#     4  11  24  43  64 104 137 187 230 281 349 418
#
# _framework density 24.216009
#
# number of rings (size 3 to 8) (size 9 to 14) (size 15 to 20)
#    0.000    1.143    4.286    3.000    4.000    2.286 
#   10.286    0.714    0.000    0.000    0.000    0.000 
#    0.000    0.000    0.000    0.000    0.000    0.000 
#
# Total GULP energy -78258.844195 kJ/mol
# GULP energy per Si atom -5589.917442 kJ/mol
# Density = 2.416089 g / cm^3
# Si number density = 24.216009 Si / 1000 Ang^3
#
#
#
# Elastic Constant Matrix: (Units=GPa)
#
#
# Indices 1 2 3 4 5 6 
#
# 1 159.3039 32.9021 9.2192 -11.2788 -20.4165 0.3790
# 2 32.9021 96.6498 24.2535 -14.9032 -0.2447 -16.6347
# 3 9.2192 24.2535 72.5557 -3.5996 -9.5222 -0.2378
# 4 -11.2788 -14.9032 -3.5996 33.2217 -3.5838 -3.2027
# 5 -20.4165 -0.2447 -9.5222 -3.5838 51.8193 -15.1334
# 6 0.3790 -16.6347 -0.2378 -3.2027 -15.1334 37.3473
#
#
#
# Elastic Compliance Matrix: (Units=1/GPa)
#
#
# Indices 1 2 3 4 5 6 
#
# 1 0.007246 -0.002177 0.000316 0.001896 0.003150 0.000398
# 2 -0.002177 0.014293 -0.004044 0.006047 0.001014 0.007292
# 3 0.000316 -0.004044 0.015471 0.000218 0.002802 -0.000552
# 4 0.001896 0.006047 0.000218 0.034840 0.005534 0.007905
# 5 0.003150 0.001014 0.002802 0.005534 0.024621 0.010889
# 6 0.000398 0.007292 -0.000552 0.007905 0.010889 0.035106
#
#
# Mechanical properties :
#
#
# Convention : Reuss Voigt Hill
#
# Bulk Modulus (GPa) = 39.68486 51.25099 45.46793
# Shear Modulus (GPa) = 32.94102 41.95329 37.44716
#
# Velocity S-wave (km/s) = 3.69223 4.16680 3.93667
# Velocity P-wave (km/s) = 5.88219 6.66031 6.28330
#
# Compressibility (1/GPa) = 0.02519853
#
# Stress axis : x y z
#
# Youngs Moduli (GPa) = 138.01437 69.96632 64.63707
#
# Poissons Ratio (x) = 0.15233 -0.02041
# Poissons Ratio (y) = 0.30048 0.26139
# Poissons Ratio (z) = -0.04359 0.28294
#
# Static dielectric constant tensor:
#      x y z
#    x 1.952260 0.131540 0.126310 
#    y 0.131540 1.753280 -0.273460 
#    z 0.126310 -0.273460 1.479540 
# 
# From -- ./inp_files/314112.got.cif
#   From: 2010.05.17/outbox.cif.g08.bks.cpg/sg2_158_cif.got.tgz:314112.got - 2010.06.03 11:33:40.
