data_PCOD9110843
_publ_section_title
;
Structure prediction by ZEFSAII (Michael W. Deem and Ramdas Pophale) SiO2 
 PCOD9110843
Probable space group: P -1
;
_chemical_formula_sum "Si O2"
_cell_formula_units_Z 14
_cell_length_a 8.564967
_cell_length_b 9.110512
_cell_length_c 13.149922
_cell_angle_alpha 124.477866
_cell_angle_beta 119.451741
_cell_angle_gamma 50.536766
_cell_volume 638.856840
_symmetry_space_group_name_H-M "P -1"
_symmetry_group_IT_number 2
_symmetry_cell_setting 'triclinic'
loop_
_space_group_symop_operation_xyz
x,y,z
-x,-y,-z
loop_
_atom_site_type_symbol
_atom_site_label
_atom_site_fract_x
_atom_site_fract_y
_atom_site_fract_z
Si Si1 0.360414 0.520495 0.058503
Si Si2 0.368843 0.897591 0.296667
Si Si3 0.020288 0.480668 0.812293
Si Si4 0.529312 0.301630 0.534151
Si Si5 0.899315 0.636974 0.619788
Si Si6 0.451302 0.320455 0.214502
Si Si7 0.299607 0.029853 0.693122
O O1 0.298720 0.740280 0.172907
O O2 0.482542 0.353621 0.119710
O O3 0.500000 0.500000 0.000000
O O4 0.170933 0.501187 0.947511
O O5 0.466694 0.813138 0.405204
O O6 0.175725 0.125919 0.330807
O O7 0.539047 0.907251 0.281573
O O8 0.034957 0.553808 0.731698
O O9 0.786336 0.619619 0.827023
O O10 0.091618 0.240266 0.730365
O O11 0.314710 0.364889 0.433536
O O12 0.532178 0.503664 0.647463
O O13 0.705747 0.130593 0.451883
O O14 0.000000 0.500000 0.500000
O O15 0.601957 0.100825 0.224891
#
# Coordination Sequence:
#
# PCOD9110843 Si02
#       7
#     2   2   2   2   2   2   2
#     4  11  25  46  69  92 131 176 227 273 323 390
#     4  10  20  42  66  96 131 177 215 271 324 384
#     4  12  24  42  68  98 133 174 221 270 325 391
#     4  10  21  41  66  95 141 167 211 276 326 393
#     4  11  22  38  68 103 134 168 219 268 330 396
#     4  11  25  45  65  96 134 173 219 276 328 386
#     4  11  21  41  67  98 131 171 216 268 337 383
#
# _framework density 21.914142999999999
#
# number of rings (size 3 to 8) (size 9 to 14) (size 15 to 20)
#    0.000    1.143    4.286    4.286    2.000    1.714 
#    5.143    0.000    0.000    0.000    0.000    0.000 
#    0.000    0.000    0.000    0.000    0.000    0.000 
#
# Total GULP energy -78307.814312 kJ/mol
# GULP energy per Si atom -5593.415308 kJ/mol
# Density = 2.186427 g / cm^3
# Si number density = 21.914143 Si / 1000 Ang^3
#
#
#
# Elastic Constant Matrix: (Units=GPa)
#
#
# Indices 1 2 3 4 5 6 
#
# 1 23.8702 8.9943 2.3237 -11.5135 -17.7751 15.4568
# 2 8.9943 128.8821 19.5643 -25.9936 -20.8443 19.3124
# 3 2.3237 19.5643 94.3470 -20.6430 -2.6357 14.4068
# 4 -11.5135 -25.9936 -20.6430 29.6025 7.5452 -13.2808
# 5 -17.7751 -20.8443 -2.6357 7.5452 38.9380 -5.1205
# 6 15.4568 19.3124 14.4068 -13.2808 -5.1205 32.5544
#
#
#
# Elastic Compliance Matrix: (Units=1/GPa)
#
#
# Indices 1 2 3 4 5 6 
#
# 1 0.116885 0.010956 0.009592 0.028362 0.048183 -0.047092
# 2 0.010956 0.011154 0.000763 0.009309 0.008293 -0.007055
# 3 0.009592 0.000763 0.013492 0.010224 0.002884 -0.006353
# 4 0.028362 0.009309 0.010224 0.058998 0.007417 0.001722
# 5 0.048183 0.008293 0.002884 0.007417 0.048452 -0.018427
# 6 -0.047092 -0.007055 -0.006353 0.001722 -0.018427 0.057878
#
#
# Mechanical properties :
#
#
# Convention : Reuss Voigt Hill
#
# Bulk Modulus (GPa) = 5.43024 34.31823 19.87423
# Shear Modulus (GPa) = 15.35522 34.63343 24.99433
#
# Velocity S-wave (km/s) = 2.64994 3.97976 3.38088
# Velocity P-wave (km/s) = 3.44184 6.06731 4.93247
#
# Compressibility (1/GPa) = 0.18415386
#
# Stress axis : x y z
#
# Youngs Moduli (GPa) = 8.55541 89.65020 74.11570
#
# Poissons Ratio (x) = -0.98224 -0.71090
# Poissons Ratio (y) = -0.09374 -0.05654
# Poissons Ratio (z) = -0.08206 -0.06839
#
# Static dielectric constant tensor:
#      x y z
#    x 1.848460 0.005010 -0.023050 
#    y 0.005010 1.786930 0.018270 
#    z -0.023050 0.018270 1.836520 
# 
# From -- ./inp_files/185552.got.cif
#   From: 2010.05.17/outbox.cif.g08.bks.cpg/sg2_93_cif.got.tgz:185552.got - 2010.06.03 11:33:40.
