data_PCOD9110216
_publ_section_title
;
Structure prediction by ZEFSAII (Michael W. Deem and Ramdas Pophale) SiO2 
 PCOD9110216
Probable space group: P -1
;
_chemical_formula_sum "Si O2"
_cell_formula_units_Z 14
_cell_length_a 9.493578
_cell_length_b 11.966331
_cell_length_c 9.732162
_cell_angle_alpha 120.861816
_cell_angle_beta 45.823381
_cell_angle_gamma 100.528667
_cell_volume 652.665747
_symmetry_space_group_name_H-M "P -1"
_symmetry_group_IT_number 2
_symmetry_cell_setting 'triclinic'
loop_
_space_group_symop_operation_xyz
x,y,z
-x,-y,-z
loop_
_atom_site_type_symbol
_atom_site_label
_atom_site_fract_x
_atom_site_fract_y
_atom_site_fract_z
Si Si1 0.409080 0.460776 0.895667
Si Si2 0.488409 0.896367 0.060754
Si Si3 0.785927 0.766125 0.002661
Si Si4 0.226889 0.705610 0.998091
Si Si5 0.875418 0.964756 0.434872
Si Si6 0.275406 0.678697 0.631949
Si Si7 0.206218 0.955690 0.744008
O O1 0.316239 0.338536 0.921707
O O2 0.585817 0.424531 0.635573
O O3 0.500000 0.500000 0.000000
O O4 0.238611 0.585716 0.021716
O O5 0.692554 0.808817 0.941550
O O6 0.371637 0.792386 0.014833
O O7 0.353267 0.996008 0.329987
O O8 0.500000 0.000000 0.000000
O O9 0.721174 0.909462 0.218899
O O10 0.031578 0.705850 0.789707
O O11 0.001163 0.813043 0.210487
O O12 0.299522 0.653675 0.762813
O O13 0.860687 0.063455 0.377304
O O14 0.000000 0.000000 0.500000
O O15 0.330039 0.818636 0.645438
O O16 0.000000 0.000000 0.000000
#
# Coordination Sequence:
#
# PCOD9110216 Si02
#       7
#     2   2   2   2   2   2   2
#     4  12  27  47  68  98 142 186 231 280 334 419
#     4  11  24  39  68 105 137 171 229 285 348 404
#     4  11  24  45  71 105 132 180 234 274 350 407
#     4  11  23  48  63  97 140 180 223 282 342 404
#     4  10  22  39  67 100 136 177 215 278 353 398
#     4  11  25  45  74  98 138 179 228 289 345 402
#     4  10  20  41  71 101 134 166 227 287 344 396
#
# _framework density 21.450489999999999
#
# number of rings (size 3 to 8) (size 9 to 14) (size 15 to 20)
#    0.000    1.143    4.286    2.143    8.000    4.571 
#    2.571    0.000    0.000    0.000    0.000    0.000 
#    0.000    0.000    0.000    0.000    0.000    0.000 
#
# Total GULP energy -78148.429910 kJ/mol
# GULP energy per Si atom -5582.030708 kJ/mol
# Density = 2.140167 g / cm^3
# Si number density = 21.450490 Si / 1000 Ang^3
#
#
#
# Elastic Constant Matrix: (Units=GPa)
#
#
# Indices 1 2 3 4 5 6 
#
# 1 112.4355 44.6906 19.4641 -8.5270 7.2550 -15.5006
# 2 44.6906 134.9601 9.7046 -16.6867 8.8260 -15.1236
# 3 19.4641 9.7046 105.9581 -13.3263 12.5137 -3.6652
# 4 -8.5270 -16.6867 -13.3263 26.2787 -8.7825 7.6970
# 5 7.2550 8.8260 12.5137 -8.7825 34.1268 -7.6179
# 6 -15.5006 -15.1236 -3.6652 7.6970 -7.6179 41.3242
#
#
#
# Elastic Compliance Matrix: (Units=1/GPa)
#
#
# Indices 1 2 3 4 5 6 
#
# 1 0.010809 -0.003164 -0.001589 -0.000223 -0.000344 0.002734
# 2 -0.003164 0.009153 0.000398 0.004475 -0.000401 0.001291
# 3 -0.001589 0.000398 0.010537 0.004431 -0.002675 -0.000834
# 4 -0.000223 0.004475 0.004431 0.047402 0.008268 -0.005358
# 5 -0.000344 -0.000401 -0.002675 0.008268 0.033509 0.004124
# 6 0.002734 0.001291 -0.000834 -0.005358 0.004124 0.027381
#
#
# Mechanical properties :
#
#
# Convention : Reuss Voigt Hill
#
# Bulk Modulus (GPa) = 45.89333 55.67471 50.78402
# Shear Modulus (GPa) = 32.30744 38.97892 35.64318
#
# Velocity S-wave (km/s) = 3.88511 4.26744 4.08075
# Velocity P-wave (km/s) = 6.44724 7.09173 6.77715
#
# Compressibility (1/GPa) = 0.02178966
#
# Stress axis : x y z
#
# Youngs Moduli (GPa) = 92.51855 109.25654 94.89975
#
# Poissons Ratio (x) = 0.34565 0.15076
# Poissons Ratio (y) = 0.29270 -0.03774
# Poissons Ratio (z) = 0.14697 -0.04345
#
# Static dielectric constant tensor:
#      x y z
#    x 1.871030 -0.024560 -0.017870 
#    y -0.024560 1.815980 0.053940 
#    z -0.017870 0.053940 1.812300 
# 
# From -- ./inp_files/189644.got.cif
#   From: 2010.05.17/outbox.cif.g08.bks.cpg/sg2_95_cif.got.tgz:189644.got - 2010.06.03 11:33:40.
