data_PCOD9110855
_publ_section_title
;
Structure prediction by ZEFSAII (Michael W. Deem and Ramdas Pophale) SiO2 
 PCOD9110855
Probable space group: P -1
;
_chemical_formula_sum "Si O2"
_cell_formula_units_Z 10
_cell_length_a 11.858812
_cell_length_b 8.744942
_cell_length_c 9.088204
_cell_angle_alpha 49.770731
_cell_angle_beta 145.995384
_cell_angle_gamma 127.543609
_cell_volume 396.336423
_symmetry_space_group_name_H-M "P -1"
_symmetry_group_IT_number 2
_symmetry_cell_setting 'triclinic'
loop_
_space_group_symop_operation_xyz
x,y,z
-x,-y,-z
loop_
_atom_site_type_symbol
_atom_site_label
_atom_site_fract_x
_atom_site_fract_y
_atom_site_fract_z
Si Si1 0.231736 0.337279 0.376307
Si Si2 0.963481 0.457140 0.231621
Si Si3 0.466528 0.786557 0.409864
Si Si4 0.803213 0.928574 0.933301
Si Si5 0.264691 0.502747 0.766917
O O1 0.371296 0.548416 0.448938
O O2 0.381403 0.184443 0.585288
O O3 0.060372 0.292909 0.344440
O O4 0.122351 0.403135 0.069188
O O5 0.786411 0.394951 0.199467
O O6 0.149561 0.578457 0.456833
O O7 0.616379 0.843479 0.674122
O O8 0.285839 0.915297 0.153401
O O9 0.837305 0.734154 0.183945
O O10 0.000000 0.000000 0.000000
O O11 0.500000 0.500000 0.000000
#
# Coordination Sequence:
#
# PCOD9110855 Si02
#       5
#     2   2   2   2   2
#     4  10  20  42  66  98 126 178 218 274 310 398
#     4  10  22  37  66  93 131 164 228 260 322 381
#     4  10  22  37  66  93 131 164 228 260 322 381
#     4  11  23  42  66  97 130 177 214 270 323 399
#     4  11  23  42  66  97 130 177 214 270 323 399
#
# _framework density 25.231089000000001
#
# number of rings (size 3 to 8) (size 9 to 14) (size 15 to 20)
#    0.000    1.600    2.000    2.400    5.600    4.800 
#    0.000    2.000    0.000    0.000    0.000    0.000 
#    0.000    0.000    0.000    0.000    0.000    0.000 
#
# Total GULP energy -55884.420611 kJ/mol
# GULP energy per Si atom -5588.442061 kJ/mol
# Density = 2.517366 g / cm^3
# Si number density = 25.231089 Si / 1000 Ang^3
#
#
#
# Elastic Constant Matrix: (Units=GPa)
#
#
# Indices 1 2 3 4 5 6 
#
# 1 265.9653 34.6708 61.9017 -11.8817 36.0220 -44.5984
# 2 34.6708 71.9237 26.2984 1.6785 11.4065 -19.7849
# 3 61.9017 26.2984 105.8106 25.4010 16.4093 -0.8541
# 4 -11.8817 1.6785 25.4010 42.8546 -11.0787 11.8248
# 5 36.0220 11.4065 16.4093 -11.0787 49.1224 -5.0832
# 6 -44.5984 -19.7849 -0.8541 11.8248 -5.0832 47.6995
#
#
#
# Elastic Compliance Matrix: (Units=1/GPa)
#
#
# Indices 1 2 3 4 5 6 
#
# 1 0.005688 0.000075 -0.003388 0.001741 -0.002185 0.004624
# 2 0.000075 0.017661 -0.003738 -0.001102 -0.002395 0.007346
# 3 -0.003388 -0.003738 0.015565 -0.010536 -0.004462 -0.002303
# 4 0.001741 -0.001102 -0.010536 0.034381 0.009578 -0.006520
# 5 -0.002185 -0.002395 -0.004462 0.009578 0.025884 -0.002733
# 6 0.004624 0.007346 -0.002303 -0.006520 -0.002733 0.029619
#
#
# Mechanical properties :
#
#
# Convention : Reuss Voigt Hill
#
# Bulk Modulus (GPa) = 40.30461 76.60460 58.45460
# Shear Modulus (GPa) = 33.07561 49.32390 41.19975
#
# Velocity S-wave (km/s) = 3.62457 4.42621 4.04530
# Velocity P-wave (km/s) = 5.79013 7.51990 6.71098
#
# Compressibility (1/GPa) = 0.02481106
#
# Stress axis : x y z
#
# Youngs Moduli (GPa) = 175.81649 56.62286 64.24847
#
# Poissons Ratio (x) = -0.00424 0.21766
# Poissons Ratio (y) = -0.01316 0.24016
# Poissons Ratio (z) = 0.59564 0.21165
#
# Static dielectric constant tensor:
#      x y z
#    x 2.105960 0.010000 0.034380 
#    y 0.010000 2.031250 0.006710 
#    z 0.034380 0.006710 2.001100 
# 
# From -- ./inp_files/233688.got.cif
#   From: 2010.05.17/outbox.cif.g08.bks.cpg/sg2_117_cif.got.tgz:233688.got - 2010.06.03 11:33:40.
