data_PCOD9110681
_publ_section_title
;
Structure prediction by ZEFSAII (Michael W. Deem and Ramdas Pophale) SiO2 
 PCOD9110681
Probable space group: P -1
;
_chemical_formula_sum "Si O2"
_cell_formula_units_Z 12
_cell_length_a 14.073737
_cell_length_b 19.173420
_cell_length_c 6.636460
_cell_angle_alpha 38.204704
_cell_angle_beta 133.066134
_cell_angle_gamma 150.962381
_cell_volume 537.537963
_symmetry_space_group_name_H-M "P -1"
_symmetry_group_IT_number 2
_symmetry_cell_setting 'triclinic'
loop_
_space_group_symop_operation_xyz
x,y,z
-x,-y,-z
loop_
_atom_site_type_symbol
_atom_site_label
_atom_site_fract_x
_atom_site_fract_y
_atom_site_fract_z
Si Si1 0.234339 0.769450 0.796637
Si Si2 0.190440 0.565200 0.879635
Si Si3 0.599409 0.306708 0.505972
Si Si4 0.229084 0.013841 0.362510
Si Si5 0.590991 0.476875 0.446655
Si Si6 0.803832 0.772589 0.355956
O O1 0.226616 0.712326 0.691851
O O2 0.281070 0.930375 0.520566
O O3 0.374991 0.780232 0.105522
O O4 0.019459 0.610028 0.944886
O O5 0.226380 0.584552 0.651512
O O6 0.345028 0.579234 0.173763
O O7 0.606812 0.427057 0.369002
O O8 0.400184 0.160475 0.427393
O O9 0.018830 0.867584 0.500677
O O10 0.194706 0.092259 0.976426
O O11 0.734983 0.671598 0.273416
O O12 0.369443 0.368598 0.420857
#
# Coordination Sequence:
#
# PCOD9110681 Si02
#       6
#     2   2   2   2   2   2
#     4  10  22  40  65  89 126 159 199 255 306 357
#     4  10  20  42  65  90 120 163 206 248 300 367
#     4  11  23  39  66  95 118 155 212 253 301 357
#     4  11  22  40  62  94 125 158 200 254 310 354
#     4  10  21  43  66  87 120 168 205 246 295 367
#     4  10  22  42  65  85 126 169 199 243 309 362
#
# _framework density 22.324006000000001
#
# number of rings (size 3 to 8) (size 9 to 14) (size 15 to 20)
#    0.000    1.667    3.333    1.000    0.000    2.000 
#    3.000    1.667    0.000    0.000    0.000    0.000 
#    0.000    0.000    0.000    0.000    0.000    0.000 
#
# Total GULP energy -67102.691958 kJ/mol
# GULP energy per Si atom -5591.890997 kJ/mol
# Density = 2.227320 g / cm^3
# Si number density = 22.324006 Si / 1000 Ang^3
#
#
#
# Elastic Constant Matrix: (Units=GPa)
#
#
# Indices 1 2 3 4 5 6 
#
# 1 120.4143 52.0636 20.8002 -12.2608 4.2351 -28.7016
# 2 52.0636 71.2319 7.1585 -15.2655 -1.0602 -8.4656
# 3 20.8002 7.1585 41.8599 -11.8909 18.0868 -25.3729
# 4 -12.2608 -15.2655 -11.8909 18.2362 -7.4719 8.5444
# 5 4.2351 -1.0602 18.0868 -7.4719 33.1006 -4.8454
# 6 -28.7016 -8.4656 -25.3729 8.5444 -4.8454 59.7308
#
#
#
# Elastic Compliance Matrix: (Units=1/GPa)
#
#
# Indices 1 2 3 4 5 6 
#
# 1 0.013935 -0.010082 -0.003423 -0.003467 -0.000392 0.004277
# 2 -0.010082 0.024955 0.002594 0.018857 0.004558 -0.002534
# 3 -0.003423 0.002594 0.047001 0.015567 -0.019469 0.014882
# 4 -0.003467 0.018857 0.015567 0.084685 0.011132 -0.003592
# 5 -0.000392 0.004558 -0.019469 0.011132 0.042688 -0.005942
# 6 0.004277 -0.002534 0.014882 -0.003592 -0.005942 0.024791
#
#
# Mechanical properties :
#
#
# Convention : Reuss Voigt Hill
#
# Bulk Modulus (GPa) = 15.60831 43.72786 29.66808
# Shear Modulus (GPa) = 17.77870 32.44577 25.11224
#
# Velocity S-wave (km/s) = 2.82511 3.81649 3.35759
# Velocity P-wave (km/s) = 4.20102 6.24909 5.32446
#
# Compressibility (1/GPa) = 0.06406845
#
# Stress axis : x y z
#
# Youngs Moduli (GPa) = 71.75960 40.07236 21.27597
#
# Poissons Ratio (x) = 0.40401 0.07284
# Poissons Ratio (y) = 0.72348 -0.05518
# Poissons Ratio (z) = 0.24566 -0.10394
#
# Static dielectric constant tensor:
#      x y z
#    x 1.836490 0.027600 -0.000420 
#    y 0.027600 1.828860 -0.018680 
#    z -0.000420 -0.018680 1.832720 
# 
# From -- ./inp_files/24196.got.cif
#   From: 2010.05.17/outbox.cif.g08.bks.cpg/sg2_13_cif.got.tgz:24196.got - 2010.06.03 11:33:40.
