data_PCOD9110152
_publ_section_title
;
Structure prediction by ZEFSAII (Michael W. Deem and Ramdas Pophale) SiO2 
 PCOD9110152
Probable space group: P -1
;
_chemical_formula_sum "Si O2"
_cell_formula_units_Z 16
_cell_length_a 11.965022
_cell_length_b 7.269764
_cell_length_c 11.264751
_cell_angle_alpha 92.923911
_cell_angle_beta 63.485433
_cell_angle_gamma 124.333729
_cell_volume 696.776197
_symmetry_space_group_name_H-M "P -1"
_symmetry_group_IT_number 2
_symmetry_cell_setting 'triclinic'
loop_
_space_group_symop_operation_xyz
x,y,z
-x,-y,-z
loop_
_atom_site_type_symbol
_atom_site_label
_atom_site_fract_x
_atom_site_fract_y
_atom_site_fract_z
Si Si1 0.333466 0.773453 0.532529
Si Si2 0.331920 0.934493 0.279804
Si Si3 0.643420 0.059030 0.057376
Si Si4 0.803596 0.074209 0.225939
Si Si5 0.624888 0.720375 0.872029
Si Si6 0.072096 0.975707 0.347504
Si Si7 0.885827 0.562435 0.010670
Si Si8 0.782258 0.668114 0.303395
O O1 0.317092 0.817308 0.406443
O O2 0.322557 0.553100 0.570028
O O3 0.500000 0.000000 0.500000
O O4 0.204924 0.767035 0.671850
O O5 0.456057 0.921616 0.147390
O O6 0.158473 0.857764 0.331244
O O7 0.422833 0.215403 0.225470
O O8 0.704057 0.042309 0.156253
O O9 0.747290 0.336139 0.997464
O O10 0.677115 0.932820 0.941900
O O11 0.727710 0.826129 0.310740
O O12 0.985659 0.199369 0.110189
O O13 0.786290 0.768008 0.759802
O O14 0.500000 0.500000 0.000000
O O15 0.944112 0.830227 0.303954
O O16 0.000000 0.000000 0.500000
O O17 0.812707 0.600660 0.159227
O O18 0.000000 0.500000 0.000000
#
# Coordination Sequence:
#
# PCOD9110152 Si02
#       8
#     2   2   2   2   2   2   2   2
#     4  12  24  46  67 106 145 187 234 299 372 432
#     4  10  24  44  69  97 149 188 239 291 366 427
#     4  11  21  45  72 108 141 186 238 302 372 421
#     4  11  24  40  73 108 141 180 239 304 363 431
#     4  10  25  44  73 105 143 190 248 298 355 436
#     4  10  24  46  68 102 147 190 247 291 357 436
#     4  10  20  41  70 106 138 180 237 300 361 427
#     4  12  24  43  72 106 141 191 239 297 367 429
#
# _framework density 22.962897000000002
#
# number of rings (size 3 to 8) (size 9 to 14) (size 15 to 20)
#    0.750    0.500    3.750    3.000    0.000    5.000 
#    0.000    2.500    0.000    0.000    0.000    0.000 
#    0.000    0.000    0.000    0.000    0.000    0.000 
#
# Total GULP energy -89194.619887 kJ/mol
# GULP energy per Si atom -5574.663743 kJ/mol
# Density = 2.291063 g / cm^3
# Si number density = 22.962897 Si / 1000 Ang^3
#
#
#
# Elastic Constant Matrix: (Units=GPa)
#
#
# Indices 1 2 3 4 5 6 
#
# 1 57.4919 11.3271 20.8626 -13.5746 3.4521 -5.6917
# 2 11.3271 81.9283 36.4691 -14.6609 6.6140 -3.3964
# 3 20.8626 36.4691 138.3751 -14.0188 4.6600 -0.5474
# 4 -13.5746 -14.6609 -14.0188 45.9574 -14.4070 7.4130
# 5 3.4521 6.6140 4.6600 -14.4070 41.0764 -15.6669
# 6 -5.6917 -3.3964 -0.5474 7.4130 -15.6669 28.4197
#
#
#
# Elastic Compliance Matrix: (Units=1/GPa)
#
#
# Indices 1 2 3 4 5 6 
#
# 1 0.019790 -0.000832 -0.002318 0.004863 0.001788 0.003537
# 2 -0.000832 0.014426 -0.003341 0.003074 -0.000674 0.000320
# 3 -0.002318 -0.003341 0.008559 0.000936 -0.000341 -0.001131
# 4 0.004863 0.003074 0.000936 0.027189 0.008028 -0.001307
# 5 0.001788 -0.000674 -0.000341 0.008028 0.033507 0.016649
# 6 0.003537 0.000320 -0.001131 -0.001307 0.016649 0.045430
#
#
# Mechanical properties :
#
#
# Convention : Reuss Voigt Hill
#
# Bulk Modulus (GPa) = 33.56563 46.12367 39.84465
# Shear Modulus (GPa) = 29.10122 37.03313 33.06717
#
# Velocity S-wave (km/s) = 3.56380 4.02025 3.79888
# Velocity P-wave (km/s) = 5.61990 6.45598 6.05239
#
# Compressibility (1/GPa) = 0.02979238
#
# Stress axis : x y z
#
# Youngs Moduli (GPa) = 50.53116 69.32001 116.84161
#
# Poissons Ratio (x) = 0.05766 0.27084
# Poissons Ratio (y) = 0.04203 0.39039
# Poissons Ratio (z) = 0.11713 0.23161
#
# Static dielectric constant tensor:
#      x y z
#    x 1.922330 0.010850 0.000130 
#    y 0.010850 1.854020 -0.021520 
#    z 0.000130 -0.021520 1.905380 
# 
# From -- ./inp_files/446065.got.cif
#   From: 2010.05.17/outbox.cif.g08.bks.cpg/sg2_224_cif.got.tgz:446065.got - 2010.06.03 11:33:40.
