data_PCOD9110465
_publ_section_title
;
Structure prediction by ZEFSAII (Michael W. Deem and Ramdas Pophale) SiO2 
 PCOD9110465
Probable space group: P -1
;
_chemical_formula_sum "Si O2"
_cell_formula_units_Z 15
_cell_length_a 16.534811
_cell_length_b 12.064568
_cell_length_c 15.007374
_cell_angle_alpha 153.046368
_cell_angle_beta 154.738347
_cell_angle_gamma 34.142140
_cell_volume 575.498811
_symmetry_space_group_name_H-M "P -1"
_symmetry_group_IT_number 2
_symmetry_cell_setting 'triclinic'
loop_
_space_group_symop_operation_xyz
x,y,z
-x,-y,-z
loop_
_atom_site_type_symbol
_atom_site_label
_atom_site_fract_x
_atom_site_fract_y
_atom_site_fract_z
Si Si1 0.044730 0.676890 0.753279
Si Si2 0.730667 0.000754 0.580870
Si Si3 0.500000 0.500000 0.000000
Si Si4 0.027364 0.570551 0.310332
Si Si5 0.325478 0.702551 0.587411
Si Si6 0.553534 0.274059 0.741366
Si Si7 0.258087 0.255173 0.001152
Si Si8 0.956204 0.110830 0.709248
O O1 0.276204 0.692912 0.990710
O O2 0.000000 0.500000 0.500000
O O3 0.892657 0.909661 0.750513
O O4 0.011223 0.587676 0.755664
O O5 0.597978 0.778625 0.275287
O O6 0.624514 0.253763 0.697664
O O7 0.857507 0.058433 0.665266
O O8 0.414459 0.485029 0.799626
O O9 0.236974 0.528773 0.446569
O O10 0.886846 0.586620 0.096714
O O11 0.993186 0.843522 0.510498
O O12 0.196277 0.733341 0.393095
O O13 0.297564 0.977418 0.800653
O O14 0.540887 0.643309 0.730605
O O15 0.500000 0.000000 0.500000
O O16 0.155739 0.220054 0.968721
#
# Coordination Sequence:
#
# PCOD9110465 Si02
#       8
#     2   2   1   2   2   2   2   2
#     4  12  21  39  62  91 131 175 214 259 327 385
#     4  11  22  39  62  95 133 170 212 264 323 392
#     4  10  20  42  62  90 132 172 214 266 316 382
#     4   9  17  31  53  84 122 164 216 264 313 383
#     4   8  15  30  50  81 115 161 216 264 320 376
#     4  10  23  42  62  89 132 173 217 264 314 385
#     4   8  15  30  51  79 116 162 213 268 318 376
#     4   9  16  31  53  83 124 161 212 267 319 380
#
# _framework density 26.064344999999999
#
# number of rings (size 3 to 8) (size 9 to 14) (size 15 to 20)
#    0.000    2.400    2.667    2.000    0.000    0.000 
#   19.200    0.000    0.000    3.200    0.000    1.867 
#    0.000    0.000    0.000    0.000    0.000    0.000 
#
# Total GULP energy -83562.597881 kJ/mol
# GULP energy per Si atom -5570.839859 kJ/mol
# Density = 2.600502 g / cm^3
# Si number density = 26.064345 Si / 1000 Ang^3
#
#
#
# Elastic Constant Matrix: (Units=GPa)
#
#
# Indices 1 2 3 4 5 6 
#
# 1 228.8709 36.6140 78.9045 1.7270 37.5666 11.8517
# 2 36.6140 70.4274 40.5736 6.7234 4.0922 -1.2574
# 3 78.9045 40.5736 136.4193 11.4312 21.9600 1.0709
# 4 1.7270 6.7234 11.4312 43.7206 -13.7948 -5.5484
# 5 37.5666 4.0922 21.9600 -13.7948 49.9289 12.9905
# 6 11.8517 -1.2574 1.0709 -5.5484 12.9905 46.5874
#
#
#
# Elastic Compliance Matrix: (Units=1/GPa)
#
#
# Indices 1 2 3 4 5 6 
#
# 1 0.006039 -0.001488 -0.002474 -0.000487 -0.003297 -0.000658
# 2 -0.001488 0.017593 -0.004491 -0.001018 0.001245 0.000488
# 3 -0.002474 -0.004491 0.010944 -0.003120 -0.003683 0.000912
# 4 -0.000487 -0.001018 -0.003120 0.026814 0.009009 0.000849
# 5 -0.003297 0.001245 -0.003683 0.009009 0.028021 -0.005783
# 6 -0.000658 0.000488 0.000912 0.000849 -0.005783 0.023339
#
#
# Mechanical properties :
#
#
# Convention : Reuss Voigt Hill
#
# Bulk Modulus (GPa) = 56.58920 83.10019 69.84470
# Shear Modulus (GPa) = 36.88783 46.68907 41.78845
#
# Velocity S-wave (km/s) = 3.76608 4.23697 4.00844
# Velocity P-wave (km/s) = 6.37727 7.47581 6.94829
#
# Compressibility (1/GPa) = 0.01767122
#
# Stress axis : x y z
#
# Youngs Moduli (GPa) = 165.58725 56.83938 91.37522
#
# Poissons Ratio (x) = 0.08459 0.22603
# Poissons Ratio (y) = 0.24643 0.41034
# Poissons Ratio (z) = 0.40961 0.25525
#
# Static dielectric constant tensor:
#      x y z
#    x 1.829080 0.333440 0.002660 
#    y 0.333440 1.772150 0.013340 
#    z 0.002660 0.013340 2.193400 
# 
# From -- ./inp_files/532074.got.cif
#   From: 2010.05.17/outbox.cif.g08.bks.cpg/sg2_267_cif.got.tgz:532074.got - 2010.06.03 11:33:40.
