data_PCOD9110755
_publ_section_title
;
Structure prediction by ZEFSAII (Michael W. Deem and Ramdas Pophale) SiO2 
 PCOD9110755
Probable space group: P -1
;
_chemical_formula_sum "Si O2"
_cell_formula_units_Z 16
_cell_length_a 16.407667
_cell_length_b 8.352221
_cell_length_c 12.801920
_cell_angle_alpha 44.141797
_cell_angle_beta 51.947885
_cell_angle_gamma 32.266491
_cell_volume 652.059084
_symmetry_space_group_name_H-M "P -1"
_symmetry_group_IT_number 2
_symmetry_cell_setting 'triclinic'
loop_
_space_group_symop_operation_xyz
x,y,z
-x,-y,-z
loop_
_atom_site_type_symbol
_atom_site_label
_atom_site_fract_x
_atom_site_fract_y
_atom_site_fract_z
Si Si1 0.674187 0.801232 0.476520
Si Si2 0.805328 0.720383 0.848379
Si Si3 0.514453 0.208787 0.604326
Si Si4 0.833474 0.780808 0.169400
Si Si5 0.776027 0.233534 0.559048
Si Si6 0.712320 0.606663 0.179619
Si Si7 0.942074 0.859898 0.394582
Si Si8 0.880039 0.209046 0.896267
O O1 0.742245 0.869941 0.306484
O O2 0.790260 0.397938 0.561354
O O3 0.500000 0.000000 0.500000
O O4 0.655521 0.921917 0.552686
O O5 0.795269 0.579283 0.820976
O O6 0.982115 0.513064 0.823944
O O7 0.717071 0.098137 0.720628
O O8 0.745621 0.669548 0.014208
O O9 0.500000 0.500000 0.500000
O O10 0.356869 0.432735 0.558886
O O11 0.466647 0.128795 0.776553
O O12 0.793509 0.652975 0.175029
O O13 0.796658 0.100966 0.012763
O O14 0.905656 0.958842 0.500747
O O15 0.783554 0.231037 0.299628
O O16 0.000000 0.500000 0.500000
O O17 0.047726 0.854202 0.243127
O O18 0.000000 0.000000 0.000000
#
# Coordination Sequence:
#
# PCOD9110755 Si02
#       8
#     2   2   2   2   2   2   2   2
#     4  10  20  42  66  88 122 165 222 254 303 371
#     4  11  23  38  60  98 132 159 202 259 335 379
#     4  10  23  43  69  89 118 171 222 260 305 368
#     4  11  21  37  66  90 127 171 202 257 321 385
#     4  10  22  41  63  94 127 162 208 268 308 376
#     4  11  22  41  62  91 127 169 210 259 319 376
#     4  11  19  35  60  87 133 159 202 255 310 373
#     4  10  21  34  57  90 127 170 201 242 315 384
#
# _framework density 24.537652999999999
#
# number of rings (size 3 to 8) (size 9 to 14) (size 15 to 20)
#    0.000    1.500    7.500    0.375    1.750    1.500 
#    0.000    2.500    0.000    0.000    0.000    0.000 
#    0.000    0.000    0.000    0.000    0.000    0.000 
#
# Total GULP energy -89147.064125 kJ/mol
# GULP energy per Si atom -5571.691508 kJ/mol
# Density = 2.448180 g / cm^3
# Si number density = 24.537653 Si / 1000 Ang^3
#
#
#
# Elastic Constant Matrix: (Units=GPa)
#
#
# Indices 1 2 3 4 5 6 
#
# 1 60.7365 39.5155 20.6619 12.5327 -7.8187 7.8576
# 2 39.5155 148.5813 70.9842 27.6459 -10.6158 47.8249
# 3 20.6619 70.9842 199.8593 33.0151 -21.0876 27.6518
# 4 12.5327 27.6459 33.0151 57.7173 12.2309 -1.4189
# 5 -7.8187 -10.6158 -21.0876 12.2309 36.1720 -2.8288
# 6 7.8576 47.8249 27.6518 -1.4189 -2.8288 49.9720
#
#
#
# Elastic Compliance Matrix: (Units=1/GPa)
#
#
# Indices 1 2 3 4 5 6 
#
# 1 0.020821 -0.005503 0.000507 -0.003054 0.004360 0.001872
# 2 -0.005503 0.013879 -0.001550 -0.005470 0.002927 -0.011549
# 3 0.000507 -0.001550 0.007141 -0.004611 0.005190 -0.002385
# 4 -0.003054 -0.005470 -0.004611 0.026243 -0.013181 0.008266
# 5 0.004360 0.002927 0.005190 -0.013181 0.036565 -0.004663
# 6 0.001872 -0.011549 -0.002385 0.008266 -0.004663 0.032060
#
#
# Mechanical properties :
#
#
# Convention : Reuss Voigt Hill
#
# Bulk Modulus (GPa) = 34.78242 74.61112 54.69677
# Shear Modulus (GPa) = 31.37106 47.30663 39.33884
#
# Velocity S-wave (km/s) = 3.57947 4.39557 4.00835
# Velocity P-wave (km/s) = 5.59369 7.49895 6.61527
#
# Compressibility (1/GPa) = 0.02875015
#
# Stress axis : x y z
#
# Youngs Moduli (GPa) = 48.02789 72.05372 140.03861
#
# Poissons Ratio (x) = 0.39648 -0.07105
# Poissons Ratio (y) = 0.26427 0.21707
# Poissons Ratio (z) = -0.02437 0.11169
#
# Static dielectric constant tensor:
#      x y z
#    x 2.250220 0.065090 -0.090550 
#    y 0.065090 2.091660 -0.024230 
#    z -0.090550 -0.024230 2.131790 
# 
# From -- ./inp_files/540387.got.cif
#   From: 2010.05.17/outbox.cif.g08.bks.cpg/sg2_271_cif.got.tgz:540387.got - 2010.06.03 11:33:40.
