data_PCOD9110854
_publ_section_title
;
Structure prediction by ZEFSAII (Michael W. Deem and Ramdas Pophale) SiO2 
 PCOD9110854
Probable space group: P -1
;
_chemical_formula_sum "Si O2"
_cell_formula_units_Z 14
_cell_length_a 8.178952
_cell_length_b 9.144427
_cell_length_c 11.861714
_cell_angle_alpha 124.100046
_cell_angle_beta 60.045792
_cell_angle_gamma 112.472689
_cell_volume 629.988765
_symmetry_space_group_name_H-M "P -1"
_symmetry_group_IT_number 2
_symmetry_cell_setting 'triclinic'
loop_
_space_group_symop_operation_xyz
x,y,z
-x,-y,-z
loop_
_atom_site_type_symbol
_atom_site_label
_atom_site_fract_x
_atom_site_fract_y
_atom_site_fract_z
Si Si1 0.944600 0.978497 0.379183
Si Si2 0.035754 0.356079 0.137056
Si Si3 0.872002 0.317988 0.419939
Si Si4 0.377547 0.221253 0.060042
Si Si5 0.394776 0.421265 0.368562
Si Si6 0.778517 0.151974 0.949520
Si Si7 0.220688 0.370568 0.640574
O O1 0.789227 0.800640 0.352355
O O2 0.116958 0.935815 0.224357
O O3 0.878303 0.154279 0.428478
O O4 0.000000 0.000000 0.500000
O O5 0.936293 0.273633 0.252357
O O6 0.983870 0.557516 0.253162
O O7 0.251660 0.311474 0.051540
O O8 0.933045 0.276071 0.024898
O O9 0.666503 0.382357 0.519375
O O10 0.000000 0.500000 0.500000
O O11 0.330985 0.315527 0.233516
O O12 0.309544 0.009517 0.006269
O O13 0.606957 0.241256 0.991123
O O14 0.289797 0.326992 0.472558
O O15 0.622654 0.460054 0.309750
#
# Coordination Sequence:
#
# PCOD9110854 Si02
#       7
#     2   2   2   2   2   2   2
#     4  12  25  43  64  97 137 172 215 281 336 386
#     4  11  21  41  68  98 129 178 222 267 326 397
#     4  11  21  39  71  97 129 176 224 265 324 397
#     4  11  21  39  70  97 127 167 228 273 319 389
#     4  10  20  42  66  98 124 176 229 266 318 402
#     4  11  24  41  66 102 129 170 224 278 327 388
#     4  10  23  39  67  95 134 173 218 274 331 384
#
# _framework density 22.222619999999999
#
# number of rings (size 3 to 8) (size 9 to 14) (size 15 to 20)
#    0.000    1.143    4.286    3.000    0.000    1.143 
#    0.000    2.143    0.000    0.000    0.000    0.000 
#    0.000    0.000    0.000    0.000    0.000    0.000 
#
# Total GULP energy -78143.454371 kJ/mol
# GULP energy per Si atom -5581.675312 kJ/mol
# Density = 2.217204 g / cm^3
# Si number density = 22.222620 Si / 1000 Ang^3
#
#
#
# Elastic Constant Matrix: (Units=GPa)
#
#
# Indices 1 2 3 4 5 6 
#
# 1 130.6306 28.2189 37.5763 8.9947 -15.0009 -11.8412
# 2 28.2189 115.3050 2.3324 3.1282 -8.7097 -25.6056
# 3 37.5763 2.3324 80.5581 5.6012 -0.6281 -8.6580
# 4 8.9947 3.1282 5.6012 16.8094 -3.6664 -1.5997
# 5 -15.0009 -8.7097 -0.6281 -3.6664 37.6525 10.3208
# 6 -11.8412 -25.6056 -8.6580 -1.5997 10.3208 29.8341
#
#
#
# Elastic Compliance Matrix: (Units=1/GPa)
#
#
# Indices 1 2 3 4 5 6 
#
# 1 0.009894 -0.002106 -0.004381 -0.002779 0.003225 -0.000417
# 2 -0.002106 0.011234 0.001738 -0.000831 -0.000919 0.009584
# 3 -0.004381 0.001738 0.015134 -0.003153 -0.002748 0.004926
# 4 -0.002779 -0.000831 -0.003153 0.063191 0.005105 -0.001109
# 5 0.003225 -0.000919 -0.002748 0.005105 0.031034 -0.010769
# 6 -0.000417 0.009584 0.004926 -0.001109 -0.010769 0.046674
#
#
# Mechanical properties :
#
#
# Convention : Reuss Voigt Hill
#
# Bulk Modulus (GPa) = 37.36344 51.41654 44.38999
# Shear Modulus (GPa) = 25.56487 34.08361 29.82424
#
# Velocity S-wave (km/s) = 3.39543 3.92054 3.66740
# Velocity P-wave (km/s) = 5.67642 6.60919 6.16048
#
# Compressibility (1/GPa) = 0.02676413
#
# Stress axis : x y z
#
# Youngs Moduli (GPa) = 101.06922 89.01248 66.07785
#
# Poissons Ratio (x) = 0.18749 0.28946
# Poissons Ratio (y) = 0.21289 -0.11484
# Poissons Ratio (z) = 0.44274 -0.15470
#
# Static dielectric constant tensor:
#      x y z
#    x 1.954170 0.010550 -0.025550 
#    y 0.010550 1.823380 0.019090 
#    z -0.025550 0.019090 1.806280 
# 
# From -- ./inp_files/243173.got.cif
#   From: 2010.05.17/outbox.cif.g08.bks.cpg/sg2_122_cif.got.tgz:243173.got - 2010.06.03 11:33:40.
