data_PCOD9110842
_publ_section_title
;
Structure prediction by ZEFSAII (Michael W. Deem and Ramdas Pophale) SiO2 
 PCOD9110842
Probable space group: P -1
;
_chemical_formula_sum "Si O2"
_cell_formula_units_Z 14
_cell_length_a 12.136525
_cell_length_b 7.941653
_cell_length_c 8.164825
_cell_angle_alpha 72.914394
_cell_angle_beta 122.040557
_cell_angle_gamma 124.925677
_cell_volume 546.883092
_symmetry_space_group_name_H-M "P -1"
_symmetry_group_IT_number 2
_symmetry_cell_setting 'triclinic'
loop_
_space_group_symop_operation_xyz
x,y,z
-x,-y,-z
loop_
_atom_site_type_symbol
_atom_site_label
_atom_site_fract_x
_atom_site_fract_y
_atom_site_fract_z
Si Si1 0.900943 0.102992 0.609764
Si Si2 0.123107 0.685018 0.942892
Si Si3 0.453425 0.566826 0.609358
Si Si4 0.267531 0.045382 0.166914
Si Si5 0.691159 0.197511 0.234006
Si Si6 0.878571 0.717970 0.538948
Si Si7 0.582673 0.774514 0.069939
O O1 0.793448 0.196207 0.461559
O O2 0.061011 0.257091 0.605943
O O3 0.872591 0.033069 0.796069
O O4 0.847758 0.896902 0.519209
O O5 0.204842 0.644986 0.871012
O O6 0.022072 0.761869 0.749343
O O7 0.000000 0.500000 0.000000
O O8 0.246599 0.842908 0.122089
O O9 0.500000 0.500000 0.500000
O O10 0.581092 0.805850 0.656652
O O11 0.275932 0.493027 0.487168
O O12 0.459803 0.422807 0.799634
O O13 0.288253 0.173612 0.979480
O O14 0.628342 0.972327 0.164690
O O15 0.557352 0.241317 0.139323
#
# Coordination Sequence:
#
# PCOD9110842 Si02
#       7
#     2   2   2   2   2   2   2
#     4  10  20  42  66  96 130 178 219 262 329 390
#     4  10  24  45  65  94 130 176 223 268 329 390
#     4  12  23  43  68 101 132 175 217 271 332 388
#     4  11  24  43  68 101 130 170 227 270 326 391
#     4   9  19  40  66  89 131 179 210 266 324 390
#     4  10  22  43  69  90 136 177 216 270 327 391
#     4  10  21  39  63  98 135 165 218 272 323 382
#
# _framework density 25.599623000000001
#
# number of rings (size 3 to 8) (size 9 to 14) (size 15 to 20)
#    0.000    1.714    2.857    0.429    4.000    1.143 
#    7.714    1.429    0.000    0.000    0.000    0.000 
#    0.000    0.000    0.000    0.000    0.000    0.000 
#
# Total GULP energy -78198.841206 kJ/mol
# GULP energy per Si atom -5585.631515 kJ/mol
# Density = 2.554136 g / cm^3
# Si number density = 25.599623 Si / 1000 Ang^3
#
#
#
# Elastic Constant Matrix: (Units=GPa)
#
#
# Indices 1 2 3 4 5 6 
#
# 1 140.3555 32.4249 63.0617 -17.6794 -20.6396 23.7401
# 2 32.4249 96.6122 19.7676 6.8117 -25.4418 24.6678
# 3 63.0617 19.7676 85.2665 -9.1057 -5.8715 6.5806
# 4 -17.6794 6.8117 -9.1057 46.5382 12.2849 -7.7685
# 5 -20.6396 -25.4418 -5.8715 12.2849 45.7925 -7.7466
# 6 23.7401 24.6678 6.5806 -7.7685 -7.7466 43.1216
#
#
#
# Elastic Compliance Matrix: (Units=1/GPa)
#
#
# Indices 1 2 3 4 5 6 
#
# 1 0.012383 -0.000703 -0.008279 0.001689 0.002946 -0.004319
# 2 -0.000703 0.015921 -0.002680 -0.006734 0.008643 -0.007972
# 3 -0.008279 -0.002680 0.018254 0.002116 -0.002912 0.003163
# 4 0.001689 -0.006734 0.002116 0.026860 -0.008928 0.005835
# 5 0.002946 0.008643 -0.002912 -0.008928 0.029580 -0.002416
# 6 -0.004319 -0.007972 0.003163 0.005835 -0.002416 0.030263
#
#
# Mechanical properties :
#
#
# Convention : Reuss Voigt Hill
#
# Bulk Modulus (GPa) = 43.03950 61.41584 52.22767
# Shear Modulus (GPa) = 30.42670 40.88914 35.65792
#
# Velocity S-wave (km/s) = 3.45129 4.00090 3.73622
# Velocity P-wave (km/s) = 5.72109 6.73691 6.24968
#
# Compressibility (1/GPa) = 0.02323447
#
# Stress axis : x y z
#
# Youngs Moduli (GPa) = 80.75424 62.80862 54.78395
#
# Poissons Ratio (x) = 0.04414 0.45356
# Poissons Ratio (y) = 0.05675 0.14682
# Poissons Ratio (z) = 0.66857 0.16833
#
# Static dielectric constant tensor:
#      x y z
#    x 2.003910 0.001570 0.015690 
#    y 0.001570 2.060860 0.039210 
#    z 0.015690 0.039210 2.117840 
# 
# From -- ./inp_files/243214.got.cif
#   From: 2010.05.17/outbox.cif.g08.bks.cpg/sg2_122_cif.got.tgz:243214.got - 2010.06.03 11:33:40.
