data_PCOD9110071
_publ_section_title
;
Structure prediction by ZEFSAII (Michael W. Deem and Ramdas Pophale) SiO2 
 PCOD9110071
Probable space group: P -1
;
_chemical_formula_sum "Si O2"
_cell_formula_units_Z 16
_cell_length_a 8.678022
_cell_length_b 6.170205
_cell_length_c 15.044465
_cell_angle_alpha 100.509898
_cell_angle_beta 99.694442
_cell_angle_gamma 109.017695
_cell_volume 725.972610
_symmetry_space_group_name_H-M "P -1"
_symmetry_group_IT_number 2
_symmetry_cell_setting 'triclinic'
loop_
_space_group_symop_operation_xyz
x,y,z
-x,-y,-z
loop_
_atom_site_type_symbol
_atom_site_label
_atom_site_fract_x
_atom_site_fract_y
_atom_site_fract_z
Si Si1 0.852787 0.511597 0.923623
Si Si2 0.928109 0.682708 0.558317
Si Si3 0.521770 0.988683 0.605441
Si Si4 0.519062 0.034521 0.870831
Si Si5 0.224836 0.170863 0.614460
Si Si6 0.360978 0.246315 0.991492
Si Si7 0.470654 0.629869 0.703552
Si Si8 0.780808 0.464832 0.718196
O O1 0.684863 0.271120 0.894125
O O2 0.893342 0.534829 0.823708
O O3 0.796598 0.714806 0.977159
O O4 0.000000 0.500000 0.000000
O O5 0.807550 0.745541 0.480854
O O6 0.857054 0.574251 0.638890
O O7 0.000000 0.500000 0.500000
O O8 0.066051 0.944723 0.608887
O O9 0.376109 0.078277 0.628697
O O10 0.697689 0.181672 0.671113
O O11 0.500000 0.000000 0.500000
O O12 0.489134 0.721617 0.611100
O O13 0.359632 0.096038 0.891657
O O14 0.483880 0.869148 0.770695
O O15 0.562593 0.875204 0.936860
O O16 0.296351 0.418946 0.692556
O O17 0.500000 0.500000 0.000000
O O18 0.626973 0.552519 0.732658
#
# Coordination Sequence:
#
# PCOD9110071 Si02
#       8
#     2   2   2   2   2   2   2   2
#     4  11  23  43  67 100 136 175 228 288 349 410
#     4  11  23  44  63  92 146 181 218 268 350 406
#     4  11  21  38  66  98 126 168 223 274 333 397
#     4  10  20  41  69  93 128 175 218 288 334 401
#     4  10  23  39  63  97 133 176 215 279 324 415
#     4   9  20  40  68  93 124 172 219 277 342 398
#     4  11  21  39  68  97 128 167 231 274 333 400
#     4  11  23  40  67  97 129 179 226 281 336 410
#
# _framework density 22.039397999999998
#
# number of rings (size 3 to 8) (size 9 to 14) (size 15 to 20)
#    0.000    1.500    2.500    3.000    0.000    3.500 
#    0.000   10.000    0.000    0.000    0.000    0.000 
#    0.000    0.000    0.000    0.000    0.000    0.000 
#
# Total GULP energy -89232.748155 kJ/mol
# GULP energy per Si atom -5577.046760 kJ/mol
# Density = 2.198924 g / cm^3
# Si number density = 22.039398 Si / 1000 Ang^3
#
#
#
# Elastic Constant Matrix: (Units=GPa)
#
#
# Indices 1 2 3 4 5 6 
#
# 1 61.5857 30.9235 47.2853 9.2286 1.0713 -6.3497
# 2 30.9235 117.6358 32.5231 1.2558 -2.1497 10.8784
# 3 47.2853 32.5231 90.4158 -1.4099 -1.6724 5.0081
# 4 9.2286 1.2558 -1.4099 42.5291 -3.8817 1.5855
# 5 1.0713 -2.1497 -1.6724 -3.8817 30.7386 -4.0110
# 6 -6.3497 10.8784 5.0081 1.5855 -4.0110 33.5665
#
#
#
# Elastic Compliance Matrix: (Units=1/GPa)
#
#
# Indices 1 2 3 4 5 6 
#
# 1 0.034152 -0.005304 -0.016722 -0.008405 -0.002121 0.010818
# 2 -0.005304 0.010493 -0.000739 0.001017 0.000447 -0.004288
# 3 -0.016722 -0.000739 0.020505 0.004688 0.001452 -0.006031
# 4 -0.008405 0.001017 0.004688 0.025905 0.003443 -0.003431
# 5 -0.002121 0.000447 0.001452 0.003443 0.033554 0.003084
# 6 0.010818 -0.004288 -0.006031 -0.003431 0.003084 0.034658
#
#
# Mechanical properties :
#
#
# Convention : Reuss Voigt Hill
#
# Bulk Modulus (GPa) = 50.96835 54.56679 52.76757
# Shear Modulus (GPa) = 23.65892 31.96053 27.80973
#
# Velocity S-wave (km/s) = 3.27996 3.81222 3.55606
# Velocity P-wave (km/s) = 6.12539 6.64755 6.39180
#
# Compressibility (1/GPa) = 0.01962002
#
# Stress axis : x y z
#
# Youngs Moduli (GPa) = 29.28116 95.29927 48.76829
#
# Poissons Ratio (x) = 0.50545 0.81551
# Poissons Ratio (y) = 0.15530 0.03604
# Poissons Ratio (z) = 0.48964 0.07043
#
# Static dielectric constant tensor:
#      x y z
#    x 1.906030 0.035520 -0.058930 
#    y 0.035520 1.853820 -0.011130 
#    z -0.058930 -0.011130 1.971710 
# 
# From -- ./inp_files/340278.got.cif
#   From: 2010.05.17/outbox.cif.g08.bks.cpg/sg2_171_cif.got.tgz:340278.got - 2010.06.03 11:33:40.
