data_PCOD9110319
_publ_section_title
;
Structure prediction by ZEFSAII (Michael W. Deem and Ramdas Pophale) SiO2 
 PCOD9110319
Probable space group: P -1
;
_chemical_formula_sum "Si O2"
_cell_formula_units_Z 16
_cell_length_a 9.321189
_cell_length_b 25.725308
_cell_length_c 22.592560
_cell_angle_alpha 16.387627
_cell_angle_beta 143.944430
_cell_angle_gamma 151.553111
_cell_volume 702.811943
_symmetry_space_group_name_H-M "P -1"
_symmetry_group_IT_number 2
_symmetry_cell_setting 'triclinic'
loop_
_space_group_symop_operation_xyz
x,y,z
-x,-y,-z
loop_
_atom_site_type_symbol
_atom_site_label
_atom_site_fract_x
_atom_site_fract_y
_atom_site_fract_z
Si Si1 0.035574 0.017206 0.235754
Si Si2 0.716916 0.740356 0.768247
Si Si3 0.189699 0.705332 0.669789
Si Si4 0.341340 0.045544 0.715682
Si Si5 0.543539 0.287887 0.857650
Si Si6 0.215257 0.437184 0.665441
Si Si7 0.727365 0.441415 0.014289
Si Si8 0.707449 0.945768 0.094640
O O1 0.379705 0.252395 0.079939
O O2 0.822507 0.046435 0.173504
O O3 0.099139 0.873776 0.455198
O O4 0.845461 0.879290 0.264247
O O5 0.512961 0.827235 0.609613
O O6 0.057214 0.914101 0.719196
O O7 0.500000 0.500000 0.000000
O O8 0.746247 0.662215 0.799776
O O9 0.226267 0.647704 0.811072
O O10 0.908728 0.475479 0.791645
O O11 0.531305 0.325093 0.473256
O O12 0.546383 0.955533 0.878235
O O13 0.376704 0.382224 0.730366
O O14 0.458915 0.233362 0.819849
O O15 0.000000 0.500000 0.500000
O O16 0.998518 0.198886 0.890254
O O17 0.000000 0.500000 0.000000
O O18 0.500000 0.000000 0.000000
#
# Coordination Sequence:
#
# PCOD9110319 Si02
#       8
#     2   2   2   2   2   2   2   2
#     4  12  24  44  71 104 148 191 239 299 354 425
#     4  10  20  41  73 103 141 191 236 288 360 436
#     4  11  23  44  76 103 137 201 240 284 364 438
#     4  12  22  45  77 106 140 192 242 292 364 433
#     4  12  24  46  78 105 145 193 242 292 368 430
#     4  12  27  48  75 104 139 196 247 299 361 430
#     4  11  24  42  71 106 145 185 238 303 361 417
#     4  12  28  48  70 106 149 185 241 307 354 426
#
# _framework density 22.765691
#
# number of rings (size 3 to 8) (size 9 to 14) (size 15 to 20)
#    0.000    0.500    8.750    0.750    1.750    0.500 
#    0.000    0.625    2.750    0.000    0.000    0.000 
#    0.000    0.000    0.000    0.000    0.000    0.000 
#
# Total GULP energy -89439.377626 kJ/mol
# GULP energy per Si atom -5589.961102 kJ/mol
# Density = 2.271388 g / cm^3
# Si number density = 22.765691 Si / 1000 Ang^3
#
#
#
# Elastic Constant Matrix: (Units=GPa)
#
#
# Indices 1 2 3 4 5 6 
#
# 1 117.7911 38.7776 24.5000 -0.6360 18.1979 3.0828
# 2 38.7776 142.0944 18.4195 -10.0116 6.9897 -14.4162
# 3 24.5000 18.4195 43.4080 -0.7872 19.5068 -0.1422
# 4 -0.6360 -10.0116 -0.7872 45.6328 5.1725 8.5564
# 5 18.1979 6.9897 19.5068 5.1725 35.9585 -1.9628
# 6 3.0828 -14.4162 -0.1422 8.5564 -1.9628 30.5637
#
#
#
# Elastic Compliance Matrix: (Units=1/GPa)
#
#
# Indices 1 2 3 4 5 6 
#
# 1 0.010606 -0.002521 -0.003489 0.000380 -0.003181 -0.002586
# 2 -0.002521 0.008491 -0.002678 0.000885 0.001173 0.004075
# 3 -0.003489 -0.002678 0.033527 0.002253 -0.016359 -0.002437
# 4 0.000380 0.000885 0.002253 0.024018 -0.005406 -0.006682
# 5 -0.003181 0.001173 -0.016359 -0.005406 0.039107 0.004823
# 6 -0.002586 0.004075 -0.002437 -0.006682 0.004823 0.037070
#
#
# Mechanical properties :
#
#
# Convention : Reuss Voigt Hill
#
# Bulk Modulus (GPa) = 28.37003 51.85420 40.11211
# Shear Modulus (GPa) = 27.48099 37.20409 32.34254
#
# Velocity S-wave (km/s) = 3.47814 4.04693 3.77327
# Velocity P-wave (km/s) = 5.34965 6.68309 6.05320
#
# Compressibility (1/GPa) = 0.03524846
#
# Stress axis : x y z
#
# Youngs Moduli (GPa) = 94.28228 117.77511 29.82692
#
# Poissons Ratio (x) = 0.29696 0.10405
# Poissons Ratio (y) = 0.23772 0.07987
# Poissons Ratio (z) = 0.32892 0.31537
#
# Static dielectric constant tensor:
#      x y z
#    x 1.935670 0.058740 0.017300 
#    y 0.058740 1.898230 -0.026280 
#    z 0.017300 -0.026280 1.941650 
# 
# From -- ./inp_files/591953.got.cif
#   From: 2010.05.17/outbox.cif.g08.bks.cpg/sg2_296_cif.got.tgz:591953.got - 2010.06.03 11:33:40.
