data_PCOD9110069
_publ_section_title
;
Structure prediction by ZEFSAII (Michael W. Deem and Ramdas Pophale) SiO2 
 PCOD9110069
Probable space group: P -1
;
_chemical_formula_sum "Si O2"
_cell_formula_units_Z 15
_cell_length_a 11.379292
_cell_length_b 7.829401
_cell_length_c 17.339403
_cell_angle_alpha 130.906753
_cell_angle_beta 142.109860
_cell_angle_gamma 72.925499
_cell_volume 628.723163
_symmetry_space_group_name_H-M "P -1"
_symmetry_group_IT_number 2
_symmetry_cell_setting 'triclinic'
loop_
_space_group_symop_operation_xyz
x,y,z
-x,-y,-z
loop_
_atom_site_type_symbol
_atom_site_label
_atom_site_fract_x
_atom_site_fract_y
_atom_site_fract_z
Si Si1 0.096092 0.799211 0.550093
Si Si2 0.993961 0.781609 0.170507
Si Si3 0.312635 0.526992 0.368776
Si Si4 0.822985 0.680298 0.517042
Si Si5 0.471067 0.937985 0.058662
Si Si6 0.063202 0.433624 0.751812
Si Si7 0.500000 0.000000 0.500000
Si Si8 0.661208 0.640090 0.826311
O O1 0.142272 0.554627 0.508027
O O2 0.888875 0.723068 0.474614
O O3 0.043091 0.801970 0.433694
O O4 0.308529 0.014819 0.768272
O O5 0.236707 0.844248 0.291470
O O6 0.922315 0.647523 0.177383
O O7 0.021289 0.065553 0.281172
O O8 0.814646 0.635322 0.970599
O O9 0.500000 0.500000 0.500000
O O10 0.420745 0.824536 0.486566
O O11 0.241173 0.345333 0.202711
O O12 0.107241 0.458383 0.295098
O O13 0.573262 0.624585 0.379577
O O14 0.400025 0.137644 0.118825
O O15 0.285818 0.649851 0.894803
O O16 0.500000 0.000000 0.000000
#
# Coordination Sequence:
#
# PCOD9110069 Si02
#       8
#     2   2   2   2   2   2   1   2
#     4  10  21  40  67  94 126 173 225 276 339 396
#     4  11  24  43  64  95 140 178 219 282 342 403
#     4  11  24  45  69 102 137 179 232 282 341 411
#     4  10  20  41  69  93 127 173 223 275 337 406
#     4  11  23  42  67  99 130 171 226 286 333 406
#     4  11  25  41  61 100 133 172 227 278 335 409
#     4  10  24  44  66  94 144 180 216 288 334 394
#     4  11  23  41  70  99 128 186 221 272 349 400
#
# _framework density 23.857876999999998
#
# number of rings (size 3 to 8) (size 9 to 14) (size 15 to 20)
#    0.000    1.333    1.333    5.600    1.867    4.267 
#    7.200    4.667    0.000    0.000    0.000    0.000 
#    0.000    0.000    0.000    0.000    0.000    0.000 
#
# Total GULP energy -83698.500917 kJ/mol
# GULP energy per Si atom -5579.900061 kJ/mol
# Density = 2.380357 g / cm^3
# Si number density = 23.857877 Si / 1000 Ang^3
#
#
#
# Elastic Constant Matrix: (Units=GPa)
#
#
# Indices 1 2 3 4 5 6 
#
# 1 132.8812 -11.6289 49.5059 -7.4983 -10.5146 15.7609
# 2 -11.6289 38.0254 17.4759 5.8097 0.9391 24.9886
# 3 49.5059 17.4759 126.1386 -9.5189 -5.4874 21.2396
# 4 -7.4983 5.8097 -9.5189 35.7493 5.1975 -6.0716
# 5 -10.5146 0.9391 -5.4874 5.1975 49.3416 0.2986
# 6 15.7609 24.9886 21.2396 -6.0716 0.2986 33.5900
#
#
#
# Elastic Compliance Matrix: (Units=1/GPa)
#
#
# Indices 1 2 3 4 5 6 
#
# 1 0.013038 0.018664 -0.004978 -0.005008 0.002505 -0.017783
# 2 0.018664 0.088270 -0.008941 -0.025945 0.004481 -0.073500
# 3 -0.004978 -0.008941 0.010939 0.003804 -0.000091 0.002759
# 4 -0.005008 -0.025945 0.003804 0.037182 -0.004224 0.026005
# 5 0.002505 0.004481 -0.000091 -0.004224 0.021183 -0.005403
# 6 -0.017783 -0.073500 0.002759 0.026005 -0.005403 0.095798
#
#
# Mechanical properties :
#
#
# Convention : Reuss Voigt Hill
#
# Bulk Modulus (GPa) = 8.21444 45.30566 26.76005
# Shear Modulus (GPa) = 16.80687 39.84900 28.32793
#
# Velocity S-wave (km/s) = 2.65704 4.09132 3.44955
# Velocity P-wave (km/s) = 3.58660 6.43037 5.20641
#
# Compressibility (1/GPa) = 0.12173680
#
# Stress axis : x y z
#
# Youngs Moduli (GPa) = 76.69829 11.32892 91.41901
#
# Poissons Ratio (x) = -0.21145 0.45505
# Poissons Ratio (y) = -1.43151 0.81741
# Poissons Ratio (z) = 0.38177 0.10130
#
# Static dielectric constant tensor:
#      x y z
#    x 1.858260 -0.065910 0.020550 
#    y -0.065910 2.058120 -0.001860 
#    z 0.020550 -0.001860 1.877490 
# 
# From -- ./inp_files/312717.got.cif
#   From: 2010.05.17/outbox.cif.g08.bks.cpg/sg2_157_cif.got.tgz:312717.got - 2010.06.03 11:33:40.
