data_PCOD9110418
_publ_section_title
;
Structure prediction by ZEFSAII (Michael W. Deem and Ramdas Pophale) SiO2 
 PCOD9110418
Probable space group: P -1
;
_chemical_formula_sum "Si O2"
_cell_formula_units_Z 16
_cell_length_a 22.930168
_cell_length_b 7.214320
_cell_length_c 9.074972
_cell_angle_alpha 66.586995
_cell_angle_beta 149.894975
_cell_angle_gamma 106.108981
_cell_volume 683.795784
_symmetry_space_group_name_H-M "P -1"
_symmetry_group_IT_number 2
_symmetry_cell_setting 'triclinic'
loop_
_space_group_symop_operation_xyz
x,y,z
-x,-y,-z
loop_
_atom_site_type_symbol
_atom_site_label
_atom_site_fract_x
_atom_site_fract_y
_atom_site_fract_z
Si Si1 0.074148 0.290767 0.669117
Si Si2 0.527630 0.953919 0.246048
Si Si3 0.087335 0.439955 0.348737
Si Si4 0.305370 0.816711 0.859691
Si Si5 0.047081 0.873799 0.285932
Si Si6 0.687488 0.545088 0.795622
Si Si7 0.395497 0.665140 0.568400
Si Si8 0.342644 0.500131 0.810809
O O1 0.058260 0.277928 0.461117
O O2 0.000000 0.500000 0.500000
O O3 0.034942 0.125748 0.749864
O O4 0.205625 0.334508 0.972747
O O5 0.586784 0.722202 0.469238
O O6 0.603823 0.109671 0.437861
O O7 0.401911 0.962171 0.048052
O O8 0.500000 0.000000 0.000000
O O9 0.072921 0.645133 0.350263
O O10 0.224065 0.402838 0.610117
O O11 0.000000 0.500000 0.000000
O O12 0.176953 0.921155 0.591130
O O13 0.312222 0.732443 0.733560
O O14 0.335052 0.597805 0.073521
O O15 0.000000 0.000000 0.000000
O O16 0.699942 0.375731 0.747325
O O17 0.369807 0.518134 0.691851
O O18 0.529328 0.604592 0.819547
#
# Coordination Sequence:
#
# PCOD9110418 Si02
#       8
#     2   2   2   2   2   2   2   2
#     4  10  21  43  69  96 128 183 229 268 352 414
#     4  12  25  42  67 100 135 182 228 274 341 400
#     4  10  22  39  69  94 129 179 224 274 342 411
#     4  11  22  44  64  91 141 179 216 284 348 397
#     4  10  23  41  67  98 131 174 228 280 338 408
#     4  12  24  43  73  95 141 180 216 293 340 406
#     4  11  24  39  67 101 132 179 232 272 331 420
#     4  10  20  42  61  93 139 175 220 280 338 393
#
# _framework density 23.398799
#
# number of rings (size 3 to 8) (size 9 to 14) (size 15 to 20)
#    0.000    1.250    6.250    1.125    5.250    1.500 
#    0.000    1.875    0.000    0.000    0.000    0.000 
#    0.000    0.000    0.000    0.000    0.000    0.000 
#
# Total GULP energy -89247.458195 kJ/mol
# GULP energy per Si atom -5577.966137 kJ/mol
# Density = 2.334554 g / cm^3
# Si number density = 23.398799 Si / 1000 Ang^3
#
#
#
# Elastic Constant Matrix: (Units=GPa)
#
#
# Indices 1 2 3 4 5 6 
#
# 1 136.6926 30.6123 51.4704 -3.7839 -12.1552 35.9800
# 2 30.6123 82.5625 26.5366 6.5563 -6.6360 12.3037
# 3 51.4704 26.5366 99.0636 -6.6568 -19.9854 23.5349
# 4 -3.7839 6.5563 -6.6568 28.7922 -5.1814 -8.2872
# 5 -12.1552 -6.6360 -19.9854 -5.1814 21.0514 -1.1704
# 6 35.9800 12.3037 23.5349 -8.2872 -1.1704 40.5823
#
#
#
# Elastic Compliance Matrix: (Units=1/GPa)
#
#
# Indices 1 2 3 4 5 6 
#
# 1 0.011029 -0.001753 -0.003030 -0.000596 0.002373 -0.007543
# 2 -0.001753 0.014344 -0.002852 -0.004868 -0.000516 -0.002149
# 3 -0.003030 -0.002852 0.016805 0.005374 0.014368 -0.004683
# 4 -0.000596 -0.004868 0.005374 0.041762 0.013937 0.007817
# 5 0.002373 -0.000516 0.014368 0.013937 0.065473 -0.005546
# 6 -0.007543 -0.002149 -0.004683 0.007817 -0.005546 0.036133
#
#
# Mechanical properties :
#
#
# Convention : Reuss Voigt Hill
#
# Bulk Modulus (GPa) = 37.16410 59.50637 48.33523
# Shear Modulus (GPa) = 23.83373 32.06514 27.94943
#
# Velocity S-wave (km/s) = 3.19499 3.70587 3.45988
# Velocity P-wave (km/s) = 5.43397 6.61800 6.05500
#
# Compressibility (1/GPa) = 0.02690769
#
# Stress axis : x y z
#
# Youngs Moduli (GPa) = 90.66791 69.71479 59.50556
#
# Poissons Ratio (x) = 0.12224 0.18031
# Poissons Ratio (y) = 0.15898 0.16971
# Poissons Ratio (z) = 0.27473 0.19882
#
# Static dielectric constant tensor:
#      x y z
#    x 1.912900 -0.007460 -0.010820 
#    y -0.007460 1.895750 0.007210 
#    z -0.010820 0.007210 2.000670 
# 
# From -- ./inp_files/351680.got.cif
#   From: 2010.05.17/outbox.cif.g08.bks.cpg/sg2_176_cif.got.tgz:351680.got - 2010.06.03 11:33:40.
