data_PCOD9110643
_publ_section_title
;
Structure prediction by ZEFSAII (Michael W. Deem and Ramdas Pophale) SiO2 
 PCOD9110643
Probable space group: P -1
;
_chemical_formula_sum "Si O2"
_cell_formula_units_Z 11
_cell_length_a 7.698744
_cell_length_b 8.302449
_cell_length_c 9.341448
_cell_angle_alpha 133.598317
_cell_angle_beta 105.073307
_cell_angle_gamma 77.535650
_cell_volume 416.961741
_symmetry_space_group_name_H-M "P -1"
_symmetry_group_IT_number 2
_symmetry_cell_setting 'triclinic'
loop_
_space_group_symop_operation_xyz
x,y,z
-x,-y,-z
loop_
_atom_site_type_symbol
_atom_site_label
_atom_site_fract_x
_atom_site_fract_y
_atom_site_fract_z
Si Si1 0.500000 0.500000 0.000000
Si Si2 0.496410 0.337130 0.208093
Si Si3 0.529850 0.166053 0.398395
Si Si4 0.207468 0.090489 0.505691
Si Si5 0.908239 0.295650 0.927512
Si Si6 0.901986 0.426663 0.292554
O O1 0.447922 0.349545 0.039001
O O2 0.307359 0.647362 0.067767
O O3 0.462370 0.161061 0.217482
O O4 0.421481 0.578943 0.400604
O O5 0.713269 0.342901 0.254142
O O6 0.367029 0.122234 0.443748
O O7 0.695585 0.011147 0.395960
O O8 0.132879 0.341334 0.659430
O O9 0.076081 0.922417 0.301945
O O10 0.983923 0.266475 0.088238
O O11 0.000000 0.500000 0.000000
O O12 0.000000 0.500000 0.500000
#
# Coordination Sequence:
#
# PCOD9110643 Si02
#       6
#     1   2   2   2   2   2
#     4  10  20  42  64  98 136 168 230 276 330 412
#     4   9  18  36  65  91 131 176 222 275 338 398
#     4   9  18  35  66  96 123 181 222 276 339 401
#     4  10  21  41  67  97 140 173 236 280 335 409
#     4  11  25  42  69  99 137 183 220 289 344 398
#     4  10  24  42  62  94 137 182 226 283 339 408
#
# _framework density 26.381319000000001
#
# number of rings (size 3 to 8) (size 9 to 14) (size 15 to 20)
#    0.000    2.182    1.818    0.000    5.091    2.909 
#    0.000    3.636    0.000    0.000    0.000    0.000 
#    0.000    0.000    0.000    0.000    0.000    0.000 
#
# Total GULP energy -61266.210957 kJ/mol
# GULP energy per Si atom -5569.655542 kJ/mol
# Density = 2.632127 g / cm^3
# Si number density = 26.381319 Si / 1000 Ang^3
#
#
#
# Elastic Constant Matrix: (Units=GPa)
#
#
# Indices 1 2 3 4 5 6 
#
# 1 55.0879 10.2086 8.3674 -5.8540 -18.6865 2.4971
# 2 10.2086 167.5600 33.7208 -38.0537 -12.5392 13.0391
# 3 8.3674 33.7208 122.1568 -20.0530 -2.6352 5.2301
# 4 -5.8540 -38.0537 -20.0530 51.8892 9.9006 0.8383
# 5 -18.6865 -12.5392 -2.6352 9.9006 21.3345 -7.2281
# 6 2.4971 13.0391 5.2301 0.8383 -7.2281 18.9617
#
#
#
# Elastic Compliance Matrix: (Units=1/GPa)
#
#
# Indices 1 2 3 4 5 6 
#
# 1 0.027191 -0.000623 -0.002027 -0.003568 0.027594 0.008083
# 2 -0.000623 0.007839 -0.001001 0.005464 -0.000441 -0.005442
# 3 -0.002027 -0.001001 0.009212 0.003392 -0.003890 -0.003219
# 4 -0.003568 0.005464 0.003392 0.027459 -0.016168 -0.011600
# 5 0.027594 -0.000441 -0.003890 -0.016168 0.088743 0.032286
# 6 0.008083 -0.005442 -0.003219 -0.011600 0.032286 0.069123
#
#
# Mechanical properties :
#
#
# Convention : Reuss Voigt Hill
#
# Bulk Modulus (GPa) = 27.07129 49.93315 38.50222
# Shear Modulus (GPa) = 20.06570 37.93760 29.00165
#
# Velocity S-wave (km/s) = 2.76089 3.79627 3.31920
# Velocity P-wave (km/s) = 4.52186 6.17933 5.41440
#
# Compressibility (1/GPa) = 0.03693951
#
# Stress axis : x y z
#
# Youngs Moduli (GPa) = 36.77729 127.57299 108.55449
#
# Poissons Ratio (x) = 0.07949 0.22005
# Poissons Ratio (y) = 0.02292 0.10864
# Poissons Ratio (z) = 0.07455 0.12767
#
# Static dielectric constant tensor:
#      x y z
#    x 2.060540 -0.002500 0.024570 
#    y -0.002500 2.044510 -0.028980 
#    z 0.024570 -0.028980 2.157790 
# 
# From -- ./inp_files/148366.got.cif
#   From: 2010.05.17/outbox.cif.g08.bks.cpg/sg2_75_cif.got.tgz:148366.got - 2010.06.03 11:33:40.
