data_PCOD9110377
_publ_section_title
;
Structure prediction by ZEFSAII (Michael W. Deem and Ramdas Pophale) SiO2 
 PCOD9110377
Probable space group: P -1
;
_chemical_formula_sum "Si O2"
_cell_formula_units_Z 10
_cell_length_a 13.022883
_cell_length_b 10.439941
_cell_length_c 7.311226
_cell_angle_alpha 119.584412
_cell_angle_beta 47.049225
_cell_angle_gamma 148.222283
_cell_volume 373.602422
_symmetry_space_group_name_H-M "P -1"
_symmetry_group_IT_number 2
_symmetry_cell_setting 'triclinic'
loop_
_space_group_symop_operation_xyz
x,y,z
-x,-y,-z
loop_
_atom_site_type_symbol
_atom_site_label
_atom_site_fract_x
_atom_site_fract_y
_atom_site_fract_z
Si Si1 0.829915 0.916951 0.374884
Si Si2 0.182240 0.689844 0.244348
Si Si3 0.339603 0.521767 0.905521
Si Si4 0.201439 0.412423 0.412830
Si Si5 0.443617 0.079128 0.473065
O O1 0.605996 0.737192 0.657310
O O2 0.794804 0.736656 0.182538
O O3 0.796501 0.028172 0.353757
O O4 0.076412 0.149075 0.346080
O O5 0.000000 0.500000 0.500000
O O6 0.031663 0.686870 0.325905
O O7 0.419868 0.953393 0.236319
O O8 0.218077 0.567835 0.012669
O O9 0.331351 0.536590 0.144912
O O10 0.387878 0.638657 0.486792
O O11 0.500000 0.000000 0.500000
#
# Coordination Sequence:
#
# PCOD9110377 Si02
#       5
#     2   2   2   2   2
#     4  10  24  39  61  86 122 155 192 241 292 347
#     4   9  18  36  62  81 116 151 191 239 285 339
#     4  10  20  42  60  87 120 155 193 239 294 349
#     4  10  21  40  62  85 117 158 194 240 292 343
#     4  11  20  38  60  89 117 151 201 240 286 350
#
# _framework density 26.766421999999999
#
# number of rings (size 3 to 8) (size 9 to 14) (size 15 to 20)
#    0.000    2.000    4.000    0.600    0.000    4.000 
#    0.000   14.000    0.000    0.000    0.000    0.000 
#    0.000    0.000    0.000    0.000    0.000    0.000 
#
# Total GULP energy -55749.248412 kJ/mol
# GULP energy per Si atom -5574.924841 kJ/mol
# Density = 2.670550 g / cm^3
# Si number density = 26.766422 Si / 1000 Ang^3
#
#
#
# Elastic Constant Matrix: (Units=GPa)
#
#
# Indices 1 2 3 4 5 6 
#
# 1 88.0037 41.9165 41.1609 9.6455 -1.4384 6.2593
# 2 41.9165 200.5269 46.9177 38.3062 6.9528 11.1532
# 3 41.1609 46.9177 176.6786 30.8078 11.4014 4.7908
# 4 9.6455 38.3062 30.8078 50.3215 -7.6849 1.9750
# 5 -1.4384 6.9528 11.4014 -7.6849 33.2932 7.0078
# 6 6.2593 11.1532 4.7908 1.9750 7.0078 47.8762
#
#
#
# Elastic Compliance Matrix: (Units=1/GPa)
#
#
# Indices 1 2 3 4 5 6 
#
# 1 0.013944 -0.002534 -0.002994 0.001575 0.002817 -0.001410
# 2 -0.002534 0.006583 -0.000153 -0.004773 -0.002399 -0.000639
# 3 -0.002994 -0.000153 0.007400 -0.004428 -0.003741 0.000417
# 4 0.001575 -0.004773 -0.004428 0.027352 0.009130 -0.001116
# 5 0.002817 -0.002399 -0.003741 0.009130 0.035089 -0.004948
# 6 -0.001410 -0.000639 0.000417 -0.001116 -0.004948 0.021949
#
#
# Mechanical properties :
#
#
# Convention : Reuss Voigt Hill
#
# Bulk Modulus (GPa) = 60.36963 80.57772 70.47367
# Shear Modulus (GPa) = 38.69895 48.64577 43.67236
#
# Velocity S-wave (km/s) = 3.80650 4.26774 4.04370
# Velocity P-wave (km/s) = 6.47475 7.37931 6.94178
#
# Compressibility (1/GPa) = 0.01656462
#
# Stress axis : x y z
#
# Youngs Moduli (GPa) = 71.71382 151.90762 135.12778
#
# Poissons Ratio (x) = 0.38500 0.40454
# Poissons Ratio (y) = 0.18175 0.02072
# Poissons Ratio (z) = 0.21469 0.02329
#
# Static dielectric constant tensor:
#      x y z
#    x 2.232590 -0.109790 0.029760 
#    y -0.109790 2.157900 -0.100490 
#    z 0.029760 -0.100490 2.179210 
# 
# From -- ./inp_files/308451.got.cif
#   From: 2010.05.17/outbox.cif.g08.bks.cpg/sg2_155_cif.got.tgz:308451.got - 2010.06.03 11:33:40.
