data_PCOD9110415
_publ_section_title
;
Structure prediction by ZEFSAII (Michael W. Deem and Ramdas Pophale) SiO2 
 PCOD9110415
Probable space group: P -1
;
_chemical_formula_sum "Si O2"
_cell_formula_units_Z 14
_cell_length_a 17.701792
_cell_length_b 14.726982
_cell_length_c 7.776980
_cell_angle_alpha 59.015901
_cell_angle_beta 119.808697
_cell_angle_gamma 157.466616
_cell_volume 664.643490
_symmetry_space_group_name_H-M "P -1"
_symmetry_group_IT_number 2
_symmetry_cell_setting 'triclinic'
loop_
_space_group_symop_operation_xyz
x,y,z
-x,-y,-z
loop_
_atom_site_type_symbol
_atom_site_label
_atom_site_fract_x
_atom_site_fract_y
_atom_site_fract_z
Si Si1 0.038022 0.034463 0.250215
Si Si2 0.502639 0.433265 0.811709
Si Si3 0.114786 0.518081 0.062148
Si Si4 0.652446 0.527348 0.236240
Si Si5 0.888088 0.051380 0.285672
Si Si6 0.399642 0.766780 0.440887
Si Si7 0.207456 0.681186 0.624176
O O1 0.271197 0.305523 0.236282
O O2 0.952755 0.056254 0.184667
O O3 0.027301 0.932089 0.486618
O O4 0.875739 0.805050 0.162010
O O5 0.417897 0.457421 0.730224
O O6 0.350432 0.210531 0.729454
O O7 0.512236 0.381188 0.053916
O O8 0.297671 0.703916 0.217922
O O9 0.976658 0.264571 0.180912
O O10 0.177647 0.593716 0.860380
O O11 0.000000 0.500000 0.000000
O O12 0.635333 0.395999 0.431457
O O13 0.294987 0.700701 0.556727
O O14 0.629015 0.048557 0.431154
O O15 0.000000 0.500000 0.500000
#
# Coordination Sequence:
#
# PCOD9110415 Si02
#       7
#     2   2   2   2   2   2   2
#     4  10  20  42  61  91 130 172 217 269 330 386
#     4  10  22  38  62  96 129 170 218 270 327 391
#     4  12  25  47  70  99 138 179 227 278 339 401
#     4  10  22  39  63  95 129 168 220 270 326 400
#     4  10  23  39  62  94 131 168 222 270 322 399
#     4  11  25  47  69  98 137 177 227 278 338 400
#     4  11  26  46  70 100 133 176 227 283 332 398
#
# _framework density 21.063922000000002
#
# number of rings (size 3 to 8) (size 9 to 14) (size 15 to 20)
#    0.000    1.429    2.857    1.286    4.000    2.286 
#    2.571    0.000    0.000    0.000    0.000    0.000 
#    0.000    0.000    0.000    0.000    0.000    0.000 
#
# Total GULP energy -78171.695136 kJ/mol
# GULP energy per Si atom -5583.692510 kJ/mol
# Density = 2.101598 g / cm^3
# Si number density = 21.063922 Si / 1000 Ang^3
#
#
#
# Elastic Constant Matrix: (Units=GPa)
#
#
# Indices 1 2 3 4 5 6 
#
# 1 36.8048 36.3829 40.3668 0.4259 13.1349 2.6532
# 2 36.3829 160.4318 56.1297 17.7414 18.3772 7.3706
# 3 40.3668 56.1297 91.2323 2.3537 6.4123 -5.8556
# 4 0.4259 17.7414 2.3537 32.5127 -5.4918 -3.9417
# 5 13.1349 18.3772 6.4123 -5.4918 34.7937 -0.3337
# 6 2.6532 7.3706 -5.8556 -3.9417 -0.3337 27.6040
#
#
#
# Elastic Compliance Matrix: (Units=1/GPa)
#
#
# Indices 1 2 3 4 5 6 
#
# 1 0.068503 -0.002643 -0.028030 -0.002268 -0.019775 -0.012387
# 2 -0.002643 0.009878 -0.004716 -0.006280 -0.004383 -0.004334
# 3 -0.028030 -0.004716 0.026191 0.003786 0.008941 0.010158
# 4 -0.002268 -0.006280 0.003786 0.036485 0.009311 0.008020
# 5 -0.019775 -0.004383 0.008941 0.009311 0.038408 0.006762
# 6 -0.012387 -0.004334 0.010158 0.008020 0.006762 0.041956
#
#
# Mechanical properties :
#
#
# Convention : Reuss Voigt Hill
#
# Bulk Modulus (GPa) = 29.59209 61.58085 45.58647
# Shear Modulus (GPa) = 16.47638 29.35470 22.91554
#
# Velocity S-wave (km/s) = 2.79983 3.73715 3.30192
# Velocity P-wave (km/s) = 4.95291 6.92245 6.01879
#
# Compressibility (1/GPa) = 0.03379282
#
# Stress axis : x y z
#
# Youngs Moduli (GPa) = 14.59791 101.23209 38.18131
#
# Poissons Ratio (x) = 0.26757 1.07024
# Poissons Ratio (y) = 0.03858 0.18007
# Poissons Ratio (z) = 0.40919 0.47742
#
# Static dielectric constant tensor:
#      x y z
#    x 1.775650 0.021930 -0.071950 
#    y 0.021930 1.783450 0.006370 
#    z -0.071950 0.006370 1.765270 
# 
# From -- ./inp_files/335681.got.cif
#   From: 2010.05.17/outbox.cif.g08.bks.cpg/sg2_168_cif.got.tgz:335681.got - 2010.06.03 11:33:40.
