data_PCOD9110657
_publ_section_title
;
Structure prediction by ZEFSAII (Michael W. Deem and Ramdas Pophale) SiO2 
 PCOD9110657
Probable space group: P -1
;
_chemical_formula_sum "Si O2"
_cell_formula_units_Z 16
_cell_length_a 8.017521
_cell_length_b 13.837738
_cell_length_c 25.061957
_cell_angle_alpha 20.394528
_cell_angle_beta 126.022626
_cell_angle_gamma 134.253225
_cell_volume 669.334107
_symmetry_space_group_name_H-M "P -1"
_symmetry_group_IT_number 2
_symmetry_cell_setting 'triclinic'
loop_
_space_group_symop_operation_xyz
x,y,z
-x,-y,-z
loop_
_atom_site_type_symbol
_atom_site_label
_atom_site_fract_x
_atom_site_fract_y
_atom_site_fract_z
Si Si1 0.286264 0.285614 0.294814
Si Si2 0.087529 0.684747 0.001329
Si Si3 0.441551 0.651325 0.960263
Si Si4 0.769608 0.709277 0.222498
Si Si5 0.582808 0.293484 0.247562
Si Si6 0.726797 0.398223 0.491114
Si Si7 0.507900 0.785047 0.273186
Si Si8 0.972650 0.392032 0.344391
O O1 0.117482 0.399343 0.178036
O O2 0.509023 0.588103 0.210361
O O3 0.414717 0.194079 0.320063
O O4 0.149927 0.975608 0.467469
O O5 0.848900 0.548743 0.991420
O O6 0.087954 0.913379 0.930327
O O7 0.316490 0.926178 0.883437
O O8 0.562940 0.580378 0.069459
O O9 0.500000 0.500000 0.000000
O O10 0.529803 0.029245 0.781399
O O11 0.723646 0.519803 0.367618
O O12 0.905222 0.596554 0.266236
O O13 0.845908 0.384304 0.269053
O O14 0.457047 0.985694 0.344243
O O15 0.639770 0.590728 0.411804
O O16 0.000000 0.500000 0.500000
O O17 0.257602 0.553661 0.316165
#
# Coordination Sequence:
#
# PCOD9110657 Si02
#       8
#     2   2   2   2   2   2   2   2
#     4  11  21  42  74 103 135 183 232 284 343 417
#     4  11  24  44  72  99 141 182 230 291 348 415
#     4  12  27  49  70 100 139 189 241 286 345 418
#     4  10  20  42  65 105 133 180 233 277 345 411
#     4  11  22  45  71  99 141 187 228 288 354 400
#     4  11  23  41  70  98 140 184 230 282 351 412
#     4  11  26  44  69 106 138 184 230 290 352 408
#     4  11  23  44  73 104 142 178 236 286 340 421
#
# _framework density 23.904354000000001
#
# number of rings (size 3 to 8) (size 9 to 14) (size 15 to 20)
#    0.000    1.000    3.750    3.750    1.750    2.000 
#    6.750    1.875    0.000    0.000    0.000    0.000 
#    0.000    0.000    0.000    0.000    0.000    0.000 
#
# Total GULP energy -89631.792962 kJ/mol
# GULP energy per Si atom -5601.987060 kJ/mol
# Density = 2.384995 g / cm^3
# Si number density = 23.904354 Si / 1000 Ang^3
#
#
#
# Elastic Constant Matrix: (Units=GPa)
#
#
# Indices 1 2 3 4 5 6 
#
# 1 67.9250 34.7817 31.3590 -4.6766 20.8434 17.2304
# 2 34.7817 92.3536 39.8851 -11.7650 1.8287 20.2796
# 3 31.3590 39.8851 85.8562 -4.4748 31.0574 10.6932
# 4 -4.6766 -11.7650 -4.4748 39.9729 -6.5818 3.9725
# 5 20.8434 1.8287 31.0574 -6.5818 42.6822 -8.0544
# 6 17.2304 20.2796 10.6932 3.9725 -8.0544 42.8946
#
#
#
# Elastic Compliance Matrix: (Units=1/GPa)
#
#
# Indices 1 2 3 4 5 6 
#
# 1 0.024852 -0.007369 0.000545 -0.000597 -0.014048 -0.009217
# 2 -0.007369 0.018367 -0.008749 0.005365 0.009582 -0.002240
# 3 0.000545 -0.008749 0.022231 -0.002411 -0.017317 -0.004653
# 4 -0.000597 0.005365 -0.002411 0.027472 0.005446 -0.003217
# 5 -0.014048 0.009582 -0.017317 0.005446 0.045874 0.013539
# 6 -0.009217 -0.002240 -0.004653 -0.003217 0.013539 0.032075
#
#
# Mechanical properties :
#
#
# Convention : Reuss Voigt Hill
#
# Bulk Modulus (GPa) = 29.15095 50.90959 40.03027
# Shear Modulus (GPa) = 23.42463 34.45055 28.93759
#
# Velocity S-wave (km/s) = 3.13378 3.80041 3.48308
# Velocity P-wave (km/s) = 5.03144 6.37189 5.74092
#
# Compressibility (1/GPa) = 0.03430419
#
# Stress axis : x y z
#
# Youngs Moduli (GPa) = 40.23875 54.44542 44.98289
#
# Poissons Ratio (x) = 0.40119 -0.02450
# Poissons Ratio (y) = 0.29651 0.39354
# Poissons Ratio (z) = -0.02192 0.47632
#
# Static dielectric constant tensor:
#      x y z
#    x 1.993560 -0.046090 0.019340 
#    y -0.046090 1.891300 -0.011540 
#    z 0.019340 -0.011540 1.868310 
# 
# From -- ./inp_files/617300.got.cif
#   From: 2010.05.17/outbox.cif.g08.bks.cpg/sg2_309_cif.got.tgz:617300.got - 2010.06.03 11:33:40.
