data_PCOD9110859
_publ_section_title
;
Structure prediction by ZEFSAII (Michael W. Deem and Ramdas Pophale) SiO2 
 PCOD9110859
Probable space group: P -1
;
_chemical_formula_sum "Si O2"
_cell_formula_units_Z 16
_cell_length_a 7.308424
_cell_length_b 22.661817
_cell_length_c 9.945038
_cell_angle_alpha 33.988756
_cell_angle_beta 84.124882
_cell_angle_gamma 61.996895
_cell_volume 661.491345
_symmetry_space_group_name_H-M "P -1"
_symmetry_group_IT_number 2
_symmetry_cell_setting 'triclinic'
loop_
_space_group_symop_operation_xyz
x,y,z
-x,-y,-z
loop_
_atom_site_type_symbol
_atom_site_label
_atom_site_fract_x
_atom_site_fract_y
_atom_site_fract_z
Si Si1 0.013274 0.034698 0.280796
Si Si2 0.250482 0.646189 0.312837
Si Si3 0.548371 0.903303 0.558613
Si Si4 0.770687 0.137338 0.667862
Si Si5 0.689736 0.575998 0.727302
Si Si6 0.653243 0.869734 0.335660
Si Si7 0.895400 0.401465 0.312671
Si Si8 0.990992 0.607716 0.202569
O O1 0.275196 0.994391 0.341737
O O2 0.079998 0.919365 0.381162
O O3 0.000000 0.000000 0.500000
O O4 0.791872 0.210343 0.940759
O O5 0.500000 0.500000 0.500000
O O6 0.229017 0.592711 0.555674
O O7 0.033723 0.688409 0.147663
O O8 0.693401 0.891707 0.441772
O O9 0.500000 0.000000 0.500000
O O10 0.715644 0.736599 0.909657
O O11 0.609794 0.278339 0.513821
O O12 0.512945 0.172097 0.579446
O O13 0.000000 0.000000 0.000000
O O14 0.900037 0.587652 0.687380
O O15 0.790854 0.478341 0.768286
O O16 0.731692 0.504037 0.004839
O O17 0.927919 0.757099 0.463844
O O18 0.500000 0.000000 0.000000
O O19 0.000000 0.500000 0.500000
#
# Coordination Sequence:
#
# PCOD9110859 Si02
#       8
#     2   2   2   2   2   2   2   2
#     4  11  27  46  67  98 141 189 228 282 353 414
#     4  12  28  45  68 104 146 184 226 287 355 416
#     4  11  23  44  68 100 134 175 238 288 340 409
#     4  10  24  42  65  95 134 175 233 277 341 409
#     4  10  22  40  72 100 129 182 229 284 341 406
#     4  10  21  39  68  92 127 172 223 288 339 395
#     4  10  20  42  66  98 133 172 230 280 337 407
#     4  12  25  44  72 105 137 180 234 286 345 419
#
# _framework density 24.187768999999999
#
# number of rings (size 3 to 8) (size 9 to 14) (size 15 to 20)
#    0.000    1.250    3.750    1.500    7.000    1.000 
#    0.000    0.625    0.000    0.000    0.000    0.000 
#    0.000    0.000    0.000    0.000    0.000    0.000 
#
# Total GULP energy -89119.406099 kJ/mol
# GULP energy per Si atom -5569.962881 kJ/mol
# Density = 2.413272 g / cm^3
# Si number density = 24.187769 Si / 1000 Ang^3
#
#
#
# Elastic Constant Matrix: (Units=GPa)
#
#
# Indices 1 2 3 4 5 6 
#
# 1 52.0731 25.5562 -0.7621 -3.6666 5.9495 -6.3387
# 2 25.5562 237.6065 82.5893 16.9729 -8.9103 -18.4621
# 3 -0.7621 82.5893 160.3755 -13.4900 0.7202 -23.4795
# 4 -3.6666 16.9729 -13.4900 52.1451 -9.8119 7.2848
# 5 5.9495 -8.9103 0.7202 -9.8119 29.5691 3.5111
# 6 -6.3387 -18.4621 -23.4795 7.2848 3.5111 32.8368
#
#
#
# Elastic Compliance Matrix: (Units=1/GPa)
#
#
# Indices 1 2 3 4 5 6 
#
# 1 0.022135 -0.003257 0.002607 0.001623 -0.005498 0.004534
# 2 -0.003257 0.006012 -0.003224 -0.002870 0.001483 0.000924
# 3 0.002607 -0.003224 0.008801 0.002613 -0.001384 0.004551
# 4 0.001623 -0.002870 0.002613 0.022953 0.006987 -0.005271
# 5 -0.005498 0.001483 -0.001384 0.006987 0.038543 -0.006888
# 6 0.004534 0.000924 0.004551 -0.005271 -0.006888 0.037009
#
#
# Mechanical properties :
#
#
# Convention : Reuss Voigt Hill
#
# Bulk Modulus (GPa) = 34.24688 73.86910 54.05799
# Shear Modulus (GPa) = 32.69417 45.75497 39.22457
#
# Velocity S-wave (km/s) = 3.68051 4.35404 4.03136
# Velocity P-wave (km/s) = 5.67900 7.47549 6.63830
#
# Compressibility (1/GPa) = 0.02919974
#
# Stress axis : x y z
#
# Youngs Moduli (GPa) = 45.17790 166.33021 113.62874
#
# Poissons Ratio (x) = 0.54172 -0.29627
# Poissons Ratio (y) = 0.14714 0.36638
# Poissons Ratio (z) = -0.11780 0.53631
#
# Static dielectric constant tensor:
#      x y z
#    x 1.922100 0.167590 -0.089490 
#    y 0.167590 1.838730 0.022320 
#    z -0.089490 0.022320 1.816060 
# 
# From -- ./inp_files/225953.got.cif
#   From: 2010.05.17/outbox.cif.g08.bks.cpg/sg2_113_cif.got.tgz:225953.got - 2010.06.03 11:33:40.
