data_PCOD9110746
_publ_section_title
;
Structure prediction by ZEFSAII (Michael W. Deem and Ramdas Pophale) SiO2 
 PCOD9110746
Probable space group: P -1
;
_chemical_formula_sum "Si O2"
_cell_formula_units_Z 16
_cell_length_a 12.869832
_cell_length_b 10.777582
_cell_length_c 25.046207
_cell_angle_alpha 37.231538
_cell_angle_beta 21.231308
_cell_angle_gamma 38.103989
_cell_volume 745.145578
_symmetry_space_group_name_H-M "P -1"
_symmetry_group_IT_number 2
_symmetry_cell_setting 'triclinic'
loop_
_space_group_symop_operation_xyz
x,y,z
-x,-y,-z
loop_
_atom_site_type_symbol
_atom_site_label
_atom_site_fract_x
_atom_site_fract_y
_atom_site_fract_z
Si Si1 0.383570 0.396999 0.674560
Si Si2 0.883470 0.897042 0.174615
Si Si3 0.584404 0.050813 0.045842
Si Si4 0.915662 0.449123 0.454150
Si Si5 0.928105 0.146422 0.649066
Si Si6 0.428073 0.646476 0.149059
Si Si7 0.003400 0.682339 0.015063
Si Si8 0.503370 0.182382 0.515042
O O1 0.250078 0.249986 0.749950
O O2 0.732069 0.330676 0.542479
O O3 0.352031 0.636623 0.588465
O O4 0.213520 0.394271 0.813130
O O5 0.713530 0.894324 0.313141
O O6 0.851909 0.136650 0.088522
O O7 0.231989 0.830726 0.042504
O O8 0.277037 0.001727 0.227316
O O9 0.543219 0.175481 0.967997
O O10 0.807591 0.823021 0.015555
O O11 0.956937 0.324411 0.531961
O O12 0.692415 0.676896 0.484488
O O13 0.222971 0.498296 0.272669
O O14 0.749997 0.250011 0.749994
O O15 0.241078 0.003838 0.561347
O O16 0.741108 0.503933 0.061273
#
# Coordination Sequence:
#
# PCOD9110746 Si02
#       8
#     2   2   2   2   2   2   2   2
#     4  10  20  42  66  84 122 160 192 250 304 344
#     4  10  20  42  66  84 122 160 192 250 304 344
#     4  10  22  41  60  88 126 151 204 246 288 360
#     4  10  22  41  60  88 126 151 204 246 288 360
#     4  12  24  40  62  90 122 160 200 244 296 354
#     4  12  24  40  62  90 122 160 200 244 296 354
#     4  10  22  40  62  88 125 152 204 242 293 360
#     4  10  22  40  62  88 125 152 204 242 293 360
#
# _framework density 21.472314000000001
#
# number of rings (size 3 to 8) (size 9 to 14) (size 15 to 20)
#    1.500    0.000    2.500    3.000    0.000    2.000 
#    0.000    7.500    0.000    0.000    0.000    0.000 
#    0.000    0.000    0.000    0.000    0.000    0.000 
#
# Total GULP energy -89152.636148 kJ/mol
# GULP energy per Si atom -5572.039759 kJ/mol
# Density = 2.142344 g / cm^3
# Si number density = 21.472314 Si / 1000 Ang^3
#
#
#
# Elastic Constant Matrix: (Units=GPa)
#
#
# Indices 1 2 3 4 5 6 
#
# 1 7.2176 21.6444 -8.4017 -23.7193 -7.7631 -8.0394
# 2 21.6444 55.3934 23.3712 21.3927 2.7530 -36.5643
# 3 -8.4017 23.3712 108.4954 -28.7773 -0.4930 -8.2161
# 4 -23.7193 21.3927 -28.7773 9.2601 -0.1383 -4.3064
# 5 -7.7631 2.7530 -0.4930 -0.1383 36.3830 -13.2324
# 6 -8.0394 -36.5643 -8.2161 -4.3064 -13.2324 40.2564
#
#
#
# Elastic Compliance Matrix: (Units=1/GPa)
#
#
# Indices 1 2 3 4 5 6 
#
# 1 0.014905 0.020250 -0.008477 -0.025647 0.008610 0.019726
# 2 0.020250 0.026658 0.001986 0.012968 0.015116 0.035018
# 3 -0.008477 0.001986 0.007358 -0.003107 -0.001596 0.000755
# 4 -0.025647 0.012968 -0.003107 0.004949 -0.004650 0.005024
# 5 0.008610 0.015116 -0.001596 -0.004650 0.038002 0.027117
# 6 0.019726 0.035018 0.000755 0.005024 0.027117 0.070192
#
#
# Mechanical properties :
#
#
# Convention : Reuss Voigt Hill
#
# Bulk Modulus (GPa) = 13.08241 27.14825 20.11533
# Shear Modulus (GPa) = 31.24492 26.14606 28.69549
#
# Velocity S-wave (km/s) = 3.81875 3.49329 3.65964
# Velocity P-wave (km/s) = 5.05467 5.37974 5.21974
#
# Compressibility (1/GPa) = 0.07643852
#
# Stress axis : x y z
#
# Youngs Moduli (GPa) = 67.09140 37.51270 135.89813
#
# Poissons Ratio (x) = -0.75964 1.15207
# Poissons Ratio (y) = -1.35862 -0.26988
# Poissons Ratio (z) = 0.56877 -0.07450
#
# Static dielectric constant tensor:
#      x y z
#    x 1.825180 0.032290 -0.067670 
#    y 0.032290 1.796230 -0.024080 
#    z -0.067670 -0.024080 1.784430 
# 
# From -- ./inp_files/623509.got.cif
#   From: 2010.05.17/outbox.cif.g08.bks.cpg/sg2_312_cif.got.tgz:623509.got - 2010.06.03 11:33:40.
