data_PCOD9110408
_publ_section_title
;
Structure prediction by ZEFSAII (Michael W. Deem and Ramdas Pophale) SiO2 
 PCOD9110408
Probable space group: P -1
;
_chemical_formula_sum "Si O2"
_cell_formula_units_Z 16
_cell_length_a 7.759633
_cell_length_b 12.285523
_cell_length_c 14.681669
_cell_angle_alpha 124.497188
_cell_angle_beta 129.795731
_cell_angle_gamma 86.939319
_cell_volume 773.500828
_symmetry_space_group_name_H-M "P -1"
_symmetry_group_IT_number 2
_symmetry_cell_setting 'triclinic'
loop_
_space_group_symop_operation_xyz
x,y,z
-x,-y,-z
loop_
_atom_site_type_symbol
_atom_site_label
_atom_site_fract_x
_atom_site_fract_y
_atom_site_fract_z
Si Si1 0.289786 0.605478 0.611032
Si Si2 0.591646 0.734050 0.087605
Si Si3 0.150788 0.919186 0.427992
Si Si4 0.540905 0.227091 0.614238
Si Si5 0.947322 0.259136 0.516803
Si Si6 0.655222 0.175885 0.110126
Si Si7 0.528281 0.440513 0.854190
Si Si8 0.804174 0.708190 0.578949
O O1 0.408040 0.730435 0.789380
O O2 0.365326 0.475335 0.561110
O O3 0.000000 0.500000 0.500000
O O4 0.250236 0.679333 0.541603
O O5 0.445900 0.638221 0.082631
O O6 0.863916 0.867611 0.275395
O O7 0.435287 0.790688 0.000256
O O8 0.647636 0.617750 0.992495
O O9 0.238857 0.810931 0.355132
O O10 0.157549 0.880811 0.517610
O O11 0.344459 0.089977 0.547375
O O12 0.614443 0.378585 0.767829
O O13 0.388451 0.226705 0.471167
O O14 0.221006 0.381067 0.709989
O O15 0.031806 0.237334 0.434626
O O16 0.962822 0.233932 0.243236
O O17 0.500000 0.000000 0.000000
#
# Coordination Sequence:
#
# PCOD9110408 Si02
#       8
#     2   2   2   2   2   2   2   2
#     4   8  15  28  47  67  91 121 151 190 232 277
#     4  10  19  32  49  76  97 121 157 197 243 286
#     4  10  21  32  49  70 100 128 160 200 234 285
#     4  10  20  35  48  69  96 132 165 195 237 275
#     4   8  15  30  50  72  91 121 161 197 234 274
#     4  10  17  25  44  73  97 114 145 194 239 279
#     4   9  18  31  52  71  95 123 158 203 238 279
#     4   9  17  31  52  68  91 125 158 195 234 280
#
# _framework density 20.685175000000001
#
# number of rings (size 3 to 8) (size 9 to 14) (size 15 to 20)
#    0.000    3.000    0.000    3.750    0.000    7.000 
#    0.000    0.625    0.000    3.000    0.000   13.125 
#    0.000    0.000    0.000    0.000    0.000    0.000 
#
# Total GULP energy -89164.498016 kJ/mol
# GULP energy per Si atom -5572.781126 kJ/mol
# Density = 2.063809 g / cm^3
# Si number density = 20.685175 Si / 1000 Ang^3
#
#
#
# Elastic Constant Matrix: (Units=GPa)
#
#
# Indices 1 2 3 4 5 6 
#
# 1 33.1252 18.8019 12.8906 3.8495 -10.8617 0.8141
# 2 18.8019 130.5277 53.7798 -32.4058 2.1437 -4.3926
# 3 12.8906 53.7798 49.4815 -9.6732 -4.0616 0.0467
# 4 3.8495 -32.4058 -9.6732 44.7475 -5.4907 -7.2045
# 5 -10.8617 2.1437 -4.0616 -5.4907 13.5016 0.9469
# 6 0.8141 -4.3926 0.0467 -7.2045 0.9469 14.9908
#
#
#
# Elastic Compliance Matrix: (Units=1/GPa)
#
#
# Indices 1 2 3 4 5 6 
#
# 1 0.050612 -0.010561 -0.000273 -0.009282 0.039433 -0.012794
# 2 -0.010561 0.020310 -0.018014 0.012258 -0.013087 0.013299
# 3 -0.000273 -0.018014 0.040217 -0.003960 0.013700 -0.008157
# 4 -0.009282 0.012258 -0.003960 0.034752 0.002077 0.020679
# 5 0.039433 -0.013087 0.013700 0.002077 0.113688 -0.012201
# 6 -0.012794 0.013299 -0.008157 0.020679 -0.012201 0.082034
#
#
# Mechanical properties :
#
#
# Convention : Reuss Voigt Hill
#
# Bulk Modulus (GPa) = 18.71075 42.67545 30.69310
# Shear Modulus (GPa) = 11.98691 23.15880 17.57285
#
# Velocity S-wave (km/s) = 2.40988 3.34965 2.91785
# Velocity P-wave (km/s) = 4.09981 5.96958 5.12076
#
# Compressibility (1/GPa) = 0.05344522
#
# Stress axis : x y z
#
# Youngs Moduli (GPa) = 19.75810 49.23644 24.86507
#
# Poissons Ratio (x) = 0.51997 0.00678
# Poissons Ratio (y) = 0.20866 0.44791
# Poissons Ratio (z) = 0.00539 0.88693
#
# Static dielectric constant tensor:
#      x y z
#    x 1.795270 -0.048480 -0.007320 
#    y -0.048480 1.796650 -0.010630 
#    z -0.007320 -0.010630 1.787830 
# 
# From -- ./inp_files/499342.got.cif
#   From: 2010.05.17/outbox.cif.g08.bks.cpg/sg2_250_cif.got.tgz:499342.got - 2010.06.03 11:33:40.
