data_PCOD9110805
_publ_section_title
;
Structure prediction by ZEFSAII (Michael W. Deem and Ramdas Pophale) SiO2 
 PCOD9110805
Probable space group: P -1
;
_chemical_formula_sum "Si O2"
_cell_formula_units_Z 15
_cell_length_a 14.222284
_cell_length_b 14.257001
_cell_length_c 13.359436
_cell_angle_alpha 31.685956
_cell_angle_beta 148.122826
_cell_angle_gamma 149.696491
_cell_volume 647.479516
_symmetry_space_group_name_H-M "P -1"
_symmetry_group_IT_number 2
_symmetry_cell_setting 'triclinic'
loop_
_space_group_symop_operation_xyz
x,y,z
-x,-y,-z
loop_
_atom_site_type_symbol
_atom_site_label
_atom_site_fract_x
_atom_site_fract_y
_atom_site_fract_z
Si Si1 0.774919 0.705303 0.874187
Si Si2 0.799889 0.264986 0.608688
Si Si3 0.442631 0.065975 0.617403
Si Si4 0.238627 0.640266 0.717765
Si Si5 0.000000 0.000000 0.000000
Si Si6 0.630297 0.287650 0.776688
Si Si7 0.261739 0.280075 0.554592
Si Si8 0.970880 0.176966 0.192918
O O1 0.633598 0.780283 0.627100
O O2 0.921091 0.708207 0.915371
O O3 0.664215 0.481791 0.029049
O O4 0.908226 0.865155 0.935838
O O5 0.652319 0.136869 0.681758
O O6 0.681068 0.302506 0.375936
O O7 0.994220 0.478154 0.629675
O O8 0.883993 0.130628 0.753918
O O9 0.487937 0.098616 0.745901
O O10 0.285555 0.834798 0.650383
O O11 0.485467 0.306311 0.711490
O O12 0.714839 0.500409 0.595345
O O13 0.808054 0.247101 0.012417
O O14 0.137302 0.230596 0.381853
O O15 0.138660 0.071528 0.697129
#
# Coordination Sequence:
#
# PCOD9110805 Si02
#       8
#     2   2   2   2   1   2   2   2
#     4  11  24  41  66 100 136 176 229 275 336 412
#     4  10  22  43  65  97 132 178 233 276 336 399
#     4  12  24  44  67 100 136 178 230 283 333 415
#     4  10  23  43  63  95 132 180 222 279 339 393
#     4  10  20  42  66  92 138 176 218 286 328 392
#     4  11  23  44  69 101 138 171 225 288 344 414
#     4  10  24  45  71 102 131 176 228 284 346 413
#     4  11  23  46  70 100 135 181 223 283 349 401
#
# _framework density 23.166755999999999
#
# number of rings (size 3 to 8) (size 9 to 14) (size 15 to 20)
#    0.000    1.333    2.667    2.800    0.000    3.733 
#    7.200    0.000    0.000    0.000    0.000    0.000 
#    0.000    0.000    0.000    0.000    0.000    0.000 
#
# Total GULP energy -83626.015029 kJ/mol
# GULP energy per Si atom -5575.067669 kJ/mol
# Density = 2.311403 g / cm^3
# Si number density = 23.166756 Si / 1000 Ang^3
#
#
#
# Elastic Constant Matrix: (Units=GPa)
#
#
# Indices 1 2 3 4 5 6 
#
# 1 20.3045 13.7765 5.3992 -12.1564 -0.0770 -5.7120
# 2 13.7765 74.5569 15.4502 -12.0939 14.5930 -11.9900
# 3 5.3992 15.4502 96.1351 -12.6610 15.4311 8.0916
# 4 -12.1564 -12.0939 -12.6610 26.3666 -5.3068 0.2785
# 5 -0.0770 14.5930 15.4311 -5.3068 21.0034 2.1007
# 6 -5.7120 -11.9900 8.0916 0.2785 2.1007 13.5444
#
#
#
# Elastic Compliance Matrix: (Units=1/GPa)
#
#
# Indices 1 2 3 4 5 6 
#
# 1 0.085326 -0.007264 -0.003481 0.036929 0.014383 0.028643
# 2 -0.007264 0.021622 -0.001999 0.002398 -0.014929 0.019538
# 3 -0.003481 -0.001999 0.013177 0.002576 -0.006640 -0.010133
# 4 0.036929 0.002398 0.002576 0.059201 0.010199 0.013358
# 5 0.014383 -0.014929 -0.006640 0.010199 0.066869 -0.013764
# 6 0.028643 0.019538 -0.010133 0.013358 -0.013764 0.111120
#
#
# Mechanical properties :
#
#
# Convention : Reuss Voigt Hill
#
# Bulk Modulus (GPa) = 10.56667 28.91648 19.74158
# Shear Modulus (GPa) = 12.06713 22.60756 17.33734
#
# Velocity S-wave (km/s) = 2.28476 3.12727 2.73861
# Velocity P-wave (km/s) = 3.39576 5.05457 4.30581
#
# Compressibility (1/GPa) = 0.09463716
#
# Stress axis : x y z
#
# Youngs Moduli (GPa) = 11.71977 46.24909 75.89063
#
# Poissons Ratio (x) = 0.33594 0.26416
# Poissons Ratio (y) = 0.08513 0.15174
# Poissons Ratio (z) = 0.04079 0.09247
#
# Static dielectric constant tensor:
#      x y z
#    x 1.875470 0.066700 -0.013870 
#    y 0.066700 1.909620 -0.014150 
#    z -0.013870 -0.014150 1.923170 
# 
# From -- ./inp_files/534196.got.cif
#   From: 2010.05.17/outbox.cif.g08.bks.cpg/sg2_268_cif.got.tgz:534196.got - 2010.06.03 11:33:40.
