data_PCOD9110358
_publ_section_title
;
Structure prediction by ZEFSAII (Michael W. Deem and Ramdas Pophale) SiO2 
 PCOD9110358
Probable space group: P -1
;
_chemical_formula_sum "Si O2"
_cell_formula_units_Z 14
_cell_length_a 27.912728
_cell_length_b 16.011899
_cell_length_c 5.350543
_cell_angle_alpha 91.545716
_cell_angle_beta 82.774014
_cell_angle_gamma 164.145963
_cell_volume 607.845946
_symmetry_space_group_name_H-M "P -1"
_symmetry_group_IT_number 2
_symmetry_cell_setting 'triclinic'
loop_
_space_group_symop_operation_xyz
x,y,z
-x,-y,-z
loop_
_atom_site_type_symbol
_atom_site_label
_atom_site_fract_x
_atom_site_fract_y
_atom_site_fract_z
Si Si1 0.529580 0.312769 0.082209
Si Si2 0.751884 0.915310 0.119223
Si Si3 0.326939 0.129078 0.333562
Si Si4 0.138402 0.323351 0.446886
Si Si5 0.454934 0.027758 0.813183
Si Si6 0.330731 0.481198 0.488673
Si Si7 0.949604 0.732794 0.998258
O O1 0.356213 0.080190 0.256553
O O2 0.679650 0.568364 0.229316
O O3 0.614480 0.487819 0.773501
O O4 0.482832 0.138428 0.035733
O O5 0.542088 0.524423 0.227046
O O6 0.759228 0.991555 0.353011
O O7 0.775461 0.998807 0.842728
O O8 0.903407 0.096519 0.075989
O O9 0.179007 0.292371 0.460855
O O10 0.050511 0.212830 0.746075
O O11 0.361253 0.723745 0.305607
O O12 0.039668 0.194127 0.255113
O O13 0.258807 0.655894 0.901982
O O14 0.488044 0.152345 0.584211
#
# Coordination Sequence:
#
# PCOD9110358 Si02
#       7
#     2   2   2   2   2   2   2
#     4   9  17  33  56  71  98 139 171 207 245 314
#     4  10  23  35  58  79  95 131 176 224 247 312
#     4  10  20  42  56  72  99 131 179 215 271 284
#     4   9  20  30  52  75 113 142 159 203 246 309
#     4   8  21  29  53  79 108 136 170 193 249 320
#     4   8  18  30  50  81  99 137 176 186 247 310
#     4  12  19  33  51  79 110 132 171 209 256 286
#
# _framework density 23.032153000000001
#
# number of rings (size 3 to 8) (size 9 to 14) (size 15 to 20)
#    1.714    0.571    0.000    4.286    2.000    0.000 
#    0.000    1.429    0.000   12.000    0.000    0.000 
#    0.000    0.000    0.000    0.000    0.000    0.000 
#
# Total GULP energy -78084.832778 kJ/mol
# GULP energy per Si atom -5577.488056 kJ/mol
# Density = 2.297973 g / cm^3
# Si number density = 23.032153 Si / 1000 Ang^3
#
#
#
# Elastic Constant Matrix: (Units=GPa)
#
#
# Indices 1 2 3 4 5 6 
#
# 1 78.7121 44.4887 65.6608 6.3368 -5.9521 31.5346
# 2 44.4887 71.0439 44.9976 9.3211 10.7160 25.5584
# 3 65.6608 44.9976 183.9619 36.4158 -18.7238 25.0196
# 4 6.3368 9.3211 36.4158 31.1007 10.7332 -1.4113
# 5 -5.9521 10.7160 -18.7238 10.7332 37.3468 -1.6718
# 6 31.5346 25.5584 25.0196 -1.4113 -1.6718 30.4381
#
#
#
# Elastic Compliance Matrix: (Units=1/GPa)
#
#
# Indices 1 2 3 4 5 6 
#
# 1 0.030669 -0.009287 -0.006208 0.001903 0.003060 -0.018616
# 2 -0.009287 0.027865 -0.003352 0.001074 -0.011985 -0.011630
# 3 -0.006208 -0.003352 0.013379 -0.017494 0.011622 -0.001924
# 4 0.001903 0.001074 -0.017494 0.061437 -0.025853 0.012935
# 5 0.003060 -0.011985 0.011622 -0.025853 0.043894 -0.001447
# 6 -0.018616 -0.011630 -0.001924 0.012935 -0.001447 0.064007
#
#
# Mechanical properties :
#
#
# Convention : Reuss Voigt Hill
#
# Bulk Modulus (GPa) = 29.22378 71.55691 50.39034
# Shear Modulus (GPa) = 17.22043 31.68185 24.45114
#
# Velocity S-wave (km/s) = 2.73732 3.71286 3.26177
# Velocity P-wave (km/s) = 4.76512 7.03677 6.00927
#
# Compressibility (1/GPa) = 0.03421871
#
# Stress axis : x y z
#
# Youngs Moduli (GPa) = 32.60622 35.88699 74.74267
#
# Poissons Ratio (x) = 0.33329 0.46403
# Poissons Ratio (y) = 0.30282 0.25053
# Poissons Ratio (z) = 0.20243 0.12029
#
# Static dielectric constant tensor:
#      x y z
#    x 1.885740 -0.072320 0.056900 
#    y -0.072320 1.947370 -0.035150 
#    z 0.056900 -0.035150 1.890270 
# 
# From -- ./inp_files/127430.got.cif
#   From: 2010.05.17/outbox.cif.g08.bks.cpg/sg2_64_cif.got.tgz:127430.got - 2010.06.03 11:33:40.
