data_PCOD9110821
_publ_section_title
;
Structure prediction by ZEFSAII (Michael W. Deem and Ramdas Pophale) SiO2 
 PCOD9110821
Probable space group: P -1
;
_chemical_formula_sum "Si O2"
_cell_formula_units_Z 16
_cell_length_a 9.503970
_cell_length_b 8.464120
_cell_length_c 11.441135
_cell_angle_alpha 58.507132
_cell_angle_beta 77.785048
_cell_angle_gamma 79.060301
_cell_volume 763.549798
_symmetry_space_group_name_H-M "P -1"
_symmetry_group_IT_number 2
_symmetry_cell_setting 'triclinic'
loop_
_space_group_symop_operation_xyz
x,y,z
-x,-y,-z
loop_
_atom_site_type_symbol
_atom_site_label
_atom_site_fract_x
_atom_site_fract_y
_atom_site_fract_z
Si Si1 0.061295 0.463764 0.372931
Si Si2 0.902361 0.933577 0.832824
Si Si3 0.376774 0.462069 0.279577
Si Si4 0.776277 0.190869 0.138274
Si Si5 0.810286 0.557960 0.879239
Si Si6 0.637766 0.111759 0.952268
Si Si7 0.388280 0.845690 0.581459
Si Si8 0.118292 0.855919 0.474295
O O1 0.231928 0.403566 0.392144
O O2 0.096717 0.548834 0.203681
O O3 0.000000 0.500000 0.500000
O O4 0.940156 0.334131 0.404008
O O5 0.871578 0.744634 0.841669
O O6 0.062629 0.908259 0.865535
O O7 0.776518 0.988651 0.924314
O O8 0.894324 0.102246 0.676341
O O9 0.343392 0.395725 0.178126
O O10 0.380522 0.684442 0.185386
O O11 0.517818 0.352826 0.350001
O O12 0.712036 0.136546 0.293289
O O13 0.793702 0.411311 0.040395
O O14 0.672137 0.146118 0.068375
O O15 0.500000 0.000000 0.000000
O O16 0.279442 0.870430 0.482906
O O17 0.500000 0.000000 0.500000
O O18 0.000000 0.000000 0.500000
#
# Coordination Sequence:
#
# PCOD9110821 Si02
#       8
#     2   2   2   2   2   2   2   2
#     4  10  20  42  66  94 135 176 224 279 341 403
#     4  12  23  44  70  97 139 175 241 279 334 415
#     4   9  23  45  64  99 135 177 227 275 349 405
#     4  11  25  43  69 101 133 180 233 286 341 405
#     4   9  21  40  70 100 127 177 229 281 345 393
#     4  11  27  45  67  99 142 183 217 284 354 405
#     4  12  25  43  72 103 139 175 237 283 344 416
#     4  12  22  41  68 101 127 182 225 281 341 398
#
# _framework density 20.954756
#
# number of rings (size 3 to 8) (size 9 to 14) (size 15 to 20)
#    0.750    0.500    2.500    3.000    5.250    1.000 
#    0.000    2.500    0.000    0.000    0.000    0.000 
#    0.000    0.000    0.000    0.000    0.000    0.000 
#
# Total GULP energy -89094.145928 kJ/mol
# GULP energy per Si atom -5568.384121 kJ/mol
# Density = 2.090706 g / cm^3
# Si number density = 20.954756 Si / 1000 Ang^3
#
#
#
# Elastic Constant Matrix: (Units=GPa)
#
#
# Indices 1 2 3 4 5 6 
#
# 1 120.7581 24.5678 0.3897 -23.9264 6.7809 4.8169
# 2 24.5678 49.6444 4.5796 -6.3771 -3.6018 4.1950
# 3 0.3897 4.5796 53.3878 -13.2953 -3.9458 2.9739
# 4 -23.9264 -6.3771 -13.2953 23.9767 -2.5568 -11.8756
# 5 6.7809 -3.6018 -3.9458 -2.5568 38.6540 -3.3221
# 6 4.8169 4.1950 2.9739 -11.8756 -3.3221 33.6313
#
#
#
# Elastic Compliance Matrix: (Units=1/GPa)
#
#
# Indices 1 2 3 4 5 6 
#
# 1 0.012004 -0.004796 0.003638 0.014377 -0.000926 0.003542
# 2 -0.004796 0.022989 -0.001703 -0.000256 0.002633 -0.001861
# 3 0.003638 -0.001703 0.023527 0.018840 0.003245 0.004584
# 4 0.014377 -0.000256 0.018840 0.079579 0.006796 0.025078
# 5 -0.000926 0.002633 0.003245 0.006796 0.027457 0.004629
# 6 0.003542 -0.001861 0.004584 0.025078 0.004629 0.038366
#
#
# Mechanical properties :
#
#
# Convention : Reuss Voigt Hill
#
# Bulk Modulus (GPa) = 18.93967 31.42942 25.18454
# Shear Modulus (GPa) = 22.00297 32.20261 27.10279
#
# Velocity S-wave (km/s) = 3.24392 3.92442 3.60028
# Velocity P-wave (km/s) = 4.80507 5.96372 5.41547
#
# Compressibility (1/GPa) = 0.05279923
#
# Stress axis : x y z
#
# Youngs Moduli (GPa) = 83.30398 43.49904 42.50499
#
# Poissons Ratio (x) = 0.20862 -0.15465
# Poissons Ratio (y) = 0.39952 0.07237
# Poissons Ratio (z) = -0.30308 0.07406
#
# Static dielectric constant tensor:
#      x y z
#    x 1.801770 -0.030960 -0.014050 
#    y -0.030960 1.821200 0.009970 
#    z -0.014050 0.009970 1.769630 
# 
# From -- ./inp_files/381356.got.cif
#   From: 2010.05.17/outbox.cif.g08.bks.cpg/sg2_191_cif.got.tgz:381356.got - 2010.06.03 11:33:40.
