data_PCOD9110447
_publ_section_title
;
Structure prediction by ZEFSAII (Michael W. Deem and Ramdas Pophale) SiO2 
 PCOD9110447
Probable space group: P -1
;
_chemical_formula_sum "Si O2"
_cell_formula_units_Z 16
_cell_length_a 10.634757
_cell_length_b 8.481926
_cell_length_c 11.515446
_cell_angle_alpha 124.511694
_cell_angle_beta 78.323972
_cell_angle_gamma 122.371086
_cell_volume 715.264503
_symmetry_space_group_name_H-M "P -1"
_symmetry_group_IT_number 2
_symmetry_cell_setting 'triclinic'
loop_
_space_group_symop_operation_xyz
x,y,z
-x,-y,-z
loop_
_atom_site_type_symbol
_atom_site_label
_atom_site_fract_x
_atom_site_fract_y
_atom_site_fract_z
Si Si1 0.183167 0.466066 0.364460
Si Si2 0.172440 0.286870 0.796531
Si Si3 0.612172 0.265805 0.171452
Si Si4 0.908763 0.105139 0.617466
Si Si5 0.561650 0.843544 0.072156
Si Si6 0.691755 0.528668 0.902040
Si Si7 0.369626 0.277299 0.372087
Si Si8 0.140211 0.815020 0.584080
O O1 0.222654 0.488029 0.230628
O O2 0.263062 0.343213 0.353180
O O3 0.238717 0.699030 0.521691
O O4 0.006225 0.310190 0.360428
O O5 0.269607 0.470171 0.755168
O O6 0.002323 0.210982 0.761569
O O7 0.200638 0.078349 0.698314
O O8 0.215803 0.388681 0.959993
O O9 0.462128 0.212373 0.243292
O O10 0.665917 0.111785 0.158528
O O11 0.562230 0.201221 0.020569
O O12 0.911611 0.247954 0.567870
O O13 0.738605 0.922196 0.604710
O O14 0.000000 0.000000 0.500000
O O15 0.462337 0.710468 0.146729
O O16 0.643358 0.711497 0.966117
O O17 0.500000 0.500000 0.500000
#
# Coordination Sequence:
#
# PCOD9110447 Si02
#       8
#     2   2   2   2   2   2   2   2
#     4  11  23  42  64  96 133 175 214 269 328 390
#     4  10  21  42  67  95 131 172 218 269 327 386
#     4  10  21  38  65  92 126 169 220 264 325 381
#     4  10  20  42  62  88 131 170 213 275 317 375
#     4   9  20  40  61  91 132 171 205 269 330 388
#     4  10  21  40  67  95 134 171 211 271 332 388
#     4  12  23  38  65  95 126 170 224 266 319 391
#     4  10  23  43  66  89 135 176 215 268 327 382
#
# _framework density 22.369347000000001
#
# number of rings (size 3 to 8) (size 9 to 14) (size 15 to 20)
#    0.000    1.750    3.750    1.500    1.750    1.500 
#    2.250    3.125    0.000    0.000    0.000    0.000 
#    0.000    0.000    0.000    0.000    0.000    0.000 
#
# Total GULP energy -89217.847180 kJ/mol
# GULP energy per Si atom -5576.115449 kJ/mol
# Density = 2.231843 g / cm^3
# Si number density = 22.369347 Si / 1000 Ang^3
#
#
#
# Elastic Constant Matrix: (Units=GPa)
#
#
# Indices 1 2 3 4 5 6 
#
# 1 45.0641 41.8560 24.4083 -5.6364 -23.1878 9.5602
# 2 41.8560 168.6553 56.6209 -2.4423 -32.5282 11.8170
# 3 24.4083 56.6209 96.6002 -12.9586 -13.7665 7.7850
# 4 -5.6364 -2.4423 -12.9586 31.4103 4.8187 -5.8080
# 5 -23.1878 -32.5282 -13.7665 4.8187 41.1267 1.3577
# 6 9.5602 11.8170 7.7850 -5.8080 1.3577 28.1981
#
#
#
# Elastic Compliance Matrix: (Units=1/GPa)
#
#
# Indices 1 2 3 4 5 6 
#
# 1 0.040292 -0.004278 -0.004097 0.000260 0.018314 -0.011565
# 2 -0.004278 0.009166 -0.003927 -0.002651 0.003901 -0.002041
# 3 -0.004097 -0.003927 0.014166 0.005040 -0.001272 0.000223
# 4 0.000260 -0.002651 0.005040 0.035815 -0.004698 0.007235
# 5 0.018314 0.003901 -0.001272 -0.004698 0.038191 -0.010299
# 6 -0.011565 -0.002041 0.000223 0.007235 -0.010299 0.042164
#
#
# Mechanical properties :
#
#
# Convention : Reuss Voigt Hill
#
# Bulk Modulus (GPa) = 25.62703 61.78778 43.70741
# Shear Modulus (GPa) = 22.99859 32.64264 27.82061
#
# Velocity S-wave (km/s) = 3.20992 3.82417 3.53043
# Velocity P-wave (km/s) = 5.02189 6.86881 6.01664
#
# Compressibility (1/GPa) = 0.03902130
#
# Stress axis : x y z
#
# Youngs Moduli (GPa) = 24.81863 109.09472 70.59326
#
# Poissons Ratio (x) = 0.46671 0.28919
# Poissons Ratio (y) = 0.10617 0.27722
# Poissons Ratio (z) = 0.10167 0.42841
#
# Static dielectric constant tensor:
#      x y z
#    x 1.907990 -0.075660 0.025060 
#    y -0.075660 1.919050 0.074020 
#    z 0.025060 0.074020 1.929410 
# 
# From -- ./inp_files/419725.got.cif
#   From: 2010.05.17/outbox.cif.g08.bks.cpg/sg2_210_cif.got.tgz:419725.got - 2010.06.03 11:33:40.
