data_PCOD9110292
_publ_section_title
;
Structure prediction by ZEFSAII (Michael W. Deem and Ramdas Pophale) SiO2 
 PCOD9110292
Probable space group: P -1
;
_chemical_formula_sum "Si O2"
_cell_formula_units_Z 16
_cell_length_a 13.804029
_cell_length_b 11.529593
_cell_length_c 9.106590
_cell_angle_alpha 40.015079
_cell_angle_beta 124.307942
_cell_angle_gamma 104.546839
_cell_volume 723.965281
_symmetry_space_group_name_H-M "P -1"
_symmetry_group_IT_number 2
_symmetry_cell_setting 'triclinic'
loop_
_space_group_symop_operation_xyz
x,y,z
-x,-y,-z
loop_
_atom_site_type_symbol
_atom_site_label
_atom_site_fract_x
_atom_site_fract_y
_atom_site_fract_z
Si Si1 0.390341 0.326320 0.078880
Si Si2 0.737870 0.024752 0.927370
Si Si3 0.718780 0.031333 0.245918
Si Si4 0.170523 0.413159 0.574238
Si Si5 0.248513 0.636772 0.851588
Si Si6 0.147957 0.405669 0.223386
Si Si7 0.532744 0.006879 0.324778
Si Si8 0.101183 0.788511 0.291011
O O1 0.509470 0.200115 0.210938
O O2 0.375073 0.164934 0.334149
O O3 0.284731 0.397196 0.796167
O O4 0.371514 0.504125 0.997739
O O5 0.600246 0.024591 0.768051
O O6 0.783754 0.170677 0.732814
O O7 0.728390 0.077565 0.039674
O O8 0.833657 0.803615 0.205190
O O9 0.815662 0.819329 0.558000
O O10 0.740315 0.187212 0.218901
O O11 0.587154 0.019296 0.200227
O O12 0.192856 0.428446 0.405303
O O13 0.071240 0.616360 0.346062
O O14 0.142830 0.716822 0.560052
O O15 0.209048 0.503984 0.061469
O O16 0.000000 0.500000 0.000000
O O17 0.000000 0.000000 0.000000
#
# Coordination Sequence:
#
# PCOD9110292 Si02
#       8
#     2   2   2   2   2   2   2   2
#     4   9  20  41  64  93 133 164 214 268 327 386
#     4  10  23  44  65  96 133 172 219 270 325 390
#     4  11  24  42  70  94 134 175 218 273 329 389
#     4   9  22  44  63  89 130 170 216 267 330 380
#     4  11  25  42  65 100 130 168 225 266 336 390
#     4  11  25  44  67  94 132 177 224 274 324 388
#     4  10  20  41  72  95 129 175 223 266 329 390
#     4  11  26  42  66  96 132 172 220 273 326 389
#
# _framework density 22.100505999999999
#
# number of rings (size 3 to 8) (size 9 to 14) (size 15 to 20)
#    0.000    1.750    1.250    1.125   10.500    1.500 
#    4.500    0.625    0.000    0.000    0.000    0.000 
#    0.000    0.000    0.000    0.000    0.000    0.000 
#
# Total GULP energy -89276.564701 kJ/mol
# GULP energy per Si atom -5579.785294 kJ/mol
# Density = 2.205020 g / cm^3
# Si number density = 22.100506 Si / 1000 Ang^3
#
#
#
# Elastic Constant Matrix: (Units=GPa)
#
#
# Indices 1 2 3 4 5 6 
#
# 1 67.3346 38.7598 25.9486 -0.0780 -5.9408 -6.0559
# 2 38.7598 167.7961 63.7113 -21.7018 -2.7831 -33.7525
# 3 25.9486 63.7113 115.4642 -1.5022 -12.6275 -18.4051
# 4 -0.0780 -21.7018 -1.5022 33.4663 -16.7085 4.1003
# 5 -5.9408 -2.7831 -12.6275 -16.7085 34.7156 -7.2420
# 6 -6.0559 -33.7525 -18.4051 4.1003 -7.2420 29.4451
#
#
#
# Elastic Compliance Matrix: (Units=1/GPa)
#
#
# Indices 1 2 3 4 5 6 
#
# 1 0.017808 -0.003928 -0.002061 -0.002076 0.000633 -0.001683
# 2 -0.003928 0.011308 -0.002980 0.008654 0.005493 0.010438
# 3 -0.002061 -0.002980 0.012117 0.000555 0.005108 0.004913
# 4 -0.002076 0.008654 0.000555 0.046871 0.025077 0.009480
# 5 0.000633 0.005493 0.005108 0.025077 0.046970 0.017680
# 6 -0.001683 0.010438 0.004913 0.009480 0.017680 0.051679
#
#
# Mechanical properties :
#
#
# Convention : Reuss Voigt Hill
#
# Bulk Modulus (GPa) = 42.92453 67.49271 55.20862
# Shear Modulus (GPa) = 23.53424 34.33710 28.93567
#
# Velocity S-wave (km/s) = 3.26678 3.94595 3.62232
# Velocity P-wave (km/s) = 5.80463 7.16701 6.52149
#
# Compressibility (1/GPa) = 0.02329670
#
# Stress axis : x y z
#
# Youngs Moduli (GPa) = 56.15345 88.43084 82.52744
#
# Poissons Ratio (x) = 0.34732 0.17009
# Poissons Ratio (y) = 0.22055 0.24593
# Poissons Ratio (z) = 0.11573 0.26352
#
# Static dielectric constant tensor:
#      x y z
#    x 1.863640 -0.004610 0.026860 
#    y -0.004610 1.820740 -0.032860 
#    z 0.026860 -0.032860 1.816260 
# 
# From -- ./inp_files/304604.got.cif
#   From: 2010.05.17/outbox.cif.g08.bks.cpg/sg2_153_cif.got.tgz:304604.got - 2010.06.03 11:33:40.
