data_PCOD9110761
_publ_section_title
;
Structure prediction by ZEFSAII (Michael W. Deem and Ramdas Pophale) SiO2 
 PCOD9110761
Probable space group: P -1
;
_chemical_formula_sum "Si O2"
_cell_formula_units_Z 16
_cell_length_a 11.632288
_cell_length_b 8.104941
_cell_length_c 20.038349
_cell_angle_alpha 92.138566
_cell_angle_beta 136.780666
_cell_angle_gamma 122.672441
_cell_volume 723.752471
_symmetry_space_group_name_H-M "P -1"
_symmetry_group_IT_number 2
_symmetry_cell_setting 'triclinic'
loop_
_space_group_symop_operation_xyz
x,y,z
-x,-y,-z
loop_
_atom_site_type_symbol
_atom_site_label
_atom_site_fract_x
_atom_site_fract_y
_atom_site_fract_z
Si Si1 0.968277 0.660133 0.420883
Si Si2 0.314925 0.183814 0.111628
Si Si3 0.154518 0.811089 0.647981
Si Si4 0.873888 0.728206 0.717965
Si Si5 0.474356 0.346152 0.043220
Si Si6 0.205115 0.171376 0.453678
Si Si7 0.168712 0.649586 0.855963
Si Si8 0.799884 0.291606 0.976316
O O1 0.616693 0.413413 0.287327
O O2 0.960599 0.466887 0.386580
O O3 0.174547 0.823430 0.576309
O O4 0.086049 0.901172 0.426910
O O5 0.249957 0.945648 0.054609
O O6 0.436892 0.382723 0.102078
O O7 0.000000 0.000000 0.000000
O O8 0.947207 0.796540 0.575639
O O9 0.469970 0.097073 0.822032
O O10 0.560792 0.471765 0.619172
O O11 0.852576 0.837639 0.649190
O O12 0.945491 0.596803 0.726064
O O13 0.154806 0.002479 0.886169
O O14 0.500000 0.500000 0.000000
O O15 0.759105 0.458391 0.154802
O O16 0.090024 0.568323 0.900606
O O17 0.500000 0.000000 0.000000
O O18 0.000000 0.500000 0.000000
#
# Coordination Sequence:
#
# PCOD9110761 Si02
#       8
#     2   2   2   2   2   2   2   2
#     4  10  24  42  62  92 126 176 213 256 332 389
#     4  11  25  40  62  96 132 160 217 276 312 388
#     4  10  23  42  64  88 133 168 214 264 323 393
#     4  10  23  41  64  97 120 165 222 262 319 394
#     4  11  23  41  67  94 131 171 212 267 332 384
#     4  11  23  42  67  89 131 169 214 268 323 390
#     4  10  20  42  66  89 130 167 212 265 324 385
#     4  11  24  39  67  98 123 169 216 270 327 387
#
# _framework density 22.107004
#
# number of rings (size 3 to 8) (size 9 to 14) (size 15 to 20)
#    0.000    1.500    2.500    2.625    8.750    0.000 
#    2.250    1.250    0.000    0.000    0.000    0.000 
#    0.000    0.000    0.000    0.000    0.000    0.000 
#
# Total GULP energy -89304.446768 kJ/mol
# GULP energy per Si atom -5581.527923 kJ/mol
# Density = 2.205669 g / cm^3
# Si number density = 22.107004 Si / 1000 Ang^3
#
#
#
# Elastic Constant Matrix: (Units=GPa)
#
#
# Indices 1 2 3 4 5 6 
#
# 1 68.7192 36.0587 21.3426 -1.7094 19.3057 2.5961
# 2 36.0587 155.9903 35.7843 -13.4213 11.9281 3.7971
# 3 21.3426 35.7843 78.7088 -11.6235 14.0466 -8.6578
# 4 -1.7094 -13.4213 -11.6235 26.8727 -1.0978 3.1654
# 5 19.3057 11.9281 14.0466 -1.0978 40.7874 -9.2207
# 6 2.5961 3.7971 -8.6578 3.1654 -9.2207 30.6767
#
#
#
# Elastic Compliance Matrix: (Units=1/GPa)
#
#
# Indices 1 2 3 4 5 6 
#
# 1 0.019688 -0.003220 -0.003099 -0.001508 -0.008368 -0.004502
# 2 -0.003220 0.008048 -0.002499 0.002936 -0.000302 -0.001823
# 3 -0.003099 -0.002499 0.016284 0.005038 -0.002386 0.003930
# 4 -0.001508 0.002936 0.005038 0.041114 -0.001571 -0.003529
# 5 -0.008368 -0.000302 -0.002386 -0.001571 0.031542 0.009715
# 6 -0.004502 -0.001823 0.003930 -0.003529 0.009715 0.037598
#
#
# Mechanical properties :
#
#
# Convention : Reuss Voigt Hill
#
# Bulk Modulus (GPa) = 37.90278 54.42105 46.16192
# Shear Modulus (GPa) = 27.66955 33.68287 30.67621
#
# Velocity S-wave (km/s) = 3.54166 3.90760 3.72912
# Velocity P-wave (km/s) = 5.82296 6.71042 6.28238
#
# Compressibility (1/GPa) = 0.02638329
#
# Stress axis : x y z
#
# Youngs Moduli (GPa) = 50.79331 124.24802 61.41168
#
# Poissons Ratio (x) = 0.40013 0.19031
# Poissons Ratio (y) = 0.16358 0.15346
# Poissons Ratio (z) = 0.15740 0.31048
#
# Static dielectric constant tensor:
#      x y z
#    x 1.897960 -0.015860 -0.035920 
#    y -0.015860 1.888730 -0.020700 
#    z -0.035920 -0.020700 1.823450 
# 
# From -- ./inp_files/594119.got.cif
#   From: 2010.05.17/outbox.cif.g08.bks.cpg/sg2_298_cif.got.tgz:594119.got - 2010.06.03 11:33:40.
