data_PCOD9110126
_publ_section_title
;
Structure prediction by ZEFSAII (Michael W. Deem and Ramdas Pophale) SiO2 
 PCOD9110126
Probable space group: P -1
;
_chemical_formula_sum "Si O2"
_cell_formula_units_Z 16
_cell_length_a 14.924610
_cell_length_b 9.572613
_cell_length_c 7.164503
_cell_angle_alpha 91.951107
_cell_angle_beta 113.707641
_cell_angle_gamma 128.948759
_cell_volume 667.132396
_symmetry_space_group_name_H-M "P -1"
_symmetry_group_IT_number 2
_symmetry_cell_setting 'triclinic'
loop_
_space_group_symop_operation_xyz
x,y,z
-x,-y,-z
loop_
_atom_site_type_symbol
_atom_site_label
_atom_site_fract_x
_atom_site_fract_y
_atom_site_fract_z
Si Si1 0.636494 0.558314 0.422559
Si Si2 0.037214 0.698499 0.561758
Si Si3 0.840567 0.750543 0.947111
Si Si4 0.085658 0.868013 0.003902
Si Si5 0.329219 0.105768 0.724616
Si Si6 0.454912 0.904046 0.161206
Si Si7 0.748799 0.506211 0.179102
Si Si8 0.387791 0.133986 0.222694
O O1 0.755911 0.671988 0.681871
O O2 0.647899 0.717000 0.331625
O O3 0.663629 0.463988 0.286578
O O4 0.492521 0.360556 0.378582
O O5 0.904127 0.649280 0.382631
O O6 0.000000 0.500000 0.500000
O O7 0.056834 0.741590 0.800308
O O8 0.173953 0.889517 0.580352
O O9 0.957244 0.747514 0.029567
O O10 0.738844 0.617220 0.023600
O O11 0.910694 0.968176 0.058501
O O12 0.241892 0.997300 0.200020
O O13 0.435298 0.107762 0.709011
O O14 0.358853 0.131985 0.975660
O O15 0.444640 0.032934 0.280967
O O16 0.307995 0.685693 0.986012
O O17 0.500000 0.000000 0.000000
#
# Coordination Sequence:
#
# PCOD9110126 Si02
#       8
#     2   2   2   2   2   2   2   2
#     4  12  24  43  73 102 139 181 235 286 347 413
#     4  11  23  41  73 100 136 189 233 279 351 420
#     4  11  27  43  68 105 145 178 230 295 338 414
#     4  10  23  45  65  99 148 169 231 285 346 395
#     4  10  22  36  66 106 132 177 232 287 344 408
#     4  10  20  41  69  99 139 177 231 287 342 410
#     4  12  23  42  73 102 137 184 233 283 352 410
#     4  10  21  42  72  97 138 185 227 289 345 409
#
# _framework density 23.983246999999999
#
# number of rings (size 3 to 8) (size 9 to 14) (size 15 to 20)
#    0.000    1.250    3.750    4.125    5.250    1.500 
#    0.000    3.125    2.750    0.000    0.000    0.000 
#    0.000    0.000    0.000    0.000    0.000    0.000 
#
# Total GULP energy -89502.073284 kJ/mol
# GULP energy per Si atom -5593.879580 kJ/mol
# Density = 2.392866 g / cm^3
# Si number density = 23.983247 Si / 1000 Ang^3
#
#
#
# Elastic Constant Matrix: (Units=GPa)
#
#
# Indices 1 2 3 4 5 6 
#
# 1 110.1839 7.7396 40.8710 16.7244 13.6656 -12.3624
# 2 7.7396 68.9221 40.3556 24.7200 5.7833 -11.0549
# 3 40.8710 40.3556 88.1650 23.0851 16.7122 -0.8338
# 4 16.7244 24.7200 23.0851 48.4639 1.9196 -3.6795
# 5 13.6656 5.7833 16.7122 1.9196 48.0498 7.6513
# 6 -12.3624 -11.0549 -0.8338 -3.6795 7.6513 36.7875
#
#
#
# Elastic Compliance Matrix: (Units=1/GPa)
#
#
# Indices 1 2 3 4 5 6 
#
# 1 0.012660 0.004733 -0.006679 -0.003059 -0.002644 0.005769
# 2 0.004733 0.024904 -0.011036 -0.008391 -0.001491 0.008295
# 3 -0.006679 -0.011036 0.020585 -0.002102 -0.003106 -0.004658
# 4 -0.003059 -0.008391 -0.002102 0.026805 0.001744 -0.001279
# 5 -0.002644 -0.001491 -0.003106 0.001744 0.023736 -0.006169
# 6 0.005769 0.008295 -0.004658 -0.001279 -0.006169 0.032664
#
#
# Mechanical properties :
#
#
# Convention : Reuss Voigt Hill
#
# Bulk Modulus (GPa) = 31.06779 49.46706 40.26742
# Shear Modulus (GPa) = 28.08261 38.54721 33.31491
#
# Velocity S-wave (km/s) = 3.42559 4.01341 3.73109
# Velocity P-wave (km/s) = 5.35054 6.49208 5.94875
#
# Compressibility (1/GPa) = 0.03218768
#
# Stress axis : x y z
#
# Youngs Moduli (GPa) = 78.98756 40.15359 48.57914
#
# Poissons Ratio (x) = -0.19006 0.32445
# Poissons Ratio (y) = -0.37388 0.53610
# Poissons Ratio (z) = 0.52754 0.44312
#
# Static dielectric constant tensor:
#      x y z
#    x 1.972610 0.034940 0.069770 
#    y 0.034940 2.057450 0.167450 
#    z 0.069770 0.167450 2.140030 
# 
# From -- ./inp_files/298928.got.cif
#   From: 2010.05.17/outbox.cif.g08.bks.cpg/sg2_150_cif.got.tgz:298928.got - 2010.06.03 11:33:40.
