data_PCOD9110237
_publ_section_title
;
Structure prediction by ZEFSAII (Michael W. Deem and Ramdas Pophale) SiO2 
 PCOD9110237
Probable space group: P -1
;
_chemical_formula_sum "Si O2"
_cell_formula_units_Z 12
_cell_length_a 11.304901
_cell_length_b 8.905474
_cell_length_c 12.108571
_cell_angle_alpha 93.018741
_cell_angle_beta 134.777675
_cell_angle_gamma 53.753305
_cell_volume 538.834297
_symmetry_space_group_name_H-M "P -1"
_symmetry_group_IT_number 2
_symmetry_cell_setting 'triclinic'
loop_
_space_group_symop_operation_xyz
x,y,z
-x,-y,-z
loop_
_atom_site_type_symbol
_atom_site_label
_atom_site_fract_x
_atom_site_fract_y
_atom_site_fract_z
Si Si1 0.488418 0.376832 0.395820
Si Si2 0.757001 0.716470 0.644008
Si Si3 0.513859 0.663125 0.082493
Si Si4 0.718197 0.757136 0.366378
Si Si5 0.066964 0.082614 0.459108
Si Si6 0.290623 0.534468 0.021756
O O1 0.500000 0.500000 0.500000
O O2 0.285127 0.396220 0.310714
O O3 0.782986 0.100207 0.553162
O O4 0.389679 0.480433 0.210199
O O5 0.727484 0.694378 0.495635
O O6 0.018861 0.630716 0.837865
O O7 0.500000 0.000000 0.500000
O O8 0.508858 0.819748 0.153677
O O9 0.517918 0.679704 0.953787
O O10 0.796731 0.372874 0.277045
O O11 0.295836 0.702336 0.987318
O O12 0.720470 0.935619 0.369481
O O13 0.000000 0.500000 0.500000
O O14 0.000000 0.000000 0.500000
#
# Coordination Sequence:
#
# PCOD9110237 Si02
#       6
#     2   2   2   2   2   2
#     4  12  26  42  66  96 136 175 212 272 333 388
#     4  12  23  43  69  91 136 175 213 270 331 388
#     4  10  21  41  72  93 128 170 224 271 318 381
#     4  10  20  41  71  92 122 178 217 257 328 387
#     4  11  21  41  69  95 126 173 221 264 320 390
#     4  11  22  41  66  98 132 169 220 274 320 381
#
# _framework density 22.270298
#
# number of rings (size 3 to 8) (size 9 to 14) (size 15 to 20)
#    0.000    1.000    6.667    1.500    2.333    0.000 
#    0.000   10.000    0.000    0.000    0.000    0.000 
#    0.000    0.000    0.000    0.000    0.000    0.000 
#
# Total GULP energy -66899.027296 kJ/mol
# GULP energy per Si atom -5574.918941 kJ/mol
# Density = 2.221961 g / cm^3
# Si number density = 22.270298 Si / 1000 Ang^3
#
#
#
# Elastic Constant Matrix: (Units=GPa)
#
#
# Indices 1 2 3 4 5 6 
#
# 1 184.3750 52.5433 66.1452 27.2858 -4.2843 1.9338
# 2 52.5433 119.6790 49.0384 37.6983 -2.9915 -4.9644
# 3 66.1452 49.0384 129.7721 37.5720 -1.8895 5.2505
# 4 27.2858 37.6983 37.5720 44.8977 -2.0756 2.4633
# 5 -4.2843 -2.9915 -1.8895 -2.0756 45.6465 12.7056
# 6 1.9338 -4.9644 5.2505 2.4633 12.7056 42.4676
#
#
#
# Elastic Compliance Matrix: (Units=1/GPa)
#
#
# Indices 1 2 3 4 5 6 
#
# 1 0.007002 -0.001830 -0.002747 -0.000379 0.000495 -0.000319
# 2 -0.001830 0.012452 -0.001485 -0.008248 -0.000442 0.002333
# 3 -0.002747 -0.001485 0.011681 -0.006790 0.000137 -0.001140
# 4 -0.000379 -0.008248 -0.006790 0.035322 0.001472 -0.002597
# 5 0.000495 -0.000442 0.000137 0.001472 0.024049 -0.007372
# 6 -0.000319 0.002333 -0.001140 -0.002597 -0.007372 0.026332
#
#
# Mechanical properties :
#
#
# Convention : Reuss Voigt Hill
#
# Bulk Modulus (GPa) = 52.60452 85.47553 69.04003
# Shear Modulus (GPa) = 36.95522 44.34230 40.64876
#
# Velocity S-wave (km/s) = 4.07799 4.46701 4.27692
# Velocity P-wave (km/s) = 6.77093 8.06659 7.44699
#
# Compressibility (1/GPa) = 0.01900977
#
# Stress axis : x y z
#
# Youngs Moduli (GPa) = 142.82029 80.31147 85.60632
#
# Poissons Ratio (x) = 0.14694 0.23520
# Poissons Ratio (y) = 0.26131 0.12716
# Poissons Ratio (z) = 0.39240 0.11929
#
# Static dielectric constant tensor:
#      x y z
#    x 1.833870 0.030970 0.037990 
#    y 0.030970 1.818410 0.021820 
#    z 0.037990 0.021820 1.959810 
# 
# From -- ./inp_files/417647.got.cif
#   From: 2010.05.17/outbox.cif.g08.bks.cpg/sg2_209_cif.got.tgz:417647.got - 2010.06.03 11:33:40.
