data_PCOD9110694
_publ_section_title
;
Structure prediction by ZEFSAII (Michael W. Deem and Ramdas Pophale) SiO2 
 PCOD9110694
Probable space group: P -1
;
_chemical_formula_sum "Si O2"
_cell_formula_units_Z 16
_cell_length_a 11.556142
_cell_length_b 8.815274
_cell_length_c 9.366880
_cell_angle_alpha 112.588844
_cell_angle_beta 60.651535
_cell_angle_gamma 112.531162
_cell_volume 745.069132
_symmetry_space_group_name_H-M "P -1"
_symmetry_group_IT_number 2
_symmetry_cell_setting 'triclinic'
loop_
_space_group_symop_operation_xyz
x,y,z
-x,-y,-z
loop_
_atom_site_type_symbol
_atom_site_label
_atom_site_fract_x
_atom_site_fract_y
_atom_site_fract_z
Si Si1 0.690036 0.720200 0.275399
Si Si2 0.903694 0.609135 0.231329
Si Si3 0.447543 0.821124 0.549815
Si Si4 0.643517 0.470211 0.965199
Si Si5 0.823400 0.117703 0.338491
Si Si6 0.103525 0.627065 0.379419
Si Si7 0.893426 0.222096 0.040226
Si Si8 0.596908 0.147437 0.085435
O O1 0.753893 0.640475 0.340881
O O2 0.529077 0.695602 0.389210
O O3 0.752289 0.920962 0.310087
O O4 0.710271 0.631489 0.082491
O O5 0.881677 0.417086 0.122851
O O6 0.011696 0.630813 0.298647
O O7 0.976038 0.756392 0.130408
O O8 0.287278 0.775078 0.600043
O O9 0.467120 0.840513 0.714762
O O10 0.500000 0.000000 0.500000
O O11 0.757709 0.429219 0.771398
O O12 0.500000 0.500000 0.000000
O O13 0.613145 0.313955 0.038918
O O14 0.868899 0.192624 0.491790
O O15 0.921549 0.159483 0.157565
O O16 0.000000 0.500000 0.500000
O O17 0.749280 0.121854 0.022316
O O18 0.500000 0.000000 0.000000
#
# Coordination Sequence:
#
# PCOD9110694 Si02
#       8
#     2   2   2   2   2   2   2   2
#     4  11  24  42  67 100 136 171 229 286 339 405
#     4  11  21  41  69  90 136 177 224 281 343 408
#     4   9  22  42  69  94 136 178 227 275 348 413
#     4  12  27  44  69 105 144 177 236 297 343 410
#     4  10  23  41  69  95 130 181 222 277 346 413
#     4  12  25  45  70  99 139 186 228 283 353 414
#     4  10  20  42  65  92 128 184 221 266 348 422
#     4  11  24  41  70  99 135 186 227 276 351 421
#
# _framework density 21.474516000000001
#
# number of rings (size 3 to 8) (size 9 to 14) (size 15 to 20)
#    0.000    1.250    3.750    1.500    8.750    2.500 
#    0.000    0.000    0.000    0.000    0.000    0.000 
#    0.000    0.000    0.000    0.000    0.000    0.000 
#
# Total GULP energy -89217.120916 kJ/mol
# GULP energy per Si atom -5576.070057 kJ/mol
# Density = 2.142564 g / cm^3
# Si number density = 21.474516 Si / 1000 Ang^3
#
#
#
# Elastic Constant Matrix: (Units=GPa)
#
#
# Indices 1 2 3 4 5 6 
#
# 1 117.3656 14.1100 36.7652 10.1395 9.0903 -3.0887
# 2 14.1100 58.9501 35.7726 3.1396 -1.3508 12.3809
# 3 36.7652 35.7726 92.1245 -5.7982 7.1160 4.2462
# 4 10.1395 3.1396 -5.7982 37.3147 7.9990 8.9672
# 5 9.0903 -1.3508 7.1160 7.9990 31.1493 14.1803
# 6 -3.0887 12.3809 4.2462 8.9672 14.1803 32.8270
#
#
#
# Elastic Compliance Matrix: (Units=1/GPa)
#
#
# Indices 1 2 3 4 5 6 
#
# 1 0.010583 -0.000798 -0.004104 -0.003788 -0.003131 0.004215
# 2 -0.000798 0.026358 -0.010304 -0.002808 0.010026 -0.012247
# 3 -0.004104 -0.010304 0.017153 0.005300 -0.005543 0.002228
# 4 -0.003788 -0.002808 0.005300 0.031564 -0.005496 -0.006231
# 5 -0.003131 0.010026 -0.005543 -0.005496 0.046026 -0.021740
# 6 0.004215 -0.012247 0.002228 -0.006231 -0.021740 0.046283
#
#
# Mechanical properties :
#
#
# Convention : Reuss Voigt Hill
#
# Bulk Modulus (GPa) = 42.22454 49.08174 45.65314
# Shear Modulus (GPa) = 23.11893 32.37768 27.74830
#
# Velocity S-wave (km/s) = 3.28468 3.88716 3.59855
# Velocity P-wave (km/s) = 5.83873 6.56141 6.21059
#
# Compressibility (1/GPa) = 0.02368291
#
# Stress axis : x y z
#
# Youngs Moduli (GPa) = 94.49374 37.93849 58.29908
#
# Poissons Ratio (x) = 0.03026 0.23929
# Poissons Ratio (y) = 0.07536 0.60069
# Poissons Ratio (z) = 0.38785 0.39090
#
# Static dielectric constant tensor:
#      x y z
#    x 1.870400 0.019940 -0.057550 
#    y 0.019940 1.756590 -0.026580 
#    z -0.057550 -0.026580 1.886480 
# 
# From -- ./inp_files/245367.got.cif
#   From: 2010.05.17/outbox.cif.g08.bks.cpg/sg2_123_cif.got.tgz:245367.got - 2010.06.03 11:33:40.
