data_PCOD9110124
_publ_section_title
;
Structure prediction by ZEFSAII (Michael W. Deem and Ramdas Pophale) SiO2 
 PCOD9110124
Probable space group: P -1
;
_chemical_formula_sum "Si O2"
_cell_formula_units_Z 14
_cell_length_a 18.327290
_cell_length_b 9.655762
_cell_length_c 12.015610
_cell_angle_alpha 37.671667
_cell_angle_beta 28.610115
_cell_angle_gamma 33.093576
_cell_volume 543.017413
_symmetry_space_group_name_H-M "P -1"
_symmetry_group_IT_number 2
_symmetry_cell_setting 'triclinic'
loop_
_space_group_symop_operation_xyz
x,y,z
-x,-y,-z
loop_
_atom_site_type_symbol
_atom_site_label
_atom_site_fract_x
_atom_site_fract_y
_atom_site_fract_z
Si Si1 0.014385 0.691723 0.628653
Si Si2 0.836624 0.444574 0.257191
Si Si3 0.929491 0.302326 0.879037
Si Si4 0.602450 0.090145 0.955874
Si Si5 0.529202 0.651163 0.260949
Si Si6 0.935747 0.073849 0.802936
Si Si7 0.393817 0.991607 0.754932
O O1 0.810262 0.879489 0.811994
O O2 0.145616 0.638793 0.586440
O O3 0.065266 0.828920 0.379842
O O4 0.031085 0.426641 0.726189
O O5 0.568085 0.282945 0.772832
O O6 0.890219 0.210508 0.248607
O O7 0.000000 0.500000 0.000000
O O8 0.729819 0.474167 0.070503
O O9 0.941179 0.283811 0.742324
O O10 0.000000 0.000000 0.000000
O O11 0.501348 0.930089 0.161511
O O12 0.545743 0.183439 0.101030
O O13 0.500000 0.500000 0.500000
O O14 0.327873 0.278342 0.714091
O O15 0.765683 0.040290 0.062206
O O16 0.500000 0.000000 0.500000
#
# Coordination Sequence:
#
# PCOD9110124 Si02
#       7
#     2   2   2   2   2   2   2
#     4  11  22  44  71 101 141 182 244 297 349 426
#     4  10  20  41  69  99 137 186 237 282 349 435
#     4  11  25  43  69 102 137 188 235 292 363 416
#     4  10  23  45  71 103 139 189 240 292 362 424
#     4  10  25  46  71 100 142 188 241 294 357 438
#     4  11  24  42  68 106 137 183 242 297 352 431
#     4  11  25  44  71 105 149 190 235 295 362 428
#
# _framework density 25.781860999999999
#
# number of rings (size 3 to 8) (size 9 to 14) (size 15 to 20)
#    0.000    1.429    2.857    2.571    6.000    1.143 
#    2.571    1.429    0.000    0.000    0.000    0.000 
#    0.000    0.000    0.000    0.000    0.000    0.000 
#
# Total GULP energy -78255.742800 kJ/mol
# GULP energy per Si atom -5589.695914 kJ/mol
# Density = 2.572318 g / cm^3
# Si number density = 25.781861 Si / 1000 Ang^3
#
#
#
# Elastic Constant Matrix: (Units=GPa)
#
#
# Indices 1 2 3 4 5 6 
#
# 1 157.8441 25.5502 50.3150 -3.4162 18.6746 15.2096
# 2 25.5502 101.6747 38.9580 -11.6149 -5.9568 30.2042
# 3 50.3150 38.9580 131.8870 2.8952 22.0508 14.2439
# 4 -3.4162 -11.6149 2.8952 41.3547 11.7143 4.0385
# 5 18.6746 -5.9568 22.0508 11.7143 52.0883 -6.4376
# 6 15.2096 30.2042 14.2439 4.0385 -6.4376 41.9035
#
#
#
# Elastic Compliance Matrix: (Units=1/GPa)
#
#
# Indices 1 2 3 4 5 6 
#
# 1 0.007642 -0.000361 -0.002174 0.001620 -0.002511 -0.002316
# 2 -0.000361 0.014747 -0.003443 0.005029 0.000948 -0.009667
# 3 -0.002174 -0.003443 0.010164 -0.000699 -0.003847 -0.000707
# 4 0.001620 0.005029 -0.000699 0.028549 -0.007096 -0.007816
# 5 -0.002511 0.000948 -0.003847 -0.007096 0.024165 0.005932
# 6 -0.002316 -0.009667 -0.000707 -0.007816 0.005932 0.033578
#
#
# Mechanical properties :
#
#
# Convention : Reuss Voigt Hill
#
# Bulk Modulus (GPa) = 48.55393 69.00578 58.77986
# Shear Modulus (GPa) = 36.31911 45.50814 40.91362
#
# Velocity S-wave (km/s) = 3.75735 4.20589 3.98793
# Velocity P-wave (km/s) = 6.13979 7.09996 6.63726
#
# Compressibility (1/GPa) = 0.02059565
#
# Stress axis : x y z
#
# Youngs Moduli (GPa) = 130.85055 67.80945 98.38857
#
# Poissons Ratio (x) = 0.02451 0.21393
# Poissons Ratio (y) = 0.04729 0.33876
# Poissons Ratio (z) = 0.28451 0.23347
#
# Static dielectric constant tensor:
#      x y z
#    x 2.339410 0.057720 0.083830 
#    y 0.057720 2.050330 -0.009810 
#    z 0.083830 -0.009810 2.109710 
# 
# From -- ./inp_files/281011.got.cif
#   From: 2010.05.17/outbox.cif.g08.bks.cpg/sg2_141_cif.got.tgz:281011.got - 2010.06.03 11:33:40.
