data_PCOD9110920
_publ_section_title
;
Structure prediction by ZEFSAII (Michael W. Deem and Ramdas Pophale) SiO2 
 PCOD9110920
Probable space group: P -1
;
_chemical_formula_sum "Si O2"
_cell_formula_units_Z 16
_cell_length_a 17.216813
_cell_length_b 20.152806
_cell_length_c 8.547841
_cell_angle_alpha 150.191887
_cell_angle_beta 39.439810
_cell_angle_gamma 153.213066
_cell_volume 664.393732
_symmetry_space_group_name_H-M "P -1"
_symmetry_group_IT_number 2
_symmetry_cell_setting 'triclinic'
loop_
_space_group_symop_operation_xyz
x,y,z
-x,-y,-z
loop_
_atom_site_type_symbol
_atom_site_label
_atom_site_fract_x
_atom_site_fract_y
_atom_site_fract_z
Si Si1 0.694535 0.704339 0.731093
Si Si2 0.834561 0.546416 0.302909
Si Si3 0.359344 0.355333 0.664589
Si Si4 0.146691 0.910522 0.755923
Si Si5 0.044167 0.315221 0.117335
Si Si6 0.487320 0.202330 0.315924
Si Si7 0.596015 0.015698 0.704637
Si Si8 0.917521 0.373939 0.141538
O O1 0.773357 0.618101 0.432750
O O2 0.538006 0.576553 0.836429
O O3 0.638852 0.694507 0.620134
O O4 0.831822 0.923259 0.000084
O O5 0.673013 0.387973 0.338032
O O6 0.986439 0.721463 0.529854
O O7 0.916121 0.493336 0.961293
O O8 0.368235 0.234643 0.517869
O O9 0.199414 0.329288 0.889893
O O10 0.324193 0.977270 0.563889
O O11 0.099484 0.860674 0.907775
O O12 0.104523 0.501387 0.484392
O O13 0.963272 0.298574 0.045496
O O14 0.477082 0.155611 0.418851
O O15 0.464856 0.037886 0.935350
O O16 0.757993 0.199768 0.929833
#
# Coordination Sequence:
#
# PCOD9110920 Si02
#       8
#     2   2   2   2   2   2   2   2
#     4  10  22  41  62  93 130 164 209 257 316 370
#     4  10  20  42  67  92 127 167 205 262 312 371
#     4  10  23  42  64  92 129 168 205 260 315 373
#     4  11  24  38  64  95 127 163 212 260 311 367
#     4  11  23  40  64  97 124 170 209 256 314 375
#     4  10  22  40  70  88 126 170 209 249 323 365
#     4  10  23  44  63  95 127 165 210 264 306 373
#     4  10  22  41  65  91 131 163 212 259 309 371
#
# _framework density 24.082104999999999
#
# number of rings (size 3 to 8) (size 9 to 14) (size 15 to 20)
#    0.000    1.750    1.250    1.875    1.750    8.500 
#    0.000    5.000    0.000    0.000    0.000    0.000 
#    0.000    0.000    0.000    0.000    0.000    0.000 
#
# Total GULP energy -89459.402352 kJ/mol
# GULP energy per Si atom -5591.212647 kJ/mol
# Density = 2.402729 g / cm^3
# Si number density = 24.082105 Si / 1000 Ang^3
#
#
#
# Elastic Constant Matrix: (Units=GPa)
#
#
# Indices 1 2 3 4 5 6 
#
# 1 120.1401 42.7322 43.4863 0.0666 -43.6545 -15.3990
# 2 42.7322 114.6566 43.8756 -22.9403 -29.6277 -26.4241
# 3 43.4863 43.8756 93.5941 -14.5119 -36.7373 -0.8817
# 4 0.0666 -22.9403 -14.5119 38.2466 1.0505 -9.2346
# 5 -43.6545 -29.6277 -36.7373 1.0505 39.1307 4.9450
# 6 -15.3990 -26.4241 -0.8817 -9.2346 4.9450 32.0581
#
#
#
# Elastic Compliance Matrix: (Units=1/GPa)
#
#
# Indices 1 2 3 4 5 6 
#
# 1 0.014692 -0.000192 -0.000804 0.000269 0.014894 0.004657
# 2 -0.000192 0.019649 -0.003120 0.014930 0.008940 0.018940
# 3 -0.000804 -0.003120 0.018955 0.004053 0.014878 -0.003564
# 4 0.000269 0.014930 0.004053 0.041840 0.011400 0.022841
# 5 0.014894 0.008940 0.014878 0.011400 0.061499 0.008730
# 6 0.004657 0.018940 -0.003564 0.022841 0.008730 0.054176
#
#
# Mechanical properties :
#
#
# Convention : Reuss Voigt Hill
#
# Bulk Modulus (GPa) = 22.19049 65.39768 43.79409
# Shear Modulus (GPa) = 21.36158 35.10686 28.23422
#
# Velocity S-wave (km/s) = 2.98154 3.82225 3.42777
# Velocity P-wave (km/s) = 4.59209 6.83334 5.82159
#
# Compressibility (1/GPa) = 0.04506434
#
# Stress axis : x y z
#
# Youngs Moduli (GPa) = 68.06563 50.89283 52.75520
#
# Poissons Ratio (x) = 0.00977 0.04244
# Poissons Ratio (y) = 0.01306 0.16458
# Poissons Ratio (z) = 0.05475 0.15877
#
# Static dielectric constant tensor:
#      x y z
#    x 1.945960 0.011770 0.000900 
#    y 0.011770 1.965880 0.018870 
#    z 0.000900 0.018870 1.951110 
# 
# From -- ./inp_files/338004.got.cif
#   From: 2010.05.17/outbox.cif.g08.bks.cpg/sg2_170_cif.got.tgz:338004.got - 2010.06.03 11:33:40.
