data_PCOD9110570
_publ_section_title
;
Structure prediction by ZEFSAII (Michael W. Deem and Ramdas Pophale) SiO2 
 PCOD9110570
Probable space group: P -1
;
_chemical_formula_sum "Si O2"
_cell_formula_units_Z 14
_cell_length_a 9.070731
_cell_length_b 9.091984
_cell_length_c 10.826605
_cell_angle_alpha 106.948423
_cell_angle_beta 114.768439
_cell_angle_gamma 118.646568
_cell_volume 559.439728
_symmetry_space_group_name_H-M "P -1"
_symmetry_group_IT_number 2
_symmetry_cell_setting 'triclinic'
loop_
_space_group_symop_operation_xyz
x,y,z
-x,-y,-z
loop_
_atom_site_type_symbol
_atom_site_label
_atom_site_fract_x
_atom_site_fract_y
_atom_site_fract_z
Si Si1 0.583726 0.613048 0.794656
Si Si2 0.945390 0.807692 0.502263
Si Si3 0.797500 0.314413 0.471326
Si Si4 0.820351 0.895371 0.697231
Si Si5 0.602951 0.948536 0.928789
Si Si6 0.378920 0.691144 0.339578
Si Si7 0.131904 0.747067 0.108635
O O1 0.310803 0.421178 0.659591
O O2 0.699360 0.741536 0.736563
O O3 0.643585 0.798958 0.946718
O O4 0.665833 0.490589 0.803972
O O5 0.961483 0.859240 0.665762
O O6 0.128757 0.811769 0.515597
O O7 0.000000 0.000000 0.500000
O O8 0.575935 0.185589 0.279456
O O9 0.773286 0.384840 0.609836
O O10 0.000000 0.500000 0.500000
O O11 0.620207 0.811416 0.512807
O O12 0.937973 0.135312 0.827467
O O13 0.811489 0.165742 0.988971
O O14 0.500000 0.000000 0.000000
O O15 0.348654 0.825726 0.282424
O O16 0.000000 0.500000 0.000000
#
# Coordination Sequence:
#
# PCOD9110570 Si02
#       7
#     2   2   2   2   2   2   2
#     4  10  21  43  65  92 125 169 208 259 316 378
#     4  11  22  33  62 102 126 150 206 275 313 358
#     4  12  22  39  69 100 124 166 214 263 319 373
#     4  10  20  42  64  89 128 166 211 254 312 384
#     4  11  26  45  62  90 136 173 206 258 327 384
#     4  11  21  39  73  94 122 162 222 263 311 372
#     4  11  25  42  64  93 128 173 214 262 315 374
#
# _framework density 25.025034999999999
#
# number of rings (size 3 to 8) (size 9 to 14) (size 15 to 20)
#    0.000    1.143    4.286    3.857    6.000    1.143 
#    2.571    2.143    0.000    0.000    0.000    0.000 
#    0.000    0.000    0.000    0.000    0.000    0.000 
#
# Total GULP energy -78216.125916 kJ/mol
# GULP energy per Si atom -5586.866137 kJ/mol
# Density = 2.496808 g / cm^3
# Si number density = 25.025035 Si / 1000 Ang^3
#
#
#
# Elastic Constant Matrix: (Units=GPa)
#
#
# Indices 1 2 3 4 5 6 
#
# 1 167.0282 26.4784 14.8312 8.8709 -32.9903 -19.7952
# 2 26.4784 102.2628 12.0343 29.8636 -8.6272 -19.1339
# 3 14.8312 12.0343 68.5303 21.4605 -6.1194 1.0847
# 4 8.8709 29.8636 21.4605 35.5134 -5.4200 -1.8005
# 5 -32.9903 -8.6272 -6.1194 -5.4200 40.7575 2.6973
# 6 -19.7952 -19.1339 1.0847 -1.8005 2.6973 56.5619
#
#
#
# Elastic Compliance Matrix: (Units=1/GPa)
#
#
# Indices 1 2 3 4 5 6 
#
# 1 0.007608 -0.001206 -0.001215 0.000820 0.005695 0.002033
# 2 -0.001206 0.014313 0.001618 -0.012453 0.000378 0.003974
# 3 -0.001215 0.001618 0.018434 -0.012145 0.000554 -0.000644
# 4 0.000820 -0.012453 -0.012145 0.046024 0.002480 -0.002346
# 5 0.005695 0.000378 0.000554 0.002480 0.029587 0.000778
# 6 0.002033 0.003974 -0.000644 -0.002346 0.000778 0.019636
#
#
# Mechanical properties :
#
#
# Convention : Reuss Voigt Hill
#
# Bulk Modulus (GPa) = 25.80706 49.38991 37.59849
# Shear Modulus (GPa) = 33.30596 45.53173 39.41884
#
# Velocity S-wave (km/s) = 3.65212 4.27013 3.97315
# Velocity P-wave (km/s) = 5.30272 6.64011 6.00874
#
# Compressibility (1/GPa) = 0.03874908
#
# Stress axis : x y z
#
# Youngs Moduli (GPa) = 131.43584 69.86844 54.24837
#
# Poissons Ratio (x) = 0.08424 0.06593
# Poissons Ratio (y) = 0.15846 -0.08778
# Poissons Ratio (z) = 0.15973 -0.11305
#
# Static dielectric constant tensor:
#      x y z
#    x 2.085580 -0.065520 0.088370 
#    y -0.065520 1.994770 0.020030 
#    z 0.088370 0.020030 2.199260 
# 
# From -- ./inp_files/158412.got.cif
#   From: 2010.05.17/outbox.cif.g08.bks.cpg/sg2_80_cif.got.tgz:158412.got - 2010.06.03 11:33:40.
