data_PCOD9110706
_publ_section_title
;
Structure prediction by ZEFSAII (Michael W. Deem and Ramdas Pophale) SiO2 
 PCOD9110706
Probable space group: P -1
;
_chemical_formula_sum "Si O2"
_cell_formula_units_Z 13
_cell_length_a 8.725769
_cell_length_b 9.669891
_cell_length_c 11.209883
_cell_angle_alpha 57.214549
_cell_angle_beta 109.478315
_cell_angle_gamma 133.434857
_cell_volume 576.260570
_symmetry_space_group_name_H-M "P -1"
_symmetry_group_IT_number 2
_symmetry_cell_setting 'triclinic'
loop_
_space_group_symop_operation_xyz
x,y,z
-x,-y,-z
loop_
_atom_site_type_symbol
_atom_site_label
_atom_site_fract_x
_atom_site_fract_y
_atom_site_fract_z
Si Si1 0.367242 0.670940 0.094028
Si Si2 0.597461 0.550247 0.371064
Si Si3 0.478996 0.692490 0.760830
Si Si4 0.768217 0.098845 0.906012
Si Si5 0.941050 0.269943 0.607475
Si Si6 0.176198 0.303923 0.039728
Si Si7 0.500000 0.000000 0.500000
O O1 0.498353 0.634147 0.230537
O O2 0.267663 0.751498 0.106685
O O3 0.198004 0.457542 0.075013
O O4 0.544879 0.861232 0.963576
O O5 0.500000 0.500000 0.500000
O O6 0.532925 0.348477 0.367676
O O7 0.850015 0.702123 0.374304
O O8 0.306004 0.464753 0.886417
O O9 0.428905 0.851269 0.673827
O O10 0.696023 0.765461 0.838875
O O11 0.862821 0.194319 0.757307
O O12 0.943019 0.116499 0.021865
O O13 0.000000 0.500000 0.500000
O O14 0.746085 0.112358 0.543245
#
# Coordination Sequence:
#
# PCOD9110706 Si02
#       7
#     2   2   2   2   2   2   1
#     4  10  24  38  64 101 129 166 216 276 318 390
#     4  11  23  44  65  93 136 177 216 269 334 391
#     4  10  22  40  65  98 129 170 216 271 324 389
#     4  11  22  41  67  96 129 169 222 265 328 389
#     4  12  24  42  68  94 133 179 217 271 330 393
#     4  10  20  42  65  94 132 167 215 267 330 382
#     4  12  24  40  64 100 130 168 228 264 322 396
#
# _framework density 22.559238000000001
#
# number of rings (size 3 to 8) (size 9 to 14) (size 15 to 20)
#    0.000    1.231    3.077    2.308    2.154    0.615 
#    0.000    6.923    0.000    0.000    0.000    0.000 
#    0.000    0.000    0.000    0.000    0.000    0.000 
#
# Total GULP energy -72467.068402 kJ/mol
# GULP energy per Si atom -5574.389877 kJ/mol
# Density = 2.250789 g / cm^3
# Si number density = 22.559238 Si / 1000 Ang^3
#
#
#
# Elastic Constant Matrix: (Units=GPa)
#
#
# Indices 1 2 3 4 5 6 
#
# 1 85.9337 21.9093 23.9785 17.3706 -17.1163 19.3172
# 2 21.9093 86.6419 23.3093 22.8380 1.8304 19.3858
# 3 23.9785 23.3093 131.4163 14.7419 -9.2060 16.0152
# 4 17.3706 22.8380 14.7419 35.7508 8.7605 12.3429
# 5 -17.1163 1.8304 -9.2060 8.7605 42.4829 6.6532
# 6 19.3172 19.3858 16.0152 12.3429 6.6532 38.4378
#
#
#
# Elastic Compliance Matrix: (Units=1/GPa)
#
#
# Indices 1 2 3 4 5 6 
#
# 1 0.016956 -0.000799 -0.000607 -0.007307 0.009359 -0.007139
# 2 -0.000799 0.014975 -0.001053 -0.007445 0.001045 -0.004502
# 3 -0.000607 -0.001053 0.008650 -0.002380 0.002549 -0.002445
# 4 -0.007307 -0.007445 -0.002380 0.040959 -0.011146 -0.002804
# 5 0.009359 0.001045 0.002549 -0.011146 0.031391 -0.008147
# 6 -0.007139 -0.004502 -0.002445 -0.002804 -0.008147 0.035204
#
#
# Mechanical properties :
#
#
# Convention : Reuss Voigt Hill
#
# Bulk Modulus (GPa) = 28.03979 49.15402 38.59690
# Shear Modulus (GPa) = 30.31388 38.98730 34.65059
#
# Velocity S-wave (km/s) = 3.66969 4.16170 3.92341
# Velocity P-wave (km/s) = 5.51470 6.70292 6.13763
#
# Compressibility (1/GPa) = 0.03566361
#
# Stress axis : x y z
#
# Youngs Moduli (GPa) = 58.97668 66.77817 115.60084
#
# Poissons Ratio (x) = 0.05334 0.07015
# Poissons Ratio (y) = 0.04711 0.12176
# Poissons Ratio (z) = 0.03579 0.07033
#
# Static dielectric constant tensor:
#      x y z
#    x 1.852100 -0.092220 0.035830 
#    y -0.092220 1.963180 -0.083640 
#    z 0.035830 -0.083640 1.875670 
# 
# From -- ./inp_files/173337.got.cif
#   From: 2010.05.17/outbox.cif.g08.bks.cpg/sg2_87_cif.got.tgz:173337.got - 2010.06.03 11:33:40.
