data_PCOD9110724
_publ_section_title
;
Structure prediction by ZEFSAII (Michael W. Deem and Ramdas Pophale) SiO2 
 PCOD9110724
Probable space group: P -1
;
_chemical_formula_sum "Si O2"
_cell_formula_units_Z 16
_cell_length_a 8.556578
_cell_length_b 18.844586
_cell_length_c 8.857229
_cell_angle_alpha 33.594456
_cell_angle_beta 109.132893
_cell_angle_gamma 112.503090
_cell_volume 729.949600
_symmetry_space_group_name_H-M "P -1"
_symmetry_group_IT_number 2
_symmetry_cell_setting 'triclinic'
loop_
_space_group_symop_operation_xyz
x,y,z
-x,-y,-z
loop_
_atom_site_type_symbol
_atom_site_label
_atom_site_fract_x
_atom_site_fract_y
_atom_site_fract_z
Si Si1 0.824753 0.967703 0.909068
Si Si2 0.690611 0.903316 0.293581
Si Si3 0.680361 0.392141 0.389898
Si Si4 0.327404 0.794801 0.512258
Si Si5 0.709752 0.636772 0.763156
Si Si6 0.118269 0.627997 0.241135
Si Si7 0.172558 0.542765 0.075447
Si Si8 0.019476 0.897756 0.820306
O O1 0.769963 0.105369 0.616281
O O2 0.867944 0.895506 0.899407
O O3 0.689356 0.903238 0.109821
O O4 0.000000 0.000000 0.000000
O O5 0.510326 0.873602 0.373827
O O6 0.785908 0.784745 0.569690
O O7 0.806780 0.035206 0.157525
O O8 0.763247 0.282400 0.526852
O O9 0.487780 0.365024 0.320182
O O10 0.709817 0.369651 0.613097
O O11 0.743367 0.536230 0.081092
O O12 0.313827 0.665278 0.839650
O O13 0.759127 0.587965 0.702827
O O14 0.137832 0.591142 0.141134
O O15 0.000000 0.500000 0.500000
O O16 0.043716 0.757467 0.016070
O O17 0.000000 0.500000 0.000000
O O18 0.000000 0.000000 0.500000
#
# Coordination Sequence:
#
# PCOD9110724 Si02
#       8
#     2   2   2   2   2   2   2   2
#     4  10  21  36  64  92 127 166 224 271 331 406
#     4  10  22  39  70  93 134 172 227 278 341 408
#     4   9  19  39  64  94 137 168 229 270 336 404
#     4  10  20  42  65  98 128 181 222 280 342 410
#     4   9  20  38  65  97 126 182 215 274 340 405
#     4  12  26  42  66  99 138 180 230 290 337 401
#     4  11  25  40  69  95 135 178 235 279 345 414
#     4  11  26  44  65 100 138 183 225 285 346 401
#
# _framework density 21.919322000000001
#
# number of rings (size 3 to 8) (size 9 to 14) (size 15 to 20)
#    0.000    1.750    0.000    4.875    8.750    1.500 
#    0.000    5.000    0.000    0.000    0.000    0.000 
#    0.000    0.000    0.000    0.000    0.000    0.000 
#
# Total GULP energy -89103.422565 kJ/mol
# GULP energy per Si atom -5568.963910 kJ/mol
# Density = 2.186943 g / cm^3
# Si number density = 21.919322 Si / 1000 Ang^3
#
#
#
# Elastic Constant Matrix: (Units=GPa)
#
#
# Indices 1 2 3 4 5 6 
#
# 1 97.5264 43.4150 39.4099 -0.0904 -6.0908 -31.0404
# 2 43.4150 123.1092 58.6478 2.7115 6.3080 -44.1131
# 3 39.4099 58.6478 106.4206 -12.7543 7.4407 -19.7456
# 4 -0.0904 2.7115 -12.7543 44.2970 -10.5260 3.4447
# 5 -6.0908 6.3080 7.4407 -10.5260 42.4887 -4.8209
# 6 -31.0404 -44.1131 -19.7456 3.4447 -4.8209 40.2722
#
#
#
# Elastic Compliance Matrix: (Units=1/GPa)
#
#
# Indices 1 2 3 4 5 6 
#
# 1 0.015527 0.000218 -0.004298 -0.001127 0.003877 0.010659
# 2 0.000218 0.017280 -0.007150 -0.004493 -0.000591 0.015904
# 3 -0.004298 -0.007150 0.014761 0.004673 -0.001491 -0.004486
# 4 -0.001127 -0.004493 0.004673 0.025900 0.005530 -0.005052
# 5 0.003877 -0.000591 -0.001491 0.005530 0.026296 0.004285
# 6 0.010659 0.015904 -0.004486 -0.005052 0.004285 0.049213
#
#
# Mechanical properties :
#
#
# Convention : Reuss Voigt Hill
#
# Bulk Modulus (GPa) = 39.82961 67.77797 53.80379
# Shear Modulus (GPa) = 27.80727 37.78382 32.79555
#
# Velocity S-wave (km/s) = 3.56563 4.15633 3.87226
# Velocity P-wave (km/s) = 5.92976 7.34998 6.67773
#
# Compressibility (1/GPa) = 0.02510695
#
# Stress axis : x y z
#
# Youngs Moduli (GPa) = 64.40244 57.86899 67.74705
#
# Poissons Ratio (x) = -0.01259 0.29120
# Poissons Ratio (y) = -0.01401 0.48439
# Poissons Ratio (z) = 0.27683 0.41376
#
# Static dielectric constant tensor:
#      x y z
#    x 1.936140 -0.003160 0.005090 
#    y -0.003160 1.950700 0.048380 
#    z 0.005090 0.048380 1.948880 
# 
# From -- ./inp_files/216489.got.cif
#   From: 2010.05.17/outbox.cif.g08.bks.cpg/sg2_109_cif.got.tgz:216489.got - 2010.06.03 11:33:40.
