data_PCOD9110682
_publ_section_title
;
Structure prediction by ZEFSAII (Michael W. Deem and Ramdas Pophale) SiO2 
 PCOD9110682
Probable space group: P -1
;
_chemical_formula_sum "Si O2"
_cell_formula_units_Z 16
_cell_length_a 8.904991
_cell_length_b 12.696911
_cell_length_c 10.866145
_cell_angle_alpha 37.323435
_cell_angle_beta 86.539476
_cell_angle_gamma 94.392485
_cell_volume 727.626880
_symmetry_space_group_name_H-M "P -1"
_symmetry_group_IT_number 2
_symmetry_cell_setting 'triclinic'
loop_
_space_group_symop_operation_xyz
x,y,z
-x,-y,-z
loop_
_atom_site_type_symbol
_atom_site_label
_atom_site_fract_x
_atom_site_fract_y
_atom_site_fract_z
Si Si1 0.619661 0.926289 0.646704
Si Si2 0.125798 0.444006 0.633190
Si Si3 0.926880 0.156555 0.058944
Si Si4 0.057764 0.908119 0.463454
Si Si5 0.636895 0.287361 0.982805
Si Si6 0.727381 0.845123 0.250498
Si Si7 0.418428 0.670412 0.340787
Si Si8 0.749912 0.688240 0.665207
O O1 0.688588 0.786921 0.689880
O O2 0.500000 0.000000 0.500000
O O3 0.762286 0.077584 0.543006
O O4 0.523175 0.826070 0.857315
O O5 0.196572 0.293212 0.700383
O O6 0.266536 0.611405 0.486455
O O7 0.000000 0.500000 0.500000
O O8 0.035674 0.341372 0.846927
O O9 0.841260 0.036179 0.062920
O O10 0.778549 0.197371 0.099180
O O11 0.023820 0.033704 0.237756
O O12 0.936306 0.723364 0.627926
O O13 0.000000 0.000000 0.500000
O O14 0.634148 0.307338 0.816698
O O15 0.670631 0.484102 0.853154
O O16 0.553403 0.831109 0.226851
O O17 0.716082 0.781119 0.452718
O O18 0.500000 0.500000 0.500000
#
# Coordination Sequence:
#
# PCOD9110682 Si02
#       8
#     2   2   2   2   2   2   2   2
#     4  11  24  43  66  92 122 158 206 255 309 366
#     4  11  20  39  58  89 119 163 202 250 298 358
#     4  11  23  39  63  89 126 164 205 250 303 366
#     4   9  21  41  63  88 119 158 202 254 302 360
#     4  12  22  41  63  93 124 167 202 253 307 357
#     4  10  21  39  61  89 127 162 200 254 306 354
#     4  10  21  38  62  87 131 158 205 253 303 359
#     4  10  20  42  65  90 125 161 202 255 303 363
#
# _framework density 21.989291999999999
#
# number of rings (size 3 to 8) (size 9 to 14) (size 15 to 20)
#    0.000    1.500    3.750    3.000    3.500    0.500 
#    0.000   11.875    0.000    0.000    0.000    0.000 
#    0.000    0.000    0.000    0.000    0.000    0.000 
#
# Total GULP energy -89369.156062 kJ/mol
# GULP energy per Si atom -5585.572254 kJ/mol
# Density = 2.193924 g / cm^3
# Si number density = 21.989292 Si / 1000 Ang^3
#
#
#
# Elastic Constant Matrix: (Units=GPa)
#
#
# Indices 1 2 3 4 5 6 
#
# 1 143.2027 16.5319 33.8250 -10.7529 -25.5716 26.4180
# 2 16.5319 46.2211 4.0400 -8.8462 -10.1970 9.0872
# 3 33.8250 4.0400 56.4997 -6.4701 -19.7945 7.9730
# 4 -10.7529 -8.8462 -6.4701 18.8902 -2.7192 -4.9223
# 5 -25.5716 -10.1970 -19.7945 -2.7192 42.9437 -3.6849
# 6 26.4180 9.0872 7.9730 -4.9223 -3.6849 36.3649
#
#
#
# Elastic Compliance Matrix: (Units=1/GPa)
#
#
# Indices 1 2 3 4 5 6 
#
# 1 0.009772 -0.000667 -0.003310 0.003276 0.003881 -0.005370
# 2 -0.000667 0.026747 0.003432 0.013345 0.008009 -0.004334
# 3 -0.003310 0.003432 0.024393 0.009209 0.010544 -0.001487
# 4 0.003276 0.013345 0.009209 0.066907 0.013835 0.002725
# 5 0.003881 0.008009 0.010544 0.013835 0.033072 -0.001909
# 6 -0.005370 -0.004334 -0.001487 0.002725 -0.001909 0.032984
#
#
# Mechanical properties :
#
#
# Convention : Reuss Voigt Hill
#
# Bulk Modulus (GPa) = 16.71566 39.41304 28.06435
# Shear Modulus (GPa) = 23.26621 32.40818 27.83720
#
# Velocity S-wave (km/s) = 3.25633 3.84320 3.56187
# Velocity P-wave (km/s) = 4.66438 6.13646 5.45035
#
# Compressibility (1/GPa) = 0.05982413
#
# Stress axis : x y z
#
# Youngs Moduli (GPa) = 102.33832 37.38779 40.99459
#
# Poissons Ratio (x) = 0.02493 0.13567
# Poissons Ratio (y) = 0.06823 -0.14071
# Poissons Ratio (z) = 0.33869 -0.12833
#
# Static dielectric constant tensor:
#      x y z
#    x 1.908090 0.019990 0.016570 
#    y 0.019990 1.823490 -0.006530 
#    z 0.016570 -0.006530 1.841590 
# 
# From -- ./inp_files/398180.got.cif
#   From: 2010.05.17/outbox.cif.g08.bks.cpg/sg2_200_cif.got.tgz:398180.got - 2010.06.03 11:33:40.
