data_PCOD9110849
_publ_section_title
;
Structure prediction by ZEFSAII (Michael W. Deem and Ramdas Pophale) SiO2 
 PCOD9110849
Probable space group: P -1
;
_chemical_formula_sum "Si O2"
_cell_formula_units_Z 16
_cell_length_a 7.710349
_cell_length_b 10.971339
_cell_length_c 20.538958
_cell_angle_alpha 36.046099
_cell_angle_beta 132.214991
_cell_angle_gamma 122.125580
_cell_volume 756.938808
_symmetry_space_group_name_H-M "P -1"
_symmetry_group_IT_number 2
_symmetry_cell_setting 'triclinic'
loop_
_space_group_symop_operation_xyz
x,y,z
-x,-y,-z
loop_
_atom_site_type_symbol
_atom_site_label
_atom_site_fract_x
_atom_site_fract_y
_atom_site_fract_z
Si Si1 0.006252 0.579958 0.248400
Si Si2 0.615877 0.680048 0.495451
Si Si3 0.562328 0.862894 0.788661
Si Si4 0.378138 0.209886 0.402675
Si Si5 0.534641 0.825850 0.030675
Si Si6 0.738688 0.565134 0.847488
Si Si7 0.102426 0.656591 0.804504
Si Si8 0.233167 0.973865 0.112135
O O1 0.776633 0.700194 0.163595
O O2 0.933541 0.516984 0.184431
O O3 0.108313 0.388400 0.398759
O O4 0.224385 0.732748 0.231535
O O5 0.500000 0.500000 0.500000
O O6 0.548984 0.707898 0.543749
O O7 0.551405 0.909160 0.353237
O O8 0.655408 0.738916 0.802964
O O9 0.361697 0.732671 0.829415
O O10 0.766790 0.900504 0.875501
O O11 0.401290 0.382943 0.277718
O O12 0.096141 0.175585 0.342589
O O13 0.500000 0.000000 0.500000
O O14 0.333144 0.659599 0.051156
O O15 0.500000 0.000000 0.000000
O O16 0.565899 0.941300 0.919811
O O17 0.005662 0.586223 0.880463
O O18 0.000000 0.000000 0.000000
#
# Coordination Sequence:
#
# PCOD9110849 Si02
#       8
#     2   2   2   2   2   2   2   2
#     4  10  20  42  66  97 136 175 228 279 344 407
#     4  11  21  36  70 105 138 186 218 280 353 418
#     4  12  22  42  72 102 140 175 232 280 352 412
#     4   9  19  38  64  96 142 177 222 276 345 409
#     4  11  23  42  68  93 130 191 233 277 349 401
#     4  10  22  41  66 101 138 175 232 288 337 412
#     4   9  21  38  66  97 133 168 226 279 332 411
#     4  10  24  44  66  93 133 184 230 281 338 407
#
# _framework density 21.13777
#
# number of rings (size 3 to 8) (size 9 to 14) (size 15 to 20)
#    0.750    1.000    3.750    0.750    0.000    3.500 
#    4.500    0.625    0.000    3.000    0.000    0.000 
#    0.000    0.000    0.000    0.000    0.000    0.000 
#
# Total GULP energy -89157.091306 kJ/mol
# GULP energy per Si atom -5572.318207 kJ/mol
# Density = 2.108966 g / cm^3
# Si number density = 21.137770 Si / 1000 Ang^3
#
#
#
# Elastic Constant Matrix: (Units=GPa)
#
#
# Indices 1 2 3 4 5 6 
#
# 1 98.6566 62.8231 26.0823 -2.8803 -7.7209 -13.2803
# 2 62.8231 158.6809 36.0264 6.7336 -7.2863 -16.2019
# 3 26.0823 36.0264 71.6984 3.9393 4.3244 -3.1408
# 4 -2.8803 6.7336 3.9393 32.3429 -5.6180 2.5051
# 5 -7.7209 -7.2863 4.3244 -5.6180 33.5273 -14.0064
# 6 -13.2803 -16.2019 -3.1408 2.5051 -14.0064 39.5048
#
#
#
# Elastic Compliance Matrix: (Units=1/GPa)
#
#
# Indices 1 2 3 4 5 6 
#
# 1 0.015149 -0.004623 -0.003495 0.003321 0.005426 0.004632
# 2 -0.004623 0.009265 -0.002880 -0.001828 0.002236 0.002926
# 3 -0.003495 -0.002880 0.016995 -0.002470 -0.005154 -0.002676
# 4 0.003321 -0.001828 -0.002470 0.032973 0.006349 0.000331
# 5 0.005426 0.002236 -0.005154 0.006349 0.040025 0.016120
# 6 0.004632 0.002926 -0.002676 0.000331 0.016120 0.033552
#
#
# Mechanical properties :
#
#
# Convention : Reuss Voigt Hill
#
# Bulk Modulus (GPa) = 51.51002 64.32218 57.91610
# Shear Modulus (GPa) = 28.34046 34.68194 31.51120
#
# Velocity S-wave (km/s) = 3.66560 4.05502 3.86522
# Velocity P-wave (km/s) = 6.50670 7.24019 6.88322
#
# Compressibility (1/GPa) = 0.01941370
#
# Stress axis : x y z
#
# Youngs Moduli (GPa) = 66.01032 107.93217 58.84048
#
# Poissons Ratio (x) = 0.49897 0.20564
# Poissons Ratio (y) = 0.30517 0.16946
# Poissons Ratio (z) = 0.23069 0.31084
#
# Static dielectric constant tensor:
#      x y z
#    x 1.791450 0.018520 -0.000260 
#    y 0.018520 1.785090 -0.009420 
#    z -0.000260 -0.009420 1.858350 
# 
# From -- ./inp_files/556012.got.cif
#   From: 2010.05.17/outbox.cif.g08.bks.cpg/sg2_279_cif.got.tgz:556012.got - 2010.06.03 11:33:40.
