data_PCOD9110273
_publ_section_title
;
Structure prediction by ZEFSAII (Michael W. Deem and Ramdas Pophale) SiO2 
 PCOD9110273
Probable space group: P -1
;
_chemical_formula_sum "Si O2"
_cell_formula_units_Z 12
_cell_length_a 9.192968
_cell_length_b 5.017439
_cell_length_c 10.626889
_cell_angle_alpha 88.083408
_cell_angle_beta 75.244154
_cell_angle_gamma 102.357170
_cell_volume 461.008404
_symmetry_space_group_name_H-M "P -1"
_symmetry_group_IT_number 2
_symmetry_cell_setting 'triclinic'
loop_
_space_group_symop_operation_xyz
x,y,z
-x,-y,-z
loop_
_atom_site_type_symbol
_atom_site_label
_atom_site_fract_x
_atom_site_fract_y
_atom_site_fract_z
Si Si1 0.406476 0.550374 0.643515
Si Si2 0.244765 0.624311 0.051837
Si Si3 0.033472 0.912976 0.230408
Si Si4 0.333886 0.340922 0.252752
Si Si5 0.849047 0.552208 0.469058
Si Si6 0.761206 0.877350 0.122867
O O1 0.500000 0.500000 0.500000
O O2 0.261079 0.452175 0.388383
O O3 0.349982 0.269754 0.739026
O O4 0.517955 0.740264 0.716295
O O5 0.364775 0.564168 0.131050
O O6 0.091867 0.654787 0.162851
O O7 0.219412 0.375562 0.964502
O O8 0.073356 0.993313 0.851589
O O9 0.194648 0.107477 0.233228
O O10 0.290097 0.901379 0.957079
O O11 0.253588 0.624417 0.616632
O O12 0.922058 0.834649 0.375915
O O13 0.000000 0.500000 0.500000
#
# Coordination Sequence:
#
# PCOD9110273 Si02
#       6
#     2   2   2   2   2   2
#     4   9  23  48  68 100 141 180 229 288 349 411
#     4  12  24  42  70 102 143 180 233 281 342 413
#     4  11  23  41  68 101 139 182 235 288 336 407
#     4  11  23  42  69  99 143 181 230 283 352 404
#     4  10  20  41  72 100 135 180 238 286 341 405
#     4  11  26  44  70 102 138 185 232 282 343 408
#
# _framework density 26.029896000000001
#
# number of rings (size 3 to 8) (size 9 to 14) (size 15 to 20)
#    0.000    1.333    3.333    1.500    2.333    1.333 
#    3.000    1.667    0.000    0.000    0.000    0.000 
#    0.000    0.000    0.000    0.000    0.000    0.000 
#
# Total GULP energy -67048.859614 kJ/mol
# GULP energy per Si atom -5587.404968 kJ/mol
# Density = 2.597065 g / cm^3
# Si number density = 26.029896 Si / 1000 Ang^3
#
#
#
# Elastic Constant Matrix: (Units=GPa)
#
#
# Indices 1 2 3 4 5 6 
#
# 1 122.8044 18.0690 76.1243 6.0415 47.5733 13.9055
# 2 18.0690 87.9894 58.8666 -0.1943 16.6361 7.3014
# 3 76.1243 58.8666 209.3371 -24.3355 28.1119 6.7059
# 4 6.0415 -0.1943 -24.3355 23.4530 9.3526 -1.4843
# 5 47.5733 16.6361 28.1119 9.3526 57.2374 1.9721
# 6 13.9055 7.3014 6.7059 -1.4843 1.9721 32.2128
#
#
#
# Elastic Compliance Matrix: (Units=1/GPa)
#
#
# Indices 1 2 3 4 5 6 
#
# 1 0.016486 0.003137 -0.006089 -0.006830 -0.010293 -0.006245
# 2 0.003137 0.015330 -0.005492 -0.005268 -0.003377 -0.003722
# 3 -0.006089 -0.005492 0.009892 0.012038 -0.000251 0.002384
# 4 -0.006830 -0.005268 0.012038 0.060665 -0.008789 0.004970
# 5 -0.010293 -0.003377 -0.000251 -0.008789 0.028460 0.003114
# 6 -0.006245 -0.003722 0.002384 0.004970 0.003114 0.034125
#
#
# Mechanical properties :
#
#
# Convention : Reuss Voigt Hill
#
# Bulk Modulus (GPa) = 40.28586 80.69452 60.49019
# Shear Modulus (GPa) = 26.29924 40.38536 33.34230
#
# Velocity S-wave (km/s) = 3.18204 3.94318 3.58288
# Velocity P-wave (km/s) = 5.38618 7.19719 6.35651
#
# Compressibility (1/GPa) = 0.02482260
#
# Stress axis : x y z
#
# Youngs Moduli (GPa) = 60.65571 65.22972 101.08903
#
# Poissons Ratio (x) = -0.20465 0.61555
# Poissons Ratio (y) = -0.19030 0.55514
# Poissons Ratio (z) = 0.36934 0.35821
#
# Static dielectric constant tensor:
#      x y z
#    x 2.170200 0.006400 -0.005900 
#    y 0.006400 2.091620 -0.018620 
#    z -0.005900 -0.018620 2.024860 
# 
# From -- ./inp_files/229619.got.cif
#   From: 2010.05.17/outbox.cif.g08.bks.cpg/sg2_115_cif.got.tgz:229619.got - 2010.06.03 11:33:40.
