data_PCOD9110149
_publ_section_title
;
Structure prediction by ZEFSAII (Michael W. Deem and Ramdas Pophale) SiO2 
 PCOD9110149
Probable space group: P -1
;
_chemical_formula_sum "Si O2"
_cell_formula_units_Z 16
_cell_length_a 12.458385
_cell_length_b 11.149316
_cell_length_c 7.566355
_cell_angle_alpha 60.204231
_cell_angle_beta 135.980430
_cell_angle_gamma 121.373575
_cell_volume 610.109218
_symmetry_space_group_name_H-M "P -1"
_symmetry_group_IT_number 2
_symmetry_cell_setting 'triclinic'
loop_
_space_group_symop_operation_xyz
x,y,z
-x,-y,-z
loop_
_atom_site_type_symbol
_atom_site_label
_atom_site_fract_x
_atom_site_fract_y
_atom_site_fract_z
Si Si1 0.005669 0.261119 0.066161
Si Si2 0.299368 0.490056 0.138874
Si Si3 0.796379 0.931327 0.398248
Si Si4 0.609537 0.469500 0.401923
Si Si5 0.234829 0.689298 0.523710
Si Si6 0.600206 0.886266 0.872659
Si Si7 0.538524 0.856236 0.439078
Si Si8 0.133434 0.724211 0.750896
O O1 0.134047 0.368209 0.012871
O O2 0.066220 0.125068 0.300556
O O3 0.843016 0.237408 0.778709
O O4 0.982724 0.331087 0.178611
O O5 0.434891 0.495097 0.148759
O O6 0.338941 0.446358 0.416979
O O7 0.273085 0.646479 0.008506
O O8 0.641652 0.871924 0.377432
O O9 0.833474 0.103924 0.323877
O O10 0.736165 0.864130 0.182808
O O11 0.739461 0.460212 0.415392
O O12 0.555838 0.304213 0.517480
O O13 0.416239 0.780977 0.730757
O O14 0.116115 0.681591 0.555025
O O15 0.647531 0.896910 0.715259
O O16 0.569757 0.035760 0.783439
#
# Coordination Sequence:
#
# PCOD9110149 Si02
#       8
#     2   2   2   2   2   2   2   2
#     4  12  28  50  70 103 155 194 232 293 371 427
#     4  11  24  47  78  98 142 200 237 293 362 427
#     4  12  25  44  74 108 142 189 244 292 352 430
#     4  10  22  44  75 106 137 187 245 294 357 421
#     4  11  26  45  74 109 146 188 237 302 362 422
#     4  10  23  38  73 108 143 183 238 298 359 421
#     4  10  20  41  70 105 145 179 231 305 360 406
#     4  12  27  45  73 105 147 191 243 291 358 434
#
# _framework density 26.224813000000001
#
# number of rings (size 3 to 8) (size 9 to 14) (size 15 to 20)
#    0.000    1.000    3.750    1.875    5.250    2.500 
#    0.000    0.000    0.000    0.000    0.000    0.000 
#    0.000    0.000    0.000    0.000    0.000    0.000 
#
# Total GULP energy -89270.316095 kJ/mol
# GULP energy per Si atom -5579.394756 kJ/mol
# Density = 2.616512 g / cm^3
# Si number density = 26.224813 Si / 1000 Ang^3
#
#
#
# Elastic Constant Matrix: (Units=GPa)
#
#
# Indices 1 2 3 4 5 6 
#
# 1 58.1686 52.6998 46.6047 12.4746 -14.6225 9.0120
# 2 52.6998 14.1208 -1.1299 -3.5419 24.5072 -25.1401
# 3 46.6047 -1.1299 142.3516 6.0599 7.1927 -18.4458
# 4 12.4746 -3.5419 6.0599 36.4583 -9.6592 1.6976
# 5 -14.6225 24.5072 7.1927 -9.6592 32.2785 4.7736
# 6 9.0120 -25.1401 -18.4458 1.6976 4.7736 25.0643
#
#
#
# Elastic Compliance Matrix: (Units=1/GPa)
#
#
# Indices 1 2 3 4 5 6 
#
# 1 0.005348 0.009954 0.000131 -0.003363 -0.007625 0.009838
# 2 0.009954 -0.002058 -0.005178 0.000137 0.008917 -0.011161
# 3 0.000131 -0.005178 0.006795 -0.001053 0.002250 -0.000597
# 4 -0.003363 0.000137 -0.001053 0.031136 0.008388 -0.003135
# 5 -0.007625 0.008917 0.002250 0.008388 0.021481 0.008682
# 6 0.009838 -0.011161 -0.000597 -0.003135 0.008682 0.023285
#
#
# Mechanical properties :
#
#
# Convention : Reuss Voigt Hill
#
# Bulk Modulus (GPa) = 50.25101 45.66559 47.95830
# Shear Modulus (GPa) = 60.38222 26.52464 43.45343
#
# Velocity S-wave (km/s) = 4.80363 3.18375 4.07499
# Velocity P-wave (km/s) = 7.06892 5.56471 6.36143
#
# Compressibility (1/GPa) = 0.01990010
#
# Stress axis : x y z
#
# Youngs Moduli (GPa) = 186.96949 -485.98587 147.17557
#
# Poissons Ratio (x) = 4.83751 -0.01930
# Poissons Ratio (y) = -1.86109 0.76205
# Poissons Ratio (z) = -0.02452 -2.51634
#
# Static dielectric constant tensor:
#      x y z
#    x 2.141510 0.002740 -0.009120 
#    y 0.002740 2.089440 0.061620 
#    z -0.009120 0.061620 2.138920 
# 
# From -- ./inp_files/257110.got.cif
#   From: 2010.05.17/outbox.cif.g08.bks.cpg/sg2_129_cif.got.tgz:257110.got - 2010.06.03 11:33:40.
