data_PCOD9110010
_publ_section_title
;
Structure prediction by ZEFSAII (Michael W. Deem and Ramdas Pophale) SiO2 
 PCOD9110010
Probable space group: P -1
;
_chemical_formula_sum "Si O2"
_cell_formula_units_Z 14
_cell_length_a 14.023066
_cell_length_b 20.251141
_cell_length_c 7.436932
_cell_angle_alpha 58.517372
_cell_angle_beta 48.905091
_cell_angle_gamma 23.543843
_cell_volume 612.708536
_symmetry_space_group_name_H-M "P -1"
_symmetry_group_IT_number 2
_symmetry_cell_setting 'triclinic'
loop_
_space_group_symop_operation_xyz
x,y,z
-x,-y,-z
loop_
_atom_site_type_symbol
_atom_site_label
_atom_site_fract_x
_atom_site_fract_y
_atom_site_fract_z
Si Si1 0.692002 0.662387 0.313034
Si Si2 0.928003 0.671780 0.850209
Si Si3 0.465205 0.421435 0.746253
Si Si4 0.201488 0.703502 0.820102
Si Si5 0.182018 0.864079 0.809430
Si Si6 0.442193 0.968926 0.769841
Si Si7 0.611408 0.175216 0.927064
O O1 0.462804 0.759651 0.596639
O O2 0.933120 0.466959 0.262343
O O3 0.815359 0.680684 0.142685
O O4 0.521311 0.756970 0.202136
O O5 0.675152 0.851148 0.805736
O O6 0.189343 0.575556 0.740664
O O7 0.410358 0.516679 0.824817
O O8 0.717512 0.299857 0.466641
O O9 0.495835 0.319817 0.936310
O O10 0.253175 0.735014 0.874757
O O11 0.878795 0.851866 0.017712
O O12 0.000000 0.000000 0.000000
O O13 0.945539 0.999696 0.754593
O O14 0.460276 0.867970 0.830835
O O15 0.500000 0.000000 0.500000
#
# Coordination Sequence:
#
# PCOD9110010 Si02
#       7
#     2   2   2   2   2   2   2
#     4   9  17  35  66  96 123 157 225 271 306 372
#     4   9  18  35  67  94 120 166 219 272 305 371
#     4  10  20  41  69 100 116 165 230 267 318 362
#     4  10  22  41  63  90 135 164 209 272 313 380
#     4  11  21  37  62  98 134 167 208 259 331 393
#     4  10  22  40  61  91 140 175 202 260 331 389
#     4   9  19  38  68  89 122 172 218 262 309 376
#
# _framework density 22.849361999999999
#
# number of rings (size 3 to 8) (size 9 to 14) (size 15 to 20)
#    0.000    2.286    2.857    1.286    4.000    0.571 
#    7.714    7.857    0.000    0.000    0.000    0.000 
#    0.000    0.000    0.000    0.000    0.000    0.000 
#
# Total GULP energy -78038.658001 kJ/mol
# GULP energy per Si atom -5574.189857 kJ/mol
# Density = 2.279736 g / cm^3
# Si number density = 22.849362 Si / 1000 Ang^3
#
#
#
# Elastic Constant Matrix: (Units=GPa)
#
#
# Indices 1 2 3 4 5 6 
#
# 1 55.0074 42.7085 43.4206 1.7562 -0.5842 23.3540
# 2 42.7085 100.9042 73.9756 -2.0473 -1.1148 20.1108
# 3 43.4206 73.9756 166.2202 18.3354 -14.4850 4.3772
# 4 1.7562 -2.0473 18.3354 44.2946 -0.5324 -12.5876
# 5 -0.5842 -1.1148 -14.4850 -0.5324 21.5719 5.5823
# 6 23.3540 20.1108 4.3772 -12.5876 5.5823 50.5949
#
#
#
# Elastic Compliance Matrix: (Units=1/GPa)
#
#
# Indices 1 2 3 4 5 6 
#
# 1 0.033801 -0.008845 -0.004070 -0.003677 0.000934 -0.012752
# 2 -0.008845 0.018977 -0.006768 0.003525 -0.003293 -0.001634
# 3 -0.004070 -0.006768 0.011050 -0.004113 0.006370 0.001887
# 4 -0.003677 0.003525 -0.004113 0.026741 -0.004024 0.007749
# 5 0.000934 -0.003293 0.006370 -0.004024 0.052051 -0.006418
# 6 -0.012752 -0.001634 0.001887 0.007749 -0.006418 0.028773
#
#
# Mechanical properties :
#
#
# Convention : Reuss Voigt Hill
#
# Bulk Modulus (GPa) = 40.88014 71.37123 56.12569
# Shear Modulus (GPa) = 22.84002 34.09409 28.46706
#
# Velocity S-wave (km/s) = 3.16506 3.86699 3.53350
# Velocity P-wave (km/s) = 5.59346 7.15832 6.42372
#
# Compressibility (1/GPa) = 0.02446176
#
# Stress axis : x y z
#
# Youngs Moduli (GPa) = 29.58469 52.69628 90.49398
#
# Poissons Ratio (x) = 0.46612 0.36834
# Poissons Ratio (y) = 0.26169 0.61244
# Poissons Ratio (z) = 0.12042 0.35663
#
# Static dielectric constant tensor:
#      x y z
#    x 1.950700 0.036190 -0.028540 
#    y 0.036190 1.895710 -0.025280 
#    z -0.028540 -0.025280 1.895900 
# 
# From -- ./inp_files/338659.got.cif
#   From: 2010.05.17/outbox.cif.g08.bks.cpg/sg2_170_cif.got.tgz:338659.got - 2010.06.03 11:33:40.
