data_PCOD9110772
_publ_section_title
;
Structure prediction by ZEFSAII (Michael W. Deem and Ramdas Pophale) SiO2 
 PCOD9110772
Probable space group: P -1
;
_chemical_formula_sum "Si O2"
_cell_formula_units_Z 16
_cell_length_a 10.896243
_cell_length_b 19.603808
_cell_length_c 9.105033
_cell_angle_alpha 95.447299
_cell_angle_beta 50.912525
_cell_angle_gamma 135.872652
_cell_volume 787.981762
_symmetry_space_group_name_H-M "P -1"
_symmetry_group_IT_number 2
_symmetry_cell_setting 'triclinic'
loop_
_space_group_symop_operation_xyz
x,y,z
-x,-y,-z
loop_
_atom_site_type_symbol
_atom_site_label
_atom_site_fract_x
_atom_site_fract_y
_atom_site_fract_z
Si Si1 0.815768 0.324327 0.570463
Si Si2 0.147676 0.225144 0.197265
Si Si3 0.939678 0.157029 0.650577
Si Si4 0.606650 0.954395 0.073045
Si Si5 0.354391 0.588334 0.362817
Si Si6 0.252676 0.354770 0.713491
Si Si7 0.856477 0.243809 0.269301
Si Si8 0.165415 0.996977 0.797369
O O1 0.565307 0.180710 0.797494
O O2 0.692196 0.347628 0.593163
O O3 0.974686 0.340599 0.322967
O O4 0.041265 0.432784 0.549115
O O5 0.161367 0.230320 0.362148
O O6 0.908692 0.190581 0.301009
O O7 0.042874 0.113757 0.189794
O O8 0.461215 0.359875 0.913908
O O9 0.647352 0.083607 0.780609
O O10 0.064229 0.254183 0.700272
O O11 0.841865 0.050940 0.783393
O O12 0.775631 0.031592 0.114143
O O13 0.556578 0.635522 0.351357
O O14 0.500000 0.500000 0.500000
O O15 0.034541 0.305884 0.994472
O O16 0.500460 0.130497 0.504600
O O17 0.000000 0.000000 0.000000
#
# Coordination Sequence:
#
# PCOD9110772 Si02
#       8
#     2   2   2   2   2   2   2   2
#     4  10  20  42  66  91 120 168 215 263 307 382
#     4  11  21  37  65  94 122 164 213 262 308 375
#     4  11  23  36  61  96 133 156 204 266 320 370
#     4  10  21  38  62  88 129 159 202 260 318 363
#     4  10  23  40  68  88 126 164 217 259 319 374
#     4  11  25  41  64  95 131 166 210 264 321 373
#     4  10  22  37  66  91 122 164 219 256 310 375
#     4  11  22  40  64  90 126 164 214 256 314 378
#
# _framework density 20.305038
#
# number of rings (size 3 to 8) (size 9 to 14) (size 15 to 20)
#    0.000    1.500    2.500    4.125    5.250    1.000 
#    0.000    3.125    8.250    0.000    0.000    0.000 
#    0.000    0.000    0.000    0.000    0.000    0.000 
#
# Total GULP energy -89256.066976 kJ/mol
# GULP energy per Si atom -5578.504186 kJ/mol
# Density = 2.025882 g / cm^3
# Si number density = 20.305038 Si / 1000 Ang^3
#
#
#
# Elastic Constant Matrix: (Units=GPa)
#
#
# Indices 1 2 3 4 5 6 
#
# 1 66.4465 26.3345 35.0558 14.4204 8.1248 2.4068
# 2 26.3345 84.0247 36.8933 8.7822 12.0904 -8.2801
# 3 35.0558 36.8933 110.8279 10.7862 24.1106 -6.5961
# 4 14.4204 8.7822 10.7862 33.9195 -1.3576 3.2321
# 5 8.1248 12.0904 24.1106 -1.3576 40.0698 6.3134
# 6 2.4068 -8.2801 -6.5961 3.2321 6.3134 23.8508
#
#
#
# Elastic Compliance Matrix: (Units=1/GPa)
#
#
# Indices 1 2 3 4 5 6 
#
# 1 0.020652 -0.004204 -0.004953 -0.005686 0.000544 -0.004287
# 2 -0.004204 0.015692 -0.002555 -0.002207 -0.003423 0.006370
# 3 -0.004953 -0.002555 0.013619 -0.002399 -0.007393 0.005661
# 4 -0.005686 -0.002207 -0.002399 0.034115 0.005511 -0.006938
# 5 0.000544 -0.003423 -0.007393 0.005511 0.032505 -0.012639
# 6 -0.004287 0.006370 0.005661 -0.006938 -0.012639 0.050423
#
#
# Mechanical properties :
#
#
# Convention : Reuss Voigt Hill
#
# Bulk Modulus (GPa) = 37.68189 50.87405 44.27797
# Shear Modulus (GPa) = 25.09082 30.43573 27.76328
#
# Velocity S-wave (km/s) = 3.51906 3.87580 3.70173
# Velocity P-wave (km/s) = 5.92536 6.71851 6.33436
#
# Compressibility (1/GPa) = 0.02653795
#
# Stress axis : x y z
#
# Youngs Moduli (GPa) = 48.42207 63.72737 73.42745
#
# Poissons Ratio (x) = 0.26793 0.36368
# Poissons Ratio (y) = 0.20358 0.18761
# Poissons Ratio (z) = 0.23983 0.16283
#
# Static dielectric constant tensor:
#      x y z
#    x 1.736860 -0.008860 -0.023570 
#    y -0.008860 1.734610 -0.015380 
#    z -0.023570 -0.015380 1.775550 
# 
# From -- ./inp_files/282000.got.cif
#   From: 2010.05.17/outbox.cif.g08.bks.cpg/sg2_141_cif.got.tgz:282000.got - 2010.06.03 11:33:40.
