data_PCOD9110547
_publ_section_title
;
Structure prediction by ZEFSAII (Michael W. Deem and Ramdas Pophale) SiO2 
 PCOD9110547
Probable space group: P -1
;
_chemical_formula_sum "Si O2"
_cell_formula_units_Z 13
_cell_length_a 8.673296
_cell_length_b 9.180761
_cell_length_c 8.300448
_cell_angle_alpha 121.623214
_cell_angle_beta 124.855736
_cell_angle_gamma 66.443589
_cell_volume 457.079600
_symmetry_space_group_name_H-M "P -1"
_symmetry_group_IT_number 2
_symmetry_cell_setting 'triclinic'
loop_
_space_group_symop_operation_xyz
x,y,z
-x,-y,-z
loop_
_atom_site_type_symbol
_atom_site_label
_atom_site_fract_x
_atom_site_fract_y
_atom_site_fract_z
Si Si1 0.479624 0.707572 0.990705
Si Si2 0.739720 0.008602 0.824123
Si Si3 0.065849 0.300964 0.089423
Si Si4 0.381322 0.858629 0.675629
Si Si5 0.689348 0.449104 0.766947
Si Si6 0.832770 0.843556 0.438369
Si Si7 0.000000 0.500000 0.500000
O O1 0.427459 0.825340 0.869907
O O2 0.517996 0.514658 0.827610
O O3 0.673144 0.730312 0.211013
O O4 0.309299 0.787550 0.052176
O O5 0.892799 0.902354 0.971483
O O6 0.546745 0.936209 0.722896
O O7 0.772282 0.949420 0.626788
O O8 0.242760 0.375083 0.156166
O O9 0.047419 0.390556 0.303560
O O10 0.884118 0.355538 0.904353
O O11 0.365698 0.677705 0.474805
O O12 0.195272 0.002329 0.622315
O O13 0.996940 0.689815 0.499411
#
# Coordination Sequence:
#
# PCOD9110547 Si02
#       7
#     2   2   2   2   2   2   1
#     4  11  20  37  64  91 121 161 199 250 305 364
#     4  10  21  39  65  88 123 162 208 243 310 363
#     4  10  22  40  63  86 123 167 204 246 309 369
#     4  11  22  37  63  95 126 154 204 264 293 360
#     4  11  23  39  62  92 128 157 207 252 308 355
#     4  10  21  40  64  92 119 169 203 247 304 374
#     4  10  20  42  64  82 120 170 204 240 302 378
#
# _framework density 28.441434999999998
#
# number of rings (size 3 to 8) (size 9 to 14) (size 15 to 20)
#    0.000    1.538    3.077    4.154    0.000    0.000 
#    0.000   12.308    0.000    0.000    0.000    0.000 
#    0.000    0.000    0.000    0.000    0.000    0.000 
#
# Total GULP energy -72602.821859 kJ/mol
# GULP energy per Si atom -5584.832451 kJ/mol
# Density = 2.837670 g / cm^3
# Si number density = 28.441435 Si / 1000 Ang^3
#
#
#
# Elastic Constant Matrix: (Units=GPa)
#
#
# Indices 1 2 3 4 5 6 
#
# 1 55.0690 15.7984 57.2930 10.3036 4.1770 4.6785
# 2 15.7984 193.2698 23.5226 5.9147 7.0553 -5.6082
# 3 57.2930 23.5226 141.4245 7.2746 -23.1126 -7.6173
# 4 10.3036 5.9147 7.2746 53.6300 -10.5550 -3.7545
# 5 4.1770 7.0553 -23.1126 -10.5550 22.3642 9.8869
# 6 4.6785 -5.6082 -7.6173 -3.7545 9.8869 47.2196
#
#
#
# Elastic Compliance Matrix: (Units=1/GPa)
#
#
# Indices 1 2 3 4 5 6 
#
# 1 0.056458 0.001386 -0.030447 -0.016760 -0.049808 -0.001245
# 2 0.001386 0.005631 -0.002280 -0.001613 -0.005695 0.001228
# 3 -0.030447 -0.002280 0.025379 0.010015 0.037452 -0.000205
# 4 -0.016760 -0.001613 0.010015 0.025846 0.026355 -0.000379
# 5 -0.049808 -0.005695 0.037452 0.026355 0.111829 -0.011019
# 6 -0.001245 0.001228 -0.000205 -0.000379 -0.011019 0.023691
#
#
# Mechanical properties :
#
#
# Convention : Reuss Voigt Hill
#
# Bulk Modulus (GPa) = 40.34579 64.77682 52.56130
# Shear Modulus (GPa) = 15.63582 44.18604 29.91093
#
# Velocity S-wave (km/s) = 2.34723 3.94582 3.24646
# Velocity P-wave (km/s) = 4.64353 6.60184 5.70731
#
# Compressibility (1/GPa) = 0.02478573
#
# Stress axis : x y z
#
# Youngs Moduli (GPa) = 17.71234 177.58188 39.40251
#
# Poissons Ratio (x) = -0.24607 1.19970
# Poissons Ratio (y) = -0.02454 0.08982
# Poissons Ratio (z) = 0.53929 0.40482
#
# Static dielectric constant tensor:
#      x y z
#    x 2.358030 0.047500 0.058560 
#    y 0.047500 2.123730 0.024900 
#    z 0.058560 0.024900 2.063300 
# 
# From -- ./inp_files/250897.got.cif
#   From: 2010.05.17/outbox.cif.g08.bks.cpg/sg2_126_cif.got.tgz:250897.got - 2010.06.03 11:33:40.
