data_PCOD9110788
_publ_section_title
;
Structure prediction by ZEFSAII (Michael W. Deem and Ramdas Pophale) SiO2 
 PCOD9110788
Probable space group: P -1
;
_chemical_formula_sum "Si O2"
_cell_formula_units_Z 12
_cell_length_a 14.479674
_cell_length_b 9.195633
_cell_length_c 12.446050
_cell_angle_alpha 35.991249
_cell_angle_beta 145.266187
_cell_angle_gamma 123.709871
_cell_volume 524.109249
_symmetry_space_group_name_H-M "P -1"
_symmetry_group_IT_number 2
_symmetry_cell_setting 'triclinic'
loop_
_space_group_symop_operation_xyz
x,y,z
-x,-y,-z
loop_
_atom_site_type_symbol
_atom_site_label
_atom_site_fract_x
_atom_site_fract_y
_atom_site_fract_z
Si Si1 0.853429 0.816123 0.734159
Si Si2 0.220499 0.386129 0.667955
Si Si3 0.615282 0.301039 0.099045
Si Si4 0.310149 0.204180 0.199704
Si Si5 0.145167 0.132711 0.535103
Si Si6 0.086428 0.090500 0.886421
O O1 0.764305 0.699664 0.810725
O O2 0.889804 0.723452 0.700741
O O3 0.018211 0.865997 0.912758
O O4 0.708290 0.103683 0.400832
O O5 0.411796 0.394956 0.852163
O O6 0.169579 0.312360 0.545849
O O7 0.202537 0.159545 0.864889
O O8 0.078649 0.653268 0.407853
O O9 0.688520 0.540406 0.017512
O O10 0.681498 0.112484 0.171944
O O11 0.500000 0.000000 0.500000
O O12 0.191008 0.059435 0.115068
O O13 0.000000 0.000000 0.500000
#
# Coordination Sequence:
#
# PCOD9110788 Si02
#       6
#     2   2   2   2   2   2
#     4  10  23  41  65  93 125 166 212 255 316 367
#     4  11  20  39  68  96 122 173 209 257 317 376
#     4  10  23  40  65  93 128 166 207 260 313 372
#     4  12  24  41  63  96 130 163 214 263 315 374
#     4  10  20  42  66  92 127 168 212 255 315 374
#     4  11  22  37  66  94 126 165 218 257 314 372
#
# _framework density 22.895990000000001
#
# number of rings (size 3 to 8) (size 9 to 14) (size 15 to 20)
#    1.000    0.333    1.667    6.000    0.000    2.000 
#    0.000    4.167    0.000    0.000    0.000    0.000 
#    0.000    0.000    0.000    0.000    0.000    0.000 
#
# Total GULP energy -67110.898522 kJ/mol
# GULP energy per Si atom -5592.574877 kJ/mol
# Density = 2.284388 g / cm^3
# Si number density = 22.895990 Si / 1000 Ang^3
#
#
#
# Elastic Constant Matrix: (Units=GPa)
#
#
# Indices 1 2 3 4 5 6 
#
# 1 138.0282 22.7528 20.1067 16.4952 -2.6053 -1.5434
# 2 22.7528 85.8830 8.4901 20.8817 -1.5612 -7.2594
# 3 20.1067 8.4901 66.7176 17.8150 1.3099 11.7033
# 4 16.4952 20.8817 17.8150 35.8201 -1.5643 -4.8769
# 5 -2.6053 -1.5612 1.3099 -1.5643 39.5119 3.5978
# 6 -1.5434 -7.2594 11.7033 -4.8769 3.5978 42.4130
#
#
#
# Elastic Compliance Matrix: (Units=1/GPa)
#
#
# Indices 1 2 3 4 5 6 
#
# 1 0.007979 -0.001447 -0.001772 -0.001893 0.000427 0.000278
# 2 -0.001447 0.013917 0.000423 -0.007472 0.000022 0.001352
# 3 -0.001772 0.000423 0.019243 -0.009895 -0.000548 -0.006393
# 4 -0.001893 -0.007472 -0.009895 0.038893 0.000922 0.005777
# 5 0.000427 0.000022 -0.000548 0.000922 0.025565 -0.001892
# 6 0.000278 0.001352 -0.006393 0.005777 -0.001892 0.026408
#
#
# Mechanical properties :
#
#
# Convention : Reuss Voigt Hill
#
# Bulk Modulus (GPa) = 28.13270 43.70313 35.91791
# Shear Modulus (GPa) = 33.45678 39.50095 36.47887
#
# Velocity S-wave (km/s) = 3.82678 4.15810 3.99587
# Velocity P-wave (km/s) = 5.64265 6.49478 6.08365
#
# Compressibility (1/GPa) = 0.03554583
#
# Stress axis : x y z
#
# Youngs Moduli (GPa) = 125.32923 71.85613 51.96599
#
# Poissons Ratio (x) = 0.10399 0.09209
# Poissons Ratio (y) = 0.18138 -0.02197
# Poissons Ratio (z) = 0.22210 -0.03038
#
# Static dielectric constant tensor:
#      x y z
#    x 1.867910 -0.011890 -0.020760 
#    y -0.011890 1.837100 -0.044080 
#    z -0.020760 -0.044080 1.849630 
# 
# From -- ./inp_files/394688.got.cif
#   From: 2010.05.17/outbox.cif.g08.bks.cpg/sg2_198_cif.got.tgz:394688.got - 2010.06.03 11:33:40.
