data_PCOD9110197
_publ_section_title
;
Structure prediction by ZEFSAII (Michael W. Deem and Ramdas Pophale) SiO2 
 PCOD9110197
Probable space group: P -1
;
_chemical_formula_sum "Si O2"
_cell_formula_units_Z 16
_cell_length_a 11.758997
_cell_length_b 8.378728
_cell_length_c 16.856390
_cell_angle_alpha 126.057602
_cell_angle_beta 49.996564
_cell_angle_gamma 86.823824
_cell_volume 733.981509
_symmetry_space_group_name_H-M "P -1"
_symmetry_group_IT_number 2
_symmetry_cell_setting 'triclinic'
loop_
_space_group_symop_operation_xyz
x,y,z
-x,-y,-z
loop_
_atom_site_type_symbol
_atom_site_label
_atom_site_fract_x
_atom_site_fract_y
_atom_site_fract_z
Si Si1 0.514405 0.272231 0.468896
Si Si2 0.164273 0.520264 0.435343
Si Si3 0.426706 0.291800 0.104659
Si Si4 0.766294 0.552276 0.931008
Si Si5 0.576859 0.100219 0.220071
Si Si6 0.207591 0.694548 0.840969
Si Si7 0.199078 0.933519 0.570369
Si Si8 0.594985 0.527262 0.158805
O O1 0.500000 0.500000 0.500000
O O2 0.555098 0.097799 0.323886
O O3 0.297683 0.453803 0.667260
O O4 0.692800 0.103422 0.406096
O O5 0.226557 0.503422 0.311919
O O6 0.362904 0.253354 0.316496
O O7 0.122227 0.776212 0.565122
O O8 0.000000 0.500000 0.500000
O O9 0.362786 0.386365 0.070956
O O10 0.584849 0.307067 0.072062
O O11 0.500000 0.000000 0.000000
O O12 0.643298 0.595205 0.076586
O O13 0.996791 0.251260 0.736861
O O14 0.757753 0.796726 0.014788
O O15 0.624267 0.282871 0.230440
O O16 0.222761 0.604749 0.897276
O O17 0.000000 0.000000 0.000000
O O18 0.379273 0.777397 0.375665
#
# Coordination Sequence:
#
# PCOD9110197 Si02
#       8
#     2   2   2   2   2   2   2   2
#     4   9  18  40  69  89 132 173 214 281 324 390
#     4  11  23  41  71  98 134 177 229 277 339 403
#     4  11  22  45  64  92 133 176 226 284 321 405
#     4  12  26  39  70  99 136 184 217 280 352 392
#     4  11  22  45  63 101 136 171 230 280 324 412
#     4  10  20  41  70  98 126 179 229 275 335 401
#     4  10  23  45  64 102 137 174 223 284 335 406
#     4  10  23  43  65  94 141 173 225 279 345 398
#
# _framework density 21.798914
#
# number of rings (size 3 to 8) (size 9 to 14) (size 15 to 20)
#    0.000    1.500    6.250    0.375    5.250    4.500 
#    4.500    1.250    0.000    0.000    0.000    0.000 
#    0.000    0.000    0.000    0.000    0.000    0.000 
#
# Total GULP energy -89311.209989 kJ/mol
# GULP energy per Si atom -5581.950624 kJ/mol
# Density = 2.174930 g / cm^3
# Si number density = 21.798914 Si / 1000 Ang^3
#
#
#
# Elastic Constant Matrix: (Units=GPa)
#
#
# Indices 1 2 3 4 5 6 
#
# 1 64.5285 26.6447 47.5812 -6.3389 4.0269 -31.3385
# 2 26.6447 85.4613 33.0736 -8.2969 7.0427 -37.4067
# 3 47.5812 33.0736 92.6614 23.3078 11.9385 -27.8606
# 4 -6.3389 -8.2969 23.3078 46.0453 -3.8675 6.8648
# 5 4.0269 7.0427 11.9385 -3.8675 36.1589 -5.9130
# 6 -31.3385 -37.4067 -27.8606 6.8648 -5.9130 47.5900
#
#
#
# Elastic Compliance Matrix: (Units=1/GPa)
#
#
# Indices 1 2 3 4 5 6 
#
# 1 0.036770 0.003238 -0.020352 0.014420 0.005740 0.013478
# 2 0.003238 0.019127 -0.005872 0.004959 0.000522 0.013079
# 3 -0.020352 -0.005872 0.029765 -0.019810 -0.008335 0.001230
# 4 0.014420 0.004959 -0.019810 0.035605 0.007381 -0.002423
# 5 0.005740 0.000522 -0.008335 0.007381 0.030795 0.002072
# 6 0.013478 0.013079 0.001230 -0.002423 0.002072 0.041495
#
#
# Mechanical properties :
#
#
# Convention : Reuss Voigt Hill
#
# Bulk Modulus (GPa) = 25.19430 50.80560 37.99995
# Shear Modulus (GPa) = 19.78167 34.98228 27.38197
#
# Velocity S-wave (km/s) = 3.01568 4.01031 3.54802
# Velocity P-wave (km/s) = 4.86913 6.69332 5.85273
#
# Compressibility (1/GPa) = 0.03969151
#
# Stress axis : x y z
#
# Youngs Moduli (GPa) = 27.19582 52.28218 33.59646
#
# Poissons Ratio (x) = -0.16930 0.68374
# Poissons Ratio (y) = -0.08806 0.19728
# Poissons Ratio (z) = 0.55348 0.30700
#
# Static dielectric constant tensor:
#      x y z
#    x 1.882960 0.006500 -0.039440 
#    y 0.006500 1.823440 0.014650 
#    z -0.039440 0.014650 1.919720 
# 
# From -- ./inp_files/516075.got.cif
#   From: 2010.05.17/outbox.cif.g08.bks.cpg/sg2_259_cif.got.tgz:516075.got - 2010.06.03 11:33:40.
