data_PCOD9110012
_publ_section_title
;
Structure prediction by ZEFSAII (Michael W. Deem and Ramdas Pophale) SiO2 
 PCOD9110012
Probable space group: P -1
;
_chemical_formula_sum "Si O2"
_cell_formula_units_Z 10
_cell_length_a 4.978958
_cell_length_b 9.988773
_cell_length_c 12.560764
_cell_angle_alpha 70.112426
_cell_angle_beta 119.646979
_cell_angle_gamma 138.438872
_cell_volume 359.693243
_symmetry_space_group_name_H-M "P -1"
_symmetry_group_IT_number 2
_symmetry_cell_setting 'triclinic'
loop_
_space_group_symop_operation_xyz
x,y,z
-x,-y,-z
loop_
_atom_site_type_symbol
_atom_site_label
_atom_site_fract_x
_atom_site_fract_y
_atom_site_fract_z
Si Si1 0.434923 0.816558 0.572198
Si Si2 0.405121 0.803052 0.016637
Si Si3 0.614215 0.967673 0.800599
Si Si4 0.893228 0.361043 0.780733
Si Si5 0.549554 0.480749 0.362287
O O1 0.537982 0.866712 0.702526
O O2 0.672541 0.746784 0.599188
O O3 0.948372 0.625193 0.484942
O O4 0.500000 0.000000 0.500000
O O5 0.054715 0.640564 0.080162
O O6 0.334940 0.787617 0.881070
O O7 0.867355 0.876784 0.109646
O O8 0.500000 0.000000 0.000000
O O9 0.562417 0.121665 0.751518
O O10 0.682836 0.444541 0.697210
O O11 0.272125 0.470956 0.737728
#
# Coordination Sequence:
#
# PCOD9110012 Si02
#       5
#     2   2   2   2   2
#     4  11  23  46  67 100 133 177 221 269 330 396
#     4   9  19  37  71  96 133 171 220 273 329 382
#     4  10  20  41  69 100 128 182 220 265 331 395
#     4  11  20  45  66  95 137 172 214 276 328 381
#     4  11  26  43  67 101 136 172 216 277 325 390
#
# _framework density 27.801469000000001
#
# number of rings (size 3 to 8) (size 9 to 14) (size 15 to 20)
#    0.000    1.600    4.000    0.000    0.000    4.000 
#   18.000    2.000    0.000    0.000    0.000    0.000 
#    0.000    0.000    0.000    0.000    0.000    0.000 
#
# Total GULP energy -55957.840703 kJ/mol
# GULP energy per Si atom -5595.784070 kJ/mol
# Density = 2.773819 g / cm^3
# Si number density = 27.801469 Si / 1000 Ang^3
#
#
#
# Elastic Constant Matrix: (Units=GPa)
#
#
# Indices 1 2 3 4 5 6 
#
# 1 136.1640 54.6414 26.0361 -12.8960 -3.1383 -31.8162
# 2 54.6414 233.1694 54.3524 -19.5803 19.7738 -50.6883
# 3 26.0361 54.3524 132.7043 -10.1376 -27.9971 -12.7477
# 4 -12.8960 -19.5803 -10.1376 47.4225 -3.7927 4.0873
# 5 -3.1383 19.7738 -27.9971 -3.7927 43.8517 -11.1934
# 6 -31.8162 -50.6883 -12.7477 4.0873 -11.1934 58.3045
#
#
#
# Elastic Compliance Matrix: (Units=1/GPa)
#
#
# Indices 1 2 3 4 5 6 
#
# 1 0.009063 -0.001197 -0.000292 0.001727 0.002210 0.004144
# 2 -0.001197 0.006379 -0.002741 0.001123 -0.003722 0.003500
# 3 -0.000292 -0.002741 0.010784 0.001665 0.008588 0.001348
# 4 0.001727 0.001123 0.001665 0.022503 0.002951 0.001272
# 5 0.002210 -0.003722 0.008588 0.002951 0.031848 0.005755
# 6 0.004144 0.003500 0.001348 0.001272 0.005755 0.023766
#
#
# Mechanical properties :
#
#
# Convention : Reuss Voigt Hill
#
# Bulk Modulus (GPa) = 56.28608 85.78862 71.03735
# Shear Modulus (GPa) = 42.11442 54.38292 48.24867
#
# Velocity S-wave (km/s) = 3.89630 4.42760 4.17042
# Velocity P-wave (km/s) = 6.36641 7.55399 6.98548
#
# Compressibility (1/GPa) = 0.01776638
#
# Stress axis : x y z
#
# Youngs Moduli (GPa) = 110.33676 156.76515 92.73094
#
# Poissons Ratio (x) = 0.18771 0.02703
# Poissons Ratio (y) = 0.13211 0.25417
# Poissons Ratio (z) = 0.03217 0.42968
#
# Static dielectric constant tensor:
#      x y z
#    x 2.320300 0.077260 -0.032170 
#    y 0.077260 2.173480 -0.057070 
#    z -0.032170 -0.057070 2.223010 
# 
# From -- ./inp_files/36497.got.cif
#   From: 2010.05.17/outbox.cif.g08.bks.cpg/sg2_19_cif.got.tgz:36497.got - 2010.06.03 11:33:40.
