data_PCOD9110608
_publ_section_title
;
Structure prediction by ZEFSAII (Michael W. Deem and Ramdas Pophale) SiO2 
 PCOD9110608
Probable space group: P -1
;
_chemical_formula_sum "Si O2"
_cell_formula_units_Z 16
_cell_length_a 9.335280
_cell_length_b 12.105491
_cell_length_c 10.518273
_cell_angle_alpha 113.442620
_cell_angle_beta 87.372019
_cell_angle_gamma 139.622777
_cell_volume 636.885202
_symmetry_space_group_name_H-M "P -1"
_symmetry_group_IT_number 2
_symmetry_cell_setting 'triclinic'
loop_
_space_group_symop_operation_xyz
x,y,z
-x,-y,-z
loop_
_atom_site_type_symbol
_atom_site_label
_atom_site_fract_x
_atom_site_fract_y
_atom_site_fract_z
Si Si1 0.782178 0.833487 0.165719
Si Si2 0.350425 0.511886 0.878755
Si Si3 0.100932 0.440714 0.111746
Si Si4 0.122035 0.731946 0.321985
Si Si5 0.327243 0.467021 0.352523
Si Si6 0.801322 0.114025 0.343471
Si Si7 0.636658 0.775760 0.695336
Si Si8 0.393843 0.982079 0.173093
O O1 0.687722 0.655302 0.167022
O O2 0.739544 0.931801 0.279851
O O3 0.634601 0.736344 0.994040
O O4 0.069956 0.012422 0.215869
O O5 0.161727 0.420615 0.735976
O O6 0.228126 0.499898 0.999239
O O7 0.133553 0.599923 0.225475
O O8 0.232896 0.448684 0.213862
O O9 0.814485 0.213282 0.999734
O O10 0.229147 0.835129 0.501667
O O11 0.260908 0.895672 0.277768
O O12 0.532669 0.684851 0.515414
O O13 0.415721 0.388776 0.311742
O O14 0.082680 0.308918 0.376738
O O15 0.625547 0.054382 0.218681
O O16 0.537462 0.834397 0.779304
#
# Coordination Sequence:
#
# PCOD9110608 Si02
#       8
#     2   2   2   2   2   2   2   2
#     4  10  20  42  64  93 128 159 210 263 318 371
#     4  10  21  41  64  99 125 160 206 268 326 371
#     4  11  22  41  66  93 131 169 205 263 313 381
#     4  11  22  39  66  99 130 162 204 265 332 365
#     4  10  25  44  61  91 128 178 214 250 311 367
#     4  11  24  41  64  95 129 170 210 261 303 385
#     4  10  21  45  62  89 130 166 218 253 307 379
#     4  11  22  41  67  96 124 165 212 265 323 369
#
# _framework density 25.122267999999998
#
# number of rings (size 3 to 8) (size 9 to 14) (size 15 to 20)
#    0.000    1.500    2.500    4.125    0.000    4.500 
#   13.500    0.000    0.000    0.000    0.000    0.000 
#    0.000    0.000    0.000    0.000    0.000    0.000 
#
# Total GULP energy -89680.735365 kJ/mol
# GULP energy per Si atom -5605.045960 kJ/mol
# Density = 2.506509 g / cm^3
# Si number density = 25.122268 Si / 1000 Ang^3
#
#
#
# Elastic Constant Matrix: (Units=GPa)
#
#
# Indices 1 2 3 4 5 6 
#
# 1 164.3613 20.6738 41.5456 13.6515 -6.3048 -12.4000
# 2 20.6738 58.8212 11.8198 10.5900 -6.0826 5.4929
# 3 41.5456 11.8198 126.6111 13.2634 3.9031 1.4024
# 4 13.6515 10.5900 13.2634 36.0438 -9.0871 0.0634
# 5 -6.3048 -6.0826 3.9031 -9.0871 53.4925 16.0854
# 6 -12.4000 5.4929 1.4024 0.0634 16.0854 40.9471
#
#
#
# Elastic Compliance Matrix: (Units=1/GPa)
#
#
# Indices 1 2 3 4 5 6 
#
# 1 0.007171 -0.002134 -0.002025 -0.001420 -0.000285 0.002641
# 2 -0.002134 0.019264 -0.000720 -0.003926 0.002593 -0.004218
# 3 -0.002025 -0.000720 0.008952 -0.002652 -0.001336 -0.000295
# 4 -0.001420 -0.003926 -0.002652 0.031828 0.005607 -0.002065
# 5 -0.000285 0.002593 -0.001336 0.005607 0.022821 -0.009362
# 6 0.002641 -0.004218 -0.000295 -0.002065 -0.009362 0.029478
#
#
# Mechanical properties :
#
#
# Convention : Reuss Voigt Hill
#
# Bulk Modulus (GPa) = 39.01928 55.31910 47.16919
# Shear Modulus (GPa) = 36.28009 44.48032 40.38021
#
# Velocity S-wave (km/s) = 3.80431 4.21236 4.01352
# Velocity P-wave (km/s) = 5.90445 6.76213 6.34779
#
# Compressibility (1/GPa) = 0.02562836
#
# Stress axis : x y z
#
# Youngs Moduli (GPa) = 139.45392 51.90976 111.70316
#
# Poissons Ratio (x) = 0.11076 0.22625
# Poissons Ratio (y) = 0.29756 0.08045
# Poissons Ratio (z) = 0.28246 0.03739
#
# Static dielectric constant tensor:
#      x y z
#    x 1.973980 0.043080 -0.000300 
#    y 0.043080 2.046600 -0.047350 
#    z -0.000300 -0.047350 1.958010 
# 
# From -- ./inp_files/392848.got.cif
#   From: 2010.05.17/outbox.cif.g08.bks.cpg/sg2_197_cif.got.tgz:392848.got - 2010.06.03 11:33:40.
