data_PCOD9110489
_publ_section_title
;
Structure prediction by ZEFSAII (Michael W. Deem and Ramdas Pophale) SiO2 
 PCOD9110489
Probable space group: P -1
;
_chemical_formula_sum "Si O2"
_cell_formula_units_Z 14
_cell_length_a 11.215137
_cell_length_b 6.436793
_cell_length_c 13.810045
_cell_angle_alpha 93.896226
_cell_angle_beta 44.963960
_cell_angle_gamma 114.025034
_cell_volume 604.891280
_symmetry_space_group_name_H-M "P -1"
_symmetry_group_IT_number 2
_symmetry_cell_setting 'triclinic'
loop_
_space_group_symop_operation_xyz
x,y,z
-x,-y,-z
loop_
_atom_site_type_symbol
_atom_site_label
_atom_site_fract_x
_atom_site_fract_y
_atom_site_fract_z
Si Si1 0.557539 0.914810 0.605401
Si Si2 0.835799 0.463668 0.416261
Si Si3 0.750253 0.688944 0.041185
Si Si4 0.172687 0.899348 0.867775
Si Si5 0.132437 0.294746 0.233576
Si Si6 0.220351 0.204723 0.663924
Si Si7 0.684993 0.691603 0.667313
O O1 0.589725 0.750462 0.504658
O O2 0.679994 0.916099 0.628967
O O3 0.661936 0.185069 0.512077
O O4 0.335957 0.828799 0.756505
O O5 0.827493 0.588423 0.325770
O O6 0.797793 0.603254 0.528877
O O7 0.035791 0.460241 0.310355
O O8 0.798603 0.963170 0.043033
O O9 0.544382 0.511920 0.203093
O O10 0.732208 0.623164 0.936515
O O11 0.947429 0.700461 0.968905
O O12 0.223674 0.113468 0.766065
O O13 0.227563 0.270864 0.275513
O O14 0.954408 0.034533 0.294827
#
# Coordination Sequence:
#
# PCOD9110489 Si02
#       7
#     2   2   2   2   2   2   2
#     4  10  21  38  62  95 119 155 200 245 301 352
#     4  10  21  40  63  93 118 157 199 243 307 343
#     4  10  22  42  61  86 121 162 198 248 294 351
#     4  10  20  42  63  83 126 156 201 247 292 357
#     4  10  22  41  62  90 123 154 200 247 294 357
#     4   9  21  39  63  93 117 157 198 248 297 350
#     4  11  22  40  63  91 121 156 200 245 298 357
#
# _framework density 23.144656000000001
#
# number of rings (size 3 to 8) (size 9 to 14) (size 15 to 20)
#    0.000    2.000    1.429    1.286    0.000    7.429 
#   15.429    0.714    0.000    0.000    0.000    0.000 
#    0.000    0.000    0.000    0.000    0.000    0.000 
#
# Total GULP energy -78285.461973 kJ/mol
# GULP energy per Si atom -5591.818712 kJ/mol
# Density = 2.309198 g / cm^3
# Si number density = 23.144656 Si / 1000 Ang^3
#
#
#
# Elastic Constant Matrix: (Units=GPa)
#
#
# Indices 1 2 3 4 5 6 
#
# 1 131.6825 38.0046 30.0722 13.2151 3.4878 -18.7355
# 2 38.0046 55.2041 10.6356 10.1777 1.0751 -17.3498
# 3 30.0722 10.6356 106.1700 21.7483 -2.6743 -8.0902
# 4 13.2151 10.1777 21.7483 25.3130 -1.1532 0.6642
# 5 3.4878 1.0751 -2.6743 -1.1532 29.9138 2.5493
# 6 -18.7355 -17.3498 -8.0902 0.6642 2.5493 35.4147
#
#
#
# Elastic Compliance Matrix: (Units=1/GPa)
#
#
# Indices 1 2 3 4 5 6 
#
# 1 0.010158 -0.005575 -0.001847 -0.001600 -0.001411 0.002352
# 2 -0.005575 0.026862 0.001661 -0.009669 -0.001467 0.010877
# 3 -0.001847 0.001661 0.012073 -0.010120 0.000611 0.002740
# 4 -0.001600 -0.009669 -0.010120 0.053273 0.002456 -0.009071
# 5 -0.001411 -0.001467 0.000611 0.002456 0.034122 -0.003828
# 6 0.002352 0.010877 0.002740 -0.009071 -0.003828 0.035881
#
#
# Mechanical properties :
#
#
# Convention : Reuss Voigt Hill
#
# Bulk Modulus (GPa) = 26.61714 50.05349 38.33532
# Shear Modulus (GPa) = 25.45613 32.41793 28.93703
#
# Velocity S-wave (km/s) = 3.32003 3.74661 3.53975
# Velocity P-wave (km/s) = 5.12075 6.35527 5.77111
#
# Compressibility (1/GPa) = 0.03756977
#
# Stress axis : x y z
#
# Youngs Moduli (GPa) = 98.44934 37.22662 82.82990
#
# Poissons Ratio (x) = 0.20755 0.15299
# Poissons Ratio (y) = 0.54888 -0.13756
# Poissons Ratio (z) = 0.18184 -0.06182
#
# Static dielectric constant tensor:
#      x y z
#    x 1.860270 -0.010750 0.022260 
#    y -0.010750 1.876750 -0.013430 
#    z 0.022260 -0.013430 1.951730 
# 
# From -- ./inp_files/26803.got.cif
#   From: 2010.05.17/outbox.cif.g08.bks.cpg/sg2_14_cif.got.tgz:26803.got - 2010.06.03 11:33:40.
