data_PCOD9110488
_publ_section_title
;
Structure prediction by ZEFSAII (Michael W. Deem and Ramdas Pophale) SiO2 
 PCOD9110488
Probable space group: P -1
;
_chemical_formula_sum "Si O2"
_cell_formula_units_Z 16
_cell_length_a 9.286697
_cell_length_b 13.618120
_cell_length_c 5.263437
_cell_angle_alpha 81.333839
_cell_angle_beta 61.608295
_cell_angle_gamma 90.567254
_cell_volume 576.350345
_symmetry_space_group_name_H-M "P -1"
_symmetry_group_IT_number 2
_symmetry_cell_setting 'triclinic'
loop_
_space_group_symop_operation_xyz
x,y,z
-x,-y,-z
loop_
_atom_site_type_symbol
_atom_site_label
_atom_site_fract_x
_atom_site_fract_y
_atom_site_fract_z
Si Si1 0.254679 0.066746 0.211277
Si Si2 0.209297 0.873506 0.620201
Si Si3 0.126084 0.375605 0.867294
Si Si4 0.892386 0.854460 0.188695
Si Si5 0.267740 0.683144 0.380809
Si Si6 0.543351 0.174922 0.198469
Si Si7 0.523631 0.630681 0.582692
Si Si8 0.187130 0.527947 0.137026
O O1 0.224025 0.097453 0.938305
O O2 0.438840 0.105603 0.120526
O O3 0.213974 0.951121 0.356989
O O4 0.148194 0.121362 0.495172
O O5 0.181258 0.757407 0.606886
O O6 0.383539 0.883043 0.611256
O O7 0.072298 0.897247 0.926062
O O8 0.304768 0.415079 0.577180
O O9 0.158433 0.412945 0.117989
O O10 0.115113 0.261465 0.837306
O O11 0.958057 0.419438 0.904649
O O12 0.437498 0.658389 0.379669
O O13 0.307668 0.757450 0.083751
O O14 0.177432 0.580447 0.398200
O O15 0.440565 0.262912 0.351473
O O16 0.374116 0.566149 0.876523
#
# Coordination Sequence:
#
# PCOD9110488 Si02
#       8
#     2   2   2   2   2   2   2   2
#     4  12  27  46  71 105 141 186 242 287 356 426
#     4  11  26  43  70  99 140 188 231 298 353 421
#     4  11  22  45  70  98 141 183 238 295 358 423
#     4  12  27  47  70 105 142 185 237 298 352 426
#     4  10  22  41  69  98 142 181 236 291 356 422
#     4  10  22  41  68  98 141 183 235 288 352 421
#     4  10  20  42  63 101 140 182 229 294 353 423
#     4  10  24  43  67 104 134 185 238 289 360 430
#
# _framework density 27.760892999999999
#
# number of rings (size 3 to 8) (size 9 to 14) (size 15 to 20)
#    0.000    1.250    1.250    4.500    7.000    1.000 
#    2.250    1.875    0.000    0.000    0.000    0.000 
#    0.000    0.000    0.000    0.000    0.000    0.000 
#
# Total GULP energy -89596.127823 kJ/mol
# GULP energy per Si atom -5599.757989 kJ/mol
# Density = 2.769771 g / cm^3
# Si number density = 27.760893 Si / 1000 Ang^3
#
#
#
# Elastic Constant Matrix: (Units=GPa)
#
#
# Indices 1 2 3 4 5 6 
#
# 1 64.2383 30.4408 22.4986 18.5544 -2.1062 10.2919
# 2 30.4408 154.5775 12.1433 23.5259 12.3129 12.7759
# 3 22.4986 12.1433 85.7297 12.0595 -21.0163 1.1270
# 4 18.5544 23.5259 12.0595 47.1180 0.4425 9.3071
# 5 -2.1062 12.3129 -21.0163 0.4425 51.1698 7.3971
# 6 10.2919 12.7759 1.1270 9.3071 7.3971 37.1090
#
#
#
# Elastic Compliance Matrix: (Units=1/GPa)
#
#
# Indices 1 2 3 4 5 6 
#
# 1 0.020248 -0.002658 -0.004123 -0.004921 0.000314 -0.003404
# 2 -0.002658 0.007638 -0.000524 -0.002444 -0.002017 -0.000862
# 3 -0.004123 -0.000524 0.014540 -0.001929 0.005918 0.000186
# 4 -0.004921 -0.002444 -0.001929 0.025700 -0.000025 -0.004176
# 5 0.000314 -0.002017 0.005918 -0.000025 0.023074 -0.004166
# 6 -0.003404 -0.000862 0.000186 -0.004176 -0.004166 0.030060
#
#
# Mechanical properties :
#
#
# Convention : Reuss Voigt Hill
#
# Bulk Modulus (GPa) = 35.95043 48.30122 42.12583
# Shear Modulus (GPa) = 34.44897 43.04354 38.74626
#
# Velocity S-wave (km/s) = 3.52649 3.94192 3.73998
# Velocity P-wave (km/s) = 5.43688 6.17698 5.81871
#
# Compressibility (1/GPa) = 0.02781608
#
# Stress axis : x y z
#
# Youngs Moduli (GPa) = 49.38786 130.93153 68.77358
#
# Poissons Ratio (x) = 0.34804 0.28357
# Poissons Ratio (y) = 0.13128 0.03600
# Poissons Ratio (z) = 0.20364 0.06855
#
# Static dielectric constant tensor:
#      x y z
#    x 2.117610 0.017180 -0.028150 
#    y 0.017180 2.114830 0.006550 
#    z -0.028150 0.006550 2.245990 
# 
# From -- ./inp_files/38498.got.cif
#   From: 2010.05.17/outbox.cif.g08.bks.cpg/sg2_20_cif.got.tgz:38498.got - 2010.06.03 11:33:40.
