data_PCOD9110709
_publ_section_title
;
Structure prediction by ZEFSAII (Michael W. Deem and Ramdas Pophale) SiO2 
 PCOD9110709
Probable space group: P -1
;
_chemical_formula_sum "Si O2"
_cell_formula_units_Z 16
_cell_length_a 23.174840
_cell_length_b 11.177019
_cell_length_c 17.594359
_cell_angle_alpha 138.372467
_cell_angle_beta 159.990046
_cell_angle_gamma 31.473308
_cell_volume 776.231587
_symmetry_space_group_name_H-M "P -1"
_symmetry_group_IT_number 2
_symmetry_cell_setting 'triclinic'
loop_
_space_group_symop_operation_xyz
x,y,z
-x,-y,-z
loop_
_atom_site_type_symbol
_atom_site_label
_atom_site_fract_x
_atom_site_fract_y
_atom_site_fract_z
Si Si1 0.132806 0.480683 0.582216
Si Si2 0.329088 0.517899 0.516585
Si Si3 0.529577 0.049665 0.934245
Si Si4 0.250092 0.987534 0.656217
Si Si5 0.186173 0.930016 0.109110
Si Si6 0.722425 0.422294 0.697707
Si Si7 0.052816 0.260948 0.239955
Si Si8 0.886088 0.638900 0.083007
O O1 0.134250 0.328372 0.443572
O O2 0.000000 0.500000 0.500000
O O3 0.004568 0.756115 0.536138
O O4 0.377170 0.319786 0.844135
O O5 0.564177 0.254687 0.704825
O O6 0.320068 0.553957 0.432293
O O7 0.117799 0.549539 0.295817
O O8 0.290840 0.748814 0.605686
O O9 0.375231 0.981274 0.732332
O O10 0.645262 0.000000 0.133480
O O11 0.711562 0.902641 0.024313
O O12 0.202756 0.031002 0.257630
O O13 0.125413 0.762924 0.965702
O O14 0.963097 0.162893 0.899252
O O15 0.500000 0.500000 0.500000
O O16 0.757021 0.605219 0.848389
O O17 0.937153 0.480703 0.144271
#
# Coordination Sequence:
#
# PCOD9110709 Si02
#       8
#     2   2   2   2   2   2   2   2
#     4  10  22  36  67  95 123 161 218 286 313 367
#     4  12  26  42  64  95 141 174 209 262 327 404
#     4  10  21  39  65  94 119 170 220 273 317 373
#     4  10  22  41  64  92 127 166 224 270 316 378
#     4  10  24  40  68  98 125 172 216 274 322 381
#     4  11  24  43  70  99 127 166 223 272 317 381
#     4  10  20  42  65  95 126 162 223 267 326 373
#     4  11  24  43  63  97 137 175 208 261 335 394
#
# _framework density 20.612406
#
# number of rings (size 3 to 8) (size 9 to 14) (size 15 to 20)
#    0.000    1.500    1.250    4.125   10.500    2.500 
#    2.250    0.625    0.000    0.000    0.000    0.000 
#    0.000    0.000    0.000    0.000    0.000    0.000 
#
# Total GULP energy -89092.191938 kJ/mol
# GULP energy per Si atom -5568.261996 kJ/mol
# Density = 2.056549 g / cm^3
# Si number density = 20.612406 Si / 1000 Ang^3
#
#
#
# Elastic Constant Matrix: (Units=GPa)
#
#
# Indices 1 2 3 4 5 6 
#
# 1 -21.0298 4.3325 -22.0352 -29.7407 -8.0973 -3.6851
# 2 4.3325 64.8158 19.0887 -37.6570 14.6551 -11.4649
# 3 -22.0352 19.0887 45.3266 -47.8098 -9.2732 -16.1926
# 4 -29.7407 -37.6570 -47.8098 30.3133 -6.0849 0.7245
# 5 -8.0973 14.6551 -9.2732 -6.0849 81.2591 17.8763
# 6 -3.6851 -11.4649 -16.1926 0.7245 17.8763 29.5086
#
#
#
# Elastic Compliance Matrix: (Units=1/GPa)
#
#
# Indices 1 2 3 4 5 6 
#
# 1 0.024987 -0.020418 -0.023247 -0.035999 0.005185 -0.019826
# 2 -0.020418 0.033178 0.000527 0.019607 -0.010064 0.016245
# 3 -0.023247 0.000527 0.016739 0.003691 -0.001883 0.007538
# 4 -0.035999 0.019607 0.003691 0.026321 -0.006601 0.008500
# 5 0.005185 -0.010064 -0.001883 -0.006601 0.017120 -0.014505
# 6 -0.019826 0.016245 0.007538 0.008500 -0.014505 0.050439
#
#
# Mechanical properties :
#
#
# Convention : Reuss Voigt Hill
#
# Bulk Modulus (GPa) = -87.95736 10.20940 -38.87398
# Shear Modulus (GPa) = 19.89898 34.06462 26.98180
#
# Velocity S-wave (km/s) = 3.11044 4.06966 3.62195
# Velocity P-wave (km/s) = 5.46488 5.20064 1.18706
#
# Compressibility (1/GPa) = -0.01136914
#
# Stress axis : x y z
#
# Youngs Moduli (GPa) = 40.02011 30.14012 59.73917
#
# Poissons Ratio (x) = 0.61540 1.38873
# Poissons Ratio (y) = 0.81713 -0.03151
# Poissons Ratio (z) = 0.93033 -0.01590
#
# Static dielectric constant tensor:
#      x y z
#    x 1.666530 0.049250 0.187150 
#    y 0.049250 1.730860 -0.220600 
#    z 0.187150 -0.220600 1.656360 
# 
# From -- ./inp_files/505375.got.cif
#   From: 2010.05.17/outbox.cif.g08.bks.cpg/sg2_253_cif.got.tgz:505375.got - 2010.06.03 11:33:40.
