data_PCOD9110723
_publ_section_title
;
Structure prediction by ZEFSAII (Michael W. Deem and Ramdas Pophale) SiO2 
 PCOD9110723
Probable space group: P -1
;
_chemical_formula_sum "Si O2"
_cell_formula_units_Z 16
_cell_length_a 13.283319
_cell_length_b 15.815258
_cell_length_c 7.041124
_cell_angle_alpha 101.443664
_cell_angle_beta 82.604530
_cell_angle_gamma 35.064538
_cell_volume 712.950175
_symmetry_space_group_name_H-M "P -1"
_symmetry_group_IT_number 2
_symmetry_cell_setting 'triclinic'
loop_
_space_group_symop_operation_xyz
x,y,z
-x,-y,-z
loop_
_atom_site_type_symbol
_atom_site_label
_atom_site_fract_x
_atom_site_fract_y
_atom_site_fract_z
Si Si1 0.661432 0.174517 0.381869
Si Si2 0.638235 0.097959 0.968422
Si Si3 0.874964 0.753605 0.674960
Si Si4 0.756380 0.700496 0.945501
Si Si5 0.057669 0.055264 0.465007
Si Si6 0.068704 0.324905 0.790992
Si Si7 0.257908 0.692744 0.637690
Si Si8 0.788389 0.444107 0.221927
O O1 0.599783 0.164467 0.212642
O O2 0.765294 0.187152 0.286249
O O3 0.453186 0.355486 0.624106
O O4 0.820150 0.007194 0.404456
O O5 0.431013 0.225868 0.970510
O O6 0.760560 0.918410 0.869419
O O7 0.778409 0.058353 0.794609
O O8 0.765949 0.747488 0.770405
O O9 0.867522 0.769240 0.458293
O O10 0.101077 0.590392 0.640338
O O11 0.958007 0.493674 0.819938
O O12 0.760145 0.766944 0.145479
O O13 0.854707 0.247759 0.508335
O O14 0.000000 0.000000 0.500000
O O15 0.906743 0.390954 0.985655
O O16 0.500000 0.500000 0.500000
O O17 0.179364 0.682299 0.807090
#
# Coordination Sequence:
#
# PCOD9110723 Si02
#       8
#     2   2   2   2   2   2   2   2
#     4  10  23  40  69  92 137 174 217 270 321 389
#     4  12  24  41  63  99 133 177 211 267 334 386
#     4  11  23  40  63  96 134 169 222 269 327 387
#     4  10  23  41  64  94 130 167 229 263 332 386
#     4  10  22  41  62  96 130 169 220 261 320 389
#     4  10  22  41  67  94 128 173 215 282 321 388
#     4   9  19  41  67  96 131 169 218 269 321 384
#     4  10  20  42  65  98 128 173 224 267 325 385
#
# _framework density 22.441960999999999
#
# number of rings (size 3 to 8) (size 9 to 14) (size 15 to 20)
#    0.000    1.750    1.250    2.250    0.000    7.500 
#    2.250    0.000    0.000    7.500    0.000    0.000 
#    0.000    0.000    0.000    0.000    0.000    0.000 
#
# Total GULP energy -89331.351165 kJ/mol
# GULP energy per Si atom -5583.209448 kJ/mol
# Density = 2.239088 g / cm^3
# Si number density = 22.441961 Si / 1000 Ang^3
#
#
#
# Elastic Constant Matrix: (Units=GPa)
#
#
# Indices 1 2 3 4 5 6 
#
# 1 66.6789 26.4331 35.9331 -11.3245 -4.1022 -4.1658
# 2 26.4331 92.2640 34.7639 -16.8235 -0.8816 -9.5981
# 3 35.9331 34.7639 89.7081 -20.5014 -9.1948 6.0348
# 4 -11.3245 -16.8235 -20.5014 21.1338 10.8172 -6.9021
# 5 -4.1022 -0.8816 -9.1948 10.8172 14.0044 -1.4942
# 6 -4.1658 -9.5981 6.0348 -6.9021 -1.4942 43.4129
#
#
#
# Elastic Compliance Matrix: (Units=1/GPa)
#
#
# Indices 1 2 3 4 5 6 
#
# 1 0.020294 -0.002172 -0.006615 0.004651 -0.001801 0.003064
# 2 -0.002172 0.016716 -0.003283 0.019188 -0.015873 0.006448
# 3 -0.006615 -0.003283 0.017491 0.008938 0.002190 -0.002296
# 4 0.004651 0.019188 0.008938 0.123933 -0.085132 0.020219
# 5 -0.001801 -0.015873 0.002190 -0.085132 0.135704 -0.012851
# 6 0.003064 0.006448 -0.002296 0.020219 -0.012851 0.027846
#
#
# Mechanical properties :
#
#
# Convention : Reuss Voigt Hill
#
# Bulk Modulus (GPa) = 32.93827 49.21235 41.07531
# Shear Modulus (GPa) = 13.28928 25.81161 19.55044
#
# Velocity S-wave (km/s) = 2.43608 3.39506 2.95474
# Velocity P-wave (km/s) = 4.75622 6.11105 5.47570
#
# Compressibility (1/GPa) = 0.03035982
#
# Stress axis : x y z
#
# Youngs Moduli (GPa) = 49.27679 59.82432 57.17265
#
# Poissons Ratio (x) = 0.12994 0.37819
# Poissons Ratio (y) = 0.10703 0.18771
# Poissons Ratio (z) = 0.32596 0.19642
#
# Static dielectric constant tensor:
#      x y z
#    x 1.865890 -0.035560 0.006570 
#    y -0.035560 1.884060 -0.016280 
#    z 0.006570 -0.016280 1.815270 
# 
# From -- ./inp_files/99740.got.cif
#   From: 2010.05.17/outbox.cif.g08.bks.cpg/sg2_50_cif.got.tgz:99740.got - 2010.06.03 11:33:40.
