data_PCOD9110853
_publ_section_title
;
Structure prediction by ZEFSAII (Michael W. Deem and Ramdas Pophale) SiO2 
 PCOD9110853
Probable space group: P -1
;
_chemical_formula_sum "Si O2"
_cell_formula_units_Z 15
_cell_length_a 11.494906
_cell_length_b 9.281888
_cell_length_c 8.826077
_cell_angle_alpha 82.376355
_cell_angle_beta 132.820791
_cell_angle_gamma 108.102923
_cell_volume 652.346769
_symmetry_space_group_name_H-M "P -1"
_symmetry_group_IT_number 2
_symmetry_cell_setting 'triclinic'
loop_
_space_group_symop_operation_xyz
x,y,z
-x,-y,-z
loop_
_atom_site_type_symbol
_atom_site_label
_atom_site_fract_x
_atom_site_fract_y
_atom_site_fract_z
Si Si1 0.404719 0.408700 0.787363
Si Si2 0.024518 0.650437 0.102952
Si Si3 0.643703 0.299369 0.412436
Si Si4 0.038214 0.881393 0.821266
Si Si5 0.115988 0.228035 0.777670
Si Si6 0.333073 0.130233 0.606124
Si Si7 0.500000 0.000000 0.500000
Si Si8 0.218804 0.834842 0.705164
O O1 0.384133 0.537618 0.638628
O O2 0.243491 0.301829 0.748042
O O3 0.459743 0.289198 0.750041
O O4 0.500000 0.500000 0.000000
O O5 0.194984 0.681840 0.342523
O O6 0.885306 0.653978 0.104694
O O7 0.000000 0.500000 0.000000
O O8 0.041040 0.797937 0.992697
O O9 0.680652 0.264016 0.274859
O O10 0.507057 0.156145 0.382548
O O11 0.847198 0.851869 0.601239
O O12 0.141979 0.808806 0.806766
O O13 0.121310 0.064640 0.867951
O O14 0.938959 0.188176 0.542440
O O15 0.397651 0.054285 0.535063
O O16 0.315728 0.012276 0.745406
#
# Coordination Sequence:
#
# PCOD9110853 Si02
#       8
#     2   2   2   2   2   2   1   2
#     4  12  25  40  64  94 130 175 218 252 316 388
#     4  11  25  37  62 101 132 162 200 265 338 371
#     4  10  25  44  62  95 129 168 211 261 320 382
#     4  11  19  39  72  97 120 163 213 270 317 375
#     4  10  21  39  62  93 128 161 211 266 308 375
#     4  10  20  42  66  98 124 166 220 262 321 374
#     4  10  24  46  68  84 134 178 210 264 316 376
#     4   9  18  39  71  92 120 163 212 269 318 361
#
# _framework density 22.993905999999999
#
# number of rings (size 3 to 8) (size 9 to 14) (size 15 to 20)
#    0.000    1.600    2.667    2.800    1.867    4.800 
#    0.000    1.333    0.000    0.000    0.000    0.000 
#    0.000    0.000    0.000    0.000    0.000    0.000 
#
# Total GULP energy -83504.425794 kJ/mol
# GULP energy per Si atom -5566.961720 kJ/mol
# Density = 2.294157 g / cm^3
# Si number density = 22.993906 Si / 1000 Ang^3
#
#
#
# Elastic Constant Matrix: (Units=GPa)
#
#
# Indices 1 2 3 4 5 6 
#
# 1 78.5768 12.3084 -1.4173 -0.7649 -30.0333 1.6024
# 2 12.3084 116.1032 17.4481 3.4191 -1.9198 -4.4401
# 3 -1.4173 17.4481 61.5192 -1.7973 -8.1038 -0.5714
# 4 -0.7649 3.4191 -1.7973 25.0659 1.9577 -13.5797
# 5 -30.0333 -1.9198 -8.1038 1.9577 18.8993 -0.9752
# 6 1.6024 -4.4401 -0.5714 -13.5797 -0.9752 22.9081
#
#
#
# Elastic Compliance Matrix: (Units=1/GPa)
#
#
# Indices 1 2 3 4 5 6 
#
# 1 0.039182 -0.004675 0.010867 -0.004256 0.066733 -0.003058
# 2 -0.004675 0.009629 -0.003885 -0.000233 -0.008010 0.001617
# 3 0.010867 -0.003885 0.021035 0.000606 0.025855 0.000471
# 4 -0.004256 -0.000233 0.000606 0.059785 -0.010902 0.035244
# 5 0.066733 -0.008010 0.025855 -0.010902 0.170114 -0.004796
# 6 -0.003058 0.001617 0.000471 0.035244 -0.004796 0.064880
#
#
# Mechanical properties :
#
#
# Convention : Reuss Voigt Hill
#
# Bulk Modulus (GPa) = 13.43034 34.76416 24.09725
# Shear Modulus (GPa) = 12.99268 28.56531 20.77900
#
# Velocity S-wave (km/s) = 2.37965 3.52845 3.00938
# Velocity P-wave (km/s) = 3.66113 5.63486 4.75160
#
# Compressibility (1/GPa) = 0.07445826
#
# Stress axis : x y z
#
# Youngs Moduli (GPa) = 25.52191 103.85488 47.53900
#
# Poissons Ratio (x) = 0.48552 -0.51658
# Poissons Ratio (y) = 0.11931 0.18471
# Poissons Ratio (z) = -0.27733 0.40353
#
# Static dielectric constant tensor:
#      x y z
#    x 2.710840 0.417220 0.220630 
#    y 0.417220 2.183860 0.130300 
#    z 0.220630 0.130300 1.908000 
# 
# From -- ./inp_files/153900.got.cif
#   From: 2010.05.17/outbox.cif.g08.bks.cpg/sg2_77_cif.got.tgz:153900.got - 2010.06.03 11:33:40.
