data_PCOD9110265
_publ_section_title
;
Structure prediction by ZEFSAII (Michael W. Deem and Ramdas Pophale) SiO2 
 PCOD9110265
Probable space group: P -1
;
_chemical_formula_sum "Si O2"
_cell_formula_units_Z 16
_cell_length_a 11.968202
_cell_length_b 11.543181
_cell_length_c 12.571260
_cell_angle_alpha 58.163702
_cell_angle_beta 122.253303
_cell_angle_gamma 155.073417
_cell_volume 614.378136
_symmetry_space_group_name_H-M "P -1"
_symmetry_group_IT_number 2
_symmetry_cell_setting 'triclinic'
loop_
_space_group_symop_operation_xyz
x,y,z
-x,-y,-z
loop_
_atom_site_type_symbol
_atom_site_label
_atom_site_fract_x
_atom_site_fract_y
_atom_site_fract_z
Si Si1 0.249186 0.273808 0.062393
Si Si2 0.566027 0.334583 0.596323
Si Si3 0.801308 0.055060 0.696737
Si Si4 0.218285 0.582330 0.537681
Si Si5 0.091157 0.432355 0.871730
Si Si6 0.639075 0.809419 0.219166
Si Si7 0.411532 0.002475 0.056959
Si Si8 0.785504 0.762554 0.636546
O O1 0.266105 0.162162 0.206291
O O2 0.500000 0.500000 0.000000
O O3 0.179729 0.369365 0.001641
O O4 0.000000 0.000000 0.000000
O O5 0.714105 0.364992 0.578661
O O6 0.441495 0.175228 0.722850
O O7 0.754166 0.631305 0.582524
O O8 0.332997 0.199674 0.475797
O O9 0.509247 0.853427 0.612212
O O10 0.940479 0.252923 0.774128
O O11 0.045773 0.293641 0.622067
O O12 0.000000 0.500000 0.500000
O O13 0.358234 0.764122 0.851122
O O14 0.863858 0.300604 0.889630
O O15 0.413207 0.491856 0.259770
O O16 0.916270 0.984446 0.296282
O O17 0.653733 0.909848 0.072614
O O18 0.500000 0.000000 0.000000
#
# Coordination Sequence:
#
# PCOD9110265 Si02
#       8
#     2   2   2   2   2   2   2   2
#     4  10  20  41  71  99 131 168 226 285 350 411
#     4   9  23  40  68  92 138 164 219 286 332 401
#     4  11  25  47  70 102 137 187 233 280 355 402
#     4  12  27  44  66 101 141 189 242 273 336 421
#     4  11  24  46  69  98 139 173 222 297 340 410
#     4  10  21  40  62  96 129 163 218 273 349 389
#     4  12  26  43  66  99 135 180 234 272 338 421
#     4   9  20  39  67  95 129 164 218 275 356 390
#
# _framework density 26.042594999999999
#
# number of rings (size 3 to 8) (size 9 to 14) (size 15 to 20)
#    0.750    0.750    0.000    5.625    1.750    4.000 
#    4.500    0.000    0.000    0.000    0.000    0.000 
#    0.000    0.000    0.000    0.000    0.000    0.000 
#
# Total GULP energy -89480.815101 kJ/mol
# GULP energy per Si atom -5592.550944 kJ/mol
# Density = 2.598332 g / cm^3
# Si number density = 26.042595 Si / 1000 Ang^3
#
#
#
# Elastic Constant Matrix: (Units=GPa)
#
#
# Indices 1 2 3 4 5 6 
#
# 1 112.8997 43.3252 6.6496 25.7666 -2.6314 11.8559
# 2 43.3252 150.0916 42.8923 13.2812 -6.7209 30.9963
# 3 6.6496 42.8923 90.2262 8.6633 1.6822 7.3349
# 4 25.7666 13.2812 8.6633 45.6347 0.2176 -7.4618
# 5 -2.6314 -6.7209 1.6822 0.2176 29.2792 -1.4043
# 6 11.8559 30.9963 7.3349 -7.4618 -1.4043 45.0896
#
#
#
# Elastic Compliance Matrix: (Units=1/GPa)
#
#
# Indices 1 2 3 4 5 6 
#
# 1 0.011497 -0.002561 0.001181 -0.006380 0.000305 -0.002501
# 2 -0.002561 0.009953 -0.003956 -0.001647 0.002019 -0.005735
# 3 0.001181 -0.003956 0.013108 -0.002013 -0.001545 -0.000104
# 4 -0.006380 -0.001647 -0.002013 0.027638 -0.000672 0.007690
# 5 0.000305 0.002019 -0.001545 -0.000672 0.034727 -0.000246
# 6 -0.002501 -0.005735 -0.000104 0.007690 -0.000246 0.028060
#
#
# Mechanical properties :
#
#
# Convention : Reuss Voigt Hill
#
# Bulk Modulus (GPa) = 41.87002 59.88352 50.87677
# Shear Modulus (GPa) = 34.81509 41.35740 38.08624
#
# Velocity S-wave (km/s) = 3.66026 3.98938 3.82836
# Velocity P-wave (km/s) = 5.82888 6.65316 6.25461
#
# Compressibility (1/GPa) = 0.02388344
#
# Stress axis : x y z
#
# Youngs Moduli (GPa) = 86.98182 100.47346 76.29217
#
# Poissons Ratio (x) = 0.25734 -0.09007
# Poissons Ratio (y) = 0.22279 0.30181
# Poissons Ratio (z) = -0.10269 0.39748
#
# Static dielectric constant tensor:
#      x y z
#    x 2.107640 -0.054880 -0.023070 
#    y -0.054880 1.971310 -0.006550 
#    z -0.023070 -0.006550 2.156880 
# 
# From -- ./inp_files/533750.got.cif
#   From: 2010.05.17/outbox.cif.g08.bks.cpg/sg2_267_cif.got.tgz:533750.got - 2010.06.03 11:33:40.
