data_PCOD9110851
_publ_section_title
;
Structure prediction by ZEFSAII (Michael W. Deem and Ramdas Pophale) SiO2 
 PCOD9110851
Probable space group: P -1
;
_chemical_formula_sum "Si O2"
_cell_formula_units_Z 12
_cell_length_a 12.448960
_cell_length_b 9.262225
_cell_length_c 8.493402
_cell_angle_alpha 88.325458
_cell_angle_beta 33.620105
_cell_angle_gamma 109.438976
_cell_volume 414.058758
_symmetry_space_group_name_H-M "P -1"
_symmetry_group_IT_number 2
_symmetry_cell_setting 'triclinic'
loop_
_space_group_symop_operation_xyz
x,y,z
-x,-y,-z
loop_
_atom_site_type_symbol
_atom_site_label
_atom_site_fract_x
_atom_site_fract_y
_atom_site_fract_z
Si Si1 0.060655 0.878048 0.509162
Si Si2 0.310012 0.636330 0.485271
Si Si3 0.610486 0.798289 0.416268
Si Si4 0.547654 0.971278 0.740039
Si Si5 0.966671 0.764210 0.180288
Si Si6 0.182942 0.458511 0.330665
O O1 0.198657 0.982879 0.502167
O O2 0.828894 0.650386 0.806402
O O3 0.000000 0.000000 0.500000
O O4 0.303934 0.906884 0.138696
O O5 0.489470 0.681255 0.409560
O O6 0.327852 0.816625 0.467091
O O7 0.058585 0.418600 0.822485
O O8 0.373409 0.625020 0.221829
O O9 0.758204 0.746263 0.331642
O O10 0.440770 0.803488 0.751059
O O11 0.788302 0.019679 0.142089
O O12 0.900508 0.713870 0.446206
O O13 0.000000 0.500000 0.500000
#
# Coordination Sequence:
#
# PCOD9110851 Si02
#       6
#     2   2   2   2   2   2
#     4  11  23  45  68  96 136 187 237 288 352 414
#     4  10  22  40  66 103 137 179 232 285 343 424
#     4  11  21  43  65 105 143 178 235 282 353 419
#     4  11  24  41  69  99 138 186 234 290 347 424
#     4   9  22  39  70  99 142 188 219 290 349 407
#     4  10  20  42  66  97 136 180 232 281 346 406
#
# _framework density 28.981394999999999
#
# number of rings (size 3 to 8) (size 9 to 14) (size 15 to 20)
#    1.000    0.667    1.667    3.000    0.000    2.000 
#    3.000    2.500    0.000    0.000    0.000    0.000 
#    0.000    0.000    0.000    0.000    0.000    0.000 
#
# Total GULP energy -66909.633934 kJ/mol
# GULP energy per Si atom -5575.802828 kJ/mol
# Density = 2.891543 g / cm^3
# Si number density = 28.981395 Si / 1000 Ang^3
#
#
#
# Elastic Constant Matrix: (Units=GPa)
#
#
# Indices 1 2 3 4 5 6 
#
# 1 185.5953 51.3744 9.6600 -2.2083 -47.5099 14.6630
# 2 51.3744 219.1396 31.6928 -9.8772 -20.4704 27.4542
# 3 9.6600 31.6928 71.6842 -1.7682 3.0373 2.9523
# 4 -2.2083 -9.8772 -1.7682 50.1400 1.5688 2.9531
# 5 -47.5099 -20.4704 3.0373 1.5688 30.1512 -14.2265
# 6 14.6630 27.4542 2.9523 2.9531 -14.2265 69.6991
#
#
#
# Elastic Compliance Matrix: (Units=1/GPa)
#
#
# Indices 1 2 3 4 5 6 
#
# 1 0.009486 -0.000757 -0.001665 -0.000359 0.015336 0.001519
# 2 -0.000757 0.005502 -0.002327 0.000997 0.001997 -0.001544
# 3 -0.001665 -0.002327 0.015493 0.000243 -0.006079 -0.000640
# 4 -0.000359 0.000997 0.000243 0.020276 -0.001691 -0.001532
# 5 0.015336 0.001997 -0.006079 -0.001691 0.063793 0.009337
# 6 0.001519 -0.001544 -0.000640 -0.001532 0.009337 0.016634
#
#
# Mechanical properties :
#
#
# Convention : Reuss Voigt Hill
#
# Bulk Modulus (GPa) = 47.65629 73.54150 60.59890
# Shear Modulus (GPa) = 33.85764 55.57753 44.71759
#
# Velocity S-wave (km/s) = 3.42168 4.38390 3.93233
# Velocity P-wave (km/s) = 5.66480 7.14530 6.44769
#
# Compressibility (1/GPa) = 0.02098359
#
# Stress axis : x y z
#
# Youngs Moduli (GPa) = 105.42057 181.74488 64.54455
#
# Poissons Ratio (x) = 0.13757 0.10746
# Poissons Ratio (y) = 0.07979 0.15020
# Poissons Ratio (z) = 0.17551 0.42293
#
# Static dielectric constant tensor:
#      x y z
#    x 2.483840 0.267070 0.127390 
#    y 0.267070 2.304880 0.067810 
#    z 0.127390 0.067810 2.473720 
# 
# From -- ./inp_files/243819.got.cif
#   From: 2010.05.17/outbox.cif.g08.bks.cpg/sg2_122_cif.got.tgz:243819.got - 2010.06.03 11:33:40.
