data_PCOD9110603
_publ_section_title
;
Structure prediction by ZEFSAII (Michael W. Deem and Ramdas Pophale) SiO2 
 PCOD9110603
Probable space group: P -1
;
_chemical_formula_sum "Si O2"
_cell_formula_units_Z 13
_cell_length_a 7.760762
_cell_length_b 11.891166
_cell_length_c 8.200884
_cell_angle_alpha 135.394816
_cell_angle_beta 67.713662
_cell_angle_gamma 102.017406
_cell_volume 489.520536
_symmetry_space_group_name_H-M "P -1"
_symmetry_group_IT_number 2
_symmetry_cell_setting 'triclinic'
loop_
_space_group_symop_operation_xyz
x,y,z
-x,-y,-z
loop_
_atom_site_type_symbol
_atom_site_label
_atom_site_fract_x
_atom_site_fract_y
_atom_site_fract_z
Si Si1 0.596192 0.949347 0.115787
Si Si2 0.859317 0.364716 0.100525
Si Si3 0.500000 0.000000 0.500000
Si Si4 0.501129 0.277288 0.311617
Si Si5 0.933479 0.320867 0.647668
Si Si6 0.534239 0.348598 0.718418
Si Si7 0.955533 0.974552 0.181499
O O1 0.409141 0.959960 0.298246
O O2 0.725648 0.977303 0.259460
O O3 0.599791 0.100963 0.153614
O O4 0.638554 0.783353 0.835867
O O5 0.658876 0.365958 0.260066
O O6 0.951683 0.528585 0.278516
O O7 0.861994 0.349933 0.888408
O O8 0.970938 0.199110 0.957469
O O9 0.526483 0.804664 0.327915
O O10 0.436376 0.354159 0.584160
O O11 0.758321 0.328080 0.593663
O O12 0.015174 0.133541 0.412164
O O13 0.500000 0.500000 0.000000
O O14 0.000000 0.000000 0.000000
#
# Coordination Sequence:
#
# PCOD9110603 Si02
#       7
#     2   2   1   2   2   2   2
#     4  10  21  40  69 101 133 176 228 281 341 402
#     4  11  25  46  72  99 141 181 227 287 344 405
#     4  10  20  42  64  92 138 172 218 282 330 404
#     4  10  21  44  68 101 139 176 227 291 335 409
#     4  11  25  47  66 103 141 179 232 285 336 414
#     4  11  24  43  69  99 137 181 229 279 347 404
#     4  12  23  45  72 101 133 187 226 278 349 409
#
# _framework density 26.556598000000001
#
# number of rings (size 3 to 8) (size 9 to 14) (size 15 to 20)
#    0.000    1.231    4.615    1.385    2.154    2.462 
#    5.538    1.538    0.000    0.000    0.000    0.000 
#    0.000    0.000    0.000    0.000    0.000    0.000 
#
# Total GULP energy -72589.160904 kJ/mol
# GULP energy per Si atom -5583.781608 kJ/mol
# Density = 2.649615 g / cm^3
# Si number density = 26.556598 Si / 1000 Ang^3
#
#
#
# Elastic Constant Matrix: (Units=GPa)
#
#
# Indices 1 2 3 4 5 6 
#
# 1 54.4577 31.6087 20.2699 20.8630 3.9501 -1.2245
# 2 31.6087 217.4084 87.1452 27.0618 16.0419 12.8019
# 3 20.2699 87.1452 225.5291 25.4418 33.7277 5.7345
# 4 20.8630 27.0618 25.4418 55.9582 -0.7154 -1.6076
# 5 3.9501 16.0419 33.7277 -0.7154 42.3000 7.4035
# 6 -1.2245 12.8019 5.7345 -1.6076 7.4035 43.1278
#
#
#
# Elastic Compliance Matrix: (Units=1/GPa)
#
#
# Indices 1 2 3 4 5 6 
#
# 1 0.022670 -0.002306 -0.000140 -0.007254 -0.001487 0.001331
# 2 -0.002306 0.005951 -0.001871 -0.001217 -0.000294 -0.001578
# 3 -0.000140 -0.001871 0.005983 -0.001805 -0.004149 0.000401
# 4 -0.007254 -0.001217 -0.001805 0.022041 0.002823 0.000732
# 5 -0.001487 -0.000294 -0.004149 0.002823 0.027964 -0.004098
# 6 0.001331 -0.001578 0.000401 0.000732 -0.004098 0.024371
#
#
# Mechanical properties :
#
#
# Convention : Reuss Voigt Hill
#
# Bulk Modulus (GPa) = 38.50322 86.16033 62.33177
# Shear Modulus (GPa) = 39.59759 52.16865 45.88312
#
# Velocity S-wave (km/s) = 3.86562 4.43700 4.16113
# Velocity P-wave (km/s) = 5.86976 7.66575 6.82707
#
# Compressibility (1/GPa) = 0.02597186
#
# Stress axis : x y z
#
# Youngs Moduli (GPa) = 44.11095 168.04389 167.12974
#
# Poissons Ratio (x) = 0.38745 0.02335
# Poissons Ratio (y) = 0.10171 0.31267
# Poissons Ratio (z) = 0.00616 0.31438
#
# Static dielectric constant tensor:
#      x y z
#    x 2.493090 0.240570 -0.183920 
#    y 0.240570 2.283650 -0.176120 
#    z -0.183920 -0.176120 2.301960 
# 
# From -- ./inp_files/183511.got.cif
#   From: 2010.05.17/outbox.cif.g08.bks.cpg/sg2_92_cif.got.tgz:183511.got - 2010.06.03 11:33:40.
