data_PCOD9110510
_publ_section_title
;
Structure prediction by ZEFSAII (Michael W. Deem and Ramdas Pophale) SiO2 
 PCOD9110510
Probable space group: P -1
;
_chemical_formula_sum "Si O2"
_cell_formula_units_Z 15
_cell_length_a 11.386370
_cell_length_b 14.179929
_cell_length_c 8.154218
_cell_angle_alpha 138.058662
_cell_angle_beta 79.808832
_cell_angle_gamma 115.309763
_cell_volume 773.500571
_symmetry_space_group_name_H-M "P -1"
_symmetry_group_IT_number 2
_symmetry_cell_setting 'triclinic'
loop_
_space_group_symop_operation_xyz
x,y,z
-x,-y,-z
loop_
_atom_site_type_symbol
_atom_site_label
_atom_site_fract_x
_atom_site_fract_y
_atom_site_fract_z
Si Si1 0.825650 0.558126 0.072795
Si Si2 0.925823 0.034804 0.809321
Si Si3 0.387416 0.424243 0.069432
Si Si4 0.500000 0.500000 0.500000
Si Si5 0.782630 0.713886 0.604672
Si Si6 0.796251 0.931456 0.354134
Si Si7 0.876830 0.269670 0.676477
Si Si8 0.009343 0.659867 0.629717
O O1 0.770318 0.621115 0.317328
O O2 0.984742 0.675528 0.183153
O O3 0.742515 0.555910 0.931346
O O4 0.814793 0.386500 0.890158
O O5 0.077332 0.071613 0.774691
O O6 0.869319 0.897676 0.782345
O O7 0.839622 0.963875 0.575447
O O8 0.918842 0.190429 0.075757
O O9 0.448413 0.502016 0.326566
O O10 0.500000 0.500000 0.000000
O O11 0.332273 0.234687 0.846167
O O12 0.637772 0.663736 0.643975
O O13 0.865010 0.652443 0.621450
O O14 0.787259 0.085820 0.489956
O O15 0.921741 0.305613 0.522081
O O16 0.000000 0.500000 0.500000
#
# Coordination Sequence:
#
# PCOD9110510 Si02
#       8
#     2   2   2   1   2   2   2   2
#     4  10  20  42  63  90 136 160 208 268 327 383
#     4  11  21  38  62  96 130 159 213 276 322 383
#     4  12  24  44  65  93 129 174 223 269 313 386
#     4  12  26  38  72  90 126 178 224 260 320 378
#     4  11  22  42  62  97 127 170 220 266 317 392
#     4  11  21  38  66  92 122 171 212 266 335 376
#     4  10  23  37  64  98 128 169 204 262 341 396
#     4  11  25  36  59  97 138 164 203 274 331 382
#
# _framework density 19.392357000000001
#
# number of rings (size 3 to 8) (size 9 to 14) (size 15 to 20)
#    0.000    1.067    5.333    2.000   11.200    0.000 
#    0.000    0.667    0.000    1.600    0.000    0.000 
#    0.000    0.000    0.000    0.000    0.000    0.000 
#
# Total GULP energy -83567.634523 kJ/mol
# GULP energy per Si atom -5571.175635 kJ/mol
# Density = 1.934822 g / cm^3
# Si number density = 19.392357 Si / 1000 Ang^3
#
#
#
# Elastic Constant Matrix: (Units=GPa)
#
#
# Indices 1 2 3 4 5 6 
#
# 1 46.0710 46.5069 39.3588 9.2252 9.8224 -19.1553
# 2 46.5069 119.0821 44.3104 24.6860 10.2635 -10.7497
# 3 39.3588 44.3104 92.6686 10.3917 -1.3189 -12.0460
# 4 9.2252 24.6860 10.3917 47.0058 -13.4173 5.4789
# 5 9.8224 10.2635 -1.3189 -13.4173 32.1333 0.5547
# 6 -19.1553 -10.7497 -12.0460 5.4789 0.5547 30.6912
#
#
#
# Elastic Compliance Matrix: (Units=1/GPa)
#
#
# Indices 1 2 3 4 5 6 
#
# 1 0.078701 -0.013828 -0.020212 -0.016336 -0.027978 0.039766
# 2 -0.013828 0.015492 -0.001279 -0.005723 -0.003118 -0.002628
# 3 -0.020212 -0.001279 0.018841 0.003820 0.009068 -0.006514
# 4 -0.016336 -0.005723 0.003820 0.034897 0.021849 -0.017325
# 5 -0.027978 -0.003118 0.009068 0.021849 0.050506 -0.019808
# 6 0.039766 -0.002628 -0.006514 -0.017325 -0.019808 0.057375
#
#
# Mechanical properties :
#
#
# Convention : Reuss Voigt Hill
#
# Bulk Modulus (GPa) = 23.58648 57.57489 40.58069
# Shear Modulus (GPa) = 14.68081 30.47576 22.57829
#
# Velocity S-wave (km/s) = 2.75442 3.96856 3.41587
# Velocity P-wave (km/s) = 4.72281 7.12413 6.04393
#
# Compressibility (1/GPa) = 0.04239717
#
# Stress axis : x y z
#
# Youngs Moduli (GPa) = 12.70627 64.55097 53.07603
#
# Poissons Ratio (x) = 0.89261 1.07275
# Poissons Ratio (y) = 0.17570 0.06787
# Poissons Ratio (z) = 0.25681 0.08254
#
# Static dielectric constant tensor:
#      x y z
#    x 1.671060 -0.002800 -0.004600 
#    y -0.002800 1.707440 -0.025950 
#    z -0.004600 -0.025950 1.698440 
# 
# From -- ./inp_files/271217.got.cif
#   From: 2010.05.17/outbox.cif.g08.bks.cpg/sg2_136_cif.got.tgz:271217.got - 2010.06.03 11:33:40.
