data_PCOD9110595
_publ_section_title
;
Structure prediction by ZEFSAII (Michael W. Deem and Ramdas Pophale) SiO2 
 PCOD9110595
Probable space group: P -1
;
_chemical_formula_sum "Si O2"
_cell_formula_units_Z 16
_cell_length_a 7.951926
_cell_length_b 21.866100
_cell_length_c 12.171937
_cell_angle_alpha 31.749409
_cell_angle_beta 95.494868
_cell_angle_gamma 120.739366
_cell_volume 633.888580
_symmetry_space_group_name_H-M "P -1"
_symmetry_group_IT_number 2
_symmetry_cell_setting 'triclinic'
loop_
_space_group_symop_operation_xyz
x,y,z
-x,-y,-z
loop_
_atom_site_type_symbol
_atom_site_label
_atom_site_fract_x
_atom_site_fract_y
_atom_site_fract_z
Si Si1 0.110125 0.020572 0.154957
Si Si2 0.159289 0.664332 0.509459
Si Si3 0.013145 0.835047 0.207654
Si Si4 0.533112 0.773623 0.816251
Si Si5 0.102143 0.844125 0.605993
Si Si6 0.686635 0.605105 0.135555
Si Si7 0.687565 0.257087 0.358504
Si Si8 0.249731 0.561431 0.474103
O O1 0.979147 0.868767 0.474568
O O2 0.955203 0.049702 0.059228
O O3 0.443862 0.247404 0.861930
O O4 0.123320 0.946590 0.160601
O O5 0.146507 0.784305 0.270817
O O6 0.338328 0.773431 0.466855
O O7 0.290593 0.641515 0.474007
O O8 0.814214 0.438096 0.854345
O O9 0.659957 0.619146 0.534278
O O10 0.538323 0.800059 0.645285
O O11 0.666632 0.959253 0.602322
O O12 0.701731 0.752866 0.898097
O O13 0.261786 0.836366 0.556720
O O14 0.847782 0.652641 0.962292
O O15 0.821025 0.613007 0.237202
O O16 0.000000 0.500000 0.000000
O O17 0.000000 0.500000 0.500000
#
# Coordination Sequence:
#
# PCOD9110595 Si02
#       8
#     2   2   2   2   2   2   2   2
#     4  10  22  40  63  97 129 166 215 265 319 374
#     4  10  20  42  64  92 128 176 214 258 321 386
#     4   9  20  43  62  91 133 168 212 265 315 381
#     4  10  22  39  63  95 134 166 213 269 318 379
#     4  12  22  40  66  97 129 167 218 266 318 379
#     4  10  23  42  65  92 129 170 217 258 324 383
#     4  10  21  39  60  93 129 170 209 260 324 376
#     4  11  24  43  67  95 130 171 213 262 326 386
#
# _framework density 25.241029999999999
#
# number of rings (size 3 to 8) (size 9 to 14) (size 15 to 20)
#    0.000    1.750    1.250    3.000    0.000    3.000 
#    6.750    3.750    0.000    0.000    0.000    0.000 
#    0.000    0.000    0.000    0.000    0.000    0.000 
#
# Total GULP energy -89588.621782 kJ/mol
# GULP energy per Si atom -5599.288861 kJ/mol
# Density = 2.518358 g / cm^3
# Si number density = 25.241030 Si / 1000 Ang^3
#
#
#
# Elastic Constant Matrix: (Units=GPa)
#
#
# Indices 1 2 3 4 5 6 
#
# 1 102.6958 30.7510 32.0830 0.1440 18.9993 9.6315
# 2 30.7510 116.8002 28.3416 6.4100 21.9149 10.8610
# 3 32.0830 28.3416 104.2201 21.0516 20.7526 22.3186
# 4 0.1440 6.4100 21.0516 33.6655 5.0432 7.8541
# 5 18.9993 21.9149 20.7526 5.0432 44.3805 3.1760
# 6 9.6315 10.8610 22.3186 7.8541 3.1760 34.2537
#
#
#
# Elastic Compliance Matrix: (Units=1/GPa)
#
#
# Indices 1 2 3 4 5 6 
#
# 1 0.011871 -0.001905 -0.002833 0.002833 -0.003049 -0.001255
# 2 -0.001905 0.010152 -0.001055 -0.000364 -0.003550 -0.001583
# 3 -0.002833 -0.001055 0.014164 -0.006637 -0.003689 -0.006234
# 4 0.002833 -0.000364 -0.006637 0.035149 -0.001618 -0.004266
# 5 -0.003049 -0.003550 -0.003689 -0.001618 0.027340 0.002223
# 6 -0.001255 -0.001583 -0.006234 -0.004266 0.002223 0.034883
#
#
# Mechanical properties :
#
#
# Convention : Reuss Voigt Hill
#
# Bulk Modulus (GPa) = 40.64616 56.22972 48.43794
# Shear Modulus (GPa) = 32.60621 37.96264 35.28442
#
# Velocity S-wave (km/s) = 3.59805 3.88236 3.74291
# Velocity P-wave (km/s) = 5.77923 6.51325 6.15719
#
# Compressibility (1/GPa) = 0.02460257
#
# Stress axis : x y z
#
# Youngs Moduli (GPa) = 84.24232 98.49952 70.60024
#
# Poissons Ratio (x) = 0.18761 0.19998
# Poissons Ratio (y) = 0.16045 0.07449
# Poissons Ratio (z) = 0.23862 0.10392
#
# Static dielectric constant tensor:
#      x y z
#    x 2.002340 0.009120 -0.018640 
#    y 0.009120 1.990060 0.017590 
#    z -0.018640 0.017590 2.012410 
# 
# From -- ./inp_files/406545.got.cif
#   From: 2010.05.17/outbox.cif.g08.bks.cpg/sg2_204_cif.got.tgz:406545.got - 2010.06.03 11:33:40.
