data_PCOD9110671
_publ_section_title
;
Structure prediction by ZEFSAII (Michael W. Deem and Ramdas Pophale) SiO2 
 PCOD9110671
Probable space group: P -1
;
_chemical_formula_sum "Si O2"
_cell_formula_units_Z 16
_cell_length_a 9.603951
_cell_length_b 18.668517
_cell_length_c 8.057657
_cell_angle_alpha 91.615497
_cell_angle_beta 90.886208
_cell_angle_gamma 28.468308
_cell_volume 688.229086
_symmetry_space_group_name_H-M "P -1"
_symmetry_group_IT_number 2
_symmetry_cell_setting 'triclinic'
loop_
_space_group_symop_operation_xyz
x,y,z
-x,-y,-z
loop_
_atom_site_type_symbol
_atom_site_label
_atom_site_fract_x
_atom_site_fract_y
_atom_site_fract_z
Si Si1 0.178991 0.453586 0.651856
Si Si2 0.160188 0.643086 0.976490
Si Si3 0.142579 0.894725 0.340504
Si Si4 0.790077 0.416523 0.518907
Si Si5 0.187113 0.147004 0.328673
Si Si6 0.991421 0.597380 0.169158
Si Si7 0.678593 0.055485 0.828311
Si Si8 0.208300 0.073093 0.825604
O O1 0.519450 0.278184 0.633746
O O2 0.173169 0.540741 0.623033
O O3 0.030833 0.477650 0.804660
O O4 0.000000 0.500000 0.500000
O O5 0.093349 0.589680 0.002796
O O6 0.980227 0.772477 0.114736
O O7 0.500000 0.500000 0.000000
O O8 0.050559 0.723890 0.806412
O O9 0.145423 0.951049 0.194067
O O10 0.972990 0.900679 0.284396
O O11 0.000000 0.000000 0.500000
O O12 0.500000 0.500000 0.500000
O O13 0.064655 0.238460 0.497265
O O14 0.809072 0.454575 0.689567
O O15 0.216112 0.048916 0.314565
O O16 0.492823 0.040656 0.266016
O O17 0.658648 0.773978 0.197066
O O18 0.712943 0.002149 0.003353
#
# Coordination Sequence:
#
# PCOD9110671 Si02
#       8
#     2   2   2   2   2   2   2   2
#     4   9  23  44  60  86 135 168 210 261 333 378
#     4  11  22  41  67  98 130 173 223 270 323 384
#     4  11  26  40  69  96 131 169 218 273 323 395
#     4  11  25  39  64  98 131 170 220 274 325 385
#     4  11  23  40  69  92 131 172 216 269 325 389
#     4  10  20  42  65  88 131 172 214 268 321 393
#     4  10  21  44  63  94 128 173 211 266 329 380
#     4  11  23  43  66  96 133 167 222 268 322 398
#
# _framework density 23.248075
#
# number of rings (size 3 to 8) (size 9 to 14) (size 15 to 20)
#    0.000    1.500    2.500    1.875   10.500    0.500 
#    2.250    1.875    0.000    0.000    0.000    0.000 
#    0.000    0.000    0.000    0.000    0.000    0.000 
#
# Total GULP energy -89491.930100 kJ/mol
# GULP energy per Si atom -5593.245631 kJ/mol
# Density = 2.319516 g / cm^3
# Si number density = 23.248075 Si / 1000 Ang^3
#
#
#
# Elastic Constant Matrix: (Units=GPa)
#
#
# Indices 1 2 3 4 5 6 
#
# 1 157.3383 41.5833 23.5062 -10.8039 4.1205 1.3213
# 2 41.5833 73.1867 4.9134 -10.7619 4.1607 -16.8913
# 3 23.5062 4.9134 61.3215 -8.4721 1.3870 -0.7053
# 4 -10.8039 -10.7619 -8.4721 31.2615 5.6069 -0.9634
# 5 4.1205 4.1607 1.3870 5.6069 37.0877 -7.7932
# 6 1.3213 -16.8913 -0.7053 -0.9634 -7.7932 38.8375
#
#
#
# Elastic Compliance Matrix: (Units=1/GPa)
#
#
# Indices 1 2 3 4 5 6 
#
# 1 0.008135 -0.004933 -0.002669 0.000466 -0.000875 -0.002635
# 2 -0.004933 0.019226 0.001244 0.005642 -0.000712 0.008549
# 3 -0.002669 0.001244 0.017895 0.004565 -0.001021 0.000865
# 4 0.000466 0.005642 0.004565 0.036455 -0.005896 0.002242
# 5 -0.000875 -0.000712 -0.001021 -0.005896 0.029208 0.005416
# 6 -0.002635 0.008549 0.000865 0.002242 0.005416 0.030714
#
#
# Mechanical properties :
#
#
# Convention : Reuss Voigt Hill
#
# Bulk Modulus (GPa) = 30.73102 47.98359 39.35731
# Shear Modulus (GPa) = 30.26696 36.22692 33.24694
#
# Velocity S-wave (km/s) = 3.61212 3.95178 3.78576
# Velocity P-wave (km/s) = 5.53570 6.44257 6.00628
#
# Compressibility (1/GPa) = 0.03254041
#
# Stress axis : x y z
#
# Youngs Moduli (GPa) = 122.92120 52.01202 55.88210
#
# Poissons Ratio (x) = 0.25658 0.14917
# Poissons Ratio (y) = 0.60637 -0.06954
# Poissons Ratio (z) = 0.32813 -0.06472
#
# Static dielectric constant tensor:
#      x y z
#    x 1.926520 0.060210 -0.011380 
#    y 0.060210 1.826390 -0.009810 
#    z -0.011380 -0.009810 1.954340 
# 
# From -- ./inp_files/208674.got.cif
#   From: 2010.05.17/outbox.cif.g08.bks.cpg/sg2_105_cif.got.tgz:208674.got - 2010.06.03 11:33:40.
