data_PCOD9110630
_publ_section_title
;
Structure prediction by ZEFSAII (Michael W. Deem and Ramdas Pophale) SiO2 
 PCOD9110630
Probable space group: P -1
;
_chemical_formula_sum "Si O2"
_cell_formula_units_Z 16
_cell_length_a 15.938073
_cell_length_b 11.070589
_cell_length_c 5.592154
_cell_angle_alpha 78.618493
_cell_angle_beta 53.842118
_cell_angle_gamma 65.053048
_cell_volume 720.537168
_symmetry_space_group_name_H-M "P -1"
_symmetry_group_IT_number 2
_symmetry_cell_setting 'triclinic'
loop_
_space_group_symop_operation_xyz
x,y,z
-x,-y,-z
loop_
_atom_site_type_symbol
_atom_site_label
_atom_site_fract_x
_atom_site_fract_y
_atom_site_fract_z
Si Si1 0.954636 0.366498 0.852364
Si Si2 0.312288 0.822180 0.267408
Si Si3 0.469603 0.326339 0.721968
Si Si4 0.248723 0.030098 0.913642
Si Si5 0.113896 0.886984 0.946859
Si Si6 0.475553 0.949039 0.312232
Si Si7 0.595208 0.421560 0.063827
Si Si8 0.905144 0.664829 0.869478
O O1 0.881378 0.527248 0.944294
O O2 0.028879 0.343702 0.491107
O O3 0.900337 0.254862 0.951868
O O4 0.024457 0.339903 0.998976
O O5 0.432975 0.747520 0.218929
O O6 0.210071 0.859305 0.600191
O O7 0.306062 0.704622 0.154008
O O8 0.312816 0.945434 0.066964
O O9 0.438955 0.205522 0.750047
O O10 0.533646 0.366574 0.386071
O O11 0.374708 0.461091 0.920564
O O12 0.156219 0.963521 0.050453
O O13 0.340369 0.987740 0.560840
O O14 0.193079 0.187393 0.997974
O O15 0.000000 0.000000 0.000000
O O16 0.500000 0.000000 0.500000
O O17 0.500000 0.000000 0.000000
O O18 0.500000 0.500000 0.000000
#
# Coordination Sequence:
#
# PCOD9110630 Si02
#       8
#     2   2   2   2   2   2   2   2
#     4  10  23  44  68 101 140 186 228 295 344 428
#     4  11  21  39  66  99 142 179 227 295 355 416
#     4  10  20  42  64  97 131 178 228 292 351 412
#     4  12  25  43  71 100 142 184 239 300 351 427
#     4  12  24  39  69 107 139 179 241 288 360 415
#     4  12  27  45  69  98 139 186 237 290 356 426
#     4   9  19  36  69  92 128 178 220 279 366 403
#     4  10  23  45  70  96 143 185 231 281 362 414
#
# _framework density 22.205656000000001
#
# number of rings (size 3 to 8) (size 9 to 14) (size 15 to 20)
#    0.000    1.250    3.750    1.500    3.500    1.000 
#    2.250    1.250    0.000    0.000    0.000    0.000 
#    0.000    0.000    0.000    0.000    0.000    0.000 
#
# Total GULP energy -89099.086660 kJ/mol
# GULP energy per Si atom -5568.692916 kJ/mol
# Density = 2.215511 g / cm^3
# Si number density = 22.205656 Si / 1000 Ang^3
#
#
#
# Elastic Constant Matrix: (Units=GPa)
#
#
# Indices 1 2 3 4 5 6 
#
# 1 94.2953 35.9453 25.1569 -12.5197 8.0787 11.5122
# 2 35.9453 207.8519 47.6606 -1.1323 7.5070 20.3685
# 3 25.1569 47.6606 74.1705 -18.9008 12.7907 6.3958
# 4 -12.5197 -1.1323 -18.9008 42.7655 -1.2209 8.0307
# 5 8.0787 7.5070 12.7907 -1.2209 30.4049 -3.7113
# 6 11.5122 20.3685 6.3958 8.0307 -3.7113 39.1287
#
#
#
# Elastic Compliance Matrix: (Units=1/GPa)
#
#
# Indices 1 2 3 4 5 6 
#
# 1 0.012734 -0.001307 -0.001808 0.003522 -0.002616 -0.003742
# 2 -0.001307 0.006051 -0.003690 -0.001504 0.000120 -0.001842
# 3 -0.001808 -0.003690 0.020213 0.008725 -0.007167 -0.003322
# 4 0.003522 -0.001504 0.008725 0.029646 -0.004039 -0.008147
# 5 -0.002616 0.000120 -0.007167 -0.004039 0.037168 0.006233
# 6 -0.003742 -0.001842 -0.003322 -0.008147 0.006233 0.030423
#
#
# Mechanical properties :
#
#
# Convention : Reuss Voigt Hill
#
# Bulk Modulus (GPa) = 39.38964 65.98260 52.68612
# Shear Modulus (GPa) = 31.58403 40.29682 35.94042
#
# Velocity S-wave (km/s) = 3.77549 4.26456 4.02745
# Velocity P-wave (km/s) = 6.06488 7.35034 6.73833
#
# Compressibility (1/GPa) = 0.02538738
#
# Stress axis : x y z
#
# Youngs Moduli (GPa) = 78.52880 165.25196 49.47379
#
# Poissons Ratio (x) = 0.21605 0.08944
# Poissons Ratio (y) = 0.10267 0.18257
# Poissons Ratio (z) = 0.14196 0.60983
#
# Static dielectric constant tensor:
#      x y z
#    x 1.925660 0.042950 -0.063090 
#    y 0.042950 1.895740 -0.009850 
#    z -0.063090 -0.009850 1.749980 
# 
# From -- ./inp_files/108904.got.cif
#   From: 2010.05.17/outbox.cif.g08.bks.cpg/sg2_55_cif.got.tgz:108904.got - 2010.06.03 11:33:40.
