data_PCOD9110296
_publ_section_title
;
Structure prediction by ZEFSAII (Michael W. Deem and Ramdas Pophale) SiO2 
 PCOD9110296
Probable space group: P -1
;
_chemical_formula_sum "Si O2"
_cell_formula_units_Z 16
_cell_length_a 7.192924
_cell_length_b 16.093548
_cell_length_c 7.898459
_cell_angle_alpha 83.535170
_cell_angle_beta 128.247241
_cell_angle_gamma 114.766894
_cell_volume 638.058464
_symmetry_space_group_name_H-M "P -1"
_symmetry_group_IT_number 2
_symmetry_cell_setting 'triclinic'
loop_
_space_group_symop_operation_xyz
x,y,z
-x,-y,-z
loop_
_atom_site_type_symbol
_atom_site_label
_atom_site_fract_x
_atom_site_fract_y
_atom_site_fract_z
Si Si1 0.941738 0.428478 0.330554
Si Si2 0.585269 0.927278 0.148954
Si Si3 0.390278 0.257151 0.034511
Si Si4 0.858712 0.027639 0.628160
Si Si5 0.139482 0.446313 0.973558
Si Si6 0.687603 0.619196 0.266536
Si Si7 0.852215 0.243716 0.879872
Si Si8 0.547845 0.149975 0.407815
O O1 0.109317 0.372248 0.473340
O O2 0.000000 0.500000 0.500000
O O3 0.631282 0.360740 0.180413
O O4 0.008663 0.493714 0.188189
O O5 0.330963 0.832524 0.071327
O O6 0.826910 0.920462 0.191583
O O7 0.731804 0.973224 0.395893
O O8 0.500000 0.000000 0.000000
O O9 0.525272 0.197261 0.211358
O O10 0.332413 0.284464 0.804877
O O11 0.117119 0.231882 0.988358
O O12 0.744386 0.102420 0.549841
O O13 0.733587 0.941467 0.706694
O O14 0.203227 0.403857 0.843257
O O15 0.957073 0.348801 0.982007
O O16 0.421134 0.525401 0.175540
O O17 0.660756 0.224097 0.610003
#
# Coordination Sequence:
#
# PCOD9110296 Si02
#       8
#     2   2   2   2   2   2   2   2
#     4   9  14  23  38  59  99 135 153 190 239 278
#     4  10  20  37  55  70  96 128 160 200 244 288
#     4  10  17  25  42  71 101 128 159 194 240 286
#     4   9  21  37  52  72  95 127 164 197 242 294
#     4   8  14  23  37  63  97 127 159 191 233 283
#     4   8  14  23  36  60  98 132 157 189 235 282
#     4  10  19  29  48  76 100 127 162 199 240 288
#     4  10  19  33  51  72 100 126 159 203 240 285
#
# _framework density 25.076070000000001
#
# number of rings (size 3 to 8) (size 9 to 14) (size 15 to 20)
#    0.000    2.750    0.000    5.250    0.000    1.000 
#    0.000    3.750    0.000    0.000    0.000    3.500 
#    0.000   61.000    0.000    1.375    0.000    0.000 
#
# Total GULP energy -89299.011668 kJ/mol
# GULP energy per Si atom -5581.188229 kJ/mol
# Density = 2.501900 g / cm^3
# Si number density = 25.076070 Si / 1000 Ang^3
#
#
#
# Elastic Constant Matrix: (Units=GPa)
#
#
# Indices 1 2 3 4 5 6 
#
# 1 44.4128 31.5461 8.4805 6.4370 12.1356 17.4096
# 2 31.5461 189.3979 72.2114 -14.2922 15.0146 38.6446
# 3 8.4805 72.2114 120.5957 -21.5656 7.6941 26.0827
# 4 6.4370 -14.2922 -21.5656 48.7520 0.5230 8.8290
# 5 12.1356 15.0146 7.6941 0.5230 26.3751 13.0673
# 6 17.4096 38.6446 26.0827 8.8290 13.0673 42.8737
#
#
#
# Elastic Compliance Matrix: (Units=1/GPa)
#
#
# Indices 1 2 3 4 5 6 
#
# 1 0.030410 -0.003888 0.001575 -0.003203 -0.009005 -0.006398
# 2 -0.003888 0.008237 -0.003333 0.002236 0.000174 -0.004331
# 3 0.001575 -0.003333 0.012564 0.005566 0.000684 -0.006633
# 4 -0.003203 0.002236 0.005566 0.025905 0.003225 -0.010419
# 5 -0.009005 0.000174 0.000684 0.003225 0.047699 -0.012118
# 6 -0.006398 -0.004331 -0.006633 -0.010419 -0.012118 0.039701
#
#
# Mechanical properties :
#
#
# Convention : Reuss Voigt Hill
#
# Bulk Modulus (GPa) = 25.05117 64.32026 44.68572
# Shear Modulus (GPa) = 26.43907 39.74472 33.09190
#
# Velocity S-wave (km/s) = 3.25061 3.98548 3.63665
# Velocity P-wave (km/s) = 4.90921 6.84723 5.95755
#
# Compressibility (1/GPa) = 0.03991829
#
# Stress axis : x y z
#
# Youngs Moduli (GPa) = 32.88436 121.40197 79.59421
#
# Poissons Ratio (x) = 0.47201 -0.12537
# Poissons Ratio (y) = 0.12785 0.26531
# Poissons Ratio (z) = -0.05180 0.40466
#
# Static dielectric constant tensor:
#      x y z
#    x 2.292650 -0.165550 0.012840 
#    y -0.165550 2.127690 -0.053630 
#    z 0.012840 -0.053630 1.983430 
# 
# From -- ./inp_files/401179.got.cif
#   From: 2010.05.17/outbox.cif.g08.bks.cpg/sg2_201_cif.got.tgz:401179.got - 2010.06.03 11:33:40.
