data_PCOD9110645
_publ_section_title
;
Structure prediction by ZEFSAII (Michael W. Deem and Ramdas Pophale) SiO2 
 PCOD9110645
Probable space group: P -1
;
_chemical_formula_sum "Si O2"
_cell_formula_units_Z 14
_cell_length_a 11.046937
_cell_length_b 8.067401
_cell_length_c 11.569235
_cell_angle_alpha 118.122739
_cell_angle_beta 50.376301
_cell_angle_gamma 135.177039
_cell_volume 559.479184
_symmetry_space_group_name_H-M "P -1"
_symmetry_group_IT_number 2
_symmetry_cell_setting 'triclinic'
loop_
_space_group_symop_operation_xyz
x,y,z
-x,-y,-z
loop_
_atom_site_type_symbol
_atom_site_label
_atom_site_fract_x
_atom_site_fract_y
_atom_site_fract_z
Si Si1 0.842575 0.525150 0.330973
Si Si2 0.336606 0.807170 0.871528
Si Si3 0.740447 0.055669 0.807583
Si Si4 0.443727 0.729465 0.381186
Si Si5 0.739996 0.677975 0.817540
Si Si6 0.774376 0.887011 0.089397
Si Si7 0.106649 0.724942 0.596476
O O1 0.764263 0.430593 0.219083
O O2 0.661456 0.438911 0.499256
O O3 0.918573 0.384600 0.297025
O O4 0.032168 0.791808 0.316254
O O5 0.573622 0.965524 0.783782
O O6 0.268157 0.948652 0.897080
O O7 0.272297 0.786249 0.037104
O O8 0.683130 0.824377 0.832397
O O9 0.362433 0.569206 0.262727
O O10 0.669942 0.843544 0.261774
O O11 0.658029 0.135934 0.520999
O O12 0.974174 0.812236 0.698608
O O13 0.700916 0.673491 0.975293
O O14 0.000000 0.000000 0.000000
O O15 0.000000 0.500000 0.500000
#
# Coordination Sequence:
#
# PCOD9110645 Si02
#       7
#     2   2   2   2   2   2   2
#     4  10  21  42  69  94 132 177 214 272 324 396
#     4  10  23  43  64 100 131 181 219 267 327 399
#     4  10  23  41  68  97 135 179 220 257 339 393
#     4   9  22  40  64 100 128 166 218 269 339 376
#     4  10  20  42  64  99 127 169 217 272 319 394
#     4  11  23  41  65  99 129 168 224 278 325 383
#     4   8  18  37  66  97 125 167 210 268 334 374
#
# _framework density 25.023268999999999
#
# number of rings (size 3 to 8) (size 9 to 14) (size 15 to 20)
#    0.857    1.429    0.000    1.714    4.000    1.143 
#   18.000    0.714    0.000    0.000    0.000    0.000 
#    0.000    0.000    0.000    0.000    0.000    0.000 
#
# Total GULP energy -78105.799747 kJ/mol
# GULP energy per Si atom -5578.985696 kJ/mol
# Density = 2.496632 g / cm^3
# Si number density = 25.023269 Si / 1000 Ang^3
#
#
#
# Elastic Constant Matrix: (Units=GPa)
#
#
# Indices 1 2 3 4 5 6 
#
# 1 110.3741 22.6486 32.5820 -3.3333 -16.0610 27.7147
# 2 22.6486 36.4585 12.3261 -13.1872 -8.7843 16.1925
# 3 32.5820 12.3261 126.8473 -5.0699 -29.9476 7.5087
# 4 -3.3333 -13.1872 -5.0699 44.1009 14.0484 -0.5804
# 5 -16.0610 -8.7843 -29.9476 14.0484 38.6592 -3.6905
# 6 27.7147 16.1925 7.5087 -0.5804 -3.6905 40.6616
#
#
#
# Elastic Compliance Matrix: (Units=1/GPa)
#
#
# Indices 1 2 3 4 5 6 
#
# 1 0.012364 -0.004193 -0.001818 -0.001476 0.002720 -0.006196
# 2 -0.004193 0.040439 -0.001390 0.011089 0.001125 -0.012729
# 3 -0.001818 -0.001390 0.010149 -0.001764 0.007486 0.000573
# 4 -0.001476 0.011089 -0.001764 0.028914 -0.010311 -0.003607
# 5 0.002720 0.001125 0.007486 -0.010311 0.036751 -0.000496
# 6 -0.006196 -0.012729 0.000573 -0.003607 -0.000496 0.033683
#
#
# Mechanical properties :
#
#
# Convention : Reuss Voigt Hill
#
# Bulk Modulus (GPa) = 20.76910 45.42148 33.09529
# Shear Modulus (GPa) = 25.88625 38.42588 32.15607
#
# Velocity S-wave (km/s) = 3.21983 3.92293 3.58864
# Velocity P-wave (km/s) = 4.70543 6.22176 5.51595
#
# Compressibility (1/GPa) = 0.04814845
#
# Stress axis : x y z
#
# Youngs Moduli (GPa) = 80.87756 24.72888 98.53560
#
# Poissons Ratio (x) = 0.10368 0.17918
# Poissons Ratio (y) = 0.33910 0.13700
# Poissons Ratio (z) = 0.14707 0.03438
#
# Static dielectric constant tensor:
#      x y z
#    x 1.959550 0.128700 -0.016510 
#    y 0.128700 2.114770 -0.020680 
#    z -0.016510 -0.020680 2.045050 
# 
# From -- ./inp_files/419709.got.cif
#   From: 2010.05.17/outbox.cif.g08.bks.cpg/sg2_210_cif.got.tgz:419709.got - 2010.06.03 11:33:40.
