data_PCOD9110780
_publ_section_title
;
Structure prediction by ZEFSAII (Michael W. Deem and Ramdas Pophale) SiO2 
 PCOD9110780
Probable space group: P -1
;
_chemical_formula_sum "Si O2"
_cell_formula_units_Z 16
_cell_length_a 11.988838
_cell_length_b 8.325208
_cell_length_c 16.487325
_cell_angle_alpha 75.596773
_cell_angle_beta 66.936883
_cell_angle_gamma 31.952861
_cell_volume 789.365537
_symmetry_space_group_name_H-M "P -1"
_symmetry_group_IT_number 2
_symmetry_cell_setting 'triclinic'
loop_
_space_group_symop_operation_xyz
x,y,z
-x,-y,-z
loop_
_atom_site_type_symbol
_atom_site_label
_atom_site_fract_x
_atom_site_fract_y
_atom_site_fract_z
Si Si1 0.847998 0.902325 0.186539
Si Si2 0.979594 0.133841 0.567076
Si Si3 0.036060 0.576055 0.866512
Si Si4 0.753382 0.861191 0.508414
Si Si5 0.374290 0.055071 0.957661
Si Si6 0.491968 0.607671 0.904834
Si Si7 0.951898 0.029975 0.767228
Si Si8 0.503365 0.127313 0.375683
O O1 0.976215 0.585099 0.160125
O O2 0.745171 0.111372 0.110107
O O3 0.638939 0.062772 0.275253
O O4 0.957382 0.920308 0.209078
O O5 0.734379 0.506386 0.587342
O O6 0.193604 0.008710 0.514949
O O7 0.991396 0.030094 0.662948
O O8 0.000000 0.000000 0.500000
O O9 0.254051 0.310257 0.895038
O O10 0.045518 0.738604 0.796590
O O11 0.823872 0.820456 0.957434
O O12 0.576303 0.971091 0.602749
O O13 0.000000 0.500000 0.500000
O O14 0.662283 0.940577 0.433191
O O15 0.534640 0.747795 0.901651
O O16 0.500000 0.000000 0.000000
O O17 0.686637 0.323641 0.825818
O O18 0.500000 0.500000 0.000000
#
# Coordination Sequence:
#
# PCOD9110780 Si02
#       8
#     2   2   2   2   2   2   2   2
#     4  11  24  43  66  98 137 174 221 274 331 400
#     4  11  24  43  64  99 135 170 225 281 333 401
#     4  10  24  40  62  98 130 168 225 271 324 398
#     4   9  20  39  67  92 123 172 212 270 331 392
#     4  10  21  42  62  92 132 171 220 273 327 392
#     4  11  23  41  67  96 132 176 220 270 331 395
#     4  12  24  43  68  97 137 174 222 278 331 392
#     4  10  20  42  66  91 131 174 221 265 338 404
#
# _framework density 20.269444
#
# number of rings (size 3 to 8) (size 9 to 14) (size 15 to 20)
#    0.000    1.500    3.750    0.750    1.750    4.000 
#    2.250    0.000    0.000    0.000    0.000    0.000 
#    0.000    0.000    0.000    0.000    0.000    0.000 
#
# Total GULP energy -89190.224210 kJ/mol
# GULP energy per Si atom -5574.389013 kJ/mol
# Density = 2.022331 g / cm^3
# Si number density = 20.269444 Si / 1000 Ang^3
#
#
#
# Elastic Constant Matrix: (Units=GPa)
#
#
# Indices 1 2 3 4 5 6 
#
# 1 102.2915 51.2761 47.0103 -21.0392 6.0701 4.4382
# 2 51.2761 96.5248 43.1888 -27.3268 0.2704 14.1153
# 3 47.0103 43.1888 90.0001 -20.0192 2.1242 12.7418
# 4 -21.0392 -27.3268 -20.0192 39.6778 -1.9473 0.9423
# 5 6.0701 0.2704 2.1242 -1.9473 34.9480 -2.0840
# 6 4.4382 14.1153 12.7418 0.9423 -2.0840 24.6005
#
#
#
# Elastic Compliance Matrix: (Units=1/GPa)
#
#
# Indices 1 2 3 4 5 6 
#
# 1 0.015438 -0.005913 -0.005349 0.001239 -0.002053 0.003157
# 2 -0.005913 0.018264 -0.002676 0.008340 0.001020 -0.008260
# 3 -0.005349 -0.002676 0.017014 0.004047 -0.000246 -0.006488
# 4 0.001239 0.008340 0.004047 0.033886 0.000866 -0.008330
# 5 -0.002053 0.001020 -0.000246 0.000866 0.029166 0.002350
# 6 0.003157 -0.008260 -0.006488 -0.008330 0.002350 0.048698
#
#
# Mechanical properties :
#
#
# Convention : Reuss Voigt Hill
#
# Bulk Modulus (GPa) = 43.78139 63.52963 53.65551
# Shear Modulus (GPa) = 25.25828 29.66801 27.46314
#
# Velocity S-wave (km/s) = 3.53388 3.82996 3.68489
# Velocity P-wave (km/s) = 6.18851 7.13924 6.68081
#
# Compressibility (1/GPa) = 0.02284075
#
# Stress axis : x y z
#
# Youngs Moduli (GPa) = 64.77551 54.75155 58.77606
#
# Poissons Ratio (x) = 0.32372 0.31441
# Poissons Ratio (y) = 0.38299 0.15727
# Poissons Ratio (z) = 0.34650 0.14650
#
# Static dielectric constant tensor:
#      x y z
#    x 1.724910 0.012480 -0.036100 
#    y 0.012480 1.799090 -0.008960 
#    z -0.036100 -0.008960 1.694030 
# 
# From -- ./inp_files/134925.got.cif
#   From: 2010.05.17/outbox.cif.g08.bks.cpg/sg2_68_cif.got.tgz:134925.got - 2010.06.03 11:33:40.
