data_PCOD9110214
_publ_section_title
;
Structure prediction by ZEFSAII (Michael W. Deem and Ramdas Pophale) SiO2 
 PCOD9110214
Probable space group: P -1
;
_chemical_formula_sum "Si O2"
_cell_formula_units_Z 14
_cell_length_a 8.981467
_cell_length_b 20.325837
_cell_length_c 9.237732
_cell_angle_alpha 41.617436
_cell_angle_beta 101.111168
_cell_angle_gamma 133.075217
_cell_volume 618.061282
_symmetry_space_group_name_H-M "P -1"
_symmetry_group_IT_number 2
_symmetry_cell_setting 'triclinic'
loop_
_space_group_symop_operation_xyz
x,y,z
-x,-y,-z
loop_
_atom_site_type_symbol
_atom_site_label
_atom_site_fract_x
_atom_site_fract_y
_atom_site_fract_z
Si Si1 0.037848 0.622869 0.719155
Si Si2 0.671129 0.550966 0.314477
Si Si3 0.861976 0.330136 0.677674
Si Si4 0.128781 0.166794 0.818945
Si Si5 0.005662 0.024537 0.630166
Si Si6 0.742430 0.056213 0.713728
Si Si7 0.461391 0.392098 0.057302
O O1 0.132661 0.656774 0.516695
O O2 0.221280 0.806301 0.531269
O O3 0.000000 0.500000 0.000000
O O4 0.737565 0.506201 0.852087
O O5 0.500000 0.500000 0.500000
O O6 0.444423 0.350795 0.541794
O O7 0.940827 0.650406 0.262984
O O8 0.713020 0.652105 0.029424
O O9 0.000000 0.500000 0.500000
O O10 0.558531 0.140837 0.980929
O O11 0.941688 0.147762 0.739755
O O12 0.087591 0.119688 0.057109
O O13 0.000000 0.000000 0.000000
O O14 0.846548 0.036461 0.640668
O O15 0.315259 0.222446 0.386941
O O16 0.000000 0.000000 0.500000
O O17 0.500000 0.500000 0.000000
#
# Coordination Sequence:
#
# PCOD9110214 Si02
#       7
#     2   2   2   2   2   2   2
#     4  12  28  50  73 106 150 199 251 304 371 435
#     4  12  23  46  72 101 142 188 240 294 359 436
#     4  12  28  46  76 110 150 190 244 310 378 438
#     4  10  20  41  71 100 135 184 240 284 352 444
#     4  11  24  40  72 112 145 179 242 312 370 432
#     4  11  24  51  71 106 149 200 245 295 370 450
#     4  12  24  46  75 104 141 192 249 299 365 435
#
# _framework density 22.651475000000001
#
# number of rings (size 3 to 8) (size 9 to 14) (size 15 to 20)
#    0.000    0.571    4.286    3.857    6.000    0.000 
#    2.571    1.429    0.000    0.000    0.000    0.000 
#    0.000    0.000    0.000    0.000    0.000    0.000 
#
# Total GULP energy -78223.203416 kJ/mol
# GULP energy per Si atom -5587.371673 kJ/mol
# Density = 2.259992 g / cm^3
# Si number density = 22.651475 Si / 1000 Ang^3
#
#
#
# Elastic Constant Matrix: (Units=GPa)
#
#
# Indices 1 2 3 4 5 6 
#
# 1 96.9051 46.9617 57.0569 7.3939 -4.2996 -9.6638
# 2 46.9617 112.5396 48.3497 11.4616 -3.0993 -15.5728
# 3 57.0569 48.3497 170.6495 -12.5624 -3.8548 -1.3186
# 4 7.3939 11.4616 -12.5624 53.8691 2.4817 -3.2491
# 5 -4.2996 -3.0993 -3.8548 2.4817 50.2883 -1.3091
# 6 -9.6638 -15.5728 -1.3186 -3.2491 -1.3091 42.4083
#
#
#
# Elastic Compliance Matrix: (Units=1/GPa)
#
#
# Indices 1 2 3 4 5 6 
#
# 1 0.015004 -0.004089 -0.003977 -0.002057 0.000871 0.001663
# 2 -0.004089 0.012277 -0.002252 -0.002395 0.000440 0.003337
# 3 -0.003977 -0.002252 0.008025 0.002822 -0.000036 -0.001269
# 4 -0.002057 -0.002395 0.002822 0.020078 -0.001092 0.000244
# 5 0.000871 0.000440 -0.000036 -0.001092 0.020061 0.000894
# 6 0.001663 0.003337 -0.001269 0.000244 0.000894 0.025191
#
#
# Mechanical properties :
#
#
# Convention : Reuss Voigt Hill
#
# Bulk Modulus (GPa) = 68.16439 76.09231 72.12835
# Shear Modulus (GPa) = 39.63134 44.49486 42.06310
#
# Velocity S-wave (km/s) = 4.18738 4.43688 4.31393
# Velocity P-wave (km/s) = 7.31689 7.74038 7.53161
#
# Compressibility (1/GPa) = 0.01467042
#
# Stress axis : x y z
#
# Youngs Moduli (GPa) = 66.64931 81.45159 124.61338
#
# Poissons Ratio (x) = 0.33304 0.49559
# Poissons Ratio (y) = 0.27251 0.28063
# Poissons Ratio (z) = 0.26506 0.18343
#
# Static dielectric constant tensor:
#      x y z
#    x 1.887990 -0.053860 0.058480 
#    y -0.053860 2.009790 -0.010230 
#    z 0.058480 -0.010230 1.875070 
# 
# From -- ./inp_files/189858.got.cif
#   From: 2010.05.17/outbox.cif.g08.bks.cpg/sg2_95_cif.got.tgz:189858.got - 2010.06.03 11:33:40.
