data_PCOD9110302
_publ_section_title
;
Structure prediction by ZEFSAII (Michael W. Deem and Ramdas Pophale) SiO2 
 PCOD9110302
Probable space group: P -1
;
_chemical_formula_sum "Si O2"
_cell_formula_units_Z 12
_cell_length_a 14.865001
_cell_length_b 8.042729
_cell_length_c 11.941281
_cell_angle_alpha 36.144474
_cell_angle_beta 30.788596
_cell_angle_gamma 43.823798
_cell_volume 429.200212
_symmetry_space_group_name_H-M "P -1"
_symmetry_group_IT_number 2
_symmetry_cell_setting 'triclinic'
loop_
_space_group_symop_operation_xyz
x,y,z
-x,-y,-z
loop_
_atom_site_type_symbol
_atom_site_label
_atom_site_fract_x
_atom_site_fract_y
_atom_site_fract_z
Si Si1 0.617923 0.796404 0.072304
Si Si2 0.046383 0.912369 0.351997
Si Si3 0.034525 0.970980 0.848668
Si Si4 0.467906 0.561392 0.817946
Si Si5 0.141147 0.564916 0.634731
Si Si6 0.431066 0.065146 0.312664
O O1 0.653510 0.510045 0.118293
O O2 0.510390 0.799028 0.301043
O O3 0.789436 0.936976 0.854996
O O4 0.500000 0.000000 0.000000
O O5 0.067273 0.834702 0.243187
O O6 0.882332 0.146727 0.423462
O O7 0.038783 0.645021 0.584435
O O8 0.235017 0.025004 0.581605
O O9 0.955930 0.671923 0.069741
O O10 0.000000 0.000000 0.000000
O O11 0.661439 0.522123 0.572296
O O12 0.462254 0.849910 0.737564
O O13 0.440521 0.325789 0.071917
#
# Coordination Sequence:
#
# PCOD9110302 Si02
#       6
#     2   2   2   2   2   2
#     4  10  20  42  72 100 137 185 234 285 347 424
#     4  11  25  44  76 104 135 192 236 283 367 419
#     4  12  26  46  68 105 147 177 236 303 343 418
#     4  10  20  41  72  98 139 187 225 292 352 409
#     4  11  23  46  73 104 136 180 243 290 347 426
#     4  10  21  41  70  98 141 185 226 293 349 409
#
# _framework density 27.958977999999998
#
# number of rings (size 3 to 8) (size 9 to 14) (size 15 to 20)
#    0.000    1.333    5.000    1.500    7.000    0.667 
#    3.000    4.167    0.000    0.000    0.000    0.000 
#    0.000    0.000    0.000    0.000    0.000    0.000 
#
# Total GULP energy -67162.817861 kJ/mol
# GULP energy per Si atom -5596.901488 kJ/mol
# Density = 2.789534 g / cm^3
# Si number density = 27.958978 Si / 1000 Ang^3
#
#
#
# Elastic Constant Matrix: (Units=GPa)
#
#
# Indices 1 2 3 4 5 6 
#
# 1 176.7615 45.8113 55.9323 6.7308 15.9825 57.2363
# 2 45.8113 70.9026 43.3285 3.8802 3.9380 17.1172
# 3 55.9323 43.3285 196.9907 30.3082 -5.3000 5.8383
# 4 6.7308 3.8802 30.3082 49.6390 0.4086 10.1036
# 5 15.9825 3.9380 -5.3000 0.4086 50.2144 5.2822
# 6 57.2363 17.1172 5.8383 10.1036 5.2822 50.0233
#
#
#
# Elastic Compliance Matrix: (Units=1/GPa)
#
#
# Indices 1 2 3 4 5 6 
#
# 1 0.011164 -0.002716 -0.002715 0.002785 -0.002405 -0.011837
# 2 -0.002716 0.018725 -0.003535 0.001712 -0.000658 -0.003164
# 3 -0.002715 -0.003535 0.007257 -0.004664 0.001498 0.004253
# 4 0.002785 0.001712 -0.004664 0.024119 -0.000867 -0.008008
# 5 -0.002405 -0.000658 0.001498 -0.000867 0.020815 0.000779
# 6 -0.011837 -0.003164 0.004253 -0.008008 0.000779 0.035656
#
#
# Mechanical properties :
#
#
# Convention : Reuss Voigt Hill
#
# Bulk Modulus (GPa) = 52.04224 81.64434 66.84329
# Shear Modulus (GPa) = 35.19322 49.94751 42.57037
#
# Velocity S-wave (km/s) = 3.55173 4.23124 3.90629
# Velocity P-wave (km/s) = 5.95600 7.28944 6.65620
#
# Compressibility (1/GPa) = 0.01921516
#
# Stress axis : x y z
#
# Youngs Moduli (GPa) = 89.56991 53.40331 137.80377
#
# Poissons Ratio (x) = 0.14502 0.37415
# Poissons Ratio (y) = 0.24324 0.48714
# Poissons Ratio (z) = 0.24319 0.18878
#
# Static dielectric constant tensor:
#      x y z
#    x 2.186160 -0.025770 -0.035050 
#    y -0.025770 2.353640 0.010090 
#    z -0.035050 0.010090 2.174880 
# 
# From -- ./inp_files/446564.got.cif
#   From: 2010.05.17/outbox.cif.g08.bks.cpg/sg2_224_cif.got.tgz:446564.got - 2010.06.03 11:33:40.
