data_PCOD9110225
_publ_section_title
;
Structure prediction by ZEFSAII (Michael W. Deem and Ramdas Pophale) SiO2 
 PCOD9110225
Probable space group: P -1
;
_chemical_formula_sum "Si O2"
_cell_formula_units_Z 14
_cell_length_a 7.312557
_cell_length_b 13.451074
_cell_length_c 8.763055
_cell_angle_alpha 85.764917
_cell_angle_beta 71.826134
_cell_angle_gamma 45.392489
_cell_volume 569.450662
_symmetry_space_group_name_H-M "P -1"
_symmetry_group_IT_number 2
_symmetry_cell_setting 'triclinic'
loop_
_space_group_symop_operation_xyz
x,y,z
-x,-y,-z
loop_
_atom_site_type_symbol
_atom_site_label
_atom_site_fract_x
_atom_site_fract_y
_atom_site_fract_z
Si Si1 0.837492 0.507121 0.206732
Si Si2 0.558260 0.657292 0.974498
Si Si3 0.100672 0.690601 0.557169
Si Si4 0.777382 0.729617 0.390822
Si Si5 0.224905 0.967481 0.073202
Si Si6 0.495767 0.000844 0.761460
Si Si7 0.628299 0.253746 0.315221
O O1 0.807483 0.630541 0.268759
O O2 0.161915 0.380218 0.095924
O O3 0.806012 0.436011 0.350185
O O4 0.641226 0.558011 0.107242
O O5 0.495513 0.649440 0.817342
O O6 0.306848 0.822077 0.065985
O O7 0.061151 0.661652 0.401756
O O8 0.292881 0.708733 0.562560
O O9 0.789762 0.843582 0.660791
O O10 0.636253 0.881835 0.347439
O O11 0.587867 0.747139 0.567311
O O12 0.921800 0.101407 0.200081
O O13 0.435329 0.943704 0.133763
O O14 0.294659 0.994276 0.890545
#
# Coordination Sequence:
#
# PCOD9110225 Si02
#       7
#     2   2   2   2   2   2   2
#     4  11  24  43  73  95 142 191 227 273 349 417
#     4  11  22  44  69 102 137 188 232 279 341 415
#     4  11  24  43  68 101 142 180 229 283 344 412
#     4  12  24  47  70 103 141 186 223 286 350 409
#     4  10  20  41  71 105 136 175 234 290 338 403
#     4  10  21  41  71 101 137 183 232 279 342 406
#     4  11  26  42  74 105 140 175 233 292 346 397
#
# _framework density 24.585099
#
# number of rings (size 3 to 8) (size 9 to 14) (size 15 to 20)
#    0.000    1.143    4.286    1.286    0.000    3.429 
#    2.571    0.000    0.000    0.000    0.000    0.000 
#    0.000    0.000    0.000    0.000    0.000    0.000 
#
# Total GULP energy -78235.432912 kJ/mol
# GULP energy per Si atom -5588.245208 kJ/mol
# Density = 2.452914 g / cm^3
# Si number density = 24.585099 Si / 1000 Ang^3
#
#
#
# Elastic Constant Matrix: (Units=GPa)
#
#
# Indices 1 2 3 4 5 6 
#
# 1 122.5267 23.3642 29.0704 -16.9197 25.4084 -18.1372
# 2 23.3642 130.5228 46.9997 -11.4872 5.4692 -17.8766
# 3 29.0704 46.9997 73.6338 -8.6646 20.3782 -17.2199
# 4 -16.9197 -11.4872 -8.6646 55.5400 -16.2137 5.1032
# 5 25.4084 5.4692 20.3782 -16.2137 22.1541 -2.7399
# 6 -18.1372 -17.8766 -17.2199 5.1032 -2.7399 28.4607
#
#
#
# Elastic Compliance Matrix: (Units=1/GPa)
#
#
# Indices 1 2 3 4 5 6 
#
# 1 0.011932 -0.001337 0.001708 -0.001399 -0.015135 0.006591
# 2 -0.001337 0.010939 -0.008203 0.003003 0.008745 0.001359
# 3 0.001708 -0.008203 0.028039 -0.006281 -0.028932 0.011242
# 4 -0.001399 0.003003 -0.006281 0.024713 0.024119 -0.004915
# 5 -0.015135 0.008745 -0.028932 0.024119 0.102610 -0.016104
# 6 0.006591 0.001359 0.011242 -0.004915 -0.016104 0.046323
#
#
# Mechanical properties :
#
#
# Convention : Reuss Voigt Hill
#
# Bulk Modulus (GPa) = 28.37222 58.39464 43.38343
# Shear Modulus (GPa) = 19.84376 36.38091 28.11233
#
# Velocity S-wave (km/s) = 2.84411 3.85098 3.38519
# Velocity P-wave (km/s) = 4.72766 6.60129 5.74142
#
# Compressibility (1/GPa) = 0.03524574
#
# Stress axis : x y z
#
# Youngs Moduli (GPa) = 83.80671 91.41876 35.66443
#
# Poissons Ratio (x) = 0.12224 -0.06092
# Poissons Ratio (y) = 0.11206 0.29256
# Poissons Ratio (z) = -0.14315 0.74992
#
# Static dielectric constant tensor:
#      x y z
#    x 1.947730 0.009750 0.056330 
#    y 0.009750 1.912830 0.002970 
#    z 0.056330 0.002970 2.040570 
# 
# From -- ./inp_files/206796.got.cif
#   From: 2010.05.17/outbox.cif.g08.bks.cpg/sg2_104_cif.got.tgz:206796.got - 2010.06.03 11:33:40.
