data_PCOD9110498
_publ_section_title
;
Structure prediction by ZEFSAII (Michael W. Deem and Ramdas Pophale) SiO2 
 PCOD9110498
Probable space group: P -1
;
_chemical_formula_sum "Si O2"
_cell_formula_units_Z 16
_cell_length_a 14.026621
_cell_length_b 12.005699
_cell_length_c 8.900038
_cell_angle_alpha 81.690294
_cell_angle_beta 93.601642
_cell_angle_gamma 29.459384
_cell_volume 672.324530
_symmetry_space_group_name_H-M "P -1"
_symmetry_group_IT_number 2
_symmetry_cell_setting 'triclinic'
loop_
_space_group_symop_operation_xyz
x,y,z
-x,-y,-z
loop_
_atom_site_type_symbol
_atom_site_label
_atom_site_fract_x
_atom_site_fract_y
_atom_site_fract_z
Si Si1 0.093000 0.783751 0.619647
Si Si2 0.389838 0.495404 0.460020
Si Si3 0.954955 0.020511 0.160887
Si Si4 0.431428 0.195489 0.891505
Si Si5 0.253382 0.034459 0.539546
Si Si6 0.702449 0.849270 0.741765
Si Si7 0.077850 0.576487 0.011513
Si Si8 0.763691 0.001004 0.119693
O O1 0.313810 0.532615 0.608776
O O2 0.000000 0.000000 0.500000
O O3 0.100142 0.808481 0.788692
O O4 0.936300 0.847885 0.553830
O O5 0.500000 0.500000 0.500000
O O6 0.172099 0.742733 0.302761
O O7 0.541417 0.253067 0.432653
O O8 0.766547 0.128697 0.140474
O O9 0.000000 0.000000 0.000000
O O10 0.209185 0.454317 0.895405
O O11 0.575263 0.144155 0.981479
O O12 0.500000 0.000000 0.000000
O O13 0.479685 0.122611 0.735028
O O14 0.261644 0.139314 0.421774
O O15 0.228420 0.074814 0.707545
O O16 0.760745 0.658950 0.814788
O O17 0.874325 0.724307 0.896712
O O18 0.965859 0.780392 0.073037
#
# Coordination Sequence:
#
# PCOD9110498 Si02
#       8
#     2   2   2   2   2   2   2   2
#     4  10  20  42  63  88 133 169 207 264 316 380
#     4  11  21  41  67  85 129 178 208 258 324 372
#     4  11  24  43  64  96 132 168 215 264 311 381
#     4   9  20  41  64  88 122 163 211 269 319 374
#     4  12  23  39  63  98 127 167 219 256 322 386
#     4   9  21  40  65  91 122 162 212 265 317 387
#     4   9  20  42  63  88 125 165 206 266 327 366
#     4  11  23  39  65  93 131 165 210 271 315 381
#
# _framework density 23.798031999999999
#
# number of rings (size 3 to 8) (size 9 to 14) (size 15 to 20)
#    0.000    1.750    5.000    0.750    5.250    1.500 
#    0.000    5.000    0.000    0.000    0.000    0.000 
#    0.000    0.000    0.000    0.000    0.000    0.000 
#
# Total GULP energy -89319.659722 kJ/mol
# GULP energy per Si atom -5582.478733 kJ/mol
# Density = 2.374387 g / cm^3
# Si number density = 23.798032 Si / 1000 Ang^3
#
#
#
# Elastic Constant Matrix: (Units=GPa)
#
#
# Indices 1 2 3 4 5 6 
#
# 1 50.3136 8.9690 -8.1782 -6.0970 3.1713 -18.4034
# 2 8.9690 106.1261 7.8619 13.3836 -5.8014 -16.7324
# 3 -8.1782 7.8619 86.8880 22.5925 -18.7885 -4.1617
# 4 -6.0970 13.3836 22.5925 39.5456 -1.2558 -18.2636
# 5 3.1713 -5.8014 -18.7885 -1.2558 34.2448 9.2145
# 6 -18.4034 -16.7324 -4.1617 -18.2636 9.2145 30.0806
#
#
#
# Elastic Compliance Matrix: (Units=1/GPa)
#
#
# Indices 1 2 3 4 5 6 
#
# 1 0.043685 -0.000333 -0.006797 0.034517 -0.020808 0.052932
# 2 -0.000333 0.010386 -0.000391 -0.001142 0.000256 0.004747
# 3 -0.006797 -0.000391 0.018199 -0.019152 0.014685 -0.017985
# 4 0.034517 -0.001142 -0.019152 0.074397 -0.030649 0.072391
# 5 -0.020808 0.000256 0.014685 -0.030649 0.050080 -0.044506
# 6 0.052932 0.004747 -0.017985 0.072391 -0.044506 0.123366
#
#
# Mechanical properties :
#
#
# Convention : Reuss Voigt Hill
#
# Bulk Modulus (GPa) = 17.47429 28.95925 23.21677
# Shear Modulus (GPa) = 14.11499 36.41921 25.26710
#
# Velocity S-wave (km/s) = 2.43804 3.91621 3.26196
# Velocity P-wave (km/s) = 3.90948 5.71350 4.89531
#
# Compressibility (1/GPa) = 0.05722694
#
# Stress axis : x y z
#
# Youngs Moduli (GPa) = 22.89100 96.27903 54.94905
#
# Poissons Ratio (x) = 0.03208 0.37350
# Poissons Ratio (y) = 0.00763 0.02150
# Poissons Ratio (z) = 0.15559 0.03768
#
# Static dielectric constant tensor:
#      x y z
#    x 1.912270 0.043360 -0.008290 
#    y 0.043360 1.914740 -0.066040 
#    z -0.008290 -0.066040 1.851080 
# 
# From -- ./inp_files/307345.got.cif
#   From: 2010.05.17/outbox.cif.g08.bks.cpg/sg2_154_cif.got.tgz:307345.got - 2010.06.03 11:33:40.
