data_PCOD9110637
_publ_section_title
;
Structure prediction by ZEFSAII (Michael W. Deem and Ramdas Pophale) SiO2 
 PCOD9110637
Probable space group: P -1
;
_chemical_formula_sum "Si O2"
_cell_formula_units_Z 16
_cell_length_a 8.761171
_cell_length_b 5.105592
_cell_length_c 16.368790
_cell_angle_alpha 109.756645
_cell_angle_beta 83.376430
_cell_angle_gamma 79.219794
_cell_volume 664.184581
_symmetry_space_group_name_H-M "P -1"
_symmetry_group_IT_number 2
_symmetry_cell_setting 'triclinic'
loop_
_space_group_symop_operation_xyz
x,y,z
-x,-y,-z
loop_
_atom_site_type_symbol
_atom_site_label
_atom_site_fract_x
_atom_site_fract_y
_atom_site_fract_z
Si Si1 0.738167 0.180879 0.786551
Si Si2 0.209561 0.701364 0.508190
Si Si3 0.820229 0.136875 0.090191
Si Si4 0.603190 0.175385 0.962715
Si Si5 0.342030 0.037889 0.673517
Si Si6 0.166098 0.113782 0.411657
Si Si7 0.469240 0.575277 0.743187
Si Si8 0.945966 0.669411 0.157872
O O1 0.644587 0.087408 0.857860
O O2 0.624070 0.434039 0.769529
O O3 0.883418 0.290965 0.825642
O O4 0.803976 0.935594 0.690793
O O5 0.302287 0.853941 0.581737
O O6 0.245162 0.359263 0.467232
O O7 0.023117 0.794859 0.553278
O O8 0.225521 0.827493 0.430901
O O9 0.664174 0.288088 0.167425
O O10 0.937423 0.341999 0.119418
O O11 0.885914 0.828162 0.093408
O O12 0.761974 0.145068 0.002310
O O13 0.500000 0.500000 0.000000
O O14 0.500000 0.000000 0.000000
O O15 0.460994 0.822246 0.703509
O O16 0.411793 0.309469 0.677425
O O17 0.180470 0.167879 0.748798
#
# Coordination Sequence:
#
# PCOD9110637 Si02
#       8
#     2   2   2   2   2   2   2   2
#     4  12  26  46  68 108 134 176 231 291 334 391
#     4  10  20  42  66  93 137 174 223 265 350 402
#     4  10  22  45  64  99 130 183 220 271 340 404
#     4  12  27  45  72  98 140 185 225 271 345 412
#     4  10  20  42  64  98 127 188 212 269 337 408
#     4  10  23  38  66 100 131 172 220 289 327 399
#     4  10  23  37  68  92 140 170 226 264 338 407
#     4  10  23  40  71  97 136 165 232 283 328 391
#
# _framework density 24.089689
#
# number of rings (size 3 to 8) (size 9 to 14) (size 15 to 20)
#    0.000    1.500    2.500    1.500    3.500    6.000 
#    0.000    3.750    0.000    0.000    0.000    0.000 
#    0.000    0.000    0.000    0.000    0.000    0.000 
#
# Total GULP energy -89707.525955 kJ/mol
# GULP energy per Si atom -5606.720372 kJ/mol
# Density = 2.403486 g / cm^3
# Si number density = 24.089689 Si / 1000 Ang^3
#
#
#
# Elastic Constant Matrix: (Units=GPa)
#
#
# Indices 1 2 3 4 5 6 
#
# 1 89.6857 5.9930 23.2700 -1.5568 -1.9065 -0.5353
# 2 5.9930 83.9606 8.4296 1.6694 -12.5462 18.0006
# 3 23.2700 8.4296 137.0169 -12.1930 -6.8561 13.7379
# 4 -1.5568 1.6694 -12.1930 20.9707 3.2883 4.4926
# 5 -1.9065 -12.5462 -6.8561 3.2883 39.8259 -4.3369
# 6 -0.5353 18.0006 13.7379 4.4926 -4.3369 28.2028
#
#
#
# Elastic Compliance Matrix: (Units=1/GPa)
#
#
# Indices 1 2 3 4 5 6 
#
# 1 0.011796 -0.001034 -0.002216 -0.000808 0.000155 0.002116
# 2 -0.001034 0.014375 0.000393 0.000357 0.003548 -0.008897
# 3 -0.002216 0.000393 0.008751 0.005990 0.000437 -0.005442
# 4 -0.000808 0.000357 0.005990 0.054522 -0.004767 -0.012579
# 5 0.000155 0.003548 0.000437 -0.004767 0.026968 0.002432
# 6 0.002116 -0.008897 -0.005442 -0.012579 0.002432 0.046205
#
#
# Mechanical properties :
#
#
# Convention : Reuss Voigt Hill
#
# Bulk Modulus (GPa) = 34.23759 42.89428 38.56593
# Shear Modulus (GPa) = 28.07911 35.99793 32.03852
#
# Velocity S-wave (km/s) = 3.41780 3.86985 3.65083
# Velocity P-wave (km/s) = 5.46064 6.14918 5.81511
#
# Compressibility (1/GPa) = 0.02920767
#
# Stress axis : x y z
#
# Youngs Moduli (GPa) = 84.77447 69.56349 114.27081
#
# Poissons Ratio (x) = 0.07192 0.25323
# Poissons Ratio (y) = 0.08765 -0.04486
# Poissons Ratio (z) = 0.18786 -0.02731
#
# Static dielectric constant tensor:
#      x y z
#    x 1.914140 0.005900 -0.030870 
#    y 0.005900 1.854570 0.023620 
#    z -0.030870 0.023620 1.898730 
# 
# From -- ./inp_files/488661.got.cif
#   From: 2010.05.17/outbox.cif.g08.bks.cpg/sg2_245_cif.got.tgz:488661.got - 2010.06.03 11:33:40.
