data_PCOD9110422
_publ_section_title
;
Structure prediction by ZEFSAII (Michael W. Deem and Ramdas Pophale) SiO2 
 PCOD9110422
Probable space group: P -1
;
_chemical_formula_sum "Si O2"
_cell_formula_units_Z 15
_cell_length_a 5.519519
_cell_length_b 8.260803
_cell_length_c 20.420706
_cell_angle_alpha 132.612806
_cell_angle_beta 116.123762
_cell_angle_gamma 68.744956
_cell_volume 612.305542
_symmetry_space_group_name_H-M "P -1"
_symmetry_group_IT_number 2
_symmetry_cell_setting 'triclinic'
loop_
_space_group_symop_operation_xyz
x,y,z
-x,-y,-z
loop_
_atom_site_type_symbol
_atom_site_label
_atom_site_fract_x
_atom_site_fract_y
_atom_site_fract_z
Si Si1 0.292661 0.863021 0.978135
Si Si2 0.956173 0.878521 0.745207
Si Si3 0.176968 0.300725 0.928340
Si Si4 0.566305 0.969768 0.350977
Si Si5 0.226716 0.633366 0.595384
Si Si6 0.000000 0.000000 0.500000
Si Si7 0.745765 0.438080 0.655889
Si Si8 0.118893 0.412321 0.799811
O O1 0.212365 0.655424 0.870421
O O2 0.504789 0.752893 0.029016
O O3 0.500000 0.000000 0.000000
O O4 0.000000 0.000000 0.000000
O O5 0.741942 0.977048 0.691833
O O6 0.834282 0.679039 0.712838
O O7 0.188696 0.765333 0.695446
O O8 0.040509 0.069737 0.854597
O O9 0.143656 0.355096 0.862866
O O10 0.000000 0.500000 0.000000
O O11 0.710824 0.182048 0.398990
O O12 0.671384 0.963006 0.435000
O O13 0.684712 0.761912 0.265027
O O14 0.457159 0.446559 0.591243
O O15 0.000000 0.500000 0.500000
O O16 0.920570 0.239885 0.587641
O O17 0.817006 0.409973 0.733230
#
# Coordination Sequence:
#
# PCOD9110422 Si02
#       8
#     2   2   2   2   2   1   2   2
#     4  12  28  48  78 112 153 200 260 319 391 468
#     4  11  23  44  71  99 141 189 246 296 374 447
#     4  12  26  49  77 110 147 200 255 324 390 458
#     4  10  22  42  66 100 139 188 236 302 366 448
#     4  11  22  41  69 102 138 188 238 293 365 440
#     4  10  20  42  62 100 142 182 234 296 374 430
#     4  10  24  43  70  99 145 185 242 299 369 446
#     4  11  24  47  71 103 145 188 245 312 375 456
#
# _framework density 24.497574
#
# number of rings (size 3 to 8) (size 9 to 14) (size 15 to 20)
#    0.000    1.067    1.333    4.400    1.867    3.200 
#    9.600    4.000    0.000    0.000    0.000    0.000 
#    0.000    0.000    0.000    0.000    0.000    0.000 
#
# Total GULP energy -83576.791534 kJ/mol
# GULP energy per Si atom -5571.786102 kJ/mol
# Density = 2.444182 g / cm^3
# Si number density = 24.497574 Si / 1000 Ang^3
#
#
#
# Elastic Constant Matrix: (Units=GPa)
#
#
# Indices 1 2 3 4 5 6 
#
# 1 75.7555 53.4259 31.8145 5.9488 2.6651 -22.6892
# 2 53.4259 -117.4676 290.0579 170.1761 14.3434 97.0635
# 3 31.8145 290.0579 -49.8436 -125.7767 8.7814 -132.0319
# 4 5.9488 170.1761 -125.7767 -60.7652 -18.2571 -82.7325
# 5 2.6651 14.3434 8.7814 -18.2571 41.6911 -9.5705
# 6 -22.6892 97.0635 -132.0319 -82.7325 -9.5705 -9.1513
#
#
#
# Elastic Compliance Matrix: (Units=1/GPa)
#
#
# Indices 1 2 3 4 5 6 
#
# 1 0.017658 -0.003122 -0.002839 -0.004153 -0.000730 0.002375
# 2 -0.003122 0.006186 0.000354 0.006539 0.002383 0.006632
# 3 -0.002839 0.000354 0.006765 -0.008713 -0.005665 -0.002111
# 4 -0.004153 0.006539 -0.008713 0.022142 0.008661 -0.003862
# 5 -0.000730 0.002383 -0.005665 0.008661 0.028391 0.000836
# 6 0.002375 0.006632 -0.002111 -0.003862 0.000836 0.019674
#
#
# Mechanical properties :
#
#
# Convention : Reuss Voigt Hill
#
# Bulk Modulus (GPa) = 51.56354 73.22677 62.39515
# Shear Modulus (GPa) = 42.19641 -36.76869 2.71386
#
# Velocity S-wave (km/s) = 4.15477 -3.87836 1.05367
# Velocity P-wave (km/s) = 6.64156 3.14654 5.19668
#
# Compressibility (1/GPa) = 0.01939355
#
# Stress axis : x y z
#
# Youngs Moduli (GPa) = 56.63272 161.66406 147.82330
#
# Poissons Ratio (x) = 0.50470 0.41970
# Poissons Ratio (y) = 0.17680 -0.05230
# Poissons Ratio (z) = 0.16079 -0.05720
#
# Static dielectric constant tensor:
#      x y z
#    x 2.039620 0.058750 0.076340 
#    y 0.058750 2.073380 -0.035230 
#    z 0.076340 -0.035230 1.934770 
# 
# From -- ./inp_files/359071.got.cif
#   From: 2010.05.17/outbox.cif.g08.bks.cpg/sg2_180_cif.got.tgz:359071.got - 2010.06.03 11:33:40.
