data_PCOD9110845
_publ_section_title
;
Structure prediction by ZEFSAII (Michael W. Deem and Ramdas Pophale) SiO2 
 PCOD9110845
Probable space group: P -1
;
_chemical_formula_sum "Si O2"
_cell_formula_units_Z 15
_cell_length_a 15.380310
_cell_length_b 9.160667
_cell_length_c 21.245989
_cell_angle_alpha 133.177070
_cell_angle_beta 20.259518
_cell_angle_gamma 131.173400
_cell_volume 754.292625
_symmetry_space_group_name_H-M "P -1"
_symmetry_group_IT_number 2
_symmetry_cell_setting 'triclinic'
loop_
_space_group_symop_operation_xyz
x,y,z
-x,-y,-z
loop_
_atom_site_type_symbol
_atom_site_label
_atom_site_fract_x
_atom_site_fract_y
_atom_site_fract_z
Si Si1 0.277187 0.433089 0.276272
Si Si2 0.502803 0.209635 0.849599
Si Si3 0.538684 0.723884 0.775700
Si Si4 0.000000 0.000000 0.500000
Si Si5 0.254852 0.533708 0.796573
Si Si6 0.812697 0.914593 0.858224
Si Si7 0.624579 0.913211 0.452311
Si Si8 0.738194 0.081527 0.180120
O O1 0.414965 0.580893 0.176268
O O2 0.441318 0.433132 0.228068
O O3 0.248663 0.211480 0.200069
O O4 0.000000 0.500000 0.500000
O O5 0.748507 0.114249 0.682367
O O6 0.384102 0.060360 0.833117
O O7 0.298386 0.214744 0.045421
O O8 0.461764 0.624238 0.732197
O O9 0.812453 0.835654 0.616484
O O10 0.332979 0.881524 0.979493
O O11 0.326151 0.319577 0.660224
O O12 0.226585 0.696624 0.808934
O O13 0.000000 0.500000 0.000000
O O14 0.107960 0.967900 0.681147
O O15 0.444775 0.926000 0.638071
O O16 0.500000 0.000000 0.500000
O O17 0.000000 0.000000 0.000000
#
# Coordination Sequence:
#
# PCOD9110845 Si02
#       8
#     2   2   2   1   2   2   2   2
#     4  12  25  40  68 106 134 182 233 285 349 420
#     4  11  23  44  68  99 139 181 233 285 350 416
#     4  11  24  44  70  99 141 184 228 286 350 418
#     4  10  20  42  66  96 136 180 218 286 338 404
#     4  12  24  48  71 103 144 185 237 290 360 425
#     4  11  24  47  66  98 142 180 231 288 353 423
#     4  12  27  44  72 106 138 183 235 300 356 428
#     4  12  26  47  72 101 141 185 241 293 361 424
#
# _framework density 19.886181000000001
#
# number of rings (size 3 to 8) (size 9 to 14) (size 15 to 20)
#    0.000    0.533    5.333    3.600    5.600    0.000 
#    0.000    0.000    0.000    0.000    0.000    0.000 
#    0.000    0.000    0.000    0.000    0.000    0.000 
#
# Total GULP energy -83648.086875 kJ/mol
# GULP energy per Si atom -5576.539125 kJ/mol
# Density = 1.984092 g / cm^3
# Si number density = 19.886181 Si / 1000 Ang^3
#
#
#
# Elastic Constant Matrix: (Units=GPa)
#
#
# Indices 1 2 3 4 5 6 
#
# 1 92.8308 32.2063 40.9567 -9.9686 1.9903 -25.4683
# 2 32.2063 80.9367 29.4391 -10.7500 -8.0957 -18.5255
# 3 40.9567 29.4391 139.8223 -31.1119 3.3402 -7.4266
# 4 -9.9686 -10.7500 -31.1119 26.2130 -3.7403 9.1359
# 5 1.9903 -8.0957 3.3402 -3.7403 32.8309 4.3277
# 6 -25.4683 -18.5255 -7.4266 9.1359 4.3277 38.3603
#
#
#
# Elastic Compliance Matrix: (Units=1/GPa)
#
#
# Indices 1 2 3 4 5 6 
#
# 1 0.016146 -0.003540 -0.004346 -0.004243 -0.003150 0.009534
# 2 -0.003540 0.016027 -0.001686 0.002402 0.004081 0.004031
# 3 -0.004346 -0.001686 0.011385 0.012901 0.000773 -0.004656
# 4 -0.004243 0.002402 0.012901 0.058905 0.008107 -0.014102
# 5 -0.003150 0.004081 0.000773 0.008107 0.033246 -0.005652
# 6 0.009534 0.004031 -0.004656 -0.014102 -0.005652 0.037440
#
#
# Mechanical properties :
#
#
# Convention : Reuss Voigt Hill
#
# Bulk Modulus (GPa) = 40.96304 57.64379 49.30342
# Shear Modulus (GPa) = 24.94605 33.54669 29.24637
#
# Velocity S-wave (km/s) = 3.54565 4.11169 3.83912
# Velocity P-wave (km/s) = 6.11602 7.18269 6.67071
#
# Compressibility (1/GPa) = 0.02441225
#
# Stress axis : x y z
#
# Youngs Moduli (GPa) = 61.93573 62.39380 87.83440
#
# Poissons Ratio (x) = 0.22088 0.38177
# Poissons Ratio (y) = 0.21926 0.14812
# Poissons Ratio (z) = 0.26920 0.10522
#
# Static dielectric constant tensor:
#      x y z
#    x 1.696870 -0.011130 0.011940 
#    y -0.011130 1.735210 -0.007290 
#    z 0.011940 -0.007290 1.662960 
# 
# From -- ./inp_files/204041.got.cif
#   From: 2010.05.17/outbox.cif.g08.bks.cpg/sg2_103_cif.got.tgz:204041.got - 2010.06.03 11:33:40.
