data_PCOD9110841
_publ_section_title
;
Structure prediction by ZEFSAII (Michael W. Deem and Ramdas Pophale) SiO2 
 PCOD9110841
Probable space group: P -1
;
_chemical_formula_sum "Si O2"
_cell_formula_units_Z 16
_cell_length_a 10.314825
_cell_length_b 18.723107
_cell_length_c 7.308560
_cell_angle_alpha 44.712263
_cell_angle_beta 58.345212
_cell_angle_gamma 40.725489
_cell_volume 647.600254
_symmetry_space_group_name_H-M "P -1"
_symmetry_group_IT_number 2
_symmetry_cell_setting 'triclinic'
loop_
_space_group_symop_operation_xyz
x,y,z
-x,-y,-z
loop_
_atom_site_type_symbol
_atom_site_label
_atom_site_fract_x
_atom_site_fract_y
_atom_site_fract_z
Si Si1 0.265424 0.584700 0.528054
Si Si2 0.968700 0.801816 0.097977
Si Si3 0.626659 0.996923 0.569128
Si Si4 0.822445 0.071275 0.854468
Si Si5 0.320684 0.262490 0.471434
Si Si6 0.599614 0.800799 0.073502
Si Si7 0.945736 0.523010 0.278956
Si Si8 0.076909 0.765062 0.671087
O O1 0.500000 0.500000 0.500000
O O2 0.153829 0.719777 0.248432
O O3 0.190894 0.513338 0.615937
O O4 0.179133 0.637960 0.698594
O O5 0.052696 0.745384 0.936135
O O6 0.866697 0.955024 0.905230
O O7 0.818479 0.778854 0.323493
O O8 0.517527 0.146104 0.432050
O O9 0.500000 0.000000 0.500000
O O10 0.855653 0.893345 0.537989
O O11 0.605063 0.919293 0.882495
O O12 0.605093 0.143899 0.968581
O O13 0.808189 0.179135 0.549852
O O14 0.000000 0.000000 0.000000
O O15 0.391706 0.257781 0.631057
O O16 0.192509 0.321789 0.948817
O O17 0.165018 0.410301 0.237569
O O18 0.000000 0.500000 0.500000
#
# Coordination Sequence:
#
# PCOD9110841 Si02
#       8
#     2   2   2   2   2   2   2   2
#     4  11  24  46  69  95 141 187 229 282 362 419
#     4  11  22  42  69  99 137 179 230 290 341 414
#     4  12  22  38  66  98 130 174 225 277 337 408
#     4  12  23  40  64 102 141 176 228 286 344 403
#     4  10  20  42  66  96 130 174 220 276 348 399
#     4  11  21  40  70  91 129 181 221 268 345 404
#     4   9  21  39  69  97 127 177 229 279 335 416
#     4  12  25  41  68 103 135 176 235 288 344 418
#
# _framework density 24.706596999999999
#
# number of rings (size 3 to 8) (size 9 to 14) (size 15 to 20)
#    0.000    1.000    3.750    4.500    0.000    0.500 
#    0.000    2.500    0.000    0.000    0.000    0.000 
#    0.000    0.000    0.000    0.000    0.000    0.000 
#
# Total GULP energy -89472.152266 kJ/mol
# GULP energy per Si atom -5592.009517 kJ/mol
# Density = 2.465036 g / cm^3
# Si number density = 24.706597 Si / 1000 Ang^3
#
#
#
# Elastic Constant Matrix: (Units=GPa)
#
#
# Indices 1 2 3 4 5 6 
#
# 1 101.9402 50.6458 18.4849 5.0916 -4.6654 -10.0361
# 2 50.6458 186.9054 28.9041 1.6292 2.5067 -9.2395
# 3 18.4849 28.9041 63.1151 8.5431 -7.2268 6.0442
# 4 5.0916 1.6292 8.5431 35.3860 6.0590 1.9059
# 5 -4.6654 2.5067 -7.2268 6.0590 36.0773 1.2168
# 6 -10.0361 -9.2395 6.0442 1.9059 1.2168 54.4851
#
#
#
# Elastic Compliance Matrix: (Units=1/GPa)
#
#
# Indices 1 2 3 4 5 6 
#
# 1 0.011914 -0.002829 -0.002010 -0.001464 0.001515 0.001955
# 2 -0.002829 0.006569 -0.002565 0.000937 -0.001523 0.000879
# 3 -0.002010 -0.002565 0.019068 -0.004838 0.004647 -0.002855
# 4 -0.001464 0.000937 -0.004838 0.030712 -0.006364 -0.000506
# 5 0.001515 -0.001523 0.004647 -0.006364 0.030051 -0.000943
# 6 0.001955 0.000879 -0.002855 -0.000506 -0.000943 0.019218
#
#
# Mechanical properties :
#
#
# Convention : Reuss Voigt Hill
#
# Bulk Modulus (GPa) = 43.96793 60.89224 52.43008
# Shear Modulus (GPa) = 35.73414 42.11808 38.92611
#
# Velocity S-wave (km/s) = 3.80720 4.13332 3.97361
# Velocity P-wave (km/s) = 6.09599 6.89048 6.50537
#
# Compressibility (1/GPa) = 0.02274385
#
# Stress axis : x y z
#
# Youngs Moduli (GPa) = 83.93295 152.22605 52.44409
#
# Poissons Ratio (x) = 0.43057 0.10540
# Poissons Ratio (y) = 0.23740 0.13454
# Poissons Ratio (z) = 0.16869 0.39053
#
# Static dielectric constant tensor:
#      x y z
#    x 1.975860 0.013280 0.029560 
#    y 0.013280 2.067520 -0.019150 
#    z 0.029560 -0.019150 2.034870 
# 
# From -- ./inp_files/281614.got.cif
#   From: 2010.05.17/outbox.cif.g08.bks.cpg/sg2_141_cif.got.tgz:281614.got - 2010.06.03 11:33:40.
