data_PCOD9111474
_publ_section_title
;
Structure prediction by ZEFSAII (Michael W. Deem and Ramdas Pophale) SiO2 
 PCOD9111474
Probable space group: P -1
;
_chemical_formula_sum "Si O2"
_cell_formula_units_Z 14
_cell_length_a 24.480933
_cell_length_b 6.423957
_cell_length_c 10.514717
_cell_angle_alpha 133.422357
_cell_angle_beta 148.406864
_cell_angle_gamma 42.116817
_cell_volume 573.669676
_symmetry_space_group_name_H-M "P -1"
_symmetry_group_IT_number 2
_symmetry_cell_setting 'triclinic'
loop_
_space_group_symop_operation_xyz
x,y,z
-x,-y,-z
loop_
_atom_site_type_symbol
_atom_site_label
_atom_site_fract_x
_atom_site_fract_y
_atom_site_fract_z
Si Si1 0.178319 0.131580 0.134183
Si Si2 0.188637 0.687036 0.516634
Si Si3 0.605802 0.583204 0.011720
Si Si4 0.227484 0.220903 0.724681
Si Si5 0.702171 0.840866 0.868557
Si Si6 0.972967 0.227877 0.397388
Si Si7 0.412647 0.614666 0.495933
O O1 0.138226 0.444049 0.269597
O O2 0.206088 0.236968 0.095060
O O3 0.296595 0.884026 0.325438
O O4 0.095997 0.951366 0.882773
O O5 0.205532 0.908891 0.532805
O O6 0.317368 0.482464 0.736539
O O7 0.097813 0.946346 0.539772
O O8 0.472313 0.735577 0.776130
O O9 0.635472 0.216745 0.882827
O O10 0.663470 0.749539 0.104483
O O11 0.122054 0.530058 0.595543
O O12 0.245111 0.236292 0.917988
O O13 0.621509 0.654414 0.625945
O O14 0.000000 0.500000 0.500000
O O15 0.500000 0.500000 0.500000
#
# Coordination Sequence:
#
# PCOD9111474 Si02
#       7
#     2   2   2   2   2   2   2
#     4  12  24  42  64 102 130 167 213 271 324 374
#     4  10  26  40  64  94 139 168 209 264 329 380
#     4  11  22  41  66  95 129 172 216 262 319 382
#     4  10  20  43  64  97 125 167 222 261 311 386
#     4  11  20  38  69  96 126 164 221 266 315 377
#     4  10  20  45  70  90 127 173 221 265 309 385
#     4  12  22  39  69  97 128 165 223 265 310 388
#
# _framework density 24.404288000000001
#
# number of rings (size 3 to 8) (size 9 to 14) (size 15 to 20)
#    0.000    1.143    5.714    0.857    0.000    2.286 
#    5.143    2.143    0.000    0.000    0.000    0.000 
#    0.000    0.000    0.000    0.000    0.000    0.000 
#
# Total GULP energy -78043.123267 kJ/mol
# GULP energy per Si atom -5574.508805 kJ/mol
# Density = 2.434874 g / cm^3
# Si number density = 24.404288 Si / 1000 Ang^3
#
#
#
# Elastic Constant Matrix: (Units=GPa)
#
#
# Indices 1 2 3 4 5 6 
#
# 1 120.3304 68.0744 -34.5616 82.4643 37.3088 20.0681
# 2 68.0744 146.0290 44.1856 23.2701 15.1239 30.9780
# 3 -34.5616 44.1856 218.3334 -60.1920 3.2755 13.3646
# 4 82.4643 23.2701 -60.1920 152.2303 42.8896 18.3820
# 5 37.3088 15.1239 3.2755 42.8896 48.2657 6.2041
# 6 20.0681 30.9780 13.3646 18.3820 6.2041 34.1320
#
#
#
# Elastic Compliance Matrix: (Units=1/GPa)
#
#
# Indices 1 2 3 4 5 6 
#
# 1 0.021684 -0.009144 0.003689 -0.006439 -0.008307 -0.000917
# 2 -0.009144 0.012918 -0.003204 0.001801 0.002474 -0.006514
# 3 0.003689 -0.003204 0.006789 0.002728 -0.004400 -0.002589
# 4 -0.006439 0.001801 0.002728 0.013448 -0.007096 -0.004870
# 5 -0.008307 0.002474 -0.004400 -0.007096 0.032681 0.002243
# 6 -0.000917 -0.006514 -0.002589 -0.004870 0.002243 0.038978
#
#
# Mechanical properties :
#
#
# Convention : Reuss Voigt Hill
#
# Bulk Modulus (GPa) = 41.53831 71.12108 56.32969
# Shear Modulus (GPa) = 32.92954 74.05856 53.49405
#
# Velocity S-wave (km/s) = 3.67731 5.51475 4.68695
# Velocity P-wave (km/s) = 5.92352 8.35201 7.24031
#
# Compressibility (1/GPa) = 0.02407416
#
# Stress axis : x y z
#
# Youngs Moduli (GPa) = 46.11689 77.40942 147.29815
#
# Poissons Ratio (x) = 0.70780 -0.54332
# Poissons Ratio (y) = 0.42167 0.47188
# Poissons Ratio (z) = -0.17010 0.24799
#
# Static dielectric constant tensor:
#      x y z
#    x 2.004290 -0.030970 0.010040 
#    y -0.030970 2.009010 -0.082950 
#    z 0.010040 -0.082950 2.064840 
# 
# From -- ./inp_files/475950.got.cif
#   From: 2010.05.17/outbox.cif.g08.bks.cpg/sg2_238_cif.got.tgz:475950.got - 2010.06.03 11:33:40.
