data_PCOD9111638
_publ_section_title
;
Structure prediction by ZEFSAII (Michael W. Deem and Ramdas Pophale) SiO2 
 PCOD9111638
Probable space group: P -1
;
_chemical_formula_sum "Si O2"
_cell_formula_units_Z 14
_cell_length_a 17.854782
_cell_length_b 4.960950
_cell_length_c 15.190214
_cell_angle_alpha 57.655644
_cell_angle_beta 148.929324
_cell_angle_gamma 122.963358
_cell_volume 575.181943
_symmetry_space_group_name_H-M "P -1"
_symmetry_group_IT_number 2
_symmetry_cell_setting 'triclinic'
loop_
_space_group_symop_operation_xyz
x,y,z
-x,-y,-z
loop_
_atom_site_type_symbol
_atom_site_label
_atom_site_fract_x
_atom_site_fract_y
_atom_site_fract_z
Si Si1 0.604516 0.326812 0.075786
Si Si2 0.329309 0.853728 0.541907
Si Si3 0.754547 0.513631 0.012275
Si Si4 0.390026 0.005499 0.307809
Si Si5 0.941750 0.091312 0.191434
Si Si6 0.226568 0.099551 0.572265
Si Si7 0.885151 0.239712 0.826401
O O1 0.663988 0.483960 0.016425
O O2 0.734028 0.195129 0.280541
O O3 0.500000 0.500000 0.000000
O O4 0.500000 0.000000 0.000000
O O5 0.295883 0.471410 0.604649
O O6 0.219625 0.864149 0.346761
O O7 0.498464 0.997310 0.660283
O O8 0.291168 0.065514 0.546304
O O9 0.800836 0.192085 0.078855
O O10 0.899163 0.781272 0.139686
O O11 0.668210 0.662085 0.823562
O O12 0.236144 0.760459 0.217449
O O13 0.500000 0.000000 0.500000
O O14 0.052277 0.048768 0.388792
O O15 0.021465 0.403500 0.161655
O O16 0.000000 0.000000 0.000000
#
# Coordination Sequence:
#
# PCOD9111638 Si02
#       7
#     2   2   2   2   2   2   2
#     4  12  26  45  73 101 132 179 227 280 343 406
#     4  10  23  43  67 101 134 179 225 280 338 401
#     4  12  25  44  68 100 138 171 231 281 334 412
#     4  10  22  42  66  98 133 179 226 282 335 396
#     4  11  25  43  67 101 136 180 219 279 345 402
#     4  11  23  45  70  96 141 175 223 280 345 401
#     4  10  20  43  67  97 136 181 227 276 334 404
#
# _framework density 24.340122000000001
#
# number of rings (size 3 to 8) (size 9 to 14) (size 15 to 20)
#    0.000    1.143    1.429    5.143    0.000    2.857 
#    5.143    7.857    0.000    0.000    0.000    0.000 
#    0.000    0.000    0.000    0.000    0.000    0.000 
#
# Total GULP energy -78334.032621 kJ/mol
# GULP energy per Si atom -5595.288044 kJ/mol
# Density = 2.428472 g / cm^3
# Si number density = 24.340122 Si / 1000 Ang^3
#
#
#
# Elastic Constant Matrix: (Units=GPa)
#
#
# Indices 1 2 3 4 5 6 
#
# 1 75.7691 11.1422 10.0854 -4.7178 19.8200 -0.8666
# 2 11.1422 89.6022 20.5556 4.6190 -0.0242 -9.1958
# 3 10.0854 20.5556 142.8474 -26.2509 1.0979 7.0107
# 4 -4.7178 4.6190 -26.2509 41.5358 4.6204 1.2486
# 5 19.8200 -0.0242 1.0979 4.6204 31.1172 -3.8344
# 6 -0.8666 -9.1958 7.0107 1.2486 -3.8344 40.0338
#
#
#
# Elastic Compliance Matrix: (Units=1/GPa)
#
#
# Indices 1 2 3 4 5 6 
#
# 1 0.016717 -0.002387 -0.000052 0.003433 -0.011326 -0.001369
# 2 -0.002387 0.012599 -0.002517 -0.003663 0.002613 0.003647
# 3 -0.000052 -0.002517 0.008586 0.005934 -0.001450 -0.002407
# 4 0.003433 -0.003663 0.005934 0.029527 -0.007204 -0.003417
# 5 -0.011326 0.002613 -0.001450 -0.007204 0.041061 0.004766
# 6 -0.001369 0.003647 -0.002407 -0.003417 0.004766 0.026772
#
#
# Mechanical properties :
#
#
# Convention : Reuss Voigt Hill
#
# Bulk Modulus (GPa) = 35.72709 43.53169 39.62939
# Shear Modulus (GPa) = 32.36192 40.29971 36.33082
#
# Velocity S-wave (km/s) = 3.65028 4.07343 3.86765
# Velocity P-wave (km/s) = 5.69879 6.32830 6.02178
#
# Compressibility (1/GPa) = 0.02798996
#
# Stress axis : x y z
#
# Youngs Moduli (GPa) = 59.82007 79.37444 116.46868
#
# Poissons Ratio (x) = 0.18951 0.00601
# Poissons Ratio (y) = 0.14282 0.29310
# Poissons Ratio (z) = 0.00309 0.19975
#
# Static dielectric constant tensor:
#      x y z
#    x 1.852070 -0.002260 0.085780 
#    y -0.002260 1.904450 0.019290 
#    z 0.085780 0.019290 1.885860 
# 
# From -- ./inp_files/536161.got.cif
#   From: 2010.05.17/outbox.cif.g08.bks.cpg/sg2_269_cif.got.tgz:536161.got - 2010.06.03 11:33:40.
