data_PCOD9111088
_publ_section_title
;
Structure prediction by ZEFSAII (Michael W. Deem and Ramdas Pophale) SiO2 
 PCOD9111088
Probable space group: P -1
;
_chemical_formula_sum "Si O2"
_cell_formula_units_Z 16
_cell_length_a 10.086186
_cell_length_b 12.335782
_cell_length_c 17.878201
_cell_angle_alpha 26.331686
_cell_angle_beta 126.724103
_cell_angle_gamma 111.075284
_cell_volume 686.734883
_symmetry_space_group_name_H-M "P -1"
_symmetry_group_IT_number 2
_symmetry_cell_setting 'triclinic'
loop_
_space_group_symop_operation_xyz
x,y,z
-x,-y,-z
loop_
_atom_site_type_symbol
_atom_site_label
_atom_site_fract_x
_atom_site_fract_y
_atom_site_fract_z
Si Si1 0.728207 0.288738 0.039133
Si Si2 0.688323 0.724929 0.632249
Si Si3 0.610475 0.570916 0.058587
Si Si4 0.906072 0.039052 0.551576
Si Si5 0.772502 0.988264 0.854664
Si Si6 0.619279 0.151099 0.952881
Si Si7 0.794356 0.314434 0.786703
Si Si8 0.312362 0.816547 0.456451
O O1 0.759001 0.497883 0.865078
O O2 0.517177 0.419341 0.920042
O O3 0.743298 0.058602 0.127111
O O4 0.872510 0.157877 0.236658
O O5 0.707434 0.592099 0.637957
O O6 0.464510 0.927339 0.448178
O O7 0.812985 0.871192 0.587186
O O8 0.824259 0.317893 0.302285
O O9 0.500000 0.500000 0.000000
O O10 0.637520 0.846204 0.896700
O O11 0.820114 0.116783 0.558626
O O12 0.712112 0.272133 0.707042
O O13 0.797582 0.049289 0.739551
O O14 0.983576 0.781704 0.085831
O O15 0.753273 0.113655 0.951738
O O16 0.458777 0.483631 0.700036
O O17 0.500000 0.000000 0.000000
#
# Coordination Sequence:
#
# PCOD9111088 Si02
#       8
#     2   2   2   2   2   2   2   2
#     4  10  23  42  63 101 126 178 223 278 336 385
#     4  10  21  39  70  95 132 169 231 283 318 411
#     4  12  27  43  65  99 143 176 219 283 341 392
#     4  12  23  43  70  98 131 177 229 272 342 398
#     4  11  23  44  64  95 141 172 227 278 324 422
#     4  10  20  42  68  98 138 169 227 287 321 400
#     4   9  22  41  65  92 133 181 217 271 343 378
#     4  10  21  39  69  97 124 180 221 267 347 385
#
# _framework density 23.298656000000001
#
# number of rings (size 3 to 8) (size 9 to 14) (size 15 to 20)
#    0.000    1.750    2.500    3.750    3.500    2.500 
#    9.000    1.250    0.000    0.000    0.000    0.000 
#    0.000    0.000    0.000    0.000    0.000    0.000 
#
# Total GULP energy -89242.350259 kJ/mol
# GULP energy per Si atom -5577.646891 kJ/mol
# Density = 2.324563 g / cm^3
# Si number density = 23.298656 Si / 1000 Ang^3
#
#
#
# Elastic Constant Matrix: (Units=GPa)
#
#
# Indices 1 2 3 4 5 6 
#
# 1 66.5272 28.8090 3.3210 -8.7355 3.9307 1.2962
# 2 28.8090 134.2539 19.1303 9.5642 -19.9814 4.2305
# 3 3.3210 19.1303 63.2457 9.4684 -1.5048 10.0854
# 4 -8.7355 9.5642 9.4684 26.7662 -2.8673 -1.5703
# 5 3.9307 -19.9814 -1.5048 -2.8673 21.3135 5.0226
# 6 1.2962 4.2305 10.0854 -1.5703 5.0226 46.0195
#
#
#
# Elastic Compliance Matrix: (Units=1/GPa)
#
#
# Indices 1 2 3 4 5 6 
#
# 1 0.019072 -0.005806 -0.000822 0.007781 -0.008289 0.001347
# 2 -0.005806 0.010954 -0.001850 -0.004072 0.011083 -0.001786
# 3 -0.000822 -0.001850 0.017967 -0.006217 -0.000224 -0.003932
# 4 0.007781 -0.004072 -0.006217 0.043677 -0.000538 0.003067
# 5 -0.008289 0.011083 -0.000224 -0.000538 0.060482 -0.007356
# 6 0.001347 -0.001786 -0.003932 0.003067 -0.007356 0.023625
#
#
# Mechanical properties :
#
#
# Convention : Reuss Voigt Hill
#
# Bulk Modulus (GPa) = 32.22078 40.72751 36.47414
# Shear Modulus (GPa) = 24.62105 33.00429 28.81267
#
# Velocity S-wave (km/s) = 3.25431 3.76782 3.52044
# Velocity P-wave (km/s) = 5.28963 6.03716 5.67571
#
# Compressibility (1/GPa) = 0.03103588
#
# Stress axis : x y z
#
# Youngs Moduli (GPa) = 52.43342 91.29165 55.65866
#
# Poissons Ratio (x) = 0.53002 0.04576
# Poissons Ratio (y) = 0.30442 0.10298
# Poissons Ratio (z) = 0.04311 0.16892
#
# Static dielectric constant tensor:
#      x y z
#    x 1.899630 0.000090 0.035830 
#    y 0.000090 1.955930 -0.017530 
#    z 0.035830 -0.017530 1.937520 
# 
# From -- ./inp_files/568491.got.cif
#   From: 2010.05.17/outbox.cif.g08.bks.cpg/sg2_285_cif.got.tgz:568491.got - 2010.06.03 11:33:40.
