data_PCOD9111882
_publ_section_title
;
Structure prediction by ZEFSAII (Michael W. Deem and Ramdas Pophale) SiO2 
 PCOD9111882
Probable space group: P -1
;
_chemical_formula_sum "Si O2"
_cell_formula_units_Z 14
_cell_length_a 20.361061
_cell_length_b 5.215558
_cell_length_c 5.506978
_cell_angle_alpha 100.961588
_cell_angle_beta 72.606898
_cell_angle_gamma 87.981011
_cell_volume 545.235708
_symmetry_space_group_name_H-M "P -1"
_symmetry_group_IT_number 2
_symmetry_cell_setting 'triclinic'
loop_
_space_group_symop_operation_xyz
x,y,z
-x,-y,-z
loop_
_atom_site_type_symbol
_atom_site_label
_atom_site_fract_x
_atom_site_fract_y
_atom_site_fract_z
Si Si1 0.705468 0.158674 0.966644
Si Si2 0.229436 0.341710 0.902629
Si Si3 0.420736 0.118153 0.083070
Si Si4 0.902743 0.370435 0.686341
Si Si5 0.548516 0.724758 0.423553
Si Si6 0.174807 0.002629 0.541230
Si Si7 0.059413 0.761346 0.876076
O O1 0.629142 0.101773 0.965959
O O2 0.753184 0.128794 0.667347
O O3 0.879805 0.071080 0.619372
O O4 0.732522 0.922414 0.075215
O O5 0.193878 0.276784 0.675503
O O6 0.058499 0.595803 0.600567
O O7 0.279578 0.570450 0.878952
O O8 0.403416 0.245703 0.388321
O O9 0.417956 0.307570 0.886058
O O10 0.500000 0.000000 0.000000
O O11 0.832440 0.557084 0.827693
O O12 0.940601 0.389126 0.900105
O O13 0.500000 0.500000 0.500000
O O14 0.500000 0.000000 0.500000
O O15 0.134982 0.875400 0.785714
O O16 0.000000 0.000000 0.000000
#
# Coordination Sequence:
#
# PCOD9111882 Si02
#       7
#     2   2   2   2   2   2   2
#     4  11  26  43  72 107 141 195 240 307 359 442
#     4  11  24  46  70 104 144 193 247 296 366 425
#     4  10  24  47  70 107 142 184 238 297 366 431
#     4   9  22  40  71  99 145 185 240 292 359 419
#     4  10  22  42  70  94 137 178 221 281 352 423
#     4   9  22  40  71  96 148 179 247 284 366 412
#     4  10  20  43  73 107 145 190 239 298 362 428
#
# _framework density 25.676970000000001
#
# number of rings (size 3 to 8) (size 9 to 14) (size 15 to 20)
#    0.857    1.143    0.000    2.571    4.000    5.714 
#    0.000    1.429    0.000    0.000    0.000    0.000 
#    0.000    0.000    0.000    0.000    0.000    0.000 
#
# Total GULP energy -78223.940372 kJ/mol
# GULP energy per Si atom -5587.424312 kJ/mol
# Density = 2.561853 g / cm^3
# Si number density = 25.676970 Si / 1000 Ang^3
#
#
#
# Elastic Constant Matrix: (Units=GPa)
#
#
# Indices 1 2 3 4 5 6 
#
# 1 115.6619 49.3554 57.9349 -6.7844 2.3895 19.5260
# 2 49.3554 151.6275 41.4168 -3.2718 10.2386 23.7221
# 3 57.9349 41.4168 187.4356 10.4296 30.7058 14.9385
# 4 -6.7844 -3.2718 10.4296 40.8646 11.4038 -3.9590
# 5 2.3895 10.2386 30.7058 11.4038 46.0463 3.3317
# 6 19.5260 23.7221 14.9385 -3.9590 3.3317 50.0230
#
#
#
# Elastic Compliance Matrix: (Units=1/GPa)
#
#
# Indices 1 2 3 4 5 6 
#
# 1 0.011926 -0.002694 -0.003317 0.001850 0.001905 -0.002367
# 2 -0.002694 0.008116 -0.000589 0.000445 -0.001201 -0.002506
# 3 -0.003317 -0.000589 0.007286 -0.001328 -0.004196 -0.000427
# 4 0.001850 0.000445 -0.001328 0.027067 -0.006159 0.002016
# 5 0.001905 -0.001201 -0.004196 -0.006159 0.026293 -0.001160
# 6 -0.002367 -0.002506 -0.000427 0.002016 -0.001160 0.022468
#
#
# Mechanical properties :
#
#
# Convention : Reuss Voigt Hill
#
# Bulk Modulus (GPa) = 70.78689 83.57099 77.17894
# Shear Modulus (GPa) = 41.30043 47.78797 44.54420
#
# Velocity S-wave (km/s) = 4.01491 4.31875 4.16960
# Velocity P-wave (km/s) = 7.00862 7.58199 7.30094
#
# Compressibility (1/GPa) = 0.01412691
#
# Stress axis : x y z
#
# Youngs Moduli (GPa) = 83.85033 123.21824 137.25084
#
# Poissons Ratio (x) = 0.33198 0.45530
# Poissons Ratio (y) = 0.22591 0.08082
# Poissons Ratio (z) = 0.27816 0.07255
#
# Static dielectric constant tensor:
#      x y z
#    x 1.962820 0.034860 0.082360 
#    y 0.034860 1.955200 -0.066070 
#    z 0.082360 -0.066070 1.981970 
# 
# From -- ./inp_files/102777.got.cif
#   From: 2010.05.17/outbox.cif.g08.bks.cpg/sg2_52_cif.got.tgz:102777.got - 2010.06.03 11:33:40.
