data_PCOD9111697
_publ_section_title
;
Structure prediction by ZEFSAII (Michael W. Deem and Ramdas Pophale) SiO2 
 PCOD9111697
Probable space group: P -1
;
_chemical_formula_sum "Si O2"
_cell_formula_units_Z 16
_cell_length_a 15.404583
_cell_length_b 8.923984
_cell_length_c 5.169121
_cell_angle_alpha 105.601615
_cell_angle_beta 101.894530
_cell_angle_gamma 64.603150
_cell_volume 614.902102
_symmetry_space_group_name_H-M "P -1"
_symmetry_group_IT_number 2
_symmetry_cell_setting 'triclinic'
loop_
_space_group_symop_operation_xyz
x,y,z
-x,-y,-z
loop_
_atom_site_type_symbol
_atom_site_label
_atom_site_fract_x
_atom_site_fract_y
_atom_site_fract_z
Si Si1 0.573243 0.228180 0.923413
Si Si2 0.134816 0.960268 0.747258
Si Si3 0.726285 0.572686 0.749975
Si Si4 0.280113 0.634860 0.853840
Si Si5 0.588098 0.819850 0.429549
Si Si6 0.915358 0.603867 0.793907
Si Si7 0.997728 0.756363 0.510859
Si Si8 0.321239 0.962136 0.610234
O O1 0.613379 0.365632 0.100541
O O2 0.461561 0.269713 0.829739
O O3 0.623215 0.165034 0.645010
O O4 0.617674 0.087863 0.109178
O O5 0.219245 0.950883 0.592332
O O6 0.059818 0.868349 0.641630
O O7 0.064885 0.157853 0.744325
O O8 0.206696 0.832774 0.942697
O O9 0.730295 0.473784 0.967254
O O10 0.625961 0.719032 0.668331
O O11 0.808122 0.649505 0.852281
O O12 0.742161 0.438313 0.461290
O O13 0.500000 0.000000 0.500000
O O14 0.676417 0.858716 0.387593
O O15 0.928387 0.749654 0.698451
O O16 0.931482 0.440206 0.544542
O O17 0.000000 0.500000 0.000000
#
# Coordination Sequence:
#
# PCOD9111697 Si02
#       8
#     2   2   2   2   2   2   2   2
#     4  10  22  40  69  95 135 175 221 286 335 401
#     4  10  20  43  68  97 134 180 234 276 340 406
#     4  12  26  44  72  96 141 186 224 286 352 404
#     4  11  24  44  66 102 136 182 231 280 342 412
#     4  10  24  46  69 103 137 180 234 284 342 416
#     4  11  24  44  66 102 142 179 229 284 349 410
#     4  10  22  42  66  97 135 180 227 288 339 403
#     4  10  21  41  67  97 135 175 223 284 337 400
#
# _framework density 26.020401
#
# number of rings (size 3 to 8) (size 9 to 14) (size 15 to 20)
#    0.000    1.500    1.250    3.375    1.750    5.000 
#   15.750    1.875    0.000    0.000    0.000    0.000 
#    0.000    0.000    0.000    0.000    0.000    0.000 
#
# Total GULP energy -89291.151581 kJ/mol
# GULP energy per Si atom -5580.696974 kJ/mol
# Density = 2.596118 g / cm^3
# Si number density = 26.020401 Si / 1000 Ang^3
#
#
#
# Elastic Constant Matrix: (Units=GPa)
#
#
# Indices 1 2 3 4 5 6 
#
# 1 130.8598 47.1328 35.9879 -11.5194 4.6434 46.1309
# 2 47.1328 130.0321 33.3477 -44.6388 -0.1999 -0.6286
# 3 35.9879 33.3477 67.0877 -25.0663 -7.0135 8.2052
# 4 -11.5194 -44.6388 -25.0663 39.1204 9.3100 2.0857
# 5 4.6434 -0.1999 -7.0135 9.3100 33.6695 -4.5097
# 6 46.1309 -0.6286 8.2052 2.0857 -4.5097 44.0110
#
#
#
# Elastic Compliance Matrix: (Units=1/GPa)
#
#
# Indices 1 2 3 4 5 6 
#
# 1 0.017722 -0.006171 -0.006124 -0.003564 -0.005166 -0.017883
# 2 -0.006171 0.015485 0.000947 0.016832 -0.002787 0.005430
# 3 -0.006124 0.000947 0.022649 0.013178 0.002166 0.001807
# 4 -0.003564 0.016832 0.013178 0.055202 -0.012242 -0.002351
# 5 -0.005166 -0.002787 0.002166 -0.012242 0.035463 0.009185
# 6 -0.017883 0.005430 0.001807 -0.002351 0.009185 0.042259
#
#
# Mechanical properties :
#
#
# Convention : Reuss Voigt Hill
#
# Bulk Modulus (GPa) = 30.15645 62.32405 46.24025
# Shear Modulus (GPa) = 22.46890 37.46092 29.96491
#
# Velocity S-wave (km/s) = 2.94174 3.79842 3.39719
# Velocity P-wave (km/s) = 4.81177 6.57581 5.76171
#
# Compressibility (1/GPa) = 0.03316041
#
# Stress axis : x y z
#
# Youngs Moduli (GPa) = 56.42628 64.57937 44.15147
#
# Poissons Ratio (x) = 0.39854 0.27037
# Poissons Ratio (y) = 0.34822 -0.04181
# Poissons Ratio (z) = 0.34554 -0.06116
#
# Static dielectric constant tensor:
#      x y z
#    x 2.093920 -0.022090 0.002010 
#    y -0.022090 2.132410 0.115770 
#    z 0.002010 0.115770 2.098030 
# 
# From -- ./inp_files/90493.got.cif
#   From: 2010.05.17/outbox.cif.g08.bks.cpg/sg2_46_cif.got.tgz:90493.got - 2010.06.03 11:33:40.
