data_PCOD9111336
_publ_section_title
;
Structure prediction by ZEFSAII (Michael W. Deem and Ramdas Pophale) SiO2 
 PCOD9111336
Probable space group: P -1
;
_chemical_formula_sum "Si O2"
_cell_formula_units_Z 16
_cell_length_a 8.072168
_cell_length_b 11.592861
_cell_length_c 9.482192
_cell_angle_alpha 51.370961
_cell_angle_beta 95.119927
_cell_angle_gamma 98.114442
_cell_volume 686.252028
_symmetry_space_group_name_H-M "P -1"
_symmetry_group_IT_number 2
_symmetry_cell_setting 'triclinic'
loop_
_space_group_symop_operation_xyz
x,y,z
-x,-y,-z
loop_
_atom_site_type_symbol
_atom_site_label
_atom_site_fract_x
_atom_site_fract_y
_atom_site_fract_z
Si Si1 0.438930 0.716228 0.907003
Si Si2 0.866817 0.484699 0.876987
Si Si3 0.300755 0.942800 0.538889
Si Si4 0.315770 0.190496 0.907540
Si Si5 0.025392 0.363274 0.712467
Si Si6 0.306900 0.260078 0.344789
Si Si7 0.197988 0.869226 0.268878
Si Si8 0.508647 0.330399 0.575203
O O1 0.305150 0.810840 0.749318
O O2 0.601690 0.718922 0.816908
O O3 0.321348 0.567774 0.045270
O O4 0.515912 0.782127 0.007190
O O5 0.845932 0.649285 0.699479
O O6 0.917925 0.387138 0.825642
O O7 0.000000 0.500000 0.000000
O O8 0.226064 0.899501 0.413896
O O9 0.500000 0.000000 0.500000
O O10 0.233447 0.088859 0.480881
O O11 0.205450 0.329342 0.813816
O O12 0.374985 0.215149 0.733801
O O13 0.237280 0.026981 0.072402
O O14 0.000000 0.500000 0.500000
O O15 0.975461 0.212590 0.736214
O O16 0.455675 0.313848 0.422202
O O17 0.319331 0.741637 0.338295
O O18 0.500000 0.500000 0.500000
#
# Coordination Sequence:
#
# PCOD9111336 Si02
#       8
#     2   2   2   2   2   2   2   2
#     4  11  22  45  73 102 133 179 234 287 345 408
#     4  12  28  44  67 104 141 180 236 284 343 418
#     4  10  20  42  73 104 133 179 228 286 350 409
#     4  12  24  45  74 102 140 183 236 292 342 417
#     4  12  29  49  68 101 146 191 227 288 363 414
#     4  11  21  44  68  98 138 177 230 280 347 413
#     4  12  23  45  74 103 142 176 242 290 349 416
#     4  12  24  40  70 108 137 182 230 285 350 417
#
# _framework density 23.315048999999998
#
# number of rings (size 3 to 8) (size 9 to 14) (size 15 to 20)
#    0.000    0.500    5.000    5.625    1.750    2.000 
#    0.000    1.875    0.000    0.000    0.000    0.000 
#    0.000    0.000    0.000    0.000    0.000    0.000 
#
# Total GULP energy -89333.392471 kJ/mol
# GULP energy per Si atom -5583.337029 kJ/mol
# Density = 2.326198 g / cm^3
# Si number density = 23.315049 Si / 1000 Ang^3
#
#
#
# Elastic Constant Matrix: (Units=GPa)
#
#
# Indices 1 2 3 4 5 6 
#
# 1 27.0754 1.6476 11.2596 1.9506 8.5210 2.2621
# 2 1.6476 113.2474 30.0619 -5.0845 6.0230 14.1893
# 3 11.2596 30.0619 104.8973 -8.7504 11.7151 9.5229
# 4 1.9506 -5.0845 -8.7504 38.8541 0.2097 6.2387
# 5 8.5210 6.0230 11.7151 0.2097 12.7883 -4.3444
# 6 2.2621 14.1893 9.5229 6.2387 -4.3444 33.1424
#
#
#
# Elastic Compliance Matrix: (Units=1/GPa)
#
#
# Indices 1 2 3 4 5 6 
#
# 1 0.049386 0.002582 -0.001329 -0.000862 -0.035822 -0.008627
# 2 0.002582 0.010387 -0.001885 0.001689 -0.006707 -0.005279
# 3 -0.001329 -0.001885 0.012149 0.003365 -0.010997 -0.004668
# 4 -0.000862 0.001689 0.003365 0.028038 -0.006395 -0.007747
# 5 -0.035822 -0.006707 -0.010997 -0.006395 0.124222 0.025963
# 6 -0.008627 -0.005279 -0.004668 -0.007747 0.025963 0.039225
#
#
# Mechanical properties :
#
#
# Convention : Reuss Voigt Hill
#
# Bulk Modulus (GPa) = 14.15283 36.79539 25.47411
# Shear Modulus (GPa) = 17.34770 30.44035 23.89403
#
# Velocity S-wave (km/s) = 2.73070 3.61724 3.20477
# Velocity P-wave (km/s) = 4.00321 5.76732 4.96426
#
# Compressibility (1/GPa) = 0.07065722
#
# Stress axis : x y z
#
# Youngs Moduli (GPa) = 20.24870 96.27527 82.31454
#
# Poissons Ratio (x) = -0.24856 0.10940
# Poissons Ratio (y) = -0.05228 0.15514
# Poissons Ratio (z) = 0.02691 0.18145
#
# Static dielectric constant tensor:
#      x y z
#    x 2.008060 0.008140 0.067810 
#    y 0.008140 1.904560 -0.051990 
#    z 0.067810 -0.051990 1.908410 
# 
# From -- ./inp_files/184390.got.cif
#   From: 2010.05.17/outbox.cif.g08.bks.cpg/sg2_93_cif.got.tgz:184390.got - 2010.06.03 11:33:40.
