data_PCOD9111703
_publ_section_title
;
Structure prediction by ZEFSAII (Michael W. Deem and Ramdas Pophale) SiO2 
 PCOD9111703
Probable space group: P -1
;
_chemical_formula_sum "Si O2"
_cell_formula_units_Z 15
_cell_length_a 8.289042
_cell_length_b 9.185311
_cell_length_c 9.386584
_cell_angle_alpha 110.920091
_cell_angle_beta 94.897399
_cell_angle_gamma 117.701429
_cell_volume 563.084074
_symmetry_space_group_name_H-M "P -1"
_symmetry_group_IT_number 2
_symmetry_cell_setting 'triclinic'
loop_
_space_group_symop_operation_xyz
x,y,z
-x,-y,-z
loop_
_atom_site_type_symbol
_atom_site_label
_atom_site_fract_x
_atom_site_fract_y
_atom_site_fract_z
Si Si1 0.708055 0.428525 0.932527
Si Si2 0.399745 0.629685 0.760800
Si Si3 0.615992 0.711849 0.371791
Si Si4 0.500000 0.000000 0.500000
Si Si5 0.217293 0.066694 0.005904
Si Si6 0.879857 0.204794 0.893300
Si Si7 0.937513 0.984399 0.307061
Si Si8 0.150973 0.721987 0.588859
O O1 0.538952 0.396059 0.806258
O O2 0.748559 0.268807 0.835926
O O3 0.672992 0.418070 0.096247
O O4 0.910695 0.619692 0.994049
O O5 0.368153 0.450291 0.615710
O O6 0.625630 0.765554 0.835455
O O7 0.303064 0.726988 0.712656
O O8 0.548806 0.839327 0.476636
O O9 0.831992 0.858938 0.390389
O O10 0.288802 0.861729 0.522487
O O11 0.224956 0.896246 0.004820
O O12 0.238876 0.111467 0.858188
O O13 0.000000 0.000000 0.000000
O O14 0.912835 0.068167 0.753964
O O15 0.974801 0.186444 0.359383
O O16 0.000000 0.500000 0.500000
#
# Coordination Sequence:
#
# PCOD9111703 Si02
#       8
#     2   2   2   1   2   2   2   2
#     4  11  22  39  70 108 149 179 233 303 371 444
#     4  12  24  43  77 107 142 197 238 300 387 434
#     4  11  22  44  70 101 146 191 239 300 362 441
#     4  10  28  50  70 102 142 200 256 304 356 438
#     4  10  21  36  63 109 145 178 231 296 372 445
#     4  10  22  35  59 109 140 185 226 286 369 436
#     4  10  20  43  68  97 148 188 232 299 367 431
#     4  11  28  51  73 103 148 201 258 310 355 441
#
# _framework density 26.639005000000001
#
# number of rings (size 3 to 8) (size 9 to 14) (size 15 to 20)
#    0.000    1.333    2.667    2.800    3.733    6.933 
#    2.400    1.333    0.000    0.000    0.000    0.000 
#    0.000    0.000    0.000    0.000    0.000    0.000 
#
# Total GULP energy -83516.210387 kJ/mol
# GULP energy per Si atom -5567.747359 kJ/mol
# Density = 2.657837 g / cm^3
# Si number density = 26.639005 Si / 1000 Ang^3
#
#
#
# Elastic Constant Matrix: (Units=GPa)
#
#
# Indices 1 2 3 4 5 6 
#
# 1 122.6681 57.0246 49.1179 31.1565 -14.7492 -31.9341
# 2 57.0246 129.1256 16.2444 33.2311 -14.0702 -21.0509
# 3 49.1179 16.2444 40.8872 13.5128 7.7619 -14.0386
# 4 31.1565 33.2311 13.5128 27.5576 -3.8294 -4.5814
# 5 -14.7492 -14.0702 7.7619 -3.8294 63.4523 17.1328
# 6 -31.9341 -21.0509 -14.0386 -4.5814 17.1328 65.9390
#
#
#
# Elastic Compliance Matrix: (Units=1/GPa)
#
#
# Indices 1 2 3 4 5 6 
#
# 1 0.022926 -0.003904 -0.023436 -0.008425 0.006093 0.002699
# 2 -0.003904 0.012466 0.004662 -0.012544 -0.000072 0.002229
# 3 -0.023436 0.004662 0.057991 -0.008538 -0.013479 0.005394
# 4 -0.008425 -0.012544 -0.008538 0.064394 0.001782 -0.005891
# 5 0.006093 -0.000072 -0.013479 0.001782 0.020291 -0.005090
# 6 0.002699 0.002229 0.005394 -0.005891 -0.005090 0.019246
#
#
# Mechanical properties :
#
#
# Convention : Reuss Voigt Hill
#
# Bulk Modulus (GPa) = 20.82142 59.71721 40.26931
# Shear Modulus (GPa) = 19.32906 42.74271 31.03589
#
# Velocity S-wave (km/s) = 2.69660 4.00999 3.41699
# Velocity P-wave (km/s) = 4.18673 6.62615 5.54232
#
# Compressibility (1/GPa) = 0.04802746
#
# Stress axis : x y z
#
# Youngs Moduli (GPa) = 43.61877 80.22006 17.24400
#
# Poissons Ratio (x) = 0.31320 0.40412
# Poissons Ratio (y) = 0.17030 -0.08039
# Poissons Ratio (z) = 1.02223 -0.37400
#
# Static dielectric constant tensor:
#      x y z
#    x 2.017150 -0.026130 -0.041370 
#    y -0.026130 2.097890 -0.088760 
#    z -0.041370 -0.088760 2.268350 
# 
# From -- ./inp_files/380030.got.cif
#   From: 2010.05.17/outbox.cif.g08.bks.cpg/sg2_191_cif.got.tgz:380030.got - 2010.06.03 11:33:40.
