data_PCOD9111529
_publ_section_title
;
Structure prediction by ZEFSAII (Michael W. Deem and Ramdas Pophale) SiO2 
 PCOD9111529
Probable space group: P -1
;
_chemical_formula_sum "Si O2"
_cell_formula_units_Z 14
_cell_length_a 7.419656
_cell_length_b 8.318663
_cell_length_c 14.037375
_cell_angle_alpha 89.750474
_cell_angle_beta 55.355912
_cell_angle_gamma 59.156747
_cell_volume 559.153955
_symmetry_space_group_name_H-M "P -1"
_symmetry_group_IT_number 2
_symmetry_cell_setting 'triclinic'
loop_
_space_group_symop_operation_xyz
x,y,z
-x,-y,-z
loop_
_atom_site_type_symbol
_atom_site_label
_atom_site_fract_x
_atom_site_fract_y
_atom_site_fract_z
Si Si1 0.938696 0.614729 0.241509
Si Si2 0.234082 0.453877 0.505184
Si Si3 0.084187 0.280156 0.063737
Si Si4 0.306506 0.906631 0.138683
Si Si5 0.000000 0.000000 0.000000
Si Si6 0.572471 0.075029 0.284475
Si Si7 0.972036 0.889868 0.594147
Si Si8 0.500000 0.500000 0.000000
O O1 0.853436 0.576318 0.366730
O O2 0.907224 0.498788 0.165979
O O3 0.751726 0.854335 0.279720
O O4 0.263142 0.515529 0.135890
O O5 0.505159 0.246969 0.379421
O O6 0.000000 0.500000 0.500000
O O7 0.229842 0.648701 0.514709
O O8 0.198105 0.110099 0.113190
O O9 0.366852 0.223744 0.933192
O O10 0.936084 0.227538 0.037124
O O11 0.106578 0.977754 0.287740
O O12 0.315149 0.754437 0.064418
O O13 0.267448 0.926391 0.853690
O O14 0.291573 0.110724 0.336918
O O15 0.000000 0.000000 0.500000
#
# Coordination Sequence:
#
# PCOD9111529 Si02
#       8
#     2   2   2   2   1   2   2   1
#     4  11  23  46  71 110 145 185 242 296 367 428
#     4  10  24  45  71  97 141 191 238 290 352 429
#     4  10  22  41  71  96 139 182 233 294 354 427
#     4  10  20  43  66 101 135 185 241 284 349 430
#     4  12  24  46  66 104 146 178 232 300 368 414
#     4  11  26  45  71 107 144 188 233 307 357 427
#     4  11  24  46  71 101 141 191 244 291 353 433
#     4  10  24  36  72 106 134 192 230 290 356 428
#
# _framework density 25.037827
#
# number of rings (size 3 to 8) (size 9 to 14) (size 15 to 20)
#    0.000    1.429    2.857    1.286    4.000    4.000 
#    7.714    1.429    0.000    0.000    0.000    0.000 
#    0.000    0.000    0.000    0.000    0.000    0.000 
#
# Total GULP energy -77946.629251 kJ/mol
# GULP energy per Si atom -5567.616375 kJ/mol
# Density = 2.498084 g / cm^3
# Si number density = 25.037827 Si / 1000 Ang^3
#
#
#
# Elastic Constant Matrix: (Units=GPa)
#
#
# Indices 1 2 3 4 5 6 
#
# 1 87.2492 13.4586 42.3114 3.4786 4.7343 6.9814
# 2 13.4586 138.7270 82.3253 19.6419 19.3093 0.4606
# 3 42.3114 82.3253 197.6991 5.7918 21.7190 17.5278
# 4 3.4786 19.6419 5.7918 56.5055 16.5239 6.1964
# 5 4.7343 19.3093 21.7190 16.5239 35.0381 0.3571
# 6 6.9814 0.4606 17.5278 6.1964 0.3571 19.1701
#
#
#
# Elastic Compliance Matrix: (Units=1/GPa)
#
#
# Indices 1 2 3 4 5 6 
#
# 1 0.012910 0.000456 -0.002751 -0.000425 -0.000069 -0.002059
# 2 0.000456 0.010617 -0.004702 -0.003355 -0.001467 0.004989
# 3 -0.002751 -0.004702 0.008591 0.002810 -0.003611 -0.007582
# 4 -0.000425 -0.003355 0.002810 0.022694 -0.010442 -0.009475
# 5 -0.000069 -0.001467 -0.003611 -0.010442 0.036459 0.006058
# 6 -0.002059 0.004989 -0.007582 -0.009475 0.006058 0.062676
#
#
# Mechanical properties :
#
#
# Convention : Reuss Voigt Hill
#
# Bulk Modulus (GPa) = 55.16603 77.76286 66.46445
# Shear Modulus (GPa) = 28.73868 41.18141 34.96004
#
# Velocity S-wave (km/s) = 3.39161 4.05997 3.74075
# Velocity P-wave (km/s) = 6.11705 7.28721 6.72762
#
# Compressibility (1/GPa) = 0.01812710
#
# Stress axis : x y z
#
# Youngs Moduli (GPa) = 77.45719 94.19006 116.39784
#
# Poissons Ratio (x) = -0.04300 0.32015
# Poissons Ratio (y) = -0.03536 0.54726
# Poissons Ratio (z) = 0.21305 0.44285
#
# Static dielectric constant tensor:
#      x y z
#    x 3.266140 -0.575650 0.460430 
#    y -0.575650 2.190120 -0.167730 
#    z 0.460430 -0.167730 2.078720 
# 
# From -- ./inp_files/306659.got.cif
#   From: 2010.05.17/outbox.cif.g08.bks.cpg/sg2_154_cif.got.tgz:306659.got - 2010.06.03 11:33:40.
