data_PCOD9111009
_publ_section_title
;
Structure prediction by ZEFSAII (Michael W. Deem and Ramdas Pophale) SiO2 
 PCOD9111009
Probable space group: P -1
;
_chemical_formula_sum "Si O2"
_cell_formula_units_Z 15
_cell_length_a 11.360684
_cell_length_b 14.662738
_cell_length_c 11.462309
_cell_angle_alpha 51.752275
_cell_angle_beta 142.876383
_cell_angle_gamma 149.768135
_cell_volume 564.695921
_symmetry_space_group_name_H-M "P -1"
_symmetry_group_IT_number 2
_symmetry_cell_setting 'triclinic'
loop_
_space_group_symop_operation_xyz
x,y,z
-x,-y,-z
loop_
_atom_site_type_symbol
_atom_site_label
_atom_site_fract_x
_atom_site_fract_y
_atom_site_fract_z
Si Si1 0.321486 0.503575 0.230859
Si Si2 0.296532 0.528564 0.467397
Si Si3 0.581472 0.849274 0.148664
Si Si4 0.056264 0.800387 0.191759
Si Si5 0.287131 0.819252 0.600267
Si Si6 0.202007 0.051956 0.389339
Si Si7 0.263202 0.845367 0.074773
Si Si8 0.000000 0.000000 0.000000
O O1 0.350110 0.543067 0.359438
O O2 0.580522 0.543251 0.344576
O O3 0.333703 0.637436 0.082290
O O4 0.004591 0.288332 0.128788
O O5 0.510089 0.727953 0.532300
O O6 0.942555 0.366245 0.360722
O O7 0.502366 0.861775 0.204149
O O8 0.917697 0.946582 0.334809
O O9 0.583325 0.958553 0.976518
O O10 0.151227 0.767069 0.402593
O O11 0.085368 0.751809 0.130232
O O12 0.339847 0.036542 0.223443
O O13 0.792726 0.772265 0.020134
O O14 0.288744 0.955133 0.537041
O O15 0.062475 0.018609 0.179355
#
# Coordination Sequence:
#
# PCOD9111009 Si02
#       8
#     2   2   2   2   2   2   2   1
#     4  11  24  40  59 101 132 168 217 262 320 390
#     4  11  24  39  65  95 134 167 215 263 322 389
#     4  11  23  40  66  93 130 175 212 266 329 369
#     4  10  22  44  69  94 126 170 219 263 324 386
#     4  10  24  44  66  94 131 172 212 268 322 381
#     4  11  22  43  66  96 129 175 216 261 324 383
#     4  11  24  42  64  97 130 167 220 271 317 385
#     4  10  20  42  68  90 126 162 218 268 306 382
#
# _framework density 26.56297
#
# number of rings (size 3 to 8) (size 9 to 14) (size 15 to 20)
#    0.000    1.333    4.000    0.400    5.600    0.533 
#    2.400    8.000    0.000    0.000    0.000    0.000 
#    0.000    0.000    0.000    0.000    0.000    0.000 
#
# Total GULP energy -83763.105012 kJ/mol
# GULP energy per Si atom -5584.207001 kJ/mol
# Density = 2.650251 g / cm^3
# Si number density = 26.562970 Si / 1000 Ang^3
#
#
#
# Elastic Constant Matrix: (Units=GPa)
#
#
# Indices 1 2 3 4 5 6 
#
# 1 136.8207 21.1347 14.8421 7.9112 -14.1135 -17.4197
# 2 21.1347 96.9383 2.1446 -3.8792 -2.8409 -7.3114
# 3 14.8421 2.1446 68.6452 -11.4177 -9.4918 -13.5547
# 4 7.9112 -3.8792 -11.4177 35.1967 -4.5684 9.4248
# 5 -14.1135 -2.8409 -9.4918 -4.5684 43.2723 6.8191
# 6 -17.4197 -7.3114 -13.5547 9.4248 6.8191 32.2028
#
#
#
# Elastic Compliance Matrix: (Units=1/GPa)
#
#
# Indices 1 2 3 4 5 6 
#
# 1 0.008620 -0.001615 -0.001337 -0.003583 0.001325 0.004502
# 2 -0.001615 0.010821 0.000544 0.001401 0.000238 0.001352
# 3 -0.001337 0.000544 0.016995 0.005112 0.003176 0.004385
# 4 -0.003583 0.001401 0.005112 0.034605 0.005390 -0.010738
# 5 0.001325 0.000238 0.003176 0.005390 0.025593 -0.004890
# 6 0.004502 0.001352 0.004385 -0.010738 -0.004890 0.039819
#
#
# Mechanical properties :
#
#
# Convention : Reuss Voigt Hill
#
# Bulk Modulus (GPa) = 31.62571 42.07187 36.84879
# Shear Modulus (GPa) = 32.93603 39.75321 36.34462
#
# Velocity S-wave (km/s) = 3.52507 3.87274 3.70299
# Velocity P-wave (km/s) = 5.33854 5.98919 5.67320
#
# Compressibility (1/GPa) = 0.03161984
#
# Stress axis : x y z
#
# Youngs Moduli (GPa) = 116.00538 92.41396 58.84065
#
# Poissons Ratio (x) = 0.14924 0.07869
# Poissons Ratio (y) = 0.18733 -0.03201
# Poissons Ratio (z) = 0.15513 -0.05027
#
# Static dielectric constant tensor:
#      x y z
#    x 2.587600 -0.091510 0.483020 
#    y -0.091510 2.089530 -0.106970 
#    z 0.483020 -0.106970 2.593450 
# 
# From -- ./inp_files/432759.got.cif
#   From: 2010.05.17/outbox.cif.g08.bks.cpg/sg2_217_cif.got.tgz:432759.got - 2010.06.03 11:33:40.
