data_PCOD9111790
_publ_section_title
;
Structure prediction by ZEFSAII (Michael W. Deem and Ramdas Pophale) SiO2 
 PCOD9111790
Probable space group: P -1
;
_chemical_formula_sum "Si O2"
_cell_formula_units_Z 12
_cell_length_a 9.422416
_cell_length_b 11.017655
_cell_length_c 9.184471
_cell_angle_alpha 53.437924
_cell_angle_beta 66.312691
_cell_angle_gamma 43.504922
_cell_volume 526.421176
_symmetry_space_group_name_H-M "P -1"
_symmetry_group_IT_number 2
_symmetry_cell_setting 'triclinic'
loop_
_space_group_symop_operation_xyz
x,y,z
-x,-y,-z
loop_
_atom_site_type_symbol
_atom_site_label
_atom_site_fract_x
_atom_site_fract_y
_atom_site_fract_z
Si Si1 0.934198 0.917550 0.472697
Si Si2 0.484278 0.357933 0.011028
Si Si3 0.831253 0.276164 0.781123
Si Si4 0.136574 0.502431 0.827838
Si Si5 0.845279 0.697684 0.319844
Si Si6 0.448248 0.253507 0.394696
O O1 0.069513 0.840397 0.326399
O O2 0.992798 0.719501 0.657825
O O3 0.692909 0.094461 0.419436
O O4 0.000000 0.000000 0.500000
O O5 0.408954 0.286290 0.213873
O O6 0.500000 0.500000 0.000000
O O7 0.713925 0.214700 0.952066
O O8 0.324387 0.455888 0.874035
O O9 0.658222 0.522807 0.657368
O O10 0.019106 0.241085 0.809980
O O11 0.208330 0.348508 0.775975
O O12 0.000000 0.500000 0.000000
O O13 0.648486 0.821838 0.419160
O O14 0.000000 0.500000 0.500000
#
# Coordination Sequence:
#
# PCOD9111790 Si02
#       6
#     2   2   2   2   2   2
#     4  12  26  40  73 108 140 183 240 288 352 423
#     4  10  22  41  70  99 139 185 224 284 355 412
#     4  10  22  44  69  97 148 182 228 290 357 410
#     4  12  24  44  75 103 143 187 236 290 352 418
#     4  10  20  43  70  96 135 189 226 284 351 410
#     4  10  22  43  70 100 135 184 233 283 351 413
#
# _framework density 22.795437
#
# number of rings (size 3 to 8) (size 9 to 14) (size 15 to 20)
#    0.000    1.333    3.333    5.000    2.333    2.667 
#    0.000    0.833    0.000    0.000    0.000    0.000 
#    0.000    0.000    0.000    0.000    0.000    0.000 
#
# Total GULP energy -67017.591758 kJ/mol
# GULP energy per Si atom -5584.799313 kJ/mol
# Density = 2.274355 g / cm^3
# Si number density = 22.795437 Si / 1000 Ang^3
#
#
#
# Elastic Constant Matrix: (Units=GPa)
#
#
# Indices 1 2 3 4 5 6 
#
# 1 121.4670 52.4242 38.5560 25.3122 19.5695 -2.7577
# 2 52.4242 138.5810 52.4650 24.2512 3.9299 -12.4116
# 3 38.5560 52.4650 87.4602 40.3879 6.7297 -13.3183
# 4 25.3122 24.2512 40.3879 41.8525 -8.0789 -9.0158
# 5 19.5695 3.9299 6.7297 -8.0789 42.9962 11.5043
# 6 -2.7577 -12.4116 -13.3183 -9.0158 11.5043 33.9604
#
#
#
# Elastic Compliance Matrix: (Units=1/GPa)
#
#
# Indices 1 2 3 4 5 6 
#
# 1 0.012055 -0.003288 0.000496 -0.007079 -0.006690 0.000359
# 2 -0.003288 0.010293 -0.005504 0.001901 0.001409 0.001364
# 3 0.000496 -0.005504 0.027349 -0.024213 -0.010090 0.005744
# 4 -0.007079 0.001901 -0.024213 0.053541 0.017159 -0.000974
# 5 -0.006690 0.001409 -0.010090 0.017159 0.033897 -0.010913
# 6 0.000359 0.001364 0.005744 -0.000974 -0.010913 0.035664
#
#
# Mechanical properties :
#
#
# Convention : Reuss Voigt Hill
#
# Bulk Modulus (GPa) = 30.20572 70.48873 50.34722
# Shear Modulus (GPa) = 24.94684 37.36604 31.15644
#
# Velocity S-wave (km/s) = 3.31173 4.05308 3.70101
# Velocity P-wave (km/s) = 5.28232 7.27274 6.35593
#
# Compressibility (1/GPa) = 0.03310631
#
# Stress axis : x y z
#
# Youngs Moduli (GPa) = 82.95137 97.15540 36.56423
#
# Poissons Ratio (x) = 0.31940 -0.01814
# Poissons Ratio (y) = 0.27271 0.20124
# Poissons Ratio (z) = -0.04114 0.53473
#
# Static dielectric constant tensor:
#      x y z
#    x 1.901420 0.011110 -0.074080 
#    y 0.011110 1.932870 -0.042800 
#    z -0.074080 -0.042800 1.938200 
# 
# From -- ./inp_files/182753.got.cif
#   From: 2010.05.17/outbox.cif.g08.bks.cpg/sg2_92_cif.got.tgz:182753.got - 2010.06.03 11:33:40.
