data_PCOD9111791
_publ_section_title
;
Structure prediction by ZEFSAII (Michael W. Deem and Ramdas Pophale) SiO2 
 PCOD9111791
Probable space group: P -1
;
_chemical_formula_sum "Si O2"
_cell_formula_units_Z 14
_cell_length_a 10.844273
_cell_length_b 15.952491
_cell_length_c 24.710326
_cell_angle_alpha 18.289742
_cell_angle_beta 153.852008
_cell_angle_gamma 142.791791
_cell_volume 540.805150
_symmetry_space_group_name_H-M "P -1"
_symmetry_group_IT_number 2
_symmetry_cell_setting 'triclinic'
loop_
_space_group_symop_operation_xyz
x,y,z
-x,-y,-z
loop_
_atom_site_type_symbol
_atom_site_label
_atom_site_fract_x
_atom_site_fract_y
_atom_site_fract_z
Si Si1 0.364424 0.254402 0.243931
Si Si2 0.565543 0.181022 0.246531
Si Si3 0.218186 0.139164 0.871309
Si Si4 0.172366 0.834562 0.934917
Si Si5 0.947415 0.328619 0.455048
Si Si6 0.228056 0.741302 0.210644
Si Si7 0.163726 0.199395 0.503229
O O1 0.415269 0.168271 0.252608
O O2 0.587740 0.425847 0.235568
O O3 0.989831 0.381012 0.014671
O O4 0.500000 0.000000 0.500000
O O5 0.915937 0.070156 0.472226
O O6 0.558657 0.974169 0.321135
O O7 0.500000 0.500000 0.000000
O O8 0.004839 0.405799 0.660603
O O9 0.094776 0.003833 0.857644
O O10 0.464114 0.256513 0.871896
O O11 0.343833 0.878873 0.123273
O O12 0.027320 0.084782 0.680559
O O13 0.156141 0.190618 0.570112
O O14 0.500000 0.500000 0.500000
O O15 0.065629 0.541938 0.243438
O O16 0.000000 0.000000 0.000000
#
# Coordination Sequence:
#
# PCOD9111791 Si02
#       7
#     2   2   2   2   2   2   2
#     4   9  21  42  68  98 135 183 239 300 367 439
#     4  10  23  42  72 102 133 182 236 313 364 432
#     4  11  24  41  67 101 140 191 237 301 366 432
#     4  10  23  43  62  98 140 184 244 297 361 442
#     4  10  20  43  70  96 137 186 237 301 365 438
#     4  12  27  45  73 109 145 196 245 301 367 451
#     4  10  23  43  67 101 140 179 238 298 372 433
#
# _framework density 25.887326999999999
#
# number of rings (size 3 to 8) (size 9 to 14) (size 15 to 20)
#    0.000    1.714    1.429    1.286    4.000    2.857 
#   10.286    2.857    0.000    0.000    0.000    0.000 
#    0.000    0.000    0.000    0.000    0.000    0.000 
#
# Total GULP energy -77994.019389 kJ/mol
# GULP energy per Si atom -5571.001385 kJ/mol
# Density = 2.582841 g / cm^3
# Si number density = 25.887327 Si / 1000 Ang^3
#
#
#
# Elastic Constant Matrix: (Units=GPa)
#
#
# Indices 1 2 3 4 5 6 
#
# 1 129.5081 61.2096 42.4938 -1.3096 -20.8630 -46.2723
# 2 61.2096 102.7717 -8.5820 -12.0324 27.8917 -25.4798
# 3 42.4938 -8.5820 55.6215 -20.4516 11.4851 -25.2545
# 4 -1.3096 -12.0324 -20.4516 30.0376 -3.2690 13.6736
# 5 -20.8630 27.8917 11.4851 -3.2690 20.3870 -4.6597
# 6 -46.2723 -25.4798 -25.2545 13.6736 -4.6597 57.2212
#
#
#
# Elastic Compliance Matrix: (Units=1/GPa)
#
#
# Indices 1 2 3 4 5 6 
#
# 1 -0.002009 0.009349 0.011690 0.007554 -0.019231 0.004327
# 2 0.009349 -0.001529 -0.012016 -0.008749 0.018203 0.005149
# 3 0.011690 -0.012016 0.004833 -0.002116 0.027391 0.008972
# 4 0.007554 -0.008749 -0.002116 0.033551 0.025201 -0.004686
# 5 -0.019231 0.018203 0.027391 0.025201 -0.007375 -0.001980
# 6 0.004327 0.005149 0.008972 -0.004686 -0.001980 0.028186
#
#
# Mechanical properties :
#
#
# Convention : Reuss Voigt Hill
#
# Bulk Modulus (GPa) = 51.70220 53.12713 52.41467
# Shear Modulus (GPa) = 113.48407 34.38115 73.93261
#
# Velocity S-wave (km/s) = 6.62819 3.64827 5.34990
# Velocity P-wave (km/s) = 8.86524 6.18979 7.64546
#
# Compressibility (1/GPa) = 0.01934154
#
# Stress axis : x y z
#
# Youngs Moduli (GPa) = -497.88133 -653.96792 206.90391
#
# Poissons Ratio (x) = 6.11391 -2.41876
# Poissons Ratio (y) = 4.65466 2.48619
# Poissons Ratio (z) = 5.82035 -7.85819
#
# Static dielectric constant tensor:
#      x y z
#    x 2.133940 0.064670 0.071810 
#    y 0.064670 2.316170 0.071440 
#    z 0.071810 0.071440 1.996250 
# 
# From -- ./inp_files/108890.got.cif
#   From: 2010.05.17/outbox.cif.g08.bks.cpg/sg2_55_cif.got.tgz:108890.got - 2010.06.03 11:33:40.
