data_PCOD9111617
_publ_section_title
;
Structure prediction by ZEFSAII (Michael W. Deem and Ramdas Pophale) SiO2 
 PCOD9111617
Probable space group: P -1
;
_chemical_formula_sum "Si O2"
_cell_formula_units_Z 14
_cell_length_a 14.225794
_cell_length_b 7.287992
_cell_length_c 7.845351
_cell_angle_alpha 125.641493
_cell_angle_beta 62.222026
_cell_angle_gamma 121.475361
_cell_volume 548.187006
_symmetry_space_group_name_H-M "P -1"
_symmetry_group_IT_number 2
_symmetry_cell_setting 'triclinic'
loop_
_space_group_symop_operation_xyz
x,y,z
-x,-y,-z
loop_
_atom_site_type_symbol
_atom_site_label
_atom_site_fract_x
_atom_site_fract_y
_atom_site_fract_z
Si Si1 0.323415 0.969307 0.246222
Si Si2 0.511236 0.256323 0.703388
Si Si3 0.893330 0.752458 0.975221
Si Si4 0.242576 0.572044 0.382260
Si Si5 0.544823 0.329703 0.118190
Si Si6 0.876007 0.945437 0.419709
Si Si7 0.974762 0.598459 0.327990
O O1 0.284539 0.820517 0.373852
O O2 0.216685 0.055968 0.359770
O O3 0.442323 0.186986 0.251814
O O4 0.350955 0.767277 0.997887
O O5 0.639495 0.433456 0.650944
O O6 0.432912 0.388731 0.757276
O O7 0.500000 0.000000 0.500000
O O8 0.501956 0.250097 0.914459
O O9 0.816811 0.643601 0.816775
O O10 0.947040 0.549605 0.870907
O O11 0.823687 0.816817 0.220351
O O12 0.000000 0.000000 0.000000
O O13 0.149642 0.564479 0.595959
O O14 0.955871 0.224139 0.483363
O O15 0.954303 0.792524 0.325159
#
# Coordination Sequence:
#
# PCOD9111617 Si02
#       7
#     2   2   2   2   2   2   2
#     4  10  20  43  67  91 131 178 215 284 327 382
#     4  10  22  46  70  98 134 174 217 279 340 395
#     4  12  23  42  66  99 137 178 222 272 330 399
#     4  11  22  43  67  98 136 173 221 271 335 396
#     4   9  21  44  66  96 131 166 230 278 325 399
#     4  11  23  41  67  94 138 176 223 273 333 394
#     4  11  23  43  63 100 139 173 223 275 325 407
#
# _framework density 25.538732
#
# number of rings (size 3 to 8) (size 9 to 14) (size 15 to 20)
#    0.000    1.429    2.857    2.571    0.000    0.000 
#   28.286    3.571    0.000    0.000    0.000    0.000 
#    0.000    0.000    0.000    0.000    0.000    0.000 
#
# Total GULP energy -78198.561270 kJ/mol
# GULP energy per Si atom -5585.611519 kJ/mol
# Density = 2.548060 g / cm^3
# Si number density = 25.538732 Si / 1000 Ang^3
#
#
#
# Elastic Constant Matrix: (Units=GPa)
#
#
# Indices 1 2 3 4 5 6 
#
# 1 105.5883 19.4882 45.3399 15.9343 -31.0150 20.4097
# 2 19.4882 111.3677 38.0149 11.2929 -13.8051 9.2788
# 3 45.3399 38.0149 152.0330 28.9129 -24.9011 6.6138
# 4 15.9343 11.2929 28.9129 40.1445 -0.8269 -16.7320
# 5 -31.0150 -13.8051 -24.9011 -0.8269 38.7726 3.0630
# 6 20.4097 9.2788 6.6138 -16.7320 3.0630 43.1845
#
#
#
# Elastic Compliance Matrix: (Units=1/GPa)
#
#
# Indices 1 2 3 4 5 6 
#
# 1 0.019744 0.001572 0.000164 -0.015020 0.017462 -0.016753
# 2 0.001572 0.010581 -0.001281 -0.004644 0.004494 -0.004939
# 3 0.000164 -0.001281 0.009736 -0.008719 0.006145 -0.005107
# 4 -0.015020 -0.004644 -0.008719 0.050773 -0.020600 0.030565
# 5 0.017462 0.004494 0.006145 -0.020600 0.046561 -0.021443
# 6 -0.016753 -0.004939 -0.005107 0.030565 -0.021443 0.046281
#
#
# Mechanical properties :
#
#
# Convention : Reuss Voigt Hill
#
# Bulk Modulus (GPa) = 24.40687 63.85277 44.12982
# Shear Modulus (GPa) = 25.45557 42.16340 33.80948
#
# Velocity S-wave (km/s) = 3.16055 4.06761 3.64242
# Velocity P-wave (km/s) = 4.78501 6.86420 5.91665
#
# Compressibility (1/GPa) = 0.04097208
#
# Stress axis : x y z
#
# Youngs Moduli (GPa) = 50.64774 94.51237 102.71571
#
# Poissons Ratio (x) = -0.14861 -0.01683
# Poissons Ratio (y) = -0.07964 0.13153
# Poissons Ratio (z) = -0.00830 0.12102
#
# Static dielectric constant tensor:
#      x y z
#    x 2.204390 -0.051010 0.003610 
#    y -0.051010 2.031200 -0.036280 
#    z 0.003610 -0.036280 2.080560 
# 
# From -- ./inp_files/328207.got.cif
#   From: 2010.05.17/outbox.cif.g08.bks.cpg/sg2_165_cif.got.tgz:328207.got - 2010.06.03 11:33:40.
