data_PCOD9111479
_publ_section_title
;
Structure prediction by ZEFSAII (Michael W. Deem and Ramdas Pophale) SiO2 
 PCOD9111479
Probable space group: P -1
;
_chemical_formula_sum "Si O2"
_cell_formula_units_Z 15
_cell_length_a 9.083304
_cell_length_b 12.625804
_cell_length_c 8.756491
_cell_angle_alpha 56.070960
_cell_angle_beta 73.904561
_cell_angle_gamma 113.627150
_cell_volume 574.191524
_symmetry_space_group_name_H-M "P -1"
_symmetry_group_IT_number 2
_symmetry_cell_setting 'triclinic'
loop_
_space_group_symop_operation_xyz
x,y,z
-x,-y,-z
loop_
_atom_site_type_symbol
_atom_site_label
_atom_site_fract_x
_atom_site_fract_y
_atom_site_fract_z
Si Si1 0.065769 0.897802 0.497647
Si Si2 0.121311 0.239594 0.650119
Si Si3 0.986719 0.403557 0.732282
Si Si4 0.663356 0.981806 0.435067
Si Si5 0.312492 0.119957 0.811418
Si Si6 0.470769 0.801613 0.022911
Si Si7 0.000000 0.500000 0.000000
Si Si8 0.586805 0.406032 0.046975
O O1 0.117730 0.852667 0.675302
O O2 0.904411 0.754500 0.529993
O O3 0.300655 0.021858 0.251057
O O4 0.000000 0.000000 0.500000
O O5 0.101290 0.344073 0.687076
O O6 0.314450 0.264111 0.630529
O O7 0.905073 0.028860 0.910501
O O8 0.729128 0.234111 0.947221
O O9 0.000000 0.500000 0.500000
O O10 0.054870 0.495210 0.804289
O O11 0.698144 0.971331 0.260110
O O12 0.577301 0.796200 0.673733
O O13 0.500000 0.000000 0.500000
O O14 0.503851 0.192439 0.808650
O O15 0.422223 0.636399 0.096013
O O16 0.198550 0.520833 0.991433
O O17 0.500000 0.500000 0.000000
#
# Coordination Sequence:
#
# PCOD9111479 Si02
#       8
#     2   2   2   2   2   2   1   2
#     4  10  20  43  64  98 137 177 223 296 366 435
#     4  10  23  41  64  98 134 179 225 288 368 431
#     4  11  26  47  69 101 142 191 245 299 366 439
#     4  11  25  40  69 106 133 178 242 300 371 436
#     4  10  22  40  66  98 133 170 224 297 359 433
#     4   9  23  42  64 100 134 176 231 294 361 426
#     4  10  26  48  72 104 142 200 248 306 368 450
#     4  10  24  48  68  99 139 190 241 298 365 442
#
# _framework density 26.123688999999999
#
# number of rings (size 3 to 8) (size 9 to 14) (size 15 to 20)
#    0.000    1.867    1.333    0.000   11.200    3.200 
#    4.800    1.333    0.000    0.000    0.000    0.000 
#    0.000    0.000    0.000    0.000    0.000    0.000 
#
# Total GULP energy -83508.921678 kJ/mol
# GULP energy per Si atom -5567.261445 kJ/mol
# Density = 2.606423 g / cm^3
# Si number density = 26.123689 Si / 1000 Ang^3
#
#
#
# Elastic Constant Matrix: (Units=GPa)
#
#
# Indices 1 2 3 4 5 6 
#
# 1 108.5462 31.2295 25.0666 17.4353 11.0115 -14.7506
# 2 31.2295 112.8389 47.6106 39.8272 21.8569 16.9752
# 3 25.0666 47.6106 72.0135 20.2411 0.5556 3.3871
# 4 17.4353 39.8272 20.2411 59.2075 11.8482 9.4350
# 5 11.0115 21.8569 0.5556 11.8482 39.1232 9.7785
# 6 -14.7506 16.9752 3.3871 9.4350 9.7785 54.7195
#
#
#
# Elastic Compliance Matrix: (Units=1/GPa)
#
#
# Indices 1 2 3 4 5 6 
#
# 1 0.011458 -0.001617 -0.002689 -0.001498 -0.002966 0.004545
# 2 -0.001617 0.016743 -0.008594 -0.006144 -0.006183 -0.002934
# 3 -0.002689 -0.008594 0.020952 -0.001738 0.005810 -0.000094
# 4 -0.001498 -0.006144 -0.001738 0.022872 -0.002580 -0.001873
# 5 -0.002966 -0.006183 0.005810 -0.002580 0.031661 -0.004454
# 6 0.004545 -0.002934 -0.000094 -0.001873 -0.004454 0.021535
#
#
# Mechanical properties :
#
#
# Convention : Reuss Voigt Hill
#
# Bulk Modulus (GPa) = 42.82141 55.69022 49.25581
# Shear Modulus (GPa) = 31.48464 43.24285 37.36374
#
# Velocity S-wave (km/s) = 3.47539 4.07297 3.78598
# Velocity P-wave (km/s) = 5.70366 6.59416 6.16501
#
# Compressibility (1/GPa) = 0.02335281
#
# Stress axis : x y z
#
# Youngs Moduli (GPa) = 87.27516 59.72497 47.72760
#
# Poissons Ratio (x) = 0.09658 0.12834
# Poissons Ratio (y) = 0.14114 0.41018
# Poissons Ratio (z) = 0.23469 0.51329
#
# Static dielectric constant tensor:
#      x y z
#    x 1.893560 0.016690 0.281830 
#    y 0.016690 2.108430 -0.006570 
#    z 0.281830 -0.006570 1.982220 
# 
# From -- ./inp_files/185796.got.cif
#   From: 2010.05.17/outbox.cif.g08.bks.cpg/sg2_93_cif.got.tgz:185796.got - 2010.06.03 11:33:40.
