data_PCOD9111505
_publ_section_title
;
Structure prediction by ZEFSAII (Michael W. Deem and Ramdas Pophale) SiO2 
 PCOD9111505
Probable space group: P -1
;
_chemical_formula_sum "Si O2"
_cell_formula_units_Z 13
_cell_length_a 9.188819
_cell_length_b 6.928639
_cell_length_c 14.158931
_cell_angle_alpha 81.324384
_cell_angle_beta 121.530672
_cell_angle_gamma 61.241112
_cell_volume 567.536449
_symmetry_space_group_name_H-M "P -1"
_symmetry_group_IT_number 2
_symmetry_cell_setting 'triclinic'
loop_
_space_group_symop_operation_xyz
x,y,z
-x,-y,-z
loop_
_atom_site_type_symbol
_atom_site_label
_atom_site_fract_x
_atom_site_fract_y
_atom_site_fract_z
Si Si1 0.617934 0.056117 0.245570
Si Si2 0.398751 0.366606 0.513396
Si Si3 0.207201 0.176298 0.995117
Si Si4 0.186000 0.963415 0.198452
Si Si5 0.275490 0.429826 0.260946
Si Si6 0.000000 0.500000 0.500000
Si Si7 0.728438 0.204195 0.109834
O O1 0.415780 0.154737 0.096817
O O2 0.491217 0.222453 0.284212
O O3 0.755115 0.119933 0.233381
O O4 0.785110 0.753689 0.349644
O O5 0.500000 0.500000 0.500000
O O6 0.612390 0.112073 0.660743
O O7 0.317760 0.335140 0.389646
O O8 0.183827 0.507617 0.500635
O O9 0.179930 0.061849 0.086611
O O10 0.965528 0.463068 0.870043
O O11 0.267525 0.990734 0.941390
O O12 0.237432 0.693284 0.224741
O O13 0.944574 0.161969 0.152430
O O14 0.500000 0.500000 0.000000
#
# Coordination Sequence:
#
# PCOD9111505 Si02
#       7
#     2   2   2   2   2   1   2
#     4  12  24  41  64 101 134 176 225 283 342 406
#     4  10  22  44  67  94 135 183 223 276 344 403
#     4  11  21  41  67  93 132 175 222 285 343 398
#     4  10  20  43  65  92 133 177 218 280 343 408
#     4  10  22  40  69  92 134 176 228 275 339 410
#     4  12  24  44  66  98 146 176 230 282 336 408
#     4  11  23  41  68 102 132 172 232 284 338 411
#
# _framework density 22.906016000000001
#
# number of rings (size 3 to 8) (size 9 to 14) (size 15 to 20)
#    0.000    1.231    1.538    7.385    0.000    0.615 
#    2.769    3.846    0.000    0.000    0.000    0.000 
#    0.000    0.000    0.000    0.000    0.000    0.000 
#
# Total GULP energy -72417.945877 kJ/mol
# GULP energy per Si atom -5570.611221 kJ/mol
# Density = 2.285388 g / cm^3
# Si number density = 22.906016 Si / 1000 Ang^3
#
#
#
# Elastic Constant Matrix: (Units=GPa)
#
#
# Indices 1 2 3 4 5 6 
#
# 1 138.8716 27.2545 16.5354 0.0450 -15.0574 -31.9659
# 2 27.2545 43.7312 7.6168 1.7475 -2.9237 -17.6699
# 3 16.5354 7.6168 133.8485 -11.2141 -6.5095 -20.1240
# 4 0.0450 1.7475 -11.2141 17.0367 -5.9650 4.2158
# 5 -15.0574 -2.9237 -6.5095 -5.9650 43.5896 1.1408
# 6 -31.9659 -17.6699 -20.1240 4.2158 1.1408 39.4820
#
#
#
# Elastic Compliance Matrix: (Units=1/GPa)
#
#
# Indices 1 2 3 4 5 6 
#
# 1 0.009593 -0.003250 0.000072 -0.000178 0.002918 0.006283
# 2 -0.003250 0.029675 -0.000111 -0.005981 -0.000262 0.011239
# 3 0.000072 -0.000111 0.008580 0.005411 0.001941 0.003747
# 4 -0.000178 -0.005981 0.005411 0.068221 0.009881 -0.007633
# 5 0.002918 -0.000262 0.001941 0.009881 0.025536 0.001441
# 6 0.006283 0.011239 0.003747 -0.007633 0.001441 0.038129
#
#
# Mechanical properties :
#
#
# Convention : Reuss Voigt Hill
#
# Bulk Modulus (GPa) = 24.23198 46.58497 35.40847
# Shear Modulus (GPa) = 24.99151 37.69127 31.34139
#
# Velocity S-wave (km/s) = 3.30668 4.06085 3.70301
# Velocity P-wave (km/s) = 5.01804 6.50914 5.81161
#
# Compressibility (1/GPa) = 0.04126778
#
# Stress axis : x y z
#
# Youngs Moduli (GPa) = 104.24305 33.69895 116.55307
#
# Poissons Ratio (x) = 0.10952 -0.00834
# Poissons Ratio (y) = 0.33879 0.01297
# Poissons Ratio (z) = -0.00746 0.00375
#
# Static dielectric constant tensor:
#      x y z
#    x 1.894160 0.030750 0.079590 
#    y 0.030750 1.864740 0.041040 
#    z 0.079590 0.041040 1.826960 
# 
# From -- ./inp_files/325698.got.cif
#   From: 2010.05.17/outbox.cif.g08.bks.cpg/sg2_163_cif.got.tgz:325698.got - 2010.06.03 11:33:40.
