data_PCOD9111141
_publ_section_title
;
Structure prediction by ZEFSAII (Michael W. Deem and Ramdas Pophale) SiO2 
 PCOD9111141
Probable space group: P -1
;
_chemical_formula_sum "Si O2"
_cell_formula_units_Z 14
_cell_length_a 10.313673
_cell_length_b 15.364778
_cell_length_c 11.655919
_cell_angle_alpha 129.030363
_cell_angle_beta 124.259640
_cell_angle_gamma 26.150204
_cell_volume 632.354748
_symmetry_space_group_name_H-M "P -1"
_symmetry_group_IT_number 2
_symmetry_cell_setting 'triclinic'
loop_
_space_group_symop_operation_xyz
x,y,z
-x,-y,-z
loop_
_atom_site_type_symbol
_atom_site_label
_atom_site_fract_x
_atom_site_fract_y
_atom_site_fract_z
Si Si1 0.415363 0.895584 0.901527
Si Si2 0.365378 0.078448 0.624357
Si Si3 0.699569 0.655452 0.046604
Si Si4 0.710915 0.810634 0.781101
Si Si5 0.353293 0.469715 0.876776
Si Si6 0.782764 0.290816 0.541636
Si Si7 0.870971 0.144137 0.711044
O O1 0.644850 0.752746 0.791955
O O2 0.468420 0.773842 0.926613
O O3 0.092749 0.087843 0.847569
O O4 0.454942 0.985201 0.069673
O O5 0.373993 0.196553 0.782970
O O6 0.037300 0.228301 0.593879
O O7 0.500000 0.000000 0.500000
O O8 0.562034 0.882586 0.644911
O O9 0.712197 0.544815 0.045667
O O10 0.000000 0.500000 0.000000
O O11 0.046437 0.645169 0.802534
O O12 0.603320 0.260927 0.750893
O O13 0.500000 0.500000 0.000000
O O14 0.500000 0.500000 0.500000
O O15 0.751211 0.285546 0.658694
O O16 0.919611 0.087963 0.404836
#
# Coordination Sequence:
#
# PCOD9111141 Si02
#       7
#     2   2   2   2   2   2   2
#     4  10  20  42  69  95 140 181 233 288 352 426
#     4  11  25  47  68  99 143 187 245 289 348 439
#     4  11  25  42  72 105 134 185 245 288 356 434
#     4  10  21  41  69  98 138 189 222 289 358 416
#     4  12  25  42  69 108 143 178 228 301 367 416
#     4  11  27  46  71  98 142 196 236 295 358 426
#     4  11  25  46  67 106 145 181 243 292 363 431
#
# _framework density 22.139472000000001
#
# number of rings (size 3 to 8) (size 9 to 14) (size 15 to 20)
#    0.000    1.143    4.286    0.857    6.000    0.571 
#    0.000    1.429    0.000    0.000    0.000    0.000 
#    0.000    0.000    0.000    0.000    0.000    0.000 
#
# Total GULP energy -78165.092305 kJ/mol
# GULP energy per Si atom -5583.220879 kJ/mol
# Density = 2.208908 g / cm^3
# Si number density = 22.139472 Si / 1000 Ang^3
#
#
#
# Elastic Constant Matrix: (Units=GPa)
#
#
# Indices 1 2 3 4 5 6 
#
# 1 126.6687 55.6192 41.1539 -19.0587 -26.3396 -6.8703
# 2 55.6192 135.2944 47.5822 -40.5288 -21.7170 -5.1279
# 3 41.1539 47.5822 88.3777 -19.9280 -28.3284 3.7545
# 4 -19.0587 -40.5288 -19.9280 44.4339 2.3103 -3.2276
# 5 -26.3396 -21.7170 -28.3284 2.3103 40.9920 -1.3766
# 6 -6.8703 -5.1279 3.7545 -3.2276 -1.3766 41.3825
#
#
#
# Elastic Compliance Matrix: (Units=1/GPa)
#
#
# Indices 1 2 3 4 5 6 
#
# 1 0.010887 -0.002614 -0.002139 0.001251 0.004126 0.001912
# 2 -0.002614 0.012737 -0.002778 0.009271 0.002700 0.002209
# 3 -0.002139 -0.002778 0.017665 0.003875 0.009086 -0.001698
# 4 0.001251 0.009271 0.003875 0.033167 0.006652 0.003813
# 5 0.004126 0.002700 0.009086 0.006652 0.034444 0.001860
# 6 0.001912 0.002209 -0.001698 0.003813 0.001860 0.025269
#
#
# Mechanical properties :
#
#
# Convention : Reuss Voigt Hill
#
# Bulk Modulus (GPa) = 38.12849 71.00570 54.56710
# Shear Modulus (GPa) = 31.65055 39.09404 35.37229
#
# Velocity S-wave (km/s) = 3.78510 4.20671 4.00146
# Velocity P-wave (km/s) = 6.03009 7.46571 6.78597
#
# Compressibility (1/GPa) = 0.02622710
#
# Stress axis : x y z
#
# Youngs Moduli (GPa) = 91.85038 78.50933 56.60765
#
# Poissons Ratio (x) = 0.20522 0.12108
# Poissons Ratio (y) = 0.24010 0.15728
# Poissons Ratio (z) = 0.19647 0.21814
#
# Static dielectric constant tensor:
#      x y z
#    x 1.888660 0.085580 0.023820 
#    y 0.085580 1.902290 0.037350 
#    z 0.023820 0.037350 1.877650 
# 
# From -- ./inp_files/397670.got.cif
#   From: 2010.05.17/outbox.cif.g08.bks.cpg/sg2_199_cif.got.tgz:397670.got - 2010.06.03 11:33:40.
