data_PCOD9111055
_publ_section_title
;
Structure prediction by ZEFSAII (Michael W. Deem and Ramdas Pophale) SiO2 
 PCOD9111055
Probable space group: P -1
;
_chemical_formula_sum "Si O2"
_cell_formula_units_Z 12
_cell_length_a 7.361611
_cell_length_b 4.975161
_cell_length_c 14.408298
_cell_angle_alpha 72.661007
_cell_angle_beta 77.388564
_cell_angle_gamma 112.709659
_cell_volume 430.080781
_symmetry_space_group_name_H-M "P -1"
_symmetry_group_IT_number 2
_symmetry_cell_setting 'triclinic'
loop_
_space_group_symop_operation_xyz
x,y,z
-x,-y,-z
loop_
_atom_site_type_symbol
_atom_site_label
_atom_site_fract_x
_atom_site_fract_y
_atom_site_fract_z
Si Si1 0.591362 0.324060 0.071190
Si Si2 0.870335 0.791732 0.446885
Si Si3 0.730932 0.977224 0.730322
Si Si4 0.515340 0.894233 0.406617
Si Si5 0.876105 0.832917 0.124580
Si Si6 0.910040 0.555899 0.849352
O O1 0.399177 0.997231 0.167401
O O2 0.206096 0.296617 0.216960
O O3 0.500000 0.500000 0.000000
O O4 0.765652 0.343736 0.976063
O O5 0.045062 0.758076 0.367986
O O6 0.000000 0.000000 0.500000
O O7 0.749255 0.926830 0.379191
O O8 0.670663 0.474046 0.542110
O O9 0.328611 0.450349 0.870244
O O10 0.562158 0.922836 0.673303
O O11 0.500000 0.000000 0.500000
O O12 0.989102 0.652965 0.181281
O O13 0.898688 0.124294 0.154609
O O14 0.000000 0.000000 0.000000
#
# Coordination Sequence:
#
# PCOD9111055 Si02
#       6
#     2   2   2   2   2   2
#     4   9  20  40  63  99 140 178 233 291 352 428
#     4  11  25  47  72 105 140 187 243 311 370 440
#     4  11  24  43  71 104 142 188 238 303 365 442
#     4  11  25  47  74 100 143 186 245 306 374 437
#     4  10  20  42  68  95 140 196 239 293 355 424
#     4  10  23  43  68 102 145 191 240 296 356 438
#
# _framework density 27.901733
#
# number of rings (size 3 to 8) (size 9 to 14) (size 15 to 20)
#    0.000    1.667    1.667    2.500    2.333    2.667 
#    0.000   33.333    0.000    0.000    0.000    0.000 
#    0.000    0.000    0.000    0.000    0.000    0.000 
#
# Total GULP energy -67007.761987 kJ/mol
# GULP energy per Si atom -5583.980166 kJ/mol
# Density = 2.783823 g / cm^3
# Si number density = 27.901733 Si / 1000 Ang^3
#
#
#
# Elastic Constant Matrix: (Units=GPa)
#
#
# Indices 1 2 3 4 5 6 
#
# 1 221.7999 23.8092 49.9909 -7.9129 13.4580 10.8033
# 2 23.8092 95.9767 24.5119 -5.8388 -6.1266 7.9385
# 3 49.9909 24.5119 141.6277 9.0996 12.9296 15.3059
# 4 -7.9129 -5.8388 9.0996 29.9544 -1.9433 -1.5923
# 5 13.4580 -6.1266 12.9296 -1.9433 56.6168 -2.5164
# 6 10.8033 7.9385 15.3059 -1.5923 -2.5164 51.9818
#
#
#
# Elastic Compliance Matrix: (Units=1/GPa)
#
#
# Indices 1 2 3 4 5 6 
#
# 1 0.005093 -0.000766 -0.001639 0.001613 -0.000884 -0.000452
# 2 -0.000766 0.011471 -0.001976 0.002715 0.001931 -0.000834
# 3 -0.001639 -0.001976 0.008630 -0.003683 -0.002015 -0.002109
# 4 0.001613 0.002715 -0.003683 0.035672 0.002044 0.001526
# 5 -0.000884 0.001931 -0.002015 0.002044 0.018676 0.001449
# 6 -0.000452 -0.000834 -0.002109 0.001526 0.001449 0.020197
#
#
# Mechanical properties :
#
#
# Convention : Reuss Voigt Hill
#
# Bulk Modulus (GPa) = 60.85299 72.89202 66.87251
# Shear Modulus (GPa) = 43.86799 51.78340 47.82569
#
# Velocity S-wave (km/s) = 3.96944 4.31271 4.14463
# Velocity P-wave (km/s) = 6.54719 7.14007 6.85005
#
# Compressibility (1/GPa) = 0.01643305
#
# Stress axis : x y z
#
# Youngs Moduli (GPa) = 196.32974 87.17555 115.87725
#
# Poissons Ratio (x) = 0.06676 0.18997
# Poissons Ratio (y) = 0.15034 0.22892
# Poissons Ratio (z) = 0.32186 0.17222
#
# Static dielectric constant tensor:
#      x y z
#    x 2.289750 -0.014790 -0.073320 
#    y -0.014790 2.218650 -0.009950 
#    z -0.073320 -0.009950 2.190230 
# 
# From -- ./inp_files/584825.got.cif
#   From: 2010.05.17/outbox.cif.g08.bks.cpg/sg2_293_cif.got.tgz:584825.got - 2010.06.03 11:33:40.
