data_PCOD9111472
_publ_section_title
;
Structure prediction by ZEFSAII (Michael W. Deem and Ramdas Pophale) SiO2 
 PCOD9111472
Probable space group: P -1
;
_chemical_formula_sum "Si O2"
_cell_formula_units_Z 16
_cell_length_a 6.281517
_cell_length_b 8.014954
_cell_length_c 20.651599
_cell_angle_alpha 114.971179
_cell_angle_beta 123.836359
_cell_angle_gamma 54.293293
_cell_volume 693.963208
_symmetry_space_group_name_H-M "P -1"
_symmetry_group_IT_number 2
_symmetry_cell_setting 'triclinic'
loop_
_space_group_symop_operation_xyz
x,y,z
-x,-y,-z
loop_
_atom_site_type_symbol
_atom_site_label
_atom_site_fract_x
_atom_site_fract_y
_atom_site_fract_z
Si Si1 0.708582 0.492057 0.306168
Si Si2 0.259712 0.240360 0.432540
Si Si3 0.156284 0.726644 0.842850
Si Si4 0.315386 0.035758 0.908451
Si Si5 0.846117 0.091434 0.557197
Si Si6 0.417933 0.068865 0.682146
Si Si7 0.396956 0.225716 0.212312
Si Si8 0.307258 0.426236 0.001020
O O1 0.845693 0.362361 0.242530
O O2 0.541347 0.731984 0.297467
O O3 0.507322 0.390250 0.278272
O O4 0.971611 0.438426 0.392191
O O5 0.514544 0.263292 0.517412
O O6 0.169098 0.094806 0.436569
O O7 0.424060 0.100421 0.375144
O O8 0.474830 0.633086 0.910362
O O9 0.943261 0.675448 0.840493
O O10 0.062092 0.974553 0.870752
O O11 0.459226 0.891109 0.848028
O O12 0.271658 0.260615 0.921498
O O13 0.500000 0.000000 0.000000
O O14 0.069837 0.154784 0.638601
O O15 0.000000 0.000000 0.500000
O O16 0.529215 0.944427 0.746871
O O17 0.500000 0.500000 0.000000
O O18 0.000000 0.500000 0.000000
#
# Coordination Sequence:
#
# PCOD9111472 Si02
#       8
#     2   2   2   2   2   2   2   2
#     4  11  24  41  66 102 134 175 236 281 347 423
#     4  10  20  43  64  96 137 174 225 290 333 418
#     4  10  24  44  66  92 135 181 224 289 351 417
#     4   9  23  43  66  89 130 183 226 279 358 409
#     4   9  20  40  68  92 135 179 222 279 345 410
#     4  11  23  40  67  98 133 180 229 281 359 406
#     4  11  23  44  68  96 140 180 230 295 349 418
#     4  11  27  44  68 103 138 176 240 296 347 434
#
# _framework density 23.055976999999999
#
# number of rings (size 3 to 8) (size 9 to 14) (size 15 to 20)
#    0.000    1.750    2.500    0.000    8.750    2.500 
#    0.000    5.625    0.000    0.000    0.000    0.000 
#    0.000    0.000    0.000    0.000    0.000    0.000 
#
# Total GULP energy -89072.055575 kJ/mol
# GULP energy per Si atom -5567.003473 kJ/mol
# Density = 2.300350 g / cm^3
# Si number density = 23.055977 Si / 1000 Ang^3
#
#
#
# Elastic Constant Matrix: (Units=GPa)
#
#
# Indices 1 2 3 4 5 6 
#
# 1 134.4540 31.4869 36.7013 -15.7618 18.9871 16.4889
# 2 31.4869 66.9305 22.6212 -16.6403 14.1959 19.5219
# 3 36.7013 22.6212 77.6398 -23.0652 16.1235 2.7707
# 4 -15.7618 -16.6403 -23.0652 20.7782 4.7847 -6.3739
# 5 18.9871 14.1959 16.1235 4.7847 52.2012 -6.1957
# 6 16.4889 19.5219 2.7707 -6.3739 -6.1957 23.9291
#
#
#
# Elastic Compliance Matrix: (Units=1/GPa)
#
#
# Indices 1 2 3 4 5 6 
#
# 1 0.009926 -0.000298 -0.002609 0.003304 -0.003785 -0.006394
# 2 -0.000298 0.028447 0.001194 0.020303 -0.012341 -0.020928
# 3 -0.002609 0.001194 0.024097 0.028848 -0.009063 0.003371
# 4 0.003304 0.020303 0.028848 0.104468 -0.025317 -0.000909
# 5 -0.003785 -0.012341 -0.009063 -0.025317 0.030784 0.014953
# 6 -0.006394 -0.020928 0.003371 -0.000909 0.014953 0.066508
#
#
# Mechanical properties :
#
#
# Convention : Reuss Voigt Hill
#
# Bulk Modulus (GPa) = 16.93680 51.18256 34.05968
# Shear Modulus (GPa) = 17.40115 31.92937 24.66526
#
# Velocity S-wave (km/s) = 2.75022 3.72541 3.27433
# Velocity P-wave (km/s) = 4.17695 6.38376 5.39441
#
# Compressibility (1/GPa) = 0.05904304
#
# Stress axis : x y z
#
# Youngs Moduli (GPa) = 100.75043 35.15297 41.49850
#
# Poissons Ratio (x) = 0.01049 0.10828
# Poissons Ratio (y) = 0.03006 -0.04956
# Poissons Ratio (z) = 0.26288 -0.04198
#
# Static dielectric constant tensor:
#      x y z
#    x 1.944490 0.049780 0.031760 
#    y 0.049780 2.187890 -0.037360 
#    z 0.031760 -0.037360 1.882300 
# 
# From -- ./inp_files/340641.got.cif
#   From: 2010.05.17/outbox.cif.g08.bks.cpg/sg2_171_cif.got.tgz:340641.got - 2010.06.03 11:33:40.
