data_PCOD9111603
_publ_section_title
;
Structure prediction by ZEFSAII (Michael W. Deem and Ramdas Pophale) SiO2 
 PCOD9111603
Probable space group: P -1
;
_chemical_formula_sum "Si O2"
_cell_formula_units_Z 13
_cell_length_a 9.793493
_cell_length_b 11.105327
_cell_length_c 7.686948
_cell_angle_alpha 72.046065
_cell_angle_beta 83.223261
_cell_angle_gamma 133.326839
_cell_volume 508.761842
_symmetry_space_group_name_H-M "P -1"
_symmetry_group_IT_number 2
_symmetry_cell_setting 'triclinic'
loop_
_space_group_symop_operation_xyz
x,y,z
-x,-y,-z
loop_
_atom_site_type_symbol
_atom_site_label
_atom_site_fract_x
_atom_site_fract_y
_atom_site_fract_z
Si Si1 0.500000 0.500000 0.000000
Si Si2 0.116196 0.257066 0.737047
Si Si3 0.937271 0.810307 0.614902
Si Si4 0.518774 0.089612 0.737833
Si Si5 0.196859 0.760214 0.700007
Si Si6 0.663657 0.804727 0.077991
Si Si7 0.927093 0.381673 0.745604
O O1 0.244499 0.324758 0.154565
O O2 0.526791 0.667551 0.994589
O O3 0.156599 0.299379 0.507483
O O4 0.295787 0.300477 0.782882
O O5 0.075659 0.366327 0.771438
O O6 0.892725 0.024300 0.895017
O O7 0.133675 0.858661 0.611080
O O8 0.000000 0.000000 0.500000
O O9 0.639670 0.182276 0.492076
O O10 0.445092 0.172312 0.786519
O O11 0.696958 0.167333 0.812215
O O12 0.317195 0.859949 0.820028
O O13 0.981273 0.528490 0.810396
O O14 0.000000 0.500000 0.500000
#
# Coordination Sequence:
#
# PCOD9111603 Si02
#       7
#     1   2   2   2   2   2   2
#     4  12  28  44  76 116 146 196 262 306 388 470
#     4  11  24  47  72 101 156 200 238 324 380 427
#     4  12  23  47  75 109 153 199 248 325 383 448
#     4  10  21  42  72 102 148 194 248 306 374 452
#     4  10  22  42  73 107 146 198 252 311 379 461
#     4  11  26  47  70 114 149 194 263 306 372 463
#     4  10  20  43  67 102 144 194 247 307 375 450
#
# _framework density 25.552230000000002
#
# number of rings (size 3 to 8) (size 9 to 14) (size 15 to 20)
#    0.000    1.231    4.615    1.846    4.308    1.231 
#   11.077    0.769    0.000    0.000    0.000    0.000 
#    0.000    0.000    0.000    0.000    0.000    0.000 
#
# Total GULP energy -72519.842387 kJ/mol
# GULP energy per Si atom -5578.449414 kJ/mol
# Density = 2.549407 g / cm^3
# Si number density = 25.552230 Si / 1000 Ang^3
#
#
#
# Elastic Constant Matrix: (Units=GPa)
#
#
# Indices 1 2 3 4 5 6 
#
# 1 139.5444 32.0071 27.7991 -0.3004 -11.5987 -23.4521
# 2 32.0071 145.1913 18.1881 -5.7144 0.0177 -25.8305
# 3 27.7991 18.1881 59.5874 13.5195 -15.2103 5.1581
# 4 -0.3004 -5.7144 13.5195 54.1786 -2.6776 -0.0895
# 5 -11.5987 0.0177 -15.2103 -2.6776 42.3422 8.9772
# 6 -23.4521 -25.8305 5.1581 -0.0895 8.9772 38.5852
#
#
#
# Elastic Compliance Matrix: (Units=1/GPa)
#
#
# Indices 1 2 3 4 5 6 
#
# 1 0.009285 -0.000201 -0.005280 0.001328 -0.000618 0.006361
# 2 -0.000201 0.008819 -0.004412 0.001892 -0.003025 0.007079
# 3 -0.005280 -0.004412 0.025595 -0.006414 0.009866 -0.011895
# 4 0.001328 0.001892 -0.006414 0.020203 -0.001362 0.003295
# 5 -0.000618 -0.003025 0.009866 -0.001362 0.029134 -0.010501
# 6 0.006361 0.007079 -0.011895 0.003295 -0.010501 0.038563
#
#
# Mechanical properties :
#
#
# Convention : Reuss Voigt Hill
#
# Bulk Modulus (GPa) = 41.81950 55.59018 48.70484
# Shear Modulus (GPa) = 31.37638 44.77644 38.07641
#
# Velocity S-wave (km/s) = 3.50799 4.19065 3.86442
# Velocity P-wave (km/s) = 5.72798 6.72444 6.24611
#
# Compressibility (1/GPa) = 0.02391229
#
# Stress axis : x y z
#
# Youngs Moduli (GPa) = 107.70402 113.39297 39.06986
#
# Poissons Ratio (x) = 0.02284 0.20628
# Poissons Ratio (y) = 0.02169 0.17238
# Poissons Ratio (z) = 0.56864 0.50031
#
# Static dielectric constant tensor:
#      x y z
#    x 1.960810 0.025280 0.003240 
#    y 0.025280 2.057140 0.006180 
#    z 0.003240 0.006180 2.119230 
# 
# From -- ./inp_files/176348.got.cif
#   From: 2010.05.17/outbox.cif.g08.bks.cpg/sg2_89_cif.got.tgz:176348.got - 2010.06.03 11:33:40.
