data_PCOD9111678
_publ_section_title
;
Structure prediction by ZEFSAII (Michael W. Deem and Ramdas Pophale) SiO2 
 PCOD9111678
Probable space group: P -1
;
_chemical_formula_sum "Si O2"
_cell_formula_units_Z 14
_cell_length_a 15.806605
_cell_length_b 14.994946
_cell_length_c 9.088394
_cell_angle_alpha 30.059825
_cell_angle_beta 141.343508
_cell_angle_gamma 140.213483
_cell_volume 643.837274
_symmetry_space_group_name_H-M "P -1"
_symmetry_group_IT_number 2
_symmetry_cell_setting 'triclinic'
loop_
_space_group_symop_operation_xyz
x,y,z
-x,-y,-z
loop_
_atom_site_type_symbol
_atom_site_label
_atom_site_fract_x
_atom_site_fract_y
_atom_site_fract_z
Si Si1 0.848929 0.424649 0.828491
Si Si2 0.733921 0.104302 0.925839
Si Si3 0.453793 0.281875 0.723247
Si Si4 0.195904 0.265349 0.892548
Si Si5 0.284063 0.774536 0.802535
Si Si6 0.558859 0.814985 0.499883
Si Si7 0.094599 0.858509 0.189566
O O1 0.831317 0.226923 0.009219
O O2 0.813835 0.564163 0.465173
O O3 0.748405 0.382100 0.894425
O O4 0.000000 0.500000 0.000000
O O5 0.587620 0.164488 0.659586
O O6 0.822378 0.160175 0.817472
O O7 0.690630 0.879823 0.203867
O O8 0.500000 0.500000 0.500000
O O9 0.466322 0.248345 0.612519
O O10 0.568093 0.227263 0.063033
O O11 0.075397 0.224155 0.915874
O O12 0.353106 0.294275 0.129442
O O13 0.145385 0.076269 0.995894
O O14 0.155519 0.754702 0.548423
O O15 0.328634 0.978229 0.645281
#
# Coordination Sequence:
#
# PCOD9111678 Si02
#       7
#     2   2   2   2   2   2   2
#     4  12  23  43  71  96 132 183 222 267 337 399
#     4  11  24  43  72  98 135 176 226 272 336 396
#     4  11  23  41  69 101 134 172 228 279 332 393
#     4  10  24  41  68  96 139 174 225 275 330 391
#     4  10  20  43  68  92 138 177 219 272 334 393
#     4  10  21  45  68  95 135 177 218 280 335 388
#     4  10  23  44  66  99 137 179 220 276 330 395
#
# _framework density 21.744626
#
# number of rings (size 3 to 8) (size 9 to 14) (size 15 to 20)
#    0.000    1.429    4.286    0.857    2.000    7.429 
#    2.571    1.429    0.000    0.000    0.000    0.000 
#    0.000    0.000    0.000    0.000    0.000    0.000 
#
# Total GULP energy -78017.789234 kJ/mol
# GULP energy per Si atom -5572.699231 kJ/mol
# Density = 2.169513 g / cm^3
# Si number density = 21.744626 Si / 1000 Ang^3
#
#
#
# Elastic Constant Matrix: (Units=GPa)
#
#
# Indices 1 2 3 4 5 6 
#
# 1 126.7618 28.3485 15.9822 2.9001 -8.7159 6.2292
# 2 28.3485 99.6045 36.0555 11.7818 6.2793 16.1162
# 3 15.9822 36.0555 84.1264 -8.2772 -5.4606 4.6090
# 4 2.9001 11.7818 -8.2772 27.1603 8.7641 1.9718
# 5 -8.7159 6.2793 -5.4606 8.7641 20.5008 -4.7204
# 6 6.2292 16.1162 4.6090 1.9718 -4.7204 17.2110
#
#
#
# Elastic Compliance Matrix: (Units=1/GPa)
#
#
# Indices 1 2 3 4 5 6 
#
# 1 0.008911 -0.002714 -0.000407 -0.001766 0.005530 0.001144
# 2 -0.002714 0.017016 -0.007069 -0.005065 -0.009560 -0.015100
# 3 -0.000407 -0.007069 0.015725 0.006348 0.004150 0.002966
# 4 -0.001766 -0.005065 0.006348 0.048020 -0.019700 -0.007223
# 5 0.005530 -0.009560 0.004150 -0.019700 0.069861 0.027257
# 6 0.001144 -0.015100 0.002966 -0.007223 0.027257 0.079337
#
#
# Mechanical properties :
#
#
# Convention : Reuss Voigt Hill
#
# Bulk Modulus (GPa) = 47.00822 52.36279 49.68550
# Shear Modulus (GPa) = 18.77294 28.31485 23.54389
#
# Velocity S-wave (km/s) = 2.94145 3.61245 3.29408
# Velocity P-wave (km/s) = 5.76207 6.44460 6.11286
#
# Compressibility (1/GPa) = 0.02127287
#
# Stress axis : x y z
#
# Youngs Moduli (GPa) = 112.21543 58.76881 63.59168
#
# Poissons Ratio (x) = 0.15947 0.02591
# Poissons Ratio (y) = 0.30450 0.44952
# Poissons Ratio (z) = 0.04572 0.41543
#
# Static dielectric constant tensor:
#      x y z
#    x 1.864570 0.041400 0.040400 
#    y 0.041400 1.824050 -0.024400 
#    z 0.040400 -0.024400 1.855390 
# 
# From -- ./inp_files/241973.got.cif
#   From: 2010.05.17/outbox.cif.g08.bks.cpg/sg2_121_cif.got.tgz:241973.got - 2010.06.03 11:33:40.
