data_PCOD9111563
_publ_section_title
;
Structure prediction by ZEFSAII (Michael W. Deem and Ramdas Pophale) SiO2 
 PCOD9111563
Probable space group: P -1
;
_chemical_formula_sum "Si O2"
_cell_formula_units_Z 14
_cell_length_a 17.719202
_cell_length_b 19.004978
_cell_length_c 12.630533
_cell_angle_alpha 19.976999
_cell_angle_beta 37.682276
_cell_angle_gamma 28.897445
_cell_volume 689.403514
_symmetry_space_group_name_H-M "P -1"
_symmetry_group_IT_number 2
_symmetry_cell_setting 'triclinic'
loop_
_space_group_symop_operation_xyz
x,y,z
-x,-y,-z
loop_
_atom_site_type_symbol
_atom_site_label
_atom_site_fract_x
_atom_site_fract_y
_atom_site_fract_z
Si Si1 0.940061 0.362759 0.826562
Si Si2 0.651395 0.892728 0.910667
Si Si3 0.382755 0.301781 0.165073
Si Si4 0.492704 0.439609 0.213860
Si Si5 0.132150 0.717360 0.202236
Si Si6 0.458418 0.302266 0.838533
Si Si7 0.801241 0.814816 0.065425
O O1 0.788817 0.564570 0.783121
O O2 0.888157 0.263398 0.930357
O O3 0.000000 0.500000 0.500000
O O4 0.082734 0.154491 0.042802
O O5 0.595876 0.127230 0.560411
O O6 0.669317 0.661071 0.153861
O O7 0.775727 0.854685 0.910972
O O8 0.500000 0.000000 0.000000
O O9 0.500000 0.000000 0.500000
O O10 0.441672 0.453749 0.934199
O O11 0.395773 0.314404 0.007087
O O12 0.306537 0.599237 0.214285
O O13 0.500000 0.500000 0.000000
O O14 0.123725 0.489697 0.570852
O O15 0.000000 0.000000 0.000000
O O16 0.500000 0.500000 0.500000
O O17 0.628909 0.012988 0.033617
#
# Coordination Sequence:
#
# PCOD9111563 Si02
#       7
#     2   2   2   2   2   2   2
#     4  10  23  43  60  95 136 175 216 279 337 386
#     4  10  20  43  66  93 131 174 219 270 337 389
#     4  12  24  39  67 100 131 174 230 278 328 399
#     4  12  23  41  67  98 134 170 225 284 329 395
#     4  11  23  39  66  99 131 178 220 271 338 397
#     4  11  23  40  69 101 129 174 222 273 338 404
#     4  10  22  43  67  91 139 172 222 276 329 406
#
# _framework density 20.307410000000001
#
# number of rings (size 3 to 8) (size 9 to 14) (size 15 to 20)
#    0.000    1.143    4.286    4.286    6.000    0.000 
#    0.000    3.571    0.000    0.000    0.000    0.000 
#    0.000    0.000    0.000    0.000    0.000    0.000 
#
# Total GULP energy -78080.881990 kJ/mol
# GULP energy per Si atom -5577.205856 kJ/mol
# Density = 2.026119 g / cm^3
# Si number density = 20.307410 Si / 1000 Ang^3
#
#
#
# Elastic Constant Matrix: (Units=GPa)
#
#
# Indices 1 2 3 4 5 6 
#
# 1 141.0418 45.6590 22.6793 6.8817 13.2983 9.8965
# 2 45.6590 105.5796 19.0085 -0.6151 8.5347 15.9002
# 3 22.6793 19.0085 84.6266 0.6593 2.2505 15.0326
# 4 6.8817 -0.6151 0.6593 30.2449 4.7513 4.0951
# 5 13.2983 8.5347 2.2505 4.7513 34.9571 3.5512
# 6 9.8965 15.9002 15.0326 4.0951 3.5512 42.2273
#
#
#
# Elastic Compliance Matrix: (Units=1/GPa)
#
#
# Indices 1 2 3 4 5 6 
#
# 1 0.008696 -0.003335 -0.001530 -0.001686 -0.002177 0.000109
# 2 -0.003335 0.011737 -0.001136 0.001689 -0.001420 -0.003278
# 3 -0.001530 -0.001136 0.013176 0.000523 0.000345 -0.003984
# 4 -0.001686 0.001689 0.000523 0.034588 -0.004157 -0.003432
# 5 -0.002177 -0.001420 0.000345 -0.004157 0.030450 -0.001235
# 6 0.000109 -0.003278 -0.003984 -0.003432 -0.001235 0.026745
#
#
# Mechanical properties :
#
#
# Convention : Reuss Voigt Hill
#
# Bulk Modulus (GPa) = 46.28028 56.21573 51.24801
# Shear Modulus (GPa) = 34.57946 37.74593 36.16270
#
# Velocity S-wave (km/s) = 4.13098 4.31597 4.22449
# Velocity P-wave (km/s) = 6.75223 7.25116 7.00614
#
# Compressibility (1/GPa) = 0.02160747
#
# Stress axis : x y z
#
# Youngs Moduli (GPa) = 114.99963 85.20303 75.89516
#
# Poissons Ratio (x) = 0.28419 0.11608
# Poissons Ratio (y) = 0.38357 0.08618
# Poissons Ratio (z) = 0.17590 0.09675
#
# Static dielectric constant tensor:
#      x y z
#    x 1.838170 -0.024600 -0.032840 
#    y -0.024600 1.680540 0.041180 
#    z -0.032840 0.041180 1.603320 
# 
# From -- ./inp_files/466503.got.cif
#   From: 2010.05.17/outbox.cif.g08.bks.cpg/sg2_234_cif.got.tgz:466503.got - 2010.06.03 11:33:40.
