data_PCOD9111067
_publ_section_title
;
Structure prediction by ZEFSAII (Michael W. Deem and Ramdas Pophale) SiO2 
 PCOD9111067
Probable space group: P -1
;
_chemical_formula_sum "Si O2"
_cell_formula_units_Z 16
_cell_length_a 17.693871
_cell_length_b 27.225968
_cell_length_c 14.413529
_cell_angle_alpha 159.032248
_cell_angle_beta 158.646134
_cell_angle_gamma 18.804265
_cell_volume 730.125143
_symmetry_space_group_name_H-M "P -1"
_symmetry_group_IT_number 2
_symmetry_cell_setting 'triclinic'
loop_
_space_group_symop_operation_xyz
x,y,z
-x,-y,-z
loop_
_atom_site_type_symbol
_atom_site_label
_atom_site_fract_x
_atom_site_fract_y
_atom_site_fract_z
Si Si1 0.541215 0.541906 0.223729
Si Si2 0.579120 0.056549 0.971098
Si Si3 0.990318 0.838434 0.192772
Si Si4 0.113755 0.111741 0.435143
Si Si5 0.335504 0.718251 0.643477
Si Si6 0.195981 0.771741 0.891651
Si Si7 0.640972 0.580515 0.925969
Si Si8 0.800736 0.696210 0.865851
O O1 0.718347 0.370768 0.185369
O O2 0.669022 0.642361 0.549313
O O3 0.266651 0.668965 0.184460
O O4 0.500000 0.500000 0.000000
O O5 0.393839 0.050709 0.677935
O O6 0.719482 0.126461 0.203726
O O7 0.394534 0.194548 0.081995
O O8 0.791259 0.885849 0.965564
O O9 0.880895 0.805776 0.100595
O O10 0.000000 0.000000 0.500000
O O11 0.907770 0.240523 0.503514
O O12 0.011983 0.195789 0.365726
O O13 0.095906 0.953506 0.138934
O O14 0.554329 0.666774 0.878415
O O15 0.420646 0.559180 0.396321
O O16 0.450600 0.712004 0.017729
O O17 0.938656 0.476290 0.104285
#
# Coordination Sequence:
#
# PCOD9111067 Si02
#       8
#     2   2   2   2   2   2   2   2
#     4  12  29  45  71  99 137 182 226 283 335 395
#     4  12  25  39  74 101 130 174 230 273 333 407
#     4  12  27  47  69  98 140 178 228 281 333 398
#     4  10  24  44  71  98 137 180 216 277 337 406
#     4  10  22  40  66 104 132 172 214 280 336 395
#     4  10  23  48  66  97 144 175 219 278 339 394
#     4  10  20  42  68  96 140 167 218 278 337 402
#     4  12  25  44  70 101 132 181 225 280 337 400
#
# _framework density 21.914052000000002
#
# number of rings (size 3 to 8) (size 9 to 14) (size 15 to 20)
#    0.000    1.000    3.750    1.875    5.250    2.000 
#    0.000    1.875    0.000    0.000    0.000    0.000 
#    0.000    0.000    0.000    0.000    0.000    0.000 
#
# Total GULP energy -89499.017315 kJ/mol
# GULP energy per Si atom -5593.688582 kJ/mol
# Density = 2.186417 g / cm^3
# Si number density = 21.914052 Si / 1000 Ang^3
#
#
#
# Elastic Constant Matrix: (Units=GPa)
#
#
# Indices 1 2 3 4 5 6 
#
# 1 68.5659 12.3646 26.5061 1.5037 -10.6343 18.2638
# 2 12.3646 93.1621 14.8451 -12.9276 -5.4619 26.4022
# 3 26.5061 14.8451 82.1768 -14.3590 -15.2914 10.3678
# 4 1.5037 -12.9276 -14.3590 34.9051 1.4218 -6.5135
# 5 -10.6343 -5.4619 -15.2914 1.4218 22.4629 0.6814
# 6 18.2638 26.4022 10.3678 -6.5135 0.6814 37.2451
#
#
#
# Elastic Compliance Matrix: (Units=1/GPa)
#
#
# Indices 1 2 3 4 5 6 
#
# 1 0.020214 0.000677 -0.004918 -0.004792 0.006993 -0.009989
# 2 0.000677 0.014105 -0.000317 0.003094 0.003635 -0.009768
# 3 -0.004918 -0.000317 0.016655 0.006404 0.008558 -0.001036
# 4 -0.004792 0.003094 0.006404 0.033396 0.000602 0.004204
# 5 0.006993 0.003635 0.008558 0.000602 0.054782 -0.009285
# 6 -0.009989 -0.009768 -0.001036 0.004204 -0.009285 0.039865
#
#
# Mechanical properties :
#
#
# Convention : Reuss Voigt Hill
#
# Bulk Modulus (GPa) = 23.89088 39.03737 31.46412
# Shear Modulus (GPa) = 24.74192 31.60188 28.17190
#
# Velocity S-wave (km/s) = 3.36377 3.80160 3.58937
# Velocity P-wave (km/s) = 5.10023 6.09279 5.61847
#
# Compressibility (1/GPa) = 0.04185698
#
# Stress axis : x y z
#
# Youngs Moduli (GPa) = 49.47034 70.89509 60.04300
#
# Poissons Ratio (x) = -0.04798 0.29531
# Poissons Ratio (y) = -0.03348 0.01904
# Poissons Ratio (z) = 0.24331 0.02248
#
# Static dielectric constant tensor:
#      x y z
#    x 1.758620 0.035310 -0.017090 
#    y 0.035310 1.788290 -0.031540 
#    z -0.017090 -0.031540 1.784980 
# 
# From -- ./inp_files/84276.got.cif
#   From: 2010.05.17/outbox.cif.g08.bks.cpg/sg2_43_cif.got.tgz:84276.got - 2010.06.03 11:33:40.
