data_PCOD9111836
_publ_section_title
;
Structure prediction by ZEFSAII (Michael W. Deem and Ramdas Pophale) SiO2 
 PCOD9111836
Probable space group: P -1
;
_chemical_formula_sum "Si O2"
_cell_formula_units_Z 16
_cell_length_a 13.688766
_cell_length_b 9.627052
_cell_length_c 7.961753
_cell_angle_alpha 70.286493
_cell_angle_beta 87.937384
_cell_angle_gamma 45.092081
_cell_volume 666.622379
_symmetry_space_group_name_H-M "P -1"
_symmetry_group_IT_number 2
_symmetry_cell_setting 'triclinic'
loop_
_space_group_symop_operation_xyz
x,y,z
-x,-y,-z
loop_
_atom_site_type_symbol
_atom_site_label
_atom_site_fract_x
_atom_site_fract_y
_atom_site_fract_z
Si Si1 0.853820 0.617026 0.119276
Si Si2 0.320505 0.077594 0.319050
Si Si3 0.367723 0.727342 0.325557
Si Si4 0.912947 0.505437 0.642843
Si Si5 0.855885 0.283918 0.237140
Si Si6 0.426807 0.053467 0.798556
Si Si7 0.113502 0.802224 0.334772
Si Si8 0.478160 0.362294 0.982915
O O1 0.979178 0.591355 0.166322
O O2 0.914964 0.384759 0.188296
O O3 0.739421 0.733400 0.233704
O O4 0.763456 0.768211 0.902838
O O5 0.487390 0.937032 0.338057
O O6 0.238408 0.247239 0.406225
O O7 0.306221 0.917966 0.379243
O O8 0.500000 0.500000 0.500000
O O9 0.243932 0.751314 0.269827
O O10 0.433825 0.736258 0.157056
O O11 0.000000 0.500000 0.500000
O O12 0.894743 0.354556 0.666142
O O13 0.852666 0.239951 0.450215
O O14 0.692280 0.470692 0.104481
O O15 0.961279 0.056804 0.224381
O O16 0.460490 0.845980 0.834448
O O17 0.500000 0.000000 0.000000
O O18 0.500000 0.500000 0.000000
#
# Coordination Sequence:
#
# PCOD9111836 Si02
#       8
#     2   2   2   2   2   2   2   2
#     4  11  21  45  75  95 134 186 230 281 342 406
#     4  11  24  45  71 101 132 182 238 277 346 410
#     4  12  25  46  71  99 140 182 223 277 353 421
#     4  12  27  44  67 103 140 178 239 286 332 408
#     4  11  22  46  71  94 140 191 215 282 348 409
#     4  10  20  43  71  97 131 175 233 273 336 411
#     4  11  27  42  66 102 142 178 231 273 349 408
#     4  12  25  43  72 107 138 174 228 287 345 403
#
# _framework density 24.001594999999998
#
# number of rings (size 3 to 8) (size 9 to 14) (size 15 to 20)
#    0.000    0.750    7.500    1.125    5.250    0.000 
#    0.000    3.125    0.000    0.000    0.000    0.000 
#    0.000    0.000    0.000    0.000    0.000    0.000 
#
# Total GULP energy -89653.472847 kJ/mol
# GULP energy per Si atom -5603.342053 kJ/mol
# Density = 2.394697 g / cm^3
# Si number density = 24.001595 Si / 1000 Ang^3
#
#
#
# Elastic Constant Matrix: (Units=GPa)
#
#
# Indices 1 2 3 4 5 6 
#
# 1 160.0742 81.9418 7.3986 -1.1346 -15.2757 5.0024
# 2 81.9418 186.6152 8.8174 -8.8918 -12.5936 16.4903
# 3 7.3986 8.8174 38.5136 -1.2984 -11.2064 -4.3173
# 4 -1.1346 -8.8918 -1.2984 34.9504 2.8139 -8.1613
# 5 -15.2757 -12.5936 -11.2064 2.8139 29.7687 -3.5741
# 6 5.0024 16.4903 -4.3173 -8.1613 -3.5741 57.2860
#
#
#
# Elastic Compliance Matrix: (Units=1/GPa)
#
#
# Indices 1 2 3 4 5 6 
#
# 1 0.008309 -0.003524 0.000075 -0.000774 0.002918 0.000366
# 2 -0.003524 0.007192 -0.000944 0.001257 0.000565 -0.001619
# 3 0.000075 -0.000944 0.029820 0.000743 0.011193 0.003317
# 4 -0.000774 0.001257 0.000743 0.030005 -0.001952 0.003915
# 5 0.002918 0.000565 0.011193 -0.001952 0.040045 0.002646
# 6 0.000366 -0.001619 0.003317 0.003915 0.002646 0.018863
#
#
# Mechanical properties :
#
#
# Convention : Reuss Voigt Hill
#
# Bulk Modulus (GPa) = 27.37185 64.61320 45.99252
# Shear Modulus (GPa) = 32.21640 43.53738 37.87689
#
# Velocity S-wave (km/s) = 3.66766 4.26365 3.97684
# Velocity P-wave (km/s) = 5.41891 7.15662 6.34751
#
# Compressibility (1/GPa) = 0.03653389
#
# Stress axis : x y z
#
# Youngs Moduli (GPa) = 120.34649 139.04515 33.53421
#
# Poissons Ratio (x) = 0.49005 -0.00251
# Poissons Ratio (y) = 0.42415 0.03166
# Poissons Ratio (z) = -0.00899 0.13128
#
# Static dielectric constant tensor:
#      x y z
#    x 1.880890 0.011570 0.043810 
#    y 0.011570 1.885140 0.040870 
#    z 0.043810 0.040870 1.957680 
# 
# From -- ./inp_files/297856.got.cif
#   From: 2010.05.17/outbox.cif.g08.bks.cpg/sg2_149_cif.got.tgz:297856.got - 2010.06.03 11:33:40.
