data_PCOD9111194
_publ_section_title
;
Structure prediction by ZEFSAII (Michael W. Deem and Ramdas Pophale) SiO2 
 PCOD9111194
Probable space group: P -1
;
_chemical_formula_sum "Si O2"
_cell_formula_units_Z 13
_cell_length_a 16.655940
_cell_length_b 7.945105
_cell_length_c 7.587281
_cell_angle_alpha 76.784744
_cell_angle_beta 32.959420
_cell_angle_gamma 65.558944
_cell_volume 482.840612
_symmetry_space_group_name_H-M "P -1"
_symmetry_group_IT_number 2
_symmetry_cell_setting 'triclinic'
loop_
_space_group_symop_operation_xyz
x,y,z
-x,-y,-z
loop_
_atom_site_type_symbol
_atom_site_label
_atom_site_fract_x
_atom_site_fract_y
_atom_site_fract_z
Si Si1 0.584239 0.348101 0.729651
Si Si2 0.994577 0.552968 0.793317
Si Si3 0.312301 0.239119 0.144541
Si Si4 0.652078 0.627190 0.325724
Si Si5 0.836604 0.005703 0.935662
Si Si6 0.136989 0.965658 0.528707
Si Si7 0.500000 0.000000 0.500000
O O1 0.583476 0.471609 0.527804
O O2 0.764759 0.221274 0.495993
O O3 0.500000 0.500000 0.000000
O O4 0.474499 0.232688 0.932381
O O5 0.930897 0.776752 0.828013
O O6 0.166521 0.442719 0.409383
O O7 0.845377 0.512839 0.004968
O O8 0.000000 0.500000 0.000000
O O9 0.225869 0.101724 0.376998
O O10 0.356240 0.223257 0.857437
O O11 0.559265 0.807508 0.578769
O O12 0.940875 0.063290 0.871136
O O13 0.840467 0.075023 0.712973
O O14 0.650496 0.053472 0.290293
#
# Coordination Sequence:
#
# PCOD9111194 Si02
#       7
#     2   2   2   2   2   2   1
#     4  12  26  46  73 104 149 191 242 297 361 430
#     4  11  23  45  72 103 139 189 239 296 366 424
#     4  12  25  47  74 103 147 186 246 306 350 430
#     4  11  24  45  71 106 142 188 244 289 365 423
#     4  10  22  42  74  98 146 186 236 287 369 429
#     4  11  23  45  67 109 138 192 237 293 361 422
#     4  10  20  42  70 106 134 184 230 290 350 430
#
# _framework density 26.923998000000001
#
# number of rings (size 3 to 8) (size 9 to 14) (size 15 to 20)
#    0.000    0.923    3.077    5.077    0.000    2.462 
#    8.308    1.538    0.000    0.000    0.000    0.000 
#    0.000    0.000    0.000    0.000    0.000    0.000 
#
# Total GULP energy -72471.369452 kJ/mol
# GULP energy per Si atom -5574.720727 kJ/mol
# Density = 2.686272 g / cm^3
# Si number density = 26.923998 Si / 1000 Ang^3
#
#
#
# Elastic Constant Matrix: (Units=GPa)
#
#
# Indices 1 2 3 4 5 6 
#
# 1 113.5310 24.8688 54.5360 -3.3576 -24.5476 -5.7672
# 2 24.8688 110.5921 40.7188 -22.6137 1.0489 -7.7178
# 3 54.5360 40.7188 150.7027 5.5800 -31.9227 -5.7105
# 4 -3.3576 -22.6137 5.5800 39.6428 6.1972 -11.3733
# 5 -24.5476 1.0489 -31.9227 6.1972 59.7576 -8.0248
# 6 -5.7672 -7.7178 -5.7105 -11.3733 -8.0248 38.9010
#
#
#
# Elastic Compliance Matrix: (Units=1/GPa)
#
#
# Indices 1 2 3 4 5 6 
#
# 1 0.011352 -0.001164 -0.003068 0.000768 0.003219 0.001890
# 2 -0.001164 0.013038 -0.004007 0.009549 -0.003310 0.003935
# 3 -0.003068 -0.004007 0.009969 -0.004731 0.004596 -0.000221
# 4 0.000768 0.009549 -0.004731 0.035177 -0.004597 0.010650
# 5 0.003219 -0.003310 0.004596 -0.004597 0.021529 0.003592
# 6 0.001890 0.003935 -0.000221 0.010650 0.003592 0.030590
#
#
# Mechanical properties :
#
#
# Convention : Reuss Voigt Hill
#
# Bulk Modulus (GPa) = 55.93074 68.34145 62.13609
# Shear Modulus (GPa) = 34.69958 44.64041 39.67000
#
# Velocity S-wave (km/s) = 3.59388 4.07629 3.84266
# Velocity P-wave (km/s) = 6.16765 6.89877 6.54343
#
# Compressibility (1/GPa) = 0.01787926
#
# Stress axis : x y z
#
# Youngs Moduli (GPa) = 88.09146 76.69932 100.31143
#
# Poissons Ratio (x) = 0.08932 0.30779
# Poissons Ratio (y) = 0.10258 0.40193
# Poissons Ratio (z) = 0.27030 0.30732
#
# Static dielectric constant tensor:
#      x y z
#    x 2.479470 0.417100 0.530730 
#    y 0.417100 2.971910 1.034690 
#    z 0.530730 1.034690 3.368710 
# 
# From -- ./inp_files/328654.got.cif
#   From: 2010.05.17/outbox.cif.g08.bks.cpg/sg2_165_cif.got.tgz:328654.got - 2010.06.03 11:33:40.
