data_PCOD9111855
_publ_section_title
;
Structure prediction by ZEFSAII (Michael W. Deem and Ramdas Pophale) SiO2 
 PCOD9111855
Probable space group: P -1
;
_chemical_formula_sum "Si O2"
_cell_formula_units_Z 16
_cell_length_a 14.290727
_cell_length_b 8.436901
_cell_length_c 20.370590
_cell_angle_alpha 46.339918
_cell_angle_beta 34.711936
_cell_angle_gamma 35.253934
_cell_volume 805.914567
_symmetry_space_group_name_H-M "P -1"
_symmetry_group_IT_number 2
_symmetry_cell_setting 'triclinic'
loop_
_space_group_symop_operation_xyz
x,y,z
-x,-y,-z
loop_
_atom_site_type_symbol
_atom_site_label
_atom_site_fract_x
_atom_site_fract_y
_atom_site_fract_z
Si Si1 0.117389 0.119018 0.728049
Si Si2 0.359451 0.820626 0.546049
Si Si3 0.998281 0.817337 0.711083
Si Si4 0.351359 0.722530 0.393561
Si Si5 0.019182 0.286327 0.393669
Si Si6 0.693847 0.749300 0.151728
Si Si7 0.320284 0.154545 0.720437
Si Si8 0.885029 0.871130 0.900212
O O1 0.219442 0.054984 0.759524
O O2 0.006880 0.436185 0.681143
O O3 0.296028 0.943512 0.621061
O O4 0.959623 0.045541 0.834027
O O5 0.146336 0.904299 0.614837
O O6 0.515921 0.490660 0.563187
O O7 0.476991 0.915265 0.412510
O O8 0.152972 0.485778 0.719343
O O9 0.917446 0.870101 0.668961
O O10 0.843605 0.924816 0.830868
O O11 0.522640 0.698725 0.256492
O O12 0.201070 0.645307 0.481391
O O13 0.194960 0.047861 0.407033
O O14 0.649548 0.906604 0.201889
O O15 0.911056 0.447261 0.121000
O O16 0.715027 0.896708 0.036742
#
# Coordination Sequence:
#
# PCOD9111855 Si02
#       8
#     2   2   2   2   2   2   2   2
#     4  10  19  32  51  81 107 138 165 224 261 307
#     4  11  17  30  58  78 105 134 181 211 261 305
#     4   9  16  32  51  78  99 142 173 212 247 324
#     4  11  19  34  54  81 106 142 168 217 257 323
#     4  10  22  32  55  79 114 134 170 210 277 311
#     4  10  19  34  53  81 100 140 179 220 251 307
#     4  10  17  26  52  80 103 131 175 214 260 307
#     4   9  19  33  56  75 105 133 183 222 254 293
#
# _framework density 19.853221000000001
#
# number of rings (size 3 to 8) (size 9 to 14) (size 15 to 20)
#    0.000    2.000    6.250    1.500    0.000    0.500 
#    0.000    1.250    5.500    6.750    0.000    0.000 
#    0.000    0.000    0.000    0.000    0.000    0.000 
#
# Total GULP energy -89136.778544 kJ/mol
# GULP energy per Si atom -5571.048659 kJ/mol
# Density = 1.980803 g / cm^3
# Si number density = 19.853221 Si / 1000 Ang^3
#
#
#
# Elastic Constant Matrix: (Units=GPa)
#
#
# Indices 1 2 3 4 5 6 
#
# 1 65.7330 20.0126 32.4335 -0.2156 15.0145 14.1024
# 2 20.0126 35.6075 15.1757 -8.9172 6.2809 2.1385
# 3 32.4335 15.1757 154.9091 -7.3371 16.1938 11.1351
# 4 -0.2156 -8.9172 -7.3371 19.8461 1.3481 -2.4931
# 5 15.0145 6.2809 16.1938 1.3481 21.0764 0.4992
# 6 14.1024 2.1385 11.1351 -2.4931 0.4992 30.6217
#
#
#
# Elastic Compliance Matrix: (Units=1/GPa)
#
#
# Indices 1 2 3 4 5 6 
#
# 1 0.024805 -0.011871 -0.002395 -0.006422 -0.011644 -0.010057
# 2 -0.011871 0.040114 -0.000412 0.018600 -0.004475 0.004403
# 3 -0.002395 -0.000412 0.007664 0.002736 -0.004203 -0.001364
# 4 -0.006422 0.018600 0.002736 0.060890 -0.007101 0.005737
# 5 -0.011644 -0.004475 -0.004203 -0.007101 0.060625 0.005637
# 6 -0.010057 0.004403 -0.001364 0.005737 0.005637 0.037852
#
#
# Mechanical properties :
#
#
# Convention : Reuss Voigt Hill
#
# Bulk Modulus (GPa) = 23.13302 43.49925 33.31613
# Shear Modulus (GPa) = 18.13469 26.88404 22.50936
#
# Velocity S-wave (km/s) = 3.02559 3.68386 3.37083
# Velocity P-wave (km/s) = 4.88702 6.32869 5.65399
#
# Compressibility (1/GPa) = 0.04322825
#
# Stress axis : x y z
#
# Youngs Moduli (GPa) = 40.31446 24.92871 130.47830
#
# Poissons Ratio (x) = 0.29593 0.31243
# Poissons Ratio (y) = 0.47857 0.05377
# Poissons Ratio (z) = 0.09653 0.01027
#
# Static dielectric constant tensor:
#      x y z
#    x 1.772950 0.008930 0.043870 
#    y 0.008930 1.718720 0.009490 
#    z 0.043870 0.009490 1.729190 
# 
# From -- ./inp_files/301505.got.cif
#   From: 2010.05.17/outbox.cif.g08.bks.cpg/sg2_151_cif.got.tgz:301505.got - 2010.06.03 11:33:40.
