data_PCOD9111604
_publ_section_title
;
Structure prediction by ZEFSAII (Michael W. Deem and Ramdas Pophale) SiO2 
 PCOD9111604
Probable space group: P -1
;
_chemical_formula_sum "Si O2"
_cell_formula_units_Z 14
_cell_length_a 17.336502
_cell_length_b 8.721891
_cell_length_c 17.843173
_cell_angle_alpha 34.760205
_cell_angle_beta 25.863394
_cell_angle_gamma 51.424180
_cell_volume 593.988870
_symmetry_space_group_name_H-M "P -1"
_symmetry_group_IT_number 2
_symmetry_cell_setting 'triclinic'
loop_
_space_group_symop_operation_xyz
x,y,z
-x,-y,-z
loop_
_atom_site_type_symbol
_atom_site_label
_atom_site_fract_x
_atom_site_fract_y
_atom_site_fract_z
Si Si1 0.076199 0.738757 0.120495
Si Si2 0.192472 0.790476 0.685859
Si Si3 0.533257 0.661903 0.486210
Si Si4 0.762372 0.494654 0.803049
Si Si5 0.372200 0.611196 0.351033
Si Si6 0.387842 0.468664 0.231402
Si Si7 0.126364 0.828871 0.558360
O O1 0.126653 0.666439 0.188178
O O2 0.850502 0.680573 0.335663
O O3 0.065830 0.462370 0.188414
O O4 0.244881 0.061303 0.819302
O O5 0.377190 0.794405 0.567353
O O6 0.189618 0.751024 0.614161
O O7 0.216320 0.126084 0.536908
O O8 0.000000 0.500000 0.000000
O O9 0.500000 0.500000 0.500000
O O10 0.503925 0.444930 0.669487
O O11 0.701495 0.404742 0.806423
O O12 0.887276 0.861508 0.550035
O O13 0.562606 0.423450 0.054472
O O14 0.448627 0.634345 0.191091
O O15 0.305715 0.864606 0.331673
#
# Coordination Sequence:
#
# PCOD9111604 Si02
#       7
#     2   2   2   2   2   2   2
#     4  10  22  40  67  92 126 173 207 259 317 377
#     4  11  24  40  64  94 129 167 214 256 321 376
#     4  12  23  41  65  93 132 172 202 265 325 373
#     4  10  20  43  67  88 133 166 218 251 324 369
#     4  10  24  39  64  95 129 162 218 255 319 372
#     4  10  23  39  63  96 123 172 208 271 304 379
#     4   9  22  41  64  94 127 168 208 266 308 376
#
# _framework density 23.569465000000001
#
# number of rings (size 3 to 8) (size 9 to 14) (size 15 to 20)
#    0.857    0.857    2.857    0.857    4.000    2.857 
#    0.000    0.000    0.000    0.000    0.000    0.000 
#    0.000    0.000    0.000    0.000    0.000    0.000 
#
# Total GULP energy -78183.233562 kJ/mol
# GULP energy per Si atom -5584.516683 kJ/mol
# Density = 2.351582 g / cm^3
# Si number density = 23.569465 Si / 1000 Ang^3
#
#
#
# Elastic Constant Matrix: (Units=GPa)
#
#
# Indices 1 2 3 4 5 6 
#
# 1 173.6524 37.2844 6.9532 6.4799 24.3313 -0.0541
# 2 37.2844 35.0019 3.2632 -0.7909 19.7476 12.8217
# 3 6.9532 3.2632 83.2919 -10.9149 5.2439 8.8343
# 4 6.4799 -0.7909 -10.9149 24.0129 4.3120 -1.6904
# 5 24.3313 19.7476 5.2439 4.3120 33.5194 3.2159
# 6 -0.0541 12.8217 8.8343 -1.6904 3.2159 41.5272
#
#
#
# Elastic Compliance Matrix: (Units=1/GPa)
#
#
# Indices 1 2 3 4 5 6 
#
# 1 0.007951 -0.009624 -0.000974 -0.002708 0.000104 0.003071
# 2 -0.009624 0.061668 0.003407 0.010284 -0.029564 -0.017070
# 3 -0.000974 0.003407 0.013472 0.006980 -0.003987 -0.003326
# 4 -0.002708 0.010284 0.006980 0.047758 -0.011151 -0.001856
# 5 0.000104 -0.029564 -0.003987 -0.011151 0.048681 0.005752
# 6 0.003071 -0.017070 -0.003326 -0.001856 0.005752 0.029542
#
#
# Mechanical properties :
#
#
# Convention : Reuss Voigt Hill
#
# Bulk Modulus (GPa) = 14.55387 42.99419 28.77403
# Shear Modulus (GPa) = 20.29566 36.10827 28.20197
#
# Velocity S-wave (km/s) = 2.93763 3.91832 3.46287
# Velocity P-wave (km/s) = 4.20649 6.22511 5.31256
#
# Compressibility (1/GPa) = 0.06871025
#
# Stress axis : x y z
#
# Youngs Moduli (GPa) = 125.76493 16.21579 74.22609
#
# Poissons Ratio (x) = 0.15606 0.07228
# Poissons Ratio (y) = 1.21034 -0.25287
# Poissons Ratio (z) = 0.12247 -0.05524
#
# Static dielectric constant tensor:
#      x y z
#    x 1.871120 0.036380 -0.017900 
#    y 0.036380 1.937250 0.001450 
#    z -0.017900 0.001450 1.923300 
# 
# From -- ./inp_files/575216.got.cif
#   From: 2010.05.17/outbox.cif.g08.bks.cpg/sg2_288_cif.got.tgz:575216.got - 2010.06.03 11:33:40.
