data_PCOD9111449
_publ_section_title
;
Structure prediction by ZEFSAII (Michael W. Deem and Ramdas Pophale) SiO2 
 PCOD9111449
Probable space group: P -1
;
_chemical_formula_sum "Si O2"
_cell_formula_units_Z 12
_cell_length_a 9.390186
_cell_length_b 5.557829
_cell_length_c 15.272422
_cell_angle_alpha 57.587387
_cell_angle_beta 49.521537
_cell_angle_gamma 83.775722
_cell_volume 474.883020
_symmetry_space_group_name_H-M "P -1"
_symmetry_group_IT_number 2
_symmetry_cell_setting 'triclinic'
loop_
_space_group_symop_operation_xyz
x,y,z
-x,-y,-z
loop_
_atom_site_type_symbol
_atom_site_label
_atom_site_fract_x
_atom_site_fract_y
_atom_site_fract_z
Si Si1 0.058090 0.045559 0.316886
Si Si2 0.517176 0.853757 0.928802
Si Si3 0.249037 0.304237 0.358707
Si Si4 0.202578 0.656129 0.724322
Si Si5 0.579251 0.175179 0.569633
Si Si6 0.639168 0.771258 0.185906
O O1 0.248446 0.969819 0.226501
O O2 0.136663 0.296803 0.314904
O O3 0.967353 0.199227 0.248382
O O4 0.886084 0.754749 0.488239
O O5 0.354136 0.904135 0.917025
O O6 0.500000 0.500000 0.000000
O O7 0.500000 0.000000 0.000000
O O8 0.471069 0.553862 0.229469
O O9 0.293937 0.991833 0.398817
O O10 0.271934 0.624366 0.603185
O O11 0.179636 0.348891 0.847931
O O12 0.392634 0.919298 0.643549
O O13 0.479154 0.302329 0.660089
#
# Coordination Sequence:
#
# PCOD9111449 Si02
#       6
#     2   2   2   2   2   2
#     4  10  20  43  64 101 134 168 226 283 334 400
#     4  12  28  49  70  91 131 193 243 277 322 395
#     4   9  19  37  67 101 136 168 209 279 355 401
#     4   9  20  35  63  99 137 165 204 275 349 410
#     4   9  17  36  59  99 139 169 200 254 360 428
#     4  11  21  40  67  96 134 176 214 272 342 415
#
# _framework density 25.269379000000001
#
# number of rings (size 3 to 8) (size 9 to 14) (size 15 to 20)
#    0.000    2.000    1.667    2.500    2.333    0.667 
#   12.000    1.667    0.000    0.000    0.000    0.000 
#    0.000    0.000    0.000    0.000    0.000    0.000 
#
# Total GULP energy -66953.389590 kJ/mol
# GULP energy per Si atom -5579.449132 kJ/mol
# Density = 2.521187 g / cm^3
# Si number density = 25.269379 Si / 1000 Ang^3
#
#
#
# Elastic Constant Matrix: (Units=GPa)
#
#
# Indices 1 2 3 4 5 6 
#
# 1 150.0517 32.7358 13.6139 -0.6529 21.6763 -37.1139
# 2 32.7358 67.7158 17.8316 0.6648 17.0504 -16.2516
# 3 13.6139 17.8316 50.8810 9.9050 7.9414 -2.7102
# 4 -0.6529 0.6648 9.9050 40.0505 -4.4740 3.8447
# 5 21.6763 17.0504 7.9414 -4.4740 19.8532 -4.1481
# 6 -37.1139 -16.2516 -2.7102 3.8447 -4.1481 52.0058
#
#
#
# Elastic Compliance Matrix: (Units=1/GPa)
#
#
# Indices 1 2 3 4 5 6 
#
# 1 0.009609 -0.000957 -0.000331 -0.001276 -0.008582 0.005951
# 2 -0.000957 0.021230 -0.004359 -0.001388 -0.014787 0.004648
# 3 -0.000331 -0.004359 0.023585 -0.006493 -0.006884 -0.000438
# 4 -0.001276 -0.001388 -0.006493 0.028072 0.010905 -0.002888
# 5 -0.008582 -0.014787 -0.006884 0.010905 0.076435 -0.005813
# 6 0.005951 0.004648 -0.000438 -0.002888 -0.005813 0.024655
#
#
# Mechanical properties :
#
#
# Convention : Reuss Voigt Hill
#
# Bulk Modulus (GPa) = 23.18496 44.11234 33.64865
# Shear Modulus (GPa) = 23.89419 36.01304 29.95361
#
# Velocity S-wave (km/s) = 3.07836 3.77923 3.44666
# Velocity P-wave (km/s) = 4.67227 6.04468 5.40224
#
# Compressibility (1/GPa) = 0.04313142
#
# Stress axis : x y z
#
# Youngs Moduli (GPa) = 104.06662 47.10296 42.40007
#
# Poissons Ratio (x) = 0.04506 0.01404
# Poissons Ratio (y) = 0.09955 0.18481
# Poissons Ratio (z) = 0.03446 0.20531
#
# Static dielectric constant tensor:
#      x y z
#    x 2.004730 -0.030000 0.007220 
#    y -0.030000 2.070580 -0.098490 
#    z 0.007220 -0.098490 2.144180 
# 
# From -- ./inp_files/27590.got.cif
#   From: 2010.05.17/outbox.cif.g08.bks.cpg/sg2_14_cif.got.tgz:27590.got - 2010.06.03 11:33:40.
