data_PCOD9111639
_publ_section_title
;
Structure prediction by ZEFSAII (Michael W. Deem and Ramdas Pophale) SiO2 
 PCOD9111639
Probable space group: P -1
;
_chemical_formula_sum "Si O2"
_cell_formula_units_Z 15
_cell_length_a 14.573053
_cell_length_b 7.919281
_cell_length_c 7.838183
_cell_angle_alpha 53.262932
_cell_angle_beta 71.325450
_cell_angle_gamma 103.967238
_cell_volume 564.183661
_symmetry_space_group_name_H-M "P -1"
_symmetry_group_IT_number 2
_symmetry_cell_setting 'triclinic'
loop_
_space_group_symop_operation_xyz
x,y,z
-x,-y,-z
loop_
_atom_site_type_symbol
_atom_site_label
_atom_site_fract_x
_atom_site_fract_y
_atom_site_fract_z
Si Si1 0.455482 0.144154 0.550038
Si Si2 0.994243 0.938745 0.809674
Si Si3 0.295770 0.740741 0.154521
Si Si4 0.886106 0.466560 0.331690
Si Si5 0.587238 0.666298 0.002420
Si Si6 0.500000 0.000000 0.000000
Si Si7 0.769629 0.997140 0.444396
Si Si8 0.084955 0.399570 0.276205
O O1 0.551373 0.450373 0.297327
O O2 0.334860 0.081119 0.577056
O O3 0.500000 0.000000 0.500000
O O4 0.417642 0.007144 0.843807
O O5 0.939167 0.766924 0.775209
O O6 0.126817 0.011873 0.690111
O O7 0.013082 0.203037 0.593963
O O8 0.909345 0.743663 0.123709
O O9 0.191420 0.693918 0.363073
O O10 0.221819 0.580568 0.132921
O O11 0.374508 0.692330 0.255613
O O12 0.016791 0.532012 0.214612
O O13 0.822689 0.277219 0.322751
O O14 0.500000 0.500000 0.000000
O O15 0.715163 0.807228 0.754823
O O16 0.573219 0.894423 0.917241
#
# Coordination Sequence:
#
# PCOD9111639 Si02
#       8
#     2   2   2   2   2   1   2   2
#     4  11  25  42  72 103 136 191 253 296 362 444
#     4  10  22  41  72 102 132 183 246 291 364 437
#     4  12  25  43  66  97 146 182 233 307 364 427
#     4  11  22  44  64  98 145 179 230 301 372 423
#     4  10  23  45  71 102 139 189 244 295 368 433
#     4  12  26  48  66 106 146 190 240 304 364 434
#     4  10  20  43  67  97 137 184 233 304 356 436
#     4  10  23  42  68 102 134 183 244 290 357 438
#
# _framework density 26.587088000000001
#
# number of rings (size 3 to 8) (size 9 to 14) (size 15 to 20)
#    0.000    1.333    1.333    5.200    5.600    1.067 
#    4.800    0.000    0.000    0.000    0.000    0.000 
#    0.000    0.000    0.000    0.000    0.000    0.000 
#
# Total GULP energy -83674.505383 kJ/mol
# GULP energy per Si atom -5578.300359 kJ/mol
# Density = 2.652657 g / cm^3
# Si number density = 26.587088 Si / 1000 Ang^3
#
#
#
# Elastic Constant Matrix: (Units=GPa)
#
#
# Indices 1 2 3 4 5 6 
#
# 1 120.3583 32.9663 26.8350 -5.3736 -29.8944 19.4155
# 2 32.9663 78.2664 36.3954 14.4184 -9.0667 2.4698
# 3 26.8350 36.3954 193.7559 -14.3522 8.5855 -10.0363
# 4 -5.3736 14.4184 -14.3522 45.4473 2.9334 -1.2364
# 5 -29.8944 -9.0667 8.5855 2.9334 42.5510 -7.9117
# 6 19.4155 2.4698 -10.0363 -1.2364 -7.9117 38.9084
#
#
#
# Elastic Compliance Matrix: (Units=1/GPa)
#
#
# Indices 1 2 3 4 5 6 
#
# 1 0.012280 -0.003842 -0.001419 0.001635 0.007098 -0.004755
# 2 -0.003842 0.017564 -0.003396 -0.007240 0.002257 0.000155
# 3 -0.001419 -0.003396 0.006468 0.003194 -0.002853 0.002113
# 4 0.001635 -0.007240 0.003194 0.025695 -0.002672 0.000741
# 5 0.007098 0.002257 -0.002853 -0.002672 0.030026 0.001599
# 6 -0.004755 0.000155 0.002113 0.000741 0.001599 0.028958
#
#
# Mechanical properties :
#
#
# Convention : Reuss Voigt Hill
#
# Bulk Modulus (GPa) = 52.63036 64.97490 58.80263
# Shear Modulus (GPa) = 34.56922 45.12693 39.84808
#
# Velocity S-wave (km/s) = 3.60978 4.12433 3.87560
# Velocity P-wave (km/s) = 6.10020 6.86817 6.49554
#
# Compressibility (1/GPa) = 0.01900044
#
# Stress axis : x y z
#
# Youngs Moduli (GPa) = 81.43202 56.93355 154.60939
#
# Poissons Ratio (x) = 0.21871 0.21937
# Poissons Ratio (y) = 0.31283 0.52498
# Poissons Ratio (z) = 0.11554 0.19332
#
# Static dielectric constant tensor:
#      x y z
#    x 2.282980 0.128370 0.172790 
#    y 0.128370 2.208330 0.006230 
#    z 0.172790 0.006230 2.266730 
# 
# From -- ./inp_files/297370.got.cif
#   From: 2010.05.17/outbox.cif.g08.bks.cpg/sg2_149_cif.got.tgz:297370.got - 2010.06.03 11:33:40.
