data_PCOD9111988
_publ_section_title
;
Structure prediction by ZEFSAII (Michael W. Deem and Ramdas Pophale) SiO2 
 PCOD9111988
Probable space group: P -1
;
_chemical_formula_sum "Si O2"
_cell_formula_units_Z 13
_cell_length_a 19.419748
_cell_length_b 6.610483
_cell_length_c 6.134864
_cell_angle_alpha 68.960381
_cell_angle_beta 52.765778
_cell_angle_gamma 52.012116
_cell_volume 494.073463
_symmetry_space_group_name_H-M "P -1"
_symmetry_group_IT_number 2
_symmetry_cell_setting 'triclinic'
loop_
_space_group_symop_operation_xyz
x,y,z
-x,-y,-z
loop_
_atom_site_type_symbol
_atom_site_label
_atom_site_fract_x
_atom_site_fract_y
_atom_site_fract_z
Si Si1 0.388534 0.153794 0.360206
Si Si2 0.245139 0.479393 0.871748
Si Si3 0.275117 0.705859 0.118488
Si Si4 0.423622 0.807758 0.041994
Si Si5 0.104238 0.956931 0.670348
Si Si6 0.095103 0.435730 0.490834
Si Si7 0.000000 0.000000 0.500000
O O1 0.329423 0.237441 0.667824
O O2 0.328709 0.422563 0.235117
O O3 0.504097 0.085434 0.200467
O O4 0.388743 0.934761 0.300774
O O5 0.171564 0.685688 0.755256
O O6 0.285148 0.631548 0.876313
O O7 0.188550 0.401788 0.182563
O O8 0.153737 0.901175 0.340945
O O9 0.332103 0.834196 0.062353
O O10 0.500000 0.500000 0.000000
O O11 0.989842 0.075847 0.757659
O O12 0.122377 0.170089 0.653300
O O13 0.048188 0.697894 0.607029
O O14 0.000000 0.500000 0.500000
#
# Coordination Sequence:
#
# PCOD9111988 Si02
#       7
#     2   2   2   2   2   2   1
#     4   9  21  42  67  97 137 179 225 283 333 406
#     4  11  23  44  71 102 135 182 232 277 346 409
#     4  10  21  40  65  98 139 173 224 288 333 405
#     4   9  19  41  66  96 141 177 219 287 338 393
#     4  10  23  43  65  98 135 180 222 287 339 403
#     4  10  23  44  66  96 134 180 223 286 336 402
#     4  10  20  44  66  86 140 170 222 286 332 390
#
# _framework density 26.311876999999999
#
# number of rings (size 3 to 8) (size 9 to 14) (size 15 to 20)
#    0.000    2.154    1.538    0.000    2.154    3.077 
#   11.077    9.231    0.000    0.000    0.000    0.000 
#    0.000    0.000    0.000    0.000    0.000    0.000 
#
# Total GULP energy -72382.114784 kJ/mol
# GULP energy per Si atom -5567.854983 kJ/mol
# Density = 2.625199 g / cm^3
# Si number density = 26.311877 Si / 1000 Ang^3
#
#
#
# Elastic Constant Matrix: (Units=GPa)
#
#
# Indices 1 2 3 4 5 6 
#
# 1 129.4876 20.7722 23.2395 16.6835 12.5072 38.2992
# 2 20.7722 162.3915 29.8148 28.3453 5.0493 22.7368
# 3 23.2395 29.8148 73.8466 48.6807 -7.8783 15.4715
# 4 16.6835 28.3453 48.6807 57.5366 0.1219 14.5066
# 5 12.5072 5.0493 -7.8783 0.1219 36.5265 -2.1246
# 6 38.2992 22.7368 15.4715 14.5066 -2.1246 57.3159
#
#
#
# Elastic Compliance Matrix: (Units=1/GPa)
#
#
# Indices 1 2 3 4 5 6 
#
# 1 0.010591 0.000111 -0.003489 0.001538 -0.004792 -0.006746
# 2 0.000111 0.007052 -0.001437 -0.001760 -0.001439 -0.002092
# 3 -0.003489 -0.001437 0.033921 -0.027243 0.008857 0.000969
# 4 0.001538 -0.001760 -0.027243 0.041824 -0.006520 -0.003803
# 5 -0.004792 -0.001439 0.008857 -0.006520 0.031393 0.004196
# 6 -0.006746 -0.002092 0.000969 -0.003803 0.004196 0.023641
#
#
# Mechanical properties :
#
#
# Convention : Reuss Voigt Hill
#
# Bulk Modulus (GPa) = 23.84724 57.04208 40.44466
# Shear Modulus (GPa) = 29.06427 49.73574 39.40001
#
# Velocity S-wave (km/s) = 3.32717 4.35240 3.87385
# Velocity P-wave (km/s) = 4.88293 6.85450 5.95093
#
# Compressibility (1/GPa) = 0.04193358
#
# Stress axis : x y z
#
# Youngs Moduli (GPa) = 94.41715 141.79452 29.48025
#
# Poissons Ratio (x) = -0.01574 0.10287
# Poissons Ratio (y) = -0.01048 0.04237
# Poissons Ratio (z) = 0.32945 0.20380
#
# Static dielectric constant tensor:
#      x y z
#    x 1.753580 0.161750 0.028520 
#    y 0.161750 2.117430 -0.120540 
#    z 0.028520 -0.120540 2.295470 
# 
# From -- ./inp_files/9184.got.cif
#   From: 2010.05.17/outbox.cif.g08.bks.cpg/sg2_5_cif.got.tgz:9184.got - 2010.06.03 11:33:40.
