data_PCOD9111963
_publ_section_title
;
Structure prediction by ZEFSAII (Michael W. Deem and Ramdas Pophale) SiO2 
 PCOD9111963
Probable space group: P -1
;
_chemical_formula_sum "Si O2"
_cell_formula_units_Z 14
_cell_length_a 5.182503
_cell_length_b 5.111056
_cell_length_c 19.644828
_cell_angle_alpha 100.029686
_cell_angle_beta 91.285837
_cell_angle_gamma 88.909364
_cell_volume 512.211721
_symmetry_space_group_name_H-M "P -1"
_symmetry_group_IT_number 2
_symmetry_cell_setting 'triclinic'
loop_
_space_group_symop_operation_xyz
x,y,z
-x,-y,-z
loop_
_atom_site_type_symbol
_atom_site_label
_atom_site_fract_x
_atom_site_fract_y
_atom_site_fract_z
Si Si1 0.836556 0.161178 0.077255
Si Si2 0.155592 0.131159 0.333389
Si Si3 0.510006 0.505766 0.396327
Si Si4 0.991224 0.125252 0.802722
Si Si5 0.665807 0.684682 0.957666
Si Si6 0.797505 0.014448 0.438620
Si Si7 0.509889 0.703084 0.260229
O O1 0.973594 0.985499 0.127284
O O2 0.549684 0.267346 0.099808
O O3 0.043765 0.387963 0.069231
O O4 0.750205 0.958606 0.007728
O O5 0.219795 0.395045 0.386985
O O6 0.421555 0.968772 0.314020
O O7 0.040188 0.136287 0.257832
O O8 0.970840 0.953019 0.369635
O O9 0.673969 0.299770 0.432945
O O10 0.580336 0.793842 0.436386
O O11 0.560585 0.505285 0.314329
O O12 0.246823 0.262511 0.784099
O O13 0.743759 0.307175 0.789827
O O14 0.500000 0.500000 0.000000
O O15 0.000000 0.000000 0.500000
#
# Coordination Sequence:
#
# PCOD9111963 Si02
#       7
#     2   2   2   2   2   2   2
#     4  10  21  39  65  92 137 174 233 278 336 411
#     4  10  24  43  71  93 144 175 229 289 360 403
#     4  12  23  48  66 101 138 184 227 294 356 417
#     4  10  20  44  65 103 129 182 233 290 350 422
#     4  10  21  40  61  93 137 184 221 285 338 396
#     4  12  27  45  72 102 139 185 240 287 353 428
#     4  10  22  43  68  95 140 175 226 291 357 412
#
# _framework density 27.332449
#
# number of rings (size 3 to 8) (size 9 to 14) (size 15 to 20)
#    0.857    0.571    2.857    1.714    4.000    1.143 
#    5.143    0.000    0.000    0.000    0.000    0.000 
#    0.000    0.000    0.000    0.000    0.000    0.000 
#
# Total GULP energy -78205.662027 kJ/mol
# GULP energy per Si atom -5586.118716 kJ/mol
# Density = 2.727024 g / cm^3
# Si number density = 27.332449 Si / 1000 Ang^3
#
#
#
# Elastic Constant Matrix: (Units=GPa)
#
#
# Indices 1 2 3 4 5 6 
#
# 1 188.7674 60.9066 57.6113 -13.2081 11.2854 43.7342
# 2 60.9066 143.3615 40.0566 -13.9225 18.1256 13.3540
# 3 57.6113 40.0566 151.3650 -23.1004 38.2001 11.9264
# 4 -13.2081 -13.9225 -23.1004 49.2600 4.8841 2.6136
# 5 11.2854 18.1256 38.2001 4.8841 46.3092 -1.1445
# 6 43.7342 13.3540 11.9264 2.6136 -1.1445 48.1306
#
#
#
# Elastic Compliance Matrix: (Units=1/GPa)
#
#
# Indices 1 2 3 4 5 6 
#
# 1 0.008132 -0.002267 -0.001905 0.000961 0.000219 -0.006335
# 2 -0.002267 0.008618 -0.000414 0.001922 -0.002692 -0.000397
# 3 -0.001905 -0.000414 0.010515 0.005225 -0.008629 -0.001249
# 4 0.000961 0.001922 0.005225 0.024568 -0.007992 -0.004225
# 5 0.000219 -0.002692 -0.008629 -0.007992 0.030650 0.003849
# 6 -0.006335 -0.000397 -0.001249 -0.004225 0.003849 0.027274
#
#
# Mechanical properties :
#
#
# Convention : Reuss Voigt Hill
#
# Bulk Modulus (GPa) = 55.26745 88.96032 72.11389
# Shear Modulus (GPa) = 40.01283 50.40124 45.20703
#
# Velocity S-wave (km/s) = 3.83029 4.29885 4.07131
# Velocity P-wave (km/s) = 6.31077 7.56692 6.96721
#
# Compressibility (1/GPa) = 0.01809383
#
# Stress axis : x y z
#
# Youngs Moduli (GPa) = 122.96709 116.03516 95.10619
#
# Poissons Ratio (x) = 0.26305 0.18114
# Poissons Ratio (y) = 0.27876 0.03937
# Poissons Ratio (z) = 0.23421 0.04803
#
# Static dielectric constant tensor:
#      x y z
#    x 2.200680 -0.088890 -0.075120 
#    y -0.088890 2.241130 0.080020 
#    z -0.075120 0.080020 2.174210 
# 
# From -- ./inp_files/603163.got.cif
#   From: 2010.05.17/outbox.cif.g08.bks.cpg/sg2_302_cif.got.tgz:603163.got - 2010.06.03 11:33:40.
