data_PCOD9111213
_publ_section_title
;
Structure prediction by ZEFSAII (Michael W. Deem and Ramdas Pophale) SiO2 
 PCOD9111213
Probable space group: P -1
;
_chemical_formula_sum "Si O2"
_cell_formula_units_Z 16
_cell_length_a 14.474385
_cell_length_b 9.521686
_cell_length_c 13.637459
_cell_angle_alpha 61.680112
_cell_angle_beta 149.294079
_cell_angle_gamma 134.961598
_cell_volume 631.288020
_symmetry_space_group_name_H-M "P -1"
_symmetry_group_IT_number 2
_symmetry_cell_setting 'triclinic'
loop_
_space_group_symop_operation_xyz
x,y,z
-x,-y,-z
loop_
_atom_site_type_symbol
_atom_site_label
_atom_site_fract_x
_atom_site_fract_y
_atom_site_fract_z
Si Si1 0.030103 0.401807 0.909436
Si Si2 0.775495 0.000761 0.488828
Si Si3 0.566618 0.161568 0.111882
Si Si4 0.900434 0.242609 0.230662
Si Si5 0.491559 0.449437 0.620882
Si Si6 0.617361 0.434376 0.333159
Si Si7 0.215360 0.394071 0.869730
Si Si8 0.536598 0.009648 0.645603
O O1 0.982188 0.562903 0.801957
O O2 0.061725 0.350576 0.843599
O O3 0.281435 0.524332 0.151528
O O4 0.825320 0.193783 0.854424
O O5 0.673247 0.073533 0.296739
O O6 0.596135 0.925631 0.441882
O O7 0.039592 0.191871 0.706979
O O8 0.739783 0.799613 0.486686
O O9 0.678178 0.212022 0.087540
O O10 0.695031 0.401148 0.178375
O O11 0.273898 0.992867 0.897935
O O12 0.103972 0.348265 0.466664
O O13 0.500000 0.500000 0.500000
O O14 0.494928 0.596901 0.650764
O O15 0.576128 0.223845 0.343810
O O16 0.454004 0.445664 0.109725
O O17 0.500000 0.000000 0.500000
#
# Coordination Sequence:
#
# PCOD9111213 Si02
#       8
#     2   2   2   2   2   2   2   2
#     4  10  21  41  66  92 128 179 217 253 325 403
#     4  12  24  44  68  99 130 172 222 268 322 387
#     4  10  22  43  69  93 127 176 219 272 318 387
#     4  10  20  42  70  93 126 173 227 258 322 393
#     4  11  26  41  62  99 140 168 208 278 332 374
#     4  11  25  43  66  99 130 176 216 264 333 392
#     4  10  23  41  65  94 133 171 212 268 333 381
#     4  12  22  40  70  94 128 173 221 258 315 400
#
# _framework density 25.345009000000001
#
# number of rings (size 3 to 8) (size 9 to 14) (size 15 to 20)
#    0.000    1.250    3.750    1.875    3.500    3.000 
#    0.000    1.250    0.000    0.000    0.000    0.000 
#    0.000    0.000    0.000    0.000    0.000    0.000 
#
# Total GULP energy -89452.707479 kJ/mol
# GULP energy per Si atom -5590.794217 kJ/mol
# Density = 2.528732 g / cm^3
# Si number density = 25.345009 Si / 1000 Ang^3
#
#
#
# Elastic Constant Matrix: (Units=GPa)
#
#
# Indices 1 2 3 4 5 6 
#
# 1 61.4663 7.7511 -17.8318 4.4458 -4.4547 4.3589
# 2 7.7511 109.0212 44.4274 17.8353 -8.7465 -4.3052
# 3 -17.8318 44.4274 169.1621 27.1819 -4.8581 11.9568
# 4 4.4458 17.8353 27.1819 53.4182 5.4937 -11.2529
# 5 -4.4547 -8.7465 -4.8581 5.4937 30.9359 2.6308
# 6 4.3589 -4.3052 11.9568 -11.2529 2.6308 30.7736
#
#
#
# Elastic Compliance Matrix: (Units=1/GPa)
#
#
# Indices 1 2 3 4 5 6 
#
# 1 0.018727 -0.002068 0.003830 -0.004597 0.004079 -0.006460
# 2 -0.002068 0.011096 -0.002903 -0.001881 0.002542 0.002068
# 3 0.003830 -0.002903 0.008443 -0.005246 0.002529 -0.006364
# 4 -0.004597 -0.001881 -0.005246 0.025828 -0.007670 0.012527
# 5 0.004079 0.002542 0.002529 -0.007670 0.035993 -0.007086
# 6 -0.006460 0.002068 -0.006364 0.012527 -0.007086 0.041359
#
#
# Mechanical properties :
#
#
# Convention : Reuss Voigt Hill
#
# Bulk Modulus (GPa) = 27.79054 45.37143 36.58098
# Shear Modulus (GPa) = 32.10843 43.37906 37.74374
#
# Velocity S-wave (km/s) = 3.56315 4.14157 3.86320
# Velocity P-wave (km/s) = 5.28363 6.38831 5.86205
#
# Compressibility (1/GPa) = 0.03598347
#
# Stress axis : x y z
#
# Youngs Moduli (GPa) = 53.39876 90.12354 118.44042
#
# Poissons Ratio (x) = 0.18636 -0.45357
# Poissons Ratio (y) = 0.11042 0.34383
# Poissons Ratio (z) = -0.20449 0.26163
#
# Static dielectric constant tensor:
#      x y z
#    x 2.082740 -0.000740 -0.006210 
#    y -0.000740 2.038420 0.079250 
#    z -0.006210 0.079250 2.017970 
# 
# From -- ./inp_files/538427.got.cif
#   From: 2010.05.17/outbox.cif.g08.bks.cpg/sg2_270_cif.got.tgz:538427.got - 2010.06.03 11:33:40.
