data_PCOD9111382
_publ_section_title
;
Structure prediction by ZEFSAII (Michael W. Deem and Ramdas Pophale) SiO2 
 PCOD9111382
Probable space group: P -1
;
_chemical_formula_sum "Si O2"
_cell_formula_units_Z 16
_cell_length_a 9.258641
_cell_length_b 5.310686
_cell_length_c 16.834532
_cell_angle_alpha 76.871819
_cell_angle_beta 83.324618
_cell_angle_gamma 122.607823
_cell_volume 649.688607
_symmetry_space_group_name_H-M "P -1"
_symmetry_group_IT_number 2
_symmetry_cell_setting 'triclinic'
loop_
_space_group_symop_operation_xyz
x,y,z
-x,-y,-z
loop_
_atom_site_type_symbol
_atom_site_label
_atom_site_fract_x
_atom_site_fract_y
_atom_site_fract_z
Si Si1 0.539206 0.930101 0.669953
Si Si2 0.317447 0.387466 0.976048
Si Si3 0.842122 0.544467 0.503527
Si Si4 0.822000 0.219956 0.079706
Si Si5 0.188403 0.648463 0.636519
Si Si6 0.174614 0.744299 0.239909
Si Si7 0.908435 0.763303 0.840994
Si Si8 0.641357 0.763703 0.533318
O O1 0.328900 0.771286 0.690344
O O2 0.554574 0.691603 0.630926
O O3 0.669075 0.239796 0.583399
O O4 0.642670 0.037051 0.738197
O O5 0.177654 0.264925 0.065932
O O6 0.500000 0.500000 0.000000
O O7 0.301306 0.652123 0.916136
O O8 0.268821 0.103577 0.941075
O O9 0.836041 0.616188 0.404354
O O10 0.823517 0.796345 0.530799
O O11 0.000000 0.500000 0.500000
O O12 0.899124 0.166100 0.158029
O O13 0.000000 0.500000 0.000000
O O14 0.994458 0.548771 0.680086
O O15 0.294407 0.926238 0.544678
O O16 0.195525 0.570873 0.176704
O O17 0.101842 0.961633 0.215220
O O18 0.500000 0.500000 0.500000
#
# Coordination Sequence:
#
# PCOD9111382 Si02
#       8
#     2   2   2   2   2   2   2   2
#     4  11  24  42  63  94 130 173 235 298 348 403
#     4  11  22  43  80 114 139 173 236 298 335 393
#     4  11  21  39  63  92 120 160 239 299 346 392
#     4  10  20  42  77 101 138 184 223 283 337 396
#     4  11  24  42  63  95 126 179 235 291 354 416
#     4  12  28  44  66  97 149 192 222 275 353 444
#     4  11  25  48  67 102 145 181 229 268 342 427
#     4  11  21  38  72  91 122 166 241 313 346 397
#
# _framework density 24.627181
#
# number of rings (size 3 to 8) (size 9 to 14) (size 15 to 20)
#    0.000    1.000    3.750    4.875    3.500    2.000 
#    6.750    0.000    0.000    0.000    0.000    0.000 
#    0.000    0.000    0.000    0.000    0.000    0.000 
#
# Total GULP energy -89118.922699 kJ/mol
# GULP energy per Si atom -5569.932669 kJ/mol
# Density = 2.457113 g / cm^3
# Si number density = 24.627181 Si / 1000 Ang^3
#
#
#
# Elastic Constant Matrix: (Units=GPa)
#
#
# Indices 1 2 3 4 5 6 
#
# 1 121.7268 43.7274 3.2372 7.6084 27.6444 1.4268
# 2 43.7274 111.2154 22.2137 39.8279 26.8416 -8.1192
# 3 3.2372 22.2137 38.8411 9.2001 19.9514 -1.0445
# 4 7.6084 39.8279 9.2001 29.5016 10.4621 13.1023
# 5 27.6444 26.8416 19.9514 10.4621 40.3875 1.3898
# 6 1.4268 -8.1192 -1.0445 13.1023 1.3898 44.7620
#
#
#
# Elastic Compliance Matrix: (Units=1/GPa)
#
#
# Indices 1 2 3 4 5 6 
#
# 1 0.012305 -0.008472 0.005099 0.011807 -0.008197 -0.005012
# 2 -0.008472 0.032729 -0.005120 -0.048985 -0.001439 0.020470
# 3 0.005099 -0.005120 0.037880 0.000367 -0.018905 0.000272
# 4 0.011807 -0.048985 0.000367 0.117928 -0.004755 -0.043624
# 5 -0.008197 -0.001439 -0.018905 -0.004755 0.041910 -0.000350
# 6 -0.005012 0.020470 0.000272 -0.043624 -0.000350 0.039000
#
#
# Mechanical properties :
#
#
# Convention : Reuss Voigt Hill
#
# Bulk Modulus (GPa) = 15.16809 45.57110 30.36960
# Shear Modulus (GPa) = 15.59019 36.43722 26.01370
#
# Velocity S-wave (km/s) = 2.51877 3.85067 3.25360
# Velocity P-wave (km/s) = 3.82510 6.18989 5.14520
#
# Compressibility (1/GPa) = 0.06592787
#
# Stress axis : x y z
#
# Youngs Moduli (GPa) = 81.26563 30.55386 26.39909
#
# Poissons Ratio (x) = 0.25887 -0.13461
# Poissons Ratio (y) = 0.68852 0.13516
# Poissons Ratio (z) = -0.41437 0.15643
#
# Static dielectric constant tensor:
#      x y z
#    x 2.172270 -0.124240 0.016930 
#    y -0.124240 3.609890 0.426410 
#    z 0.016930 0.426410 2.154390 
# 
# From -- ./inp_files/552590.got.cif
#   From: 2010.05.17/outbox.cif.g08.bks.cpg/sg2_277_cif.got.tgz:552590.got - 2010.06.03 11:33:40.
