data_PCOD9111909
_publ_section_title
;
Structure prediction by ZEFSAII (Michael W. Deem and Ramdas Pophale) SiO2 
 PCOD9111909
Probable space group: P -1
;
_chemical_formula_sum "Si O2"
_cell_formula_units_Z 14
_cell_length_a 17.724020
_cell_length_b 9.477377
_cell_length_c 10.577286
_cell_angle_alpha 127.837503
_cell_angle_beta 25.964530
_cell_angle_gamma 137.714078
_cell_volume 515.260144
_symmetry_space_group_name_H-M "P -1"
_symmetry_group_IT_number 2
_symmetry_cell_setting 'triclinic'
loop_
_space_group_symop_operation_xyz
x,y,z
-x,-y,-z
loop_
_atom_site_type_symbol
_atom_site_label
_atom_site_fract_x
_atom_site_fract_y
_atom_site_fract_z
Si Si1 0.474726 0.261281 0.144157
Si Si2 0.062931 0.309559 0.532713
Si Si3 0.146484 0.921839 0.782629
Si Si4 0.526140 0.384036 0.517155
Si Si5 0.261302 0.686244 0.643492
Si Si6 0.335219 0.113130 0.003896
Si Si7 0.168860 0.795823 0.412444
O O1 0.504777 0.482470 0.255461
O O2 0.477242 0.232124 0.976021
O O3 0.160521 0.874785 0.177713
O O4 0.257789 0.049508 0.396450
O O5 0.016891 0.349363 0.481184
O O6 0.203754 0.217242 0.242441
O O7 0.167749 0.486552 0.579435
O O8 0.136737 0.797116 0.856718
O O9 0.131370 0.777816 0.608372
O O10 0.362975 0.141251 0.595137
O O11 0.000000 0.000000 0.000000
O O12 0.500000 0.500000 0.500000
O O13 0.720691 0.386484 0.282927
O O14 0.349698 0.765998 0.079707
O O15 0.501821 0.844471 0.325621
#
# Coordination Sequence:
#
# PCOD9111909 Si02
#       7
#     2   2   2   2   2   2   2
#     4  10  20  43  76 107 140 196 254 304 379 448
#     4  10  23  39  75 116 149 190 250 318 377 444
#     4  12  29  49  69 112 158 198 255 311 380 461
#     4  12  27  49  78 105 152 205 247 309 391 456
#     4  12  26  49  75 111 152 203 256 312 382 450
#     4  10  21  42  73 114 149 190 250 323 372 442
#     4  10  22  42  73 109 146 192 248 313 374 447
#
# _framework density 27.170739000000001
#
# number of rings (size 3 to 8) (size 9 to 14) (size 15 to 20)
#    0.000    1.143    4.286    0.857    4.000    0.571 
#    0.000    0.714    0.000    0.000    0.000    0.000 
#    0.000    0.000    0.000    0.000    0.000    0.000 
#
# Total GULP energy -78331.137096 kJ/mol
# GULP energy per Si atom -5595.081221 kJ/mol
# Density = 2.710890 g / cm^3
# Si number density = 27.170739 Si / 1000 Ang^3
#
#
#
# Elastic Constant Matrix: (Units=GPa)
#
#
# Indices 1 2 3 4 5 6 
#
# 1 226.7167 66.8858 28.5490 13.2984 -36.7754 -10.2060
# 2 66.8858 132.7164 38.5044 16.9944 -11.7424 6.8815
# 3 28.5490 38.5044 96.8315 10.1717 -18.4196 -2.9464
# 4 13.2984 16.9944 10.1717 56.0647 -9.4793 -6.1020
# 5 -36.7754 -11.7424 -18.4196 -9.4793 38.8059 6.6934
# 6 -10.2060 6.8815 -2.9464 -6.1020 6.6934 58.6608
#
#
#
# Elastic Compliance Matrix: (Units=1/GPa)
#
#
# Indices 1 2 3 4 5 6 
#
# 1 0.006006 -0.002746 0.000250 0.000284 0.004902 0.000850
# 2 -0.002746 0.010147 -0.003297 -0.002258 -0.001318 -0.001918
# 3 0.000250 -0.003297 0.012581 -0.000444 0.005026 0.000442
# 4 0.000284 -0.002258 -0.000444 0.019378 0.003785 0.001876
# 5 0.004902 -0.001318 0.005026 0.003785 0.033705 -0.002192
# 6 0.000850 -0.001918 0.000442 0.001876 -0.002192 0.017888
#
#
# Mechanical properties :
#
#
# Convention : Reuss Voigt Hill
#
# Bulk Modulus (GPa) = 58.31825 80.46033 69.38929
# Shear Modulus (GPa) = 42.73202 52.19464 47.46333
#
# Velocity S-wave (km/s) = 3.97006 4.38766 4.18407
# Velocity P-wave (km/s) = 6.52115 7.43948 6.99540
#
# Compressibility (1/GPa) = 0.01714729
#
# Stress axis : x y z
#
# Youngs Moduli (GPa) = 166.49115 98.54650 79.48574
#
# Poissons Ratio (x) = 0.27062 -0.01985
# Poissons Ratio (y) = 0.45721 0.26209
# Poissons Ratio (z) = -0.04158 0.32493
#
# Static dielectric constant tensor:
#      x y z
#    x 2.143280 -0.087470 0.048710 
#    y -0.087470 2.156180 -0.020760 
#    z 0.048710 -0.020760 2.139720 
# 
# From -- ./inp_files/461454.got.cif
#   From: 2010.05.17/outbox.cif.g08.bks.cpg/sg2_231_cif.got.tgz:461454.got - 2010.06.03 11:33:40.
