data_PCOD9111054
_publ_section_title
;
Structure prediction by ZEFSAII (Michael W. Deem and Ramdas Pophale) SiO2 
 PCOD9111054
Probable space group: P -1
;
_chemical_formula_sum "Si O2"
_cell_formula_units_Z 16
_cell_length_a 13.685096
_cell_length_b 9.044233
_cell_length_c 7.434786
_cell_angle_alpha 60.483197
_cell_angle_beta 114.634959
_cell_angle_gamma 87.684566
_cell_volume 691.868500
_symmetry_space_group_name_H-M "P -1"
_symmetry_group_IT_number 2
_symmetry_cell_setting 'triclinic'
loop_
_space_group_symop_operation_xyz
x,y,z
-x,-y,-z
loop_
_atom_site_type_symbol
_atom_site_label
_atom_site_fract_x
_atom_site_fract_y
_atom_site_fract_z
Si Si1 0.265536 0.334997 0.912057
Si Si2 0.454388 0.142001 0.717665
Si Si3 0.155389 0.068374 0.777156
Si Si4 0.289669 0.974574 0.594988
Si Si5 0.184107 0.833717 0.270298
Si Si6 0.601758 0.492493 0.370262
Si Si7 0.941741 0.364309 0.449496
Si Si8 0.506941 0.772548 0.673596
O O1 0.364125 0.246479 0.177915
O O2 0.477085 0.890955 0.397515
O O3 0.220824 0.191408 0.856582
O O4 0.331591 0.425922 0.771584
O O5 0.452409 0.339936 0.646895
O O6 0.325656 0.147762 0.572629
O O7 0.500000 0.000000 0.000000
O O8 0.163690 0.498563 0.815911
O O9 0.040284 0.207049 0.526684
O O10 0.129481 0.948923 0.987654
O O11 0.217861 0.955525 0.377612
O O12 0.415280 0.845122 0.717736
O O13 0.227460 0.947860 0.744961
O O14 0.300192 0.684958 0.383909
O O15 0.109157 0.730631 0.376289
O O16 0.505550 0.420607 0.259000
O O17 0.000000 0.500000 0.500000
#
# Coordination Sequence:
#
# PCOD9111054 Si02
#       8
#     2   2   2   2   2   2   2   2
#     4  10  20  42  68  95 139 181 223 283 337 399
#     4  12  25  41  66  94 140 186 228 275 335 408
#     4  11  22  42  73  97 137 181 228 283 340 401
#     4  11  25  39  69 102 135 175 228 271 344 398
#     4  10  23  44  69 101 137 175 227 281 340 403
#     4  10  22  41  62  97 137 180 223 273 342 406
#     4   9  21  42  74  99 132 182 223 282 347 394
#     4  11  24  42  64 101 140 180 229 277 337 408
#
# _framework density 23.125782000000001
#
# number of rings (size 3 to 8) (size 9 to 14) (size 15 to 20)
#    0.000    1.500    1.250    3.000    3.500    2.500 
#    9.000    0.000    2.750    3.750    0.000    0.000 
#    0.000    0.000    0.000    0.000    0.000    0.000 
#
# Total GULP energy -89280.064402 kJ/mol
# GULP energy per Si atom -5580.004025 kJ/mol
# Density = 2.307315 g / cm^3
# Si number density = 23.125782 Si / 1000 Ang^3
#
#
#
# Elastic Constant Matrix: (Units=GPa)
#
#
# Indices 1 2 3 4 5 6 
#
# 1 98.6509 37.3479 32.6705 4.5913 2.9711 -5.3715
# 2 37.3479 105.0730 40.7513 -6.4421 4.6959 -14.7303
# 3 32.6705 40.7513 86.9008 -7.0028 3.7679 -22.8593
# 4 4.5913 -6.4421 -7.0028 18.0295 -1.2229 -4.8955
# 5 2.9711 4.6959 3.7679 -1.2229 33.5661 -1.4221
# 6 -5.3715 -14.7303 -22.8593 -4.8955 -1.4221 25.9341
#
#
#
# Elastic Compliance Matrix: (Units=1/GPa)
#
#
# Indices 1 2 3 4 5 6 
#
# 1 0.013571 -0.004054 -0.005442 -0.008676 -0.000592 -0.005959
# 2 -0.004054 0.013170 -0.002723 0.006083 -0.000730 0.005349
# 3 -0.005442 -0.002723 0.020657 0.013320 -0.000207 0.018037
# 4 -0.008676 0.006083 0.013320 0.072562 0.002219 0.027218
# 5 -0.000592 -0.000730 -0.000207 0.002219 0.030108 0.001351
# 6 -0.005959 0.005349 0.018037 0.027218 0.001351 0.061474
#
#
# Mechanical properties :
#
#
# Convention : Reuss Voigt Hill
#
# Bulk Modulus (GPa) = 43.55328 56.90714 50.23021
# Shear Modulus (GPa) = 20.52276 27.49627 24.00951
#
# Velocity S-wave (km/s) = 2.98223 3.45191 3.22563
# Velocity P-wave (km/s) = 5.54367 6.36778 5.96997
#
# Compressibility (1/GPa) = 0.02296038
#
# Stress axis : x y z
#
# Youngs Moduli (GPa) = 73.68700 75.93218 48.40947
#
# Poissons Ratio (x) = 0.30783 0.26344
# Poissons Ratio (y) = 0.29873 0.13181
# Poissons Ratio (z) = 0.40099 0.20675
#
# Static dielectric constant tensor:
#      x y z
#    x 1.897240 -0.010540 0.016800 
#    y -0.010540 1.996260 0.006260 
#    z 0.016800 0.006260 1.936710 
# 
# From -- ./inp_files/329890.got.cif
#   From: 2010.05.17/outbox.cif.g08.bks.cpg/sg2_165_cif.got.tgz:329890.got - 2010.06.03 11:33:40.
