data_PCOD9111463
_publ_section_title
;
Structure prediction by ZEFSAII (Michael W. Deem and Ramdas Pophale) SiO2 
 PCOD9111463
Probable space group: P -1
;
_chemical_formula_sum "Si O2"
_cell_formula_units_Z 10
_cell_length_a 12.210055
_cell_length_b 9.385746
_cell_length_c 7.132143
_cell_angle_alpha 91.897396
_cell_angle_beta 71.963959
_cell_angle_gamma 145.542839
_cell_volume 400.471466
_symmetry_space_group_name_H-M "P -1"
_symmetry_group_IT_number 2
_symmetry_cell_setting 'triclinic'
loop_
_space_group_symop_operation_xyz
x,y,z
-x,-y,-z
loop_
_atom_site_type_symbol
_atom_site_label
_atom_site_fract_x
_atom_site_fract_y
_atom_site_fract_z
Si Si1 0.930385 0.291109 0.900783
Si Si2 0.924714 0.125028 0.388339
Si Si3 0.708858 0.253731 0.763474
Si Si4 0.459520 0.179187 0.645438
Si Si5 0.876098 0.767841 0.341844
O O1 0.875617 0.300677 0.726346
O O2 0.106015 0.349422 0.808279
O O3 0.000000 0.500000 0.000000
O O4 0.708259 0.990421 0.097582
O O5 0.143568 0.451026 0.248541
O O6 0.943909 0.082717 0.586173
O O7 0.705848 0.984427 0.449869
O O8 0.913935 0.967899 0.265567
O O9 0.603684 0.190375 0.618031
O O10 0.500000 0.000000 0.000000
O O11 0.632602 0.491865 0.550547
#
# Coordination Sequence:
#
# PCOD9111463 Si02
#       5
#     2   2   2   2   2
#     4  11  22  43  63  91 129 164 207 259 308 369
#     4  10  20  43  64  91 127 163 208 258 310 370
#     4   9  20  39  62  90 126 158 207 256 303 369
#     4  10  21  41  65  91 123 164 211 252 310 370
#     4  10  24  41  64  92 128 164 206 259 309 368
#
# _framework density 24.970568
#
# number of rings (size 3 to 8) (size 9 to 14) (size 15 to 20)
#    0.000    2.000    2.000    0.600    0.000    4.800 
#   10.800   16.000    0.000    0.000    0.000    0.000 
#    0.000    0.000    0.000    0.000    0.000    0.000 
#
# Total GULP energy -55813.073103 kJ/mol
# GULP energy per Si atom -5581.307310 kJ/mol
# Density = 2.491373 g / cm^3
# Si number density = 24.970568 Si / 1000 Ang^3
#
#
#
# Elastic Constant Matrix: (Units=GPa)
#
#
# Indices 1 2 3 4 5 6 
#
# 1 172.5745 75.3708 23.0128 -2.4820 14.7045 -1.2358
# 2 75.3708 148.7718 41.6128 -21.7579 0.5541 -13.1196
# 3 23.0128 41.6128 48.1601 -19.6453 7.3647 -14.3261
# 4 -2.4820 -21.7579 -19.6453 47.2621 4.1438 9.2113
# 5 14.7045 0.5541 7.3647 4.1438 40.6185 12.1794
# 6 -1.2358 -13.1196 -14.3261 9.2113 12.1794 64.8593
#
#
#
# Elastic Compliance Matrix: (Units=1/GPa)
#
#
# Indices 1 2 3 4 5 6 
#
# 1 0.007811 -0.004031 -0.000464 -0.001399 -0.002516 -0.000098
# 2 -0.004031 0.011044 -0.007404 0.001608 0.002542 -0.000184
# 3 -0.000464 -0.007404 0.035043 0.010679 -0.009101 0.006426
# 4 -0.001399 0.001608 0.010679 0.026693 -0.004064 -0.000370
# 5 -0.002516 0.002542 -0.009101 -0.004064 0.029512 -0.006509
# 6 -0.000098 -0.000184 0.006426 -0.000370 -0.006509 0.018073
#
#
# Mechanical properties :
#
#
# Convention : Reuss Voigt Hill
#
# Bulk Modulus (GPa) = 33.22373 72.16659 52.69516
# Shear Modulus (GPa) = 30.86275 45.84863 38.35569
#
# Velocity S-wave (km/s) = 3.51944 4.28963 3.92348
# Velocity P-wave (km/s) = 5.46346 7.31423 6.45551
#
# Compressibility (1/GPa) = 0.03009897
#
# Stress axis : x y z
#
# Youngs Moduli (GPa) = 128.03099 90.54322 28.53647
#
# Poissons Ratio (x) = 0.36498 0.01324
# Poissons Ratio (y) = 0.51610 0.21129
# Poissons Ratio (z) = 0.05942 0.67041
#
# Static dielectric constant tensor:
#      x y z
#    x 2.034470 0.009940 -0.030850 
#    y 0.009940 2.036310 0.109460 
#    z -0.030850 0.109460 2.022640 
# 
# From -- ./inp_files/158326.got.cif
#   From: 2010.05.17/outbox.cif.g08.bks.cpg/sg2_80_cif.got.tgz:158326.got - 2010.06.03 11:33:40.
