data_PCOD9111293
_publ_section_title
;
Structure prediction by ZEFSAII (Michael W. Deem and Ramdas Pophale) SiO2 
 PCOD9111293
Probable space group: P -1
;
_chemical_formula_sum "Si O2"
_cell_formula_units_Z 12
_cell_length_a 8.790044
_cell_length_b 9.740641
_cell_length_c 8.370827
_cell_angle_alpha 81.925502
_cell_angle_beta 58.117198
_cell_angle_gamma 108.079205
_cell_volume 535.833649
_symmetry_space_group_name_H-M "P -1"
_symmetry_group_IT_number 2
_symmetry_cell_setting 'triclinic'
loop_
_space_group_symop_operation_xyz
x,y,z
-x,-y,-z
loop_
_atom_site_type_symbol
_atom_site_label
_atom_site_fract_x
_atom_site_fract_y
_atom_site_fract_z
Si Si1 0.312020 0.603245 0.485504
Si Si2 0.130302 0.939875 0.837052
Si Si3 0.506678 0.405976 0.261932
Si Si4 0.945677 0.587569 0.873187
Si Si5 0.780646 0.930235 0.561356
Si Si6 0.512423 0.064106 0.806091
O O1 0.355626 0.475907 0.388084
O O2 0.403723 0.616793 0.612382
O O3 0.439345 0.759914 0.286864
O O4 0.082298 0.576364 0.651821
O O5 0.018935 0.767925 0.851745
O O6 0.212509 0.067326 0.632191
O O7 0.311111 0.950377 0.843691
O O8 0.000000 0.000000 0.000000
O O9 0.373399 0.242809 0.274830
O O10 0.701555 0.507284 0.026535
O O11 0.000000 0.500000 0.000000
O O12 0.696071 0.049010 0.629878
O O13 0.000000 0.000000 0.500000
O O14 0.500000 0.000000 0.000000
#
# Coordination Sequence:
#
# PCOD9111293 Si02
#       6
#     2   2   2   2   2   2
#     4  10  20  42  72 103 137 186 235 295 358 426
#     4  12  24  43  74 101 140 188 238 294 357 426
#     4  10  22  42  73 102 140 182 238 293 365 422
#     4  10  21  38  68 105 133 179 235 284 362 421
#     4  12  26  47  68 105 145 186 239 297 356 425
#     4  12  24  45  70 105 145 189 242 290 355 427
#
# _framework density 22.395011
#
# number of rings (size 3 to 8) (size 9 to 14) (size 15 to 20)
#    0.000    1.000    3.333    4.500    4.667    0.000 
#    3.000    5.833    0.000    0.000    0.000    0.000 
#    0.000    0.000    0.000    0.000    0.000    0.000 
#
# Total GULP energy -67010.473261 kJ/mol
# GULP energy per Si atom -5584.206105 kJ/mol
# Density = 2.234404 g / cm^3
# Si number density = 22.395011 Si / 1000 Ang^3
#
#
#
# Elastic Constant Matrix: (Units=GPa)
#
#
# Indices 1 2 3 4 5 6 
#
# 1 97.2662 18.7441 31.0410 -0.1608 -22.2707 5.2236
# 2 18.7441 84.6252 12.8622 -19.7566 -18.5759 -15.7337
# 3 31.0410 12.8622 121.7399 -5.9263 -8.4269 -3.8496
# 4 -0.1608 -19.7566 -5.9263 41.5802 -2.2044 -15.2584
# 5 -22.2707 -18.5759 -8.4269 -2.2044 37.7056 0.9448
# 6 5.2236 -15.7337 -3.8496 -15.2584 0.9448 27.0621
#
#
#
# Elastic Compliance Matrix: (Units=1/GPa)
#
#
# Indices 1 2 3 4 5 6 
#
# 1 0.013823 -0.004383 -0.003255 -0.005508 0.005180 -0.008966
# 2 -0.004383 0.026065 0.001225 0.023866 0.011189 0.029240
# 3 -0.003255 0.001225 0.009301 0.003665 0.000856 0.004700
# 4 -0.005508 0.023866 0.003665 0.052979 0.011294 0.044937
# 5 0.005180 0.011189 0.000856 0.011294 0.035676 0.010749
# 6 -0.008966 0.029240 0.004700 0.044937 0.010749 0.081312
#
#
# Mechanical properties :
#
#
# Convention : Reuss Voigt Hill
#
# Bulk Modulus (GPa) = 27.50006 47.65843 37.57924
# Shear Modulus (GPa) = 20.48314 37.33520 28.90917
#
# Velocity S-wave (km/s) = 3.02757 4.08747 3.59677
# Velocity P-wave (km/s) = 4.95255 6.60330 5.83658
#
# Compressibility (1/GPa) = 0.03636356
#
# Stress axis : x y z
#
# Youngs Moduli (GPa) = 72.34390 38.36490 107.51563
#
# Poissons Ratio (x) = 0.16815 0.34991
# Poissons Ratio (y) = 0.31707 -0.13165
# Poissons Ratio (z) = 0.23545 -0.04698
#
# Static dielectric constant tensor:
#      x y z
#    x 1.532830 0.321230 1.049960 
#    y 0.321230 1.462800 -1.108550 
#    z 1.049960 -1.108550 -0.937870 
# 
# From -- ./inp_files/150130.got.cif
#   From: 2010.05.17/outbox.cif.g08.bks.cpg/sg2_76_cif.got.tgz:150130.got - 2010.06.03 11:33:40.
