data_PCOD9111555
_publ_section_title
;
Structure prediction by ZEFSAII (Michael W. Deem and Ramdas Pophale) SiO2 
 PCOD9111555
Probable space group: P -1
;
_chemical_formula_sum "Si O2"
_cell_formula_units_Z 14
_cell_length_a 9.692272
_cell_length_b 14.948782
_cell_length_c 21.064526
_cell_angle_alpha 18.663995
_cell_angle_beta 144.982092
_cell_angle_gamma 138.209270
_cell_volume 552.764574
_symmetry_space_group_name_H-M "P -1"
_symmetry_group_IT_number 2
_symmetry_cell_setting 'triclinic'
loop_
_space_group_symop_operation_xyz
x,y,z
-x,-y,-z
loop_
_atom_site_type_symbol
_atom_site_label
_atom_site_fract_x
_atom_site_fract_y
_atom_site_fract_z
Si Si1 0.129429 0.686142 0.871294
Si Si2 0.601920 0.078164 0.072142
Si Si3 0.287497 0.670145 0.183775
Si Si4 0.373309 0.008640 0.653881
Si Si5 0.108559 0.228455 0.928839
Si Si6 0.305256 0.611534 0.659496
Si Si7 0.359363 0.199905 0.229703
O O1 0.144425 0.935127 0.655763
O O2 0.232073 0.874448 0.838582
O O3 0.138160 0.451718 0.973751
O O4 0.000000 0.500000 0.000000
O O5 0.721862 0.131460 0.014785
O O6 0.385452 0.350177 0.818269
O O7 0.494196 0.789537 0.223713
O O8 0.364237 0.341410 0.417839
O O9 0.046824 0.721822 0.100167
O O10 0.447318 0.858245 0.714710
O O11 0.610588 0.883325 0.870982
O O12 0.104019 0.512076 0.694822
O O13 0.000000 0.000000 0.000000
O O14 0.524091 0.649277 0.766910
O O15 0.278072 0.907675 0.414765
#
# Coordination Sequence:
#
# PCOD9111555 Si02
#       7
#     2   2   2   2   2   2   2
#     4  11  25  41  65  98 137 177 220 276 329 392
#     4  10  21  47  63  96 138 170 220 278 328 390
#     4  11  25  43  73  96 132 177 221 275 330 394
#     4  12  25  45  69 101 134 172 227 275 324 398
#     4  12  25  44  68  99 135 175 220 273 335 391
#     4  10  20  43  66  91 136 177 212 275 334 383
#     4  10  22  42  67  92 134 180 217 272 332 383
#
# _framework density 25.327238000000001
#
# number of rings (size 3 to 8) (size 9 to 14) (size 15 to 20)
#    0.000    1.143    5.714    0.429    4.000    2.286 
#    0.000    5.000    0.000    0.000    0.000    0.000 
#    0.000    0.000    0.000    0.000    0.000    0.000 
#
# Total GULP energy -77985.197378 kJ/mol
# GULP energy per Si atom -5570.371241 kJ/mol
# Density = 2.526959 g / cm^3
# Si number density = 25.327238 Si / 1000 Ang^3
#
#
#
# Elastic Constant Matrix: (Units=GPa)
#
#
# Indices 1 2 3 4 5 6 
#
# 1 196.3207 39.3916 24.7653 -18.0541 -30.2741 -14.0023
# 2 39.3916 76.7530 19.9521 -13.0890 -2.1625 -13.6622
# 3 24.7653 19.9521 100.7007 -28.1096 -13.2151 5.0155
# 4 -18.0541 -13.0890 -28.1096 40.7964 -0.2881 -2.4139
# 5 -30.2741 -2.1625 -13.2151 -0.2881 51.7314 -15.0249
# 6 -14.0023 -13.6622 5.0155 -2.4139 -15.0249 43.1812
#
#
#
# Elastic Compliance Matrix: (Units=1/GPa)
#
#
# Indices 1 2 3 4 5 6 
#
# 1 0.006767 -0.002324 -0.000054 0.002440 0.004815 0.003277
# 2 -0.002324 0.016125 -0.001977 0.003070 0.000229 0.004829
# 3 -0.000054 -0.001977 0.013106 0.008357 0.003100 -0.000619
# 4 0.002440 0.003070 0.008357 0.032632 0.005153 0.004409
# 5 0.004815 0.000229 0.003100 0.005153 0.026066 0.010631
# 6 0.003277 0.004829 -0.000619 0.004409 0.010631 0.029766
#
#
# Mechanical properties :
#
#
# Convention : Reuss Voigt Hill
#
# Bulk Modulus (GPa) = 36.64556 60.22138 48.43347
# Shear Modulus (GPa) = 35.14447 46.45283 40.79865
#
# Velocity S-wave (km/s) = 3.72911 4.28729 4.01791
# Velocity P-wave (km/s) = 5.74821 6.95246 6.37882
#
# Compressibility (1/GPa) = 0.02728843
#
# Stress axis : x y z
#
# Youngs Moduli (GPa) = 147.76602 62.01523 76.30101
#
# Poissons Ratio (x) = 0.14413 0.00413
# Poissons Ratio (y) = 0.34342 0.15083
# Poissons Ratio (z) = 0.00800 0.12259
#
# Static dielectric constant tensor:
#      x y z
#    x 1.889520 -0.062780 -0.089760 
#    y -0.062780 1.958600 -0.028040 
#    z -0.089760 -0.028040 1.851780 
# 
# From -- ./inp_files/181956.got.cif
#   From: 2010.05.17/outbox.cif.g08.bks.cpg/sg2_91_cif.got.tgz:181956.got - 2010.06.03 11:33:40.
