data_PCOD9111465
_publ_section_title
;
Structure prediction by ZEFSAII (Michael W. Deem and Ramdas Pophale) SiO2 
 PCOD9111465
Probable space group: P -1
;
_chemical_formula_sum "Si O2"
_cell_formula_units_Z 16
_cell_length_a 8.744456
_cell_length_b 9.647641
_cell_length_c 16.445959
_cell_angle_alpha 62.417658
_cell_angle_beta 91.306940
_cell_angle_gamma 46.489537
_cell_volume 755.526674
_symmetry_space_group_name_H-M "P -1"
_symmetry_group_IT_number 2
_symmetry_cell_setting 'triclinic'
loop_
_space_group_symop_operation_xyz
x,y,z
-x,-y,-z
loop_
_atom_site_type_symbol
_atom_site_label
_atom_site_fract_x
_atom_site_fract_y
_atom_site_fract_z
Si Si1 0.609714 0.475704 0.183732
Si Si2 0.262026 0.247489 0.117508
Si Si3 0.808896 0.022044 0.877796
Si Si4 0.768546 0.372208 0.684055
Si Si5 0.686859 0.489892 0.012485
Si Si6 0.776274 0.302241 0.413653
Si Si7 0.424698 0.278723 0.269290
Si Si8 0.035066 0.288173 0.553372
O O1 0.363778 0.781703 0.104401
O O2 0.772643 0.406063 0.130267
O O3 0.736829 0.387576 0.297114
O O4 0.524445 0.362895 0.208176
O O5 0.286024 0.278662 0.203183
O O6 0.315473 0.024780 0.158302
O O7 0.429314 0.247573 0.077471
O O8 0.000000 0.500000 0.000000
O O9 0.842997 0.148301 0.788151
O O10 0.080585 0.739463 0.979810
O O11 0.483723 0.568490 0.599210
O O12 0.743739 0.525561 0.711292
O O13 0.942847 0.281036 0.637486
O O14 0.500000 0.500000 0.000000
O O15 0.859280 0.368534 0.457660
O O16 0.000000 0.000000 0.500000
O O17 0.677037 0.991058 0.380461
O O18 0.000000 0.500000 0.500000
#
# Coordination Sequence:
#
# PCOD9111465 Si02
#       8
#     2   2   2   2   2   2   2   2
#     4  10  21  40  64  89 124 168 209 253 311 371
#     4  10  22  42  61  93 130 163 207 268 311 369
#     4   9  22  40  61  90 121 161 211 254 311 373
#     4  10  23  43  66  90 123 176 206 255 327 372
#     4  11  21  38  65  92 123 168 207 255 323 366
#     4  10  20  43  64  91 130 163 211 260 306 385
#     4  10  21  43  63  90 133 159 214 264 310 377
#     4  12  25  41  65  98 129 163 213 264 319 383
#
# _framework density 21.177278999999999
#
# number of rings (size 3 to 8) (size 9 to 14) (size 15 to 20)
#    0.000    2.000    3.750    1.125    3.500    1.500 
#    6.750    0.000    0.000    0.000    0.000    0.000 
#    0.000    0.000    0.000    0.000    0.000    0.000 
#
# Total GULP energy -89232.574044 kJ/mol
# GULP energy per Si atom -5577.035878 kJ/mol
# Density = 2.112908 g / cm^3
# Si number density = 21.177279 Si / 1000 Ang^3
#
#
#
# Elastic Constant Matrix: (Units=GPa)
#
#
# Indices 1 2 3 4 5 6 
#
# 1 58.9517 23.6164 6.5793 -0.7265 2.9848 36.2071
# 2 23.6164 81.6505 19.4157 -9.2344 -0.8188 26.1492
# 3 6.5793 19.4157 49.0584 1.9329 1.0705 5.1149
# 4 -0.7265 -9.2344 1.9329 40.2211 7.5773 1.4767
# 5 2.9848 -0.8188 1.0705 7.5773 33.7154 1.6534
# 6 36.2071 26.1492 5.1149 1.4767 1.6534 43.8124
#
#
#
# Elastic Compliance Matrix: (Units=1/GPa)
#
#
# Indices 1 2 3 4 5 6 
#
# 1 0.034860 -0.000408 -0.001590 0.002052 -0.002116 -0.028369
# 2 -0.000408 0.017348 -0.006006 0.004597 0.000080 -0.009473
# 3 -0.001590 -0.006006 0.022837 -0.002539 -0.000274 0.002329
# 4 0.002052 0.004597 -0.002539 0.027367 -0.005902 -0.004843
# 5 -0.002116 0.000080 -0.000274 -0.005902 0.031147 0.000756
# 6 -0.028369 -0.009473 0.002329 -0.004843 0.000756 0.051786
#
#
# Mechanical properties :
#
#
# Convention : Reuss Voigt Hill
#
# Bulk Modulus (GPa) = 16.93890 32.09816 24.51853
# Shear Modulus (GPa) = 22.62085 32.88640 27.75362
#
# Velocity S-wave (km/s) = 3.27183 3.94497 3.62406
# Velocity P-wave (km/s) = 4.72114 5.99501 5.39580
#
# Compressibility (1/GPa) = 0.05903569
#
# Stress axis : x y z
#
# Youngs Moduli (GPa) = 28.68601 57.64232 43.78777
#
# Poissons Ratio (x) = 0.02355 0.06964
# Poissons Ratio (y) = 0.01172 0.26300
# Poissons Ratio (z) = 0.04562 0.34622
#
# Static dielectric constant tensor:
#      x y z
#    x 1.838790 0.021870 0.022800 
#    y 0.021870 1.797230 0.028740 
#    z 0.022800 0.028740 1.818590 
# 
# From -- ./inp_files/556069.got.cif
#   From: 2010.05.17/outbox.cif.g08.bks.cpg/sg2_279_cif.got.tgz:556069.got - 2010.06.03 11:33:40.
