data_PCOD9111777
_publ_section_title
;
Structure prediction by ZEFSAII (Michael W. Deem and Ramdas Pophale) SiO2 
 PCOD9111777
Probable space group: P -1
;
_chemical_formula_sum "Si O2"
_cell_formula_units_Z 14
_cell_length_a 9.927846
_cell_length_b 16.444187
_cell_length_c 5.897110
_cell_angle_alpha 50.207035
_cell_angle_beta 110.539109
_cell_angle_gamma 125.466552
_cell_volume 602.151879
_symmetry_space_group_name_H-M "P -1"
_symmetry_group_IT_number 2
_symmetry_cell_setting 'triclinic'
loop_
_space_group_symop_operation_xyz
x,y,z
-x,-y,-z
loop_
_atom_site_type_symbol
_atom_site_label
_atom_site_fract_x
_atom_site_fract_y
_atom_site_fract_z
Si Si1 0.862766 0.923579 0.864960
Si Si2 0.806597 0.455474 0.467274
Si Si3 0.558656 0.272291 0.306460
Si Si4 0.297195 0.784933 0.902322
Si Si5 0.578308 0.559946 0.192340
Si Si6 0.898709 0.119437 0.161659
Si Si7 0.619222 0.921073 0.067632
O O1 0.927099 0.840742 0.928210
O O2 0.870734 0.016460 0.512302
O O3 0.696658 0.878680 0.988186
O O4 0.000000 0.000000 0.000000
O O5 0.717236 0.387968 0.303440
O O6 0.748709 0.554064 0.304103
O O7 0.000000 0.500000 0.500000
O O8 0.722627 0.342773 0.795596
O O9 0.641706 0.208418 0.326502
O O10 0.439769 0.176631 0.592315
O O11 0.448067 0.323665 0.037156
O O12 0.134170 0.786582 0.884189
O O13 0.447921 0.902297 0.901896
O O14 0.500000 0.500000 0.500000
O O15 0.500000 0.500000 0.000000
O O16 0.759177 0.050785 0.008558
#
# Coordination Sequence:
#
# PCOD9111777 Si02
#       7
#     2   2   2   2   2   2   2
#     4   9  20  39  59  83 128 166 211 255 314 375
#     4  10  23  44  63  93 128 166 214 278 335 392
#     4  10  22  39  68  96 125 170 220 263 332 398
#     4  11  22  39  63  92 126 160 214 263 322 392
#     4  10  20  43  70  93 129 173 220 276 333 400
#     4  10  21  39  62  91 129 167 205 263 320 381
#     4  10  21  38  63  92 125 166 214 257 313 393
#
# _framework density 23.249948
#
# number of rings (size 3 to 8) (size 9 to 14) (size 15 to 20)
#    0.000    2.000    1.429    1.286    0.000    7.429 
#   10.286    0.000    0.000    0.000    0.000    0.000 
#    0.000    0.000    0.000    0.000    0.000    0.000 
#
# Total GULP energy -78035.264130 kJ/mol
# GULP energy per Si atom -5573.947438 kJ/mol
# Density = 2.319703 g / cm^3
# Si number density = 23.249948 Si / 1000 Ang^3
#
#
#
# Elastic Constant Matrix: (Units=GPa)
#
#
# Indices 1 2 3 4 5 6 
#
# 1 226.0832 27.8517 40.8788 3.8093 -3.2902 -29.5964
# 2 27.8517 57.0529 10.0715 5.9053 5.3149 -6.7244
# 3 40.8788 10.0715 73.4142 4.9792 -5.8902 -19.7788
# 4 3.8093 5.9053 4.9792 20.2471 -5.7621 3.9082
# 5 -3.2902 5.3149 -5.8902 -5.7621 40.6700 6.2391
# 6 -29.5964 -6.7244 -19.7788 3.9082 6.2391 50.1616
#
#
#
# Elastic Compliance Matrix: (Units=1/GPa)
#
#
# Indices 1 2 3 4 5 6 
#
# 1 0.005322 -0.001951 -0.002117 -0.000305 0.000019 0.002065
# 2 -0.001951 0.020011 -0.000932 -0.006871 -0.004223 0.002224
# 3 -0.002117 -0.000932 0.016758 -0.004234 0.000942 0.005446
# 4 -0.000305 -0.006871 -0.004234 0.056845 0.009601 -0.008394
# 5 0.000019 -0.004223 0.000942 0.009601 0.027302 -0.004327
# 6 0.002065 0.002224 0.005446 -0.008394 -0.004327 0.024792
#
#
# Mechanical properties :
#
#
# Convention : Reuss Voigt Hill
#
# Bulk Modulus (GPa) = 31.16207 57.12825 44.14516
# Shear Modulus (GPa) = 29.11562 40.73230 34.92396
#
# Velocity S-wave (km/s) = 3.54261 4.19015 3.87991
# Velocity P-wave (km/s) = 5.49232 6.93069 6.25300
#
# Compressibility (1/GPa) = 0.03209030
#
# Stress axis : x y z
#
# Youngs Moduli (GPa) = 187.89581 49.97135 59.67209
#
# Poissons Ratio (x) = 0.09750 0.12634
# Poissons Ratio (y) = 0.36662 0.05564
# Poissons Ratio (z) = 0.39782 0.04659
#
# Static dielectric constant tensor:
#      x y z
#    x 1.900220 -0.035530 0.003180 
#    y -0.035530 1.951460 0.049190 
#    z 0.003180 0.049190 1.888050 
# 
# From -- ./inp_files/35822.got.cif
#   From: 2010.05.17/outbox.cif.g08.bks.cpg/sg2_18_cif.got.tgz:35822.got - 2010.06.03 11:33:40.
