data_PCOD9111179
_publ_section_title
;
Structure prediction by ZEFSAII (Michael W. Deem and Ramdas Pophale) SiO2 
 PCOD9111179
Probable space group: P -1
;
_chemical_formula_sum "Si O2"
_cell_formula_units_Z 16
_cell_length_a 9.653810
_cell_length_b 22.957243
_cell_length_c 8.906638
_cell_angle_alpha 53.123465
_cell_angle_beta 97.335137
_cell_angle_gamma 140.017114
_cell_volume 774.328795
_symmetry_space_group_name_H-M "P -1"
_symmetry_group_IT_number 2
_symmetry_cell_setting 'triclinic'
loop_
_space_group_symop_operation_xyz
x,y,z
-x,-y,-z
loop_
_atom_site_type_symbol
_atom_site_label
_atom_site_fract_x
_atom_site_fract_y
_atom_site_fract_z
Si Si1 0.648066 0.120082 0.454678
Si Si2 0.517185 0.798324 0.797099
Si Si3 0.197973 0.384867 0.571807
Si Si4 0.168041 0.916089 0.937992
Si Si5 0.913194 0.962228 0.341067
Si Si6 0.206407 0.190719 0.703591
Si Si7 0.731169 0.417402 0.658599
Si Si8 0.250140 0.355335 0.288810
O O1 0.644730 0.200805 0.264457
O O2 0.959022 0.231518 0.351925
O O3 0.500000 0.000000 0.500000
O O4 0.474560 0.044486 0.706623
O O5 0.646782 0.824573 0.621662
O O6 0.351903 0.664087 0.077277
O O7 0.801921 0.945370 0.703758
O O8 0.500000 0.500000 0.500000
O O9 0.166547 0.454592 0.495705
O O10 0.208063 0.378176 0.405202
O O11 0.981548 0.230116 0.857982
O O12 0.050427 0.933253 0.803405
O O13 0.076704 0.904010 0.109848
O O14 0.850998 0.906241 0.253134
O O15 0.454332 0.292766 0.703613
O O16 0.305152 0.297583 0.436165
O O17 0.000000 0.500000 0.500000
O O18 0.500000 0.500000 0.000000
#
# Coordination Sequence:
#
# PCOD9111179 Si02
#       8
#     2   2   2   2   2   2   2   2
#     4  11  26  43  69 104 140 181 228 301 343 410
#     4  10  23  41  67  99 134 177 222 277 359 407
#     4  11  23  46  71  96 139 189 230 289 341 418
#     4  10  22  41  71  96 134 174 240 278 354 403
#     4  10  20  42  70 101 130 172 224 288 350 413
#     4  11  23  43  69 100 132 181 227 292 344 415
#     4  12  27  42  66 103 139 187 230 281 356 412
#     4  11  27  44  71 102 137 189 239 275 354 422
#
# _framework density 20.663059000000001
#
# number of rings (size 3 to 8) (size 9 to 14) (size 15 to 20)
#    0.000    1.250    3.750    1.125    7.000    4.000 
#    0.000    1.250    0.000    0.000    0.000    0.000 
#    0.000    0.000    0.000    0.000    0.000    0.000 
#
# Total GULP energy -89280.183633 kJ/mol
# GULP energy per Si atom -5580.011477 kJ/mol
# Density = 2.061603 g / cm^3
# Si number density = 20.663059 Si / 1000 Ang^3
#
#
#
# Elastic Constant Matrix: (Units=GPa)
#
#
# Indices 1 2 3 4 5 6 
#
# 1 111.7990 30.2959 66.3432 -3.2163 16.1918 -12.4987
# 2 30.2959 89.8712 31.5797 2.2014 -2.5703 -7.1960
# 3 66.3432 31.5797 172.7981 12.4822 7.9881 8.3595
# 4 -3.2163 2.2014 12.4822 18.0744 8.7123 1.4877
# 5 16.1918 -2.5703 7.9881 8.7123 35.2864 -2.6303
# 6 -12.4987 -7.1960 8.3595 1.4877 -2.6303 33.1505
#
#
#
# Elastic Compliance Matrix: (Units=1/GPa)
#
#
# Indices 1 2 3 4 5 6 
#
# 1 0.015519 -0.003162 -0.006051 0.010843 -0.008245 0.005550
# 2 -0.003162 0.012992 -0.001208 -0.003267 0.003654 0.002369
# 3 -0.006051 -0.001208 0.009003 -0.007894 0.002281 -0.004278
# 4 0.010843 -0.003267 -0.007894 0.073457 -0.021536 0.000364
# 5 -0.008245 0.003654 0.002281 -0.021536 0.037267 0.001033
# 6 0.005550 0.002369 -0.004278 0.000364 0.001033 0.033916
#
#
# Mechanical properties :
#
#
# Convention : Reuss Voigt Hill
#
# Bulk Modulus (GPa) = 59.98258 70.10065 65.04161
# Shear Modulus (GPa) = 23.97476 33.71888 28.84682
#
# Velocity S-wave (km/s) = 3.40997 4.04399 3.74044
# Velocity P-wave (km/s) = 6.67801 7.47023 7.08520
#
# Compressibility (1/GPa) = 0.01667151
#
# Stress axis : x y z
#
# Youngs Moduli (GPa) = 64.43838 76.97257 111.07757
#
# Poissons Ratio (x) = 0.24341 0.67211
# Poissons Ratio (y) = 0.20377 0.13415
# Poissons Ratio (z) = 0.38991 0.09296
#
# Static dielectric constant tensor:
#      x y z
#    x 1.631800 0.022210 -0.051420 
#    y 0.022210 1.714850 0.047440 
#    z -0.051420 0.047440 1.729370 
# 
# From -- ./inp_files/226159.got.cif
#   From: 2010.05.17/outbox.cif.g08.bks.cpg/sg2_114_cif.got.tgz:226159.got - 2010.06.03 11:33:40.
