data_PCOD9111886
_publ_section_title
;
Structure prediction by ZEFSAII (Michael W. Deem and Ramdas Pophale) SiO2 
 PCOD9111886
Probable space group: P -1
;
_chemical_formula_sum "Si O2"
_cell_formula_units_Z 14
_cell_length_a 13.991260
_cell_length_b 10.221241
_cell_length_c 12.831212
_cell_angle_alpha 141.508201
_cell_angle_beta 28.943417
_cell_angle_gamma 129.925247
_cell_volume 547.007866
_symmetry_space_group_name_H-M "P -1"
_symmetry_group_IT_number 2
_symmetry_cell_setting 'triclinic'
loop_
_space_group_symop_operation_xyz
x,y,z
-x,-y,-z
loop_
_atom_site_type_symbol
_atom_site_label
_atom_site_fract_x
_atom_site_fract_y
_atom_site_fract_z
Si Si1 0.159776 0.673649 0.109647
Si Si2 0.673767 0.650828 0.415947
Si Si3 0.069926 0.102925 0.354125
Si Si4 0.094185 0.271718 0.225597
Si Si5 0.509075 0.965852 0.306182
Si Si6 0.620005 0.673067 0.714329
Si Si7 0.753321 0.212426 0.381064
O O1 0.061884 0.706716 0.338140
O O2 0.183404 0.465151 0.883772
O O3 0.386936 0.711794 0.938653
O O4 0.052986 0.873221 0.270228
O O5 0.500000 0.500000 0.500000
O O6 0.734347 0.652922 0.480745
O O7 0.590551 0.885344 0.598513
O O8 0.033845 0.115514 0.275175
O O9 0.293802 0.145292 0.191469
O O10 0.000000 0.500000 0.500000
O O11 0.986248 0.218344 0.188731
O O12 0.333046 0.248222 0.988812
O O13 0.343882 0.904441 0.504622
O O14 0.663756 0.107634 0.300986
O O15 0.665740 0.458410 0.602635
#
# Coordination Sequence:
#
# PCOD9111886 Si02
#       7
#     2   2   2   2   2   2   2
#     4  10  23  43  67  94 135 166 224 276 324 394
#     4  10  20  43  73  94 125 175 224 276 327 381
#     4  11  25  41  65 100 134 175 214 270 335 392
#     4  12  26  43  66  97 138 179 217 267 330 406
#     4  11  25  46  69  97 136 173 225 278 326 391
#     4  11  22  42  70  97 129 175 219 275 330 386
#     4  11  25  44  69 100 131 179 222 273 333 387
#
# _framework density 25.593781
#
# number of rings (size 3 to 8) (size 9 to 14) (size 15 to 20)
#    0.000    1.143    4.286    2.571    2.000    4.571 
#    2.571    0.000    0.000    0.000    0.000    0.000 
#    0.000    0.000    0.000    0.000    0.000    0.000 
#
# Total GULP energy -78248.762845 kJ/mol
# GULP energy per Si atom -5589.197346 kJ/mol
# Density = 2.553553 g / cm^3
# Si number density = 25.593781 Si / 1000 Ang^3
#
#
#
# Elastic Constant Matrix: (Units=GPa)
#
#
# Indices 1 2 3 4 5 6 
#
# 1 91.7025 8.4127 16.5066 -2.3410 1.4777 2.7787
# 2 8.4127 85.5949 3.9685 12.8970 -5.6616 -9.0896
# 3 16.5066 3.9685 108.9884 -1.6549 15.5714 -1.0177
# 4 -2.3410 12.8970 -1.6549 35.0939 -3.7282 -1.6995
# 5 1.4777 -5.6616 15.5714 -3.7282 30.2475 -3.5856
# 6 2.7787 -9.0896 -1.0177 -1.6995 -3.5856 36.1031
#
#
#
# Elastic Compliance Matrix: (Units=1/GPa)
#
#
# Indices 1 2 3 4 5 6 
#
# 1 0.011394 -0.001335 -0.001679 0.001119 0.000053 -0.001202
# 2 -0.001335 0.013065 -0.000699 -0.004467 0.002727 0.003433
# 3 -0.001679 -0.000699 0.010215 0.000046 -0.005336 -0.000287
# 4 0.001119 -0.004467 0.000046 0.030548 0.002912 0.000518
# 5 0.000053 0.002727 -0.005336 0.002912 0.037191 0.004363
# 6 -0.001202 0.003433 -0.000287 0.000518 0.004363 0.029105
#
#
# Mechanical properties :
#
#
# Convention : Reuss Voigt Hill
#
# Bulk Modulus (GPa) = 36.69914 38.22905 37.46409
# Shear Modulus (GPa) = 33.77797 37.44878 35.61338
#
# Velocity S-wave (km/s) = 3.63681 3.82933 3.73431
# Velocity P-wave (km/s) = 5.65733 5.87545 5.76742
#
# Compressibility (1/GPa) = 0.02724860
#
# Stress axis : x y z
#
# Youngs Moduli (GPa) = 87.76857 76.54319 97.89153
#
# Poissons Ratio (x) = 0.10216 0.16434
# Poissons Ratio (y) = 0.11715 0.06842
# Poissons Ratio (z) = 0.14735 0.05350
#
# Static dielectric constant tensor:
#      x y z
#    x 2.050560 -0.006550 0.043030 
#    y -0.006550 1.976840 -0.032980 
#    z 0.043030 -0.032980 2.168790 
# 
# From -- ./inp_files/532697.got.cif
#   From: 2010.05.17/outbox.cif.g08.bks.cpg/sg2_267_cif.got.tgz:532697.got - 2010.06.03 11:33:40.
