data_PCOD9111619
_publ_section_title
;
Structure prediction by ZEFSAII (Michael W. Deem and Ramdas Pophale) SiO2 
 PCOD9111619
Probable space group: P -1
;
_chemical_formula_sum "Si O2"
_cell_formula_units_Z 14
_cell_length_a 12.526306
_cell_length_b 12.507421
_cell_length_c 6.256899
_cell_angle_alpha 131.849596
_cell_angle_beta 109.274422
_cell_angle_gamma 84.310791
_cell_volume 678.980330
_symmetry_space_group_name_H-M "P -1"
_symmetry_group_IT_number 2
_symmetry_cell_setting 'triclinic'
loop_
_space_group_symop_operation_xyz
x,y,z
-x,-y,-z
loop_
_atom_site_type_symbol
_atom_site_label
_atom_site_fract_x
_atom_site_fract_y
_atom_site_fract_z
Si Si1 0.461238 0.776615 0.076945
Si Si2 0.210714 0.348404 0.957077
Si Si3 0.106878 0.130144 0.235244
Si Si4 0.411987 0.292093 0.311468
Si Si5 0.098252 0.420313 0.367007
Si Si6 0.662852 0.484877 0.122639
Si Si7 0.356590 0.050092 0.267938
O O1 0.579557 0.865915 0.371262
O O2 0.382464 0.888768 0.092454
O O3 0.490608 0.681042 0.768443
O O4 0.400198 0.677150 0.093276
O O5 0.138597 0.223989 0.597423
O O6 0.298826 0.454742 0.004596
O O7 0.292181 0.288213 0.102131
O O8 0.122036 0.424678 0.135717
O O9 0.083046 0.252246 0.212079
O O10 0.224217 0.067394 0.188387
O O11 0.000000 0.000000 0.000000
O O12 0.408230 0.407782 0.653705
O O13 0.414189 0.137153 0.216568
O O14 0.216443 0.499124 0.654353
O O15 0.000000 0.500000 0.500000
#
# Coordination Sequence:
#
# PCOD9111619 Si02
#       7
#     2   2   2   2   2   2   2
#     4  11  24  38  65  92 136 167 213 265 310 383
#     4  10  20  43  67  92 130 161 213 271 321 372
#     4  11  23  42  68  92 126 170 217 262 321 387
#     4  11  19  41  64  90 129 168 215 264 320 372
#     4  10  23  43  67  94 125 163 214 272 318 380
#     4  10  22  38  64  94 124 169 214 259 322 381
#     4  11  23  42  59  97 128 171 214 261 321 376
#
# _framework density 20.619153000000001
#
# number of rings (size 3 to 8) (size 9 to 14) (size 15 to 20)
#    0.000    1.429    5.714    0.857    2.000    7.429 
#    0.000    0.000    6.286    0.000    0.000    0.000 
#    0.000    0.000    0.000    0.000    0.000    0.000 
#
# Total GULP energy -78174.935073 kJ/mol
# GULP energy per Si atom -5583.923934 kJ/mol
# Density = 2.057222 g / cm^3
# Si number density = 20.619153 Si / 1000 Ang^3
#
#
#
# Elastic Constant Matrix: (Units=GPa)
#
#
# Indices 1 2 3 4 5 6 
#
# 1 126.6726 68.9613 38.5171 17.4016 -18.4687 2.4989
# 2 68.9613 130.1775 44.3705 6.6775 -8.0337 3.4400
# 3 38.5171 44.3705 53.2327 0.7525 -15.4456 13.6664
# 4 17.4016 6.6775 0.7525 30.3833 8.2208 -3.1576
# 5 -18.4687 -8.0337 -15.4456 8.2208 37.7184 1.8077
# 6 2.4989 3.4400 13.6664 -3.1576 1.8077 29.6922
#
#
#
# Elastic Compliance Matrix: (Units=1/GPa)
#
#
# Indices 1 2 3 4 5 6 
#
# 1 0.013957 -0.005291 -0.003826 -0.008355 0.005963 -0.000052
# 2 -0.005291 0.013235 -0.009398 0.001877 -0.004207 0.003693
# 3 -0.003826 -0.009398 0.037382 -0.001829 0.012634 -0.016759
# 4 -0.008355 0.001877 -0.001829 0.041768 -0.013861 0.006613
# 5 0.005963 -0.004207 0.012634 -0.013861 0.037189 -0.009568
# 6 -0.000052 0.003693 -0.016759 0.006613 -0.009568 0.042255
#
#
# Mechanical properties :
#
#
# Convention : Reuss Voigt Hill
#
# Bulk Modulus (GPa) = 36.30874 68.19786 52.25330
# Shear Modulus (GPa) = 21.55195 30.10768 25.82982
#
# Velocity S-wave (km/s) = 3.23652 3.82538 3.54320
# Velocity P-wave (km/s) = 5.62265 7.25659 6.49124
#
# Compressibility (1/GPa) = 0.02754158
#
# Stress axis : x y z
#
# Youngs Moduli (GPa) = 71.65012 75.55859 26.75109
#
# Poissons Ratio (x) = 0.39981 0.10236
# Poissons Ratio (y) = 0.37913 0.25141
# Poissons Ratio (z) = 0.27416 0.71010
#
# Static dielectric constant tensor:
#      x y z
#    x 1.743940 0.013870 -0.025200 
#    y 0.013870 1.752750 -0.015980 
#    z -0.025200 -0.015980 1.771580 
# 
# From -- ./inp_files/72605.got.cif
#   From: 2010.05.17/outbox.cif.g08.bks.cpg/sg2_37_cif.got.tgz:72605.got - 2010.06.03 11:33:40.
