data_PCOD9111880
_publ_section_title
;
Structure prediction by ZEFSAII (Michael W. Deem and Ramdas Pophale) SiO2 
 PCOD9111880
Probable space group: P -1
;
_chemical_formula_sum "Si O2"
_cell_formula_units_Z 16
_cell_length_a 9.234082
_cell_length_b 11.169832
_cell_length_c 7.800424
_cell_angle_alpha 101.195723
_cell_angle_beta 87.767602
_cell_angle_gamma 50.890261
_cell_volume 598.478201
_symmetry_space_group_name_H-M "P -1"
_symmetry_group_IT_number 2
_symmetry_cell_setting 'triclinic'
loop_
_space_group_symop_operation_xyz
x,y,z
-x,-y,-z
loop_
_atom_site_type_symbol
_atom_site_label
_atom_site_fract_x
_atom_site_fract_y
_atom_site_fract_z
Si Si1 0.414107 0.180393 0.061161
Si Si2 0.228154 0.488073 0.721257
Si Si3 0.246098 0.900665 0.166074
Si Si4 0.429187 0.561083 0.212379
Si Si5 0.173355 0.484356 0.350894
Si Si6 0.907474 0.991667 0.325932
Si Si7 0.445992 0.890409 0.445484
Si Si8 0.948675 0.689033 0.108866
O O1 0.303491 0.293461 0.262022
O O2 0.593996 0.170142 0.006564
O O3 0.243586 0.257588 0.951796
O O4 0.500000 0.000000 0.000000
O O5 0.383865 0.511965 0.707146
O O6 0.374941 0.292866 0.658296
O O7 0.114066 0.542569 0.563515
O O8 0.108886 0.585237 0.924521
O O9 0.301302 0.750459 0.232555
O O10 0.302188 0.977572 0.313767
O O11 0.019167 0.013761 0.187370
O O12 0.306265 0.522581 0.289509
O O13 0.500000 0.500000 0.000000
O O14 0.007350 0.580128 0.243540
O O15 0.681241 0.107615 0.403632
O O16 0.937765 0.834546 0.215741
O O17 0.000000 0.000000 0.500000
O O18 0.500000 0.000000 0.500000
#
# Coordination Sequence:
#
# PCOD9111880 Si02
#       8
#     2   2   2   2   2   2   2   2
#     4  12  29  49  75 119 164 212 270 348 413 480
#     4  11  26  45  78 121 159 209 277 332 400 492
#     4  10  20  43  73 104 151 210 262 319 406 478
#     4  11  18  43  74 112 154 208 262 332 402 469
#     4  12  25  46  83 111 162 213 277 329 409 492
#     4  10  22  44  82 117 148 211 268 317 409 490
#     4  10  22  41  73 116 163 206 257 328 406 476
#     4  12  26  53  80 114 165 211 270 335 412 485
#
# _framework density 26.734473999999999
#
# number of rings (size 3 to 8) (size 9 to 14) (size 15 to 20)
#    0.000    1.000    3.750    2.250    3.500    1.500 
#    4.500    0.625    0.000    0.000    0.000    0.000 
#    0.000    0.000    0.000    0.000    0.000    0.000 
#
# Total GULP energy -89439.494663 kJ/mol
# GULP energy per Si atom -5589.968416 kJ/mol
# Density = 2.667363 g / cm^3
# Si number density = 26.734474 Si / 1000 Ang^3
#
#
#
# Elastic Constant Matrix: (Units=GPa)
#
#
# Indices 1 2 3 4 5 6 
#
# 1 145.7845 23.6709 65.8982 13.0958 -29.5119 -8.3487
# 2 23.6709 68.0480 54.8971 15.2620 -11.9815 0.9434
# 3 65.8982 54.8971 206.3103 9.3686 -12.0791 -8.9734
# 4 13.0958 15.2620 9.3686 47.0019 -4.6626 9.6069
# 5 -29.5119 -11.9815 -12.0791 -4.6626 62.5699 10.1592
# 6 -8.3487 0.9434 -8.9734 9.6069 10.1592 42.6907
#
#
#
# Elastic Compliance Matrix: (Units=1/GPa)
#
#
# Indices 1 2 3 4 5 6 
#
# 1 0.008907 -0.000084 -0.002506 -0.001777 0.003439 0.000798
# 2 -0.000084 0.020452 -0.005069 -0.005133 0.002681 -0.001017
# 3 -0.002506 -0.005069 0.006963 0.000622 -0.000952 0.001172
# 4 -0.001777 -0.005133 0.000622 0.024629 0.001093 -0.005906
# 5 0.003439 0.002681 -0.000952 0.001093 0.018711 -0.004286
# 6 0.000798 -0.001017 0.001172 -0.005906 -0.004286 0.026198
#
#
# Mechanical properties :
#
#
# Convention : Reuss Voigt Hill
#
# Bulk Modulus (GPa) = 47.60926 78.78613 63.19770
# Shear Modulus (GPa) = 39.00729 48.83092 43.91911
#
# Velocity S-wave (km/s) = 3.82391 4.27841 4.05753
# Velocity P-wave (km/s) = 6.11091 7.34440 6.75587
#
# Compressibility (1/GPa) = 0.02100432
#
# Stress axis : x y z
#
# Youngs Moduli (GPa) = 112.26530 48.89547 143.60706
#
# Poissons Ratio (x) = 0.00409 0.35989
# Poissons Ratio (y) = 0.00939 0.72801
# Poissons Ratio (z) = 0.28135 0.24787
#
# Static dielectric constant tensor:
#      x y z
#    x 2.212660 -0.034320 -0.040220 
#    y -0.034320 2.194090 -0.034080 
#    z -0.040220 -0.034080 2.152160 
# 
# From -- ./inp_files/390705.got.cif
#   From: 2010.05.17/outbox.cif.g08.bks.cpg/sg2_196_cif.got.tgz:390705.got - 2010.06.03 11:33:40.
