data_PCOD9111661
_publ_section_title
;
Structure prediction by ZEFSAII (Michael W. Deem and Ramdas Pophale) SiO2 
 PCOD9111661
Probable space group: P -1
;
_chemical_formula_sum "Si O2"
_cell_formula_units_Z 16
_cell_length_a 8.741551
_cell_length_b 11.527100
_cell_length_c 24.829828
_cell_angle_alpha 25.557229
_cell_angle_beta 45.951036
_cell_angle_gamma 59.884952
_cell_volume 709.410719
_symmetry_space_group_name_H-M "P -1"
_symmetry_group_IT_number 2
_symmetry_cell_setting 'triclinic'
loop_
_space_group_symop_operation_xyz
x,y,z
-x,-y,-z
loop_
_atom_site_type_symbol
_atom_site_label
_atom_site_fract_x
_atom_site_fract_y
_atom_site_fract_z
Si Si1 0.766824 0.681039 0.871525
Si Si2 0.661065 0.433881 0.115720
Si Si3 0.314896 0.179591 0.624744
Si Si4 0.706004 0.371217 0.843240
Si Si5 0.490365 0.278772 0.816304
Si Si6 0.163860 0.341636 0.701072
Si Si7 0.932663 0.666990 0.064755
Si Si8 0.915564 0.713418 0.463267
O O1 0.920936 0.517622 0.879382
O O2 0.500000 0.500000 0.000000
O O3 0.772832 0.652890 0.947039
O O4 0.862747 0.008404 0.687091
O O5 0.396987 0.410286 0.197240
O O6 0.812151 0.565022 0.077924
O O7 0.666025 0.118050 0.235680
O O8 0.168265 0.285570 0.658777
O O9 0.573049 0.432817 0.448084
O O10 0.199301 0.135843 0.613281
O O11 0.569153 0.296361 0.851482
O O12 0.971933 0.446778 0.728969
O O13 0.607907 0.067027 0.028955
O O14 0.276995 0.376337 0.825177
O O15 0.714241 0.505412 0.637524
O O16 0.092511 0.014097 0.878897
O O17 0.000000 0.500000 0.500000
#
# Coordination Sequence:
#
# PCOD9111661 Si02
#       8
#     2   2   2   2   2   2   2   2
#     4  12  26  41  64  98 130 166 209 272 326 366
#     4  11  21  42  68  94 123 169 226 251 314 390
#     4  11  23  39  65  94 128 171 213 261 320 378
#     4   9  19  40  65  93 121 168 211 261 313 383
#     4   9  20  39  66  92 124 167 211 256 325 377
#     4  10  21  38  64  92 127 165 213 260 313 376
#     4  10  20  43  68  88 126 175 215 255 313 395
#     4  12  25  41  63  94 129 165 214 268 318 381
#
# _framework density 22.553929
#
# number of rings (size 3 to 8) (size 9 to 14) (size 15 to 20)
#    0.000    1.500    2.500    3.375    1.750    2.000 
#    2.250    1.250    0.000    0.000    0.000    0.000 
#    0.000    0.000    0.000    0.000    0.000    0.000 
#
# Total GULP energy -89381.807207 kJ/mol
# GULP energy per Si atom -5586.362950 kJ/mol
# Density = 2.250260 g / cm^3
# Si number density = 22.553929 Si / 1000 Ang^3
#
#
#
# Elastic Constant Matrix: (Units=GPa)
#
#
# Indices 1 2 3 4 5 6 
#
# 1 26.6764 16.0346 18.5978 -5.5896 -7.9249 -10.3082
# 2 16.0346 136.5249 66.1281 16.6177 -4.3362 -35.3728
# 3 18.5978 66.1281 155.5797 22.6381 -20.5555 -14.1397
# 4 -5.5896 16.6177 22.6381 21.0253 -3.0504 -4.5739
# 5 -7.9249 -4.3362 -20.5555 -3.0504 25.9069 3.0490
# 6 -10.3082 -35.3728 -14.1397 -4.5739 3.0490 26.7713
#
#
#
# Elastic Compliance Matrix: (Units=1/GPa)
#
#
# Indices 1 2 3 4 5 6 
#
# 1 0.064015 -0.001415 -0.008015 0.033776 0.014293 0.022689
# 2 -0.001415 0.013882 -0.004258 -0.003981 -0.003757 0.015296
# 3 -0.008015 -0.004258 0.010954 -0.011021 0.004860 -0.005364
# 4 0.033776 -0.003981 -0.011021 0.075776 0.008203 0.013937
# 5 0.014293 -0.003757 0.004860 0.008203 0.047268 -0.000875
# 6 0.022689 0.015296 -0.005364 0.013937 -0.000875 0.065948
#
#
# Mechanical properties :
#
#
# Convention : Reuss Voigt Hill
#
# Bulk Modulus (GPa) = 16.26696 57.81133 37.03914
# Shear Modulus (GPa) = 15.35105 29.27541 22.31323
#
# Velocity S-wave (km/s) = 2.61173 3.60671 3.14877
# Velocity P-wave (km/s) = 4.04017 6.55992 5.44773
#
# Compressibility (1/GPa) = 0.06147429
#
# Stress axis : x y z
#
# Youngs Moduli (GPa) = 15.62126 72.03814 91.29107
#
# Poissons Ratio (x) = 0.10193 0.73172
# Poissons Ratio (y) = 0.02210 0.38873
# Poissons Ratio (z) = 0.12521 0.30675
#
# Static dielectric constant tensor:
#      x y z
#    x 1.905500 0.016800 -0.021220 
#    y 0.016800 1.856060 0.015910 
#    z -0.021220 0.015910 1.851080 
# 
# From -- ./inp_files/622609.got.cif
#   From: 2010.05.17/outbox.cif.g08.bks.cpg/sg2_312_cif.got.tgz:622609.got - 2010.06.03 11:33:40.
