data_PCOD9111048
_publ_section_title
;
Structure prediction by ZEFSAII (Michael W. Deem and Ramdas Pophale) SiO2 
 PCOD9111048
Probable space group: P -1
;
_chemical_formula_sum "Si O2"
_cell_formula_units_Z 14
_cell_length_a 16.829804
_cell_length_b 10.896139
_cell_length_c 7.324536
_cell_angle_alpha 138.670083
_cell_angle_beta 140.159670
_cell_angle_gamma 48.661254
_cell_volume 556.977733
_symmetry_space_group_name_H-M "P -1"
_symmetry_group_IT_number 2
_symmetry_cell_setting 'triclinic'
loop_
_space_group_symop_operation_xyz
x,y,z
-x,-y,-z
loop_
_atom_site_type_symbol
_atom_site_label
_atom_site_fract_x
_atom_site_fract_y
_atom_site_fract_z
Si Si1 0.191086 0.934839 0.905563
Si Si2 0.823788 0.236807 0.702286
Si Si3 0.739577 0.665635 0.444801
Si Si4 0.620575 0.039806 0.155877
Si Si5 0.946658 0.291746 0.343308
Si Si6 0.768407 0.663201 0.064258
Si Si7 0.532882 0.206502 0.820166
O O1 0.150324 0.882959 0.571538
O O2 0.091357 0.882022 0.811352
O O3 0.332165 0.806356 0.053839
O O4 0.209417 0.150238 0.192029
O O5 0.729859 0.133558 0.541233
O O6 0.762369 0.449496 0.767612
O O7 0.928876 0.269197 0.069368
O O8 0.846636 0.477548 0.440524
O O9 0.720898 0.695840 0.226267
O O10 0.602575 0.653763 0.277116
O O11 0.689123 0.827763 0.985207
O O12 0.573600 0.190381 0.084490
O O13 0.500000 0.000000 0.000000
O O14 0.087067 0.314058 0.659161
O O15 0.500000 0.000000 0.500000
#
# Coordination Sequence:
#
# PCOD9111048 Si02
#       7
#     2   2   2   2   2   2   2
#     4  10  23  42  66 100 134 175 226 272 329 396
#     4  10  24  43  66 104 131 172 228 272 327 396
#     4  10  20  42  68  94 138 178 216 281 327 396
#     4  11  22  41  68  96 127 173 217 272 333 388
#     4  11  25  44  68  98 136 183 219 268 341 392
#     4  11  24  44  68  99 137 175 224 275 328 402
#     4   9  20  39  63  95 130 168 219 269 327 387
#
# _framework density 25.135655
#
# number of rings (size 3 to 8) (size 9 to 14) (size 15 to 20)
#    0.000    1.714    1.429    2.571    2.000    8.571 
#    2.571   10.000    0.000    0.000    0.000    0.000 
#    0.000    0.000    0.000    0.000    0.000    0.000 
#
# Total GULP energy -78265.714563 kJ/mol
# GULP energy per Si atom -5590.408183 kJ/mol
# Density = 2.507844 g / cm^3
# Si number density = 25.135655 Si / 1000 Ang^3
#
#
#
# Elastic Constant Matrix: (Units=GPa)
#
#
# Indices 1 2 3 4 5 6 
#
# 1 65.7049 16.2769 24.1105 -7.1449 13.4556 -12.9724
# 2 16.2769 126.0895 36.6524 9.4746 2.3943 -34.9413
# 3 24.1105 36.6524 100.7638 17.0445 -8.7420 -5.2677
# 4 -7.1449 9.4746 17.0445 34.3412 -3.3103 3.7033
# 5 13.4556 2.3943 -8.7420 -3.3103 52.6333 -0.3373
# 6 -12.9724 -34.9413 -5.2677 3.7033 -0.3373 37.7978
#
#
#
# Elastic Compliance Matrix: (Units=1/GPa)
#
#
# Indices 1 2 3 4 5 6 
#
# 1 0.020439 0.000499 -0.006290 0.006028 -0.005875 0.005957
# 2 0.000499 0.012295 -0.003643 -0.002833 -0.001398 0.011294
# 3 -0.006290 -0.003643 0.014039 -0.006606 0.003672 -0.002890
# 4 0.006028 -0.002833 -0.006606 0.034929 -0.000344 -0.004896
# 5 -0.005875 -0.001398 0.003672 -0.000344 0.021137 -0.002575
# 6 0.005957 0.011294 -0.002890 -0.004896 -0.002575 0.038995
#
#
# Mechanical properties :
#
#
# Convention : Reuss Voigt Hill
#
# Bulk Modulus (GPa) = 35.83644 49.62641 42.73142
# Shear Modulus (GPa) = 29.41119 39.32235 34.36677
#
# Velocity S-wave (km/s) = 3.42438 3.95955 3.70165
# Velocity P-wave (km/s) = 5.47022 6.37890 5.94195
#
# Compressibility (1/GPa) = 0.02790456
#
# Stress axis : x y z
#
# Youngs Moduli (GPa) = 48.92670 81.33621 71.22820
#
# Poissons Ratio (x) = -0.04061 0.44803
# Poissons Ratio (y) = -0.02443 0.25950
# Poissons Ratio (z) = 0.30775 0.29633
#
# Static dielectric constant tensor:
#      x y z
#    x 2.157320 0.023450 -0.134910 
#    y 0.023450 2.055980 -0.116210 
#    z -0.134910 -0.116210 2.126150 
# 
# From -- ./inp_files/331460.got.cif
#   From: 2010.05.17/outbox.cif.g08.bks.cpg/sg2_166_cif.got.tgz:331460.got - 2010.06.03 11:33:40.
