data_PCOD9111659
_publ_section_title
;
Structure prediction by ZEFSAII (Michael W. Deem and Ramdas Pophale) SiO2 
 PCOD9111659
Probable space group: P -1
;
_chemical_formula_sum "Si O2"
_cell_formula_units_Z 16
_cell_length_a 5.538252
_cell_length_b 12.368513
_cell_length_c 11.403011
_cell_angle_alpha 91.046870
_cell_angle_beta 120.700944
_cell_angle_gamma 92.945768
_cell_volume 669.839788
_symmetry_space_group_name_H-M "P -1"
_symmetry_group_IT_number 2
_symmetry_cell_setting 'triclinic'
loop_
_space_group_symop_operation_xyz
x,y,z
-x,-y,-z
loop_
_atom_site_type_symbol
_atom_site_label
_atom_site_fract_x
_atom_site_fract_y
_atom_site_fract_z
Si Si1 0.754313 0.847223 0.124060
Si Si2 0.402870 0.221024 0.169542
Si Si3 0.595534 0.366744 0.865829
Si Si4 0.065177 0.644045 0.822652
Si Si5 0.058257 0.463065 0.644016
Si Si6 0.277548 0.973248 0.718274
Si Si7 0.760160 0.261779 0.667927
Si Si8 0.688745 0.904320 0.506017
O O1 0.574507 0.742912 0.130549
O O2 0.063762 0.839220 0.254875
O O3 0.644184 0.958302 0.145298
O O4 0.754791 0.829133 0.985850
O O5 0.679620 0.291081 0.186605
O O6 0.512235 0.117685 0.261530
O O7 0.183759 0.285915 0.190030
O O8 0.376895 0.451113 0.768914
O O9 0.747585 0.328946 0.786347
O O10 0.793258 0.402469 0.024717
O O11 0.940341 0.548567 0.706274
O O12 0.000000 0.500000 0.500000
O O13 0.915942 0.342335 0.617722
O O14 0.973371 0.910141 0.649253
O O15 0.248471 0.063000 0.612932
O O16 0.470206 0.213161 0.542071
O O17 0.500000 0.000000 0.500000
#
# Coordination Sequence:
#
# PCOD9111659 Si02
#       8
#     2   2   2   2   2   2   2   2
#     4  10  20  43  68 111 142 187 245 302 366 440
#     4  11  26  45  76 110 149 193 248 315 366 437
#     4  10  22  45  75 106 143 193 243 310 371 449
#     4  11  26  50  74 112 151 194 255 307 381 444
#     4  11  28  48  73 110 147 193 249 315 378 448
#     4  11  24  42  66 107 149 194 243 301 368 442
#     4  11  22  43  76 101 144 193 249 299 373 445
#     4  11  24  41  68 101 144 195 245 290 367 454
#
# _framework density 23.886310999999999
#
# number of rings (size 3 to 8) (size 9 to 14) (size 15 to 20)
#    0.000    1.250    3.750    0.750    3.500    3.000 
#    0.000    2.500    0.000    0.000    0.000    0.000 
#    0.000    0.000    0.000    0.000    0.000    0.000 
#
# Total GULP energy -89518.151163 kJ/mol
# GULP energy per Si atom -5594.884448 kJ/mol
# Density = 2.383194 g / cm^3
# Si number density = 23.886311 Si / 1000 Ang^3
#
#
#
# Elastic Constant Matrix: (Units=GPa)
#
#
# Indices 1 2 3 4 5 6 
#
# 1 86.9716 31.8021 21.4326 -2.8956 -3.5684 -25.8374
# 2 31.8021 85.7529 55.7879 -4.4858 4.8388 -17.3556
# 3 21.4326 55.7879 89.5423 3.0194 -8.0809 -6.2530
# 4 -2.8956 -4.4858 3.0194 37.9364 -2.6179 1.7545
# 5 -3.5684 4.8388 -8.0809 -2.6179 26.0601 4.1802
# 6 -25.8374 -17.3556 -6.2530 1.7545 4.1802 40.0812
#
#
#
# Elastic Compliance Matrix: (Units=1/GPa)
#
#
# Indices 1 2 3 4 5 6 
#
# 1 0.015512 -0.003652 -0.000769 0.000527 0.001311 0.008138
# 2 -0.003652 0.025288 -0.015455 0.002860 -0.010854 0.007192
# 3 -0.000769 -0.015455 0.021640 -0.002702 0.009962 -0.004732
# 4 0.000527 0.002860 -0.002702 0.027062 0.001451 -0.000179
# 5 0.001311 -0.010854 0.009962 0.001451 0.044934 -0.007050
# 6 0.008138 0.007192 -0.004732 -0.000179 -0.007050 0.033314
#
#
# Mechanical properties :
#
#
# Convention : Reuss Voigt Hill
#
# Bulk Modulus (GPa) = 44.07368 53.36798 48.72083
# Shear Modulus (GPa) = 23.24895 31.03182 27.14038
#
# Velocity S-wave (km/s) = 3.12319 3.60828 3.37446
# Velocity P-wave (km/s) = 5.61224 6.30480 5.96858
#
# Compressibility (1/GPa) = 0.02268928
#
# Stress axis : x y z
#
# Youngs Moduli (GPa) = 64.46679 39.54504 46.20967
#
# Poissons Ratio (x) = 0.14441 0.03553
# Poissons Ratio (y) = 0.23542 0.71416
# Poissons Ratio (z) = 0.04956 0.61116
#
# Static dielectric constant tensor:
#      x y z
#    x 1.975650 0.009880 0.020100 
#    y 0.009880 1.903570 -0.020300 
#    z 0.020100 -0.020300 1.887850 
# 
# From -- ./inp_files/364875.got.cif
#   From: 2010.05.17/outbox.cif.g08.bks.cpg/sg2_183_cif.got.tgz:364875.got - 2010.06.03 11:33:40.
