data_PCOD9111956
_publ_section_title
;
Structure prediction by ZEFSAII (Michael W. Deem and Ramdas Pophale) SiO2 
 PCOD9111956
Probable space group: P -1
;
_chemical_formula_sum "Si O2"
_cell_formula_units_Z 15
_cell_length_a 20.623834
_cell_length_b 23.627001
_cell_length_c 9.487701
_cell_angle_alpha 31.788888
_cell_angle_beta 136.345038
_cell_angle_gamma 162.376096
_cell_volume 619.243186
_symmetry_space_group_name_H-M "P -1"
_symmetry_group_IT_number 2
_symmetry_cell_setting 'triclinic'
loop_
_space_group_symop_operation_xyz
x,y,z
-x,-y,-z
loop_
_atom_site_type_symbol
_atom_site_label
_atom_site_fract_x
_atom_site_fract_y
_atom_site_fract_z
Si Si1 0.071474 0.457725 0.538236
Si Si2 0.284160 0.508065 0.945696
Si Si3 0.353654 0.300211 0.832639
Si Si4 0.334615 0.952194 0.985967
Si Si5 0.043017 0.799028 0.673149
Si Si6 0.000000 0.000000 0.500000
Si Si7 0.916465 0.532057 0.764663
Si Si8 0.828590 0.814939 0.942143
O O1 0.215628 0.725061 0.194412
O O2 0.960382 0.307554 0.531045
O O3 0.845010 0.226029 0.783367
O O4 0.272932 0.586253 0.644224
O O5 0.519336 0.677781 0.975277
O O6 0.055247 0.180873 0.247765
O O7 0.205915 0.480630 0.027174
O O8 0.500000 0.500000 0.500000
O O9 0.374149 0.402580 0.784926
O O10 0.061989 0.988154 0.988838
O O11 0.279007 0.998020 0.707878
O O12 0.617678 0.229684 0.896926
O O13 0.994276 0.687327 0.688270
O O14 0.083820 0.968336 0.360063
O O15 0.179702 0.210402 0.185361
O O16 0.000000 0.500000 0.000000
#
# Coordination Sequence:
#
# PCOD9111956 Si02
#       8
#     2   2   2   2   2   1   2   2
#     4  10  23  45  67 100 134 180 228 276 354 405
#     4  10  23  44  66  95 136 182 222 281 344 408
#     4  11  21  44  65  93 134 179 229 286 342 396
#     4  10  23  46  67  95 144 174 220 293 337 410
#     4  10  22  46  64 102 140 176 232 279 345 415
#     4  10  20  44  64  94 136 170 228 278 340 402
#     4  12  25  42  70 103 134 182 229 279 344 413
#     4  10  24  41  68  99 135 180 229 285 344 413
#
# _framework density 24.223116000000001
#
# number of rings (size 3 to 8) (size 9 to 14) (size 15 to 20)
#    0.000    1.600    4.000    0.400    1.867    3.200 
#   16.800    0.000    0.000    0.000    0.000    0.000 
#    0.000    0.000    0.000    0.000    0.000    0.000 
#
# Total GULP energy -83549.538979 kJ/mol
# GULP energy per Si atom -5569.969265 kJ/mol
# Density = 2.416798 g / cm^3
# Si number density = 24.223116 Si / 1000 Ang^3
#
#
#
# Elastic Constant Matrix: (Units=GPa)
#
#
# Indices 1 2 3 4 5 6 
#
# 1 182.0950 38.9481 33.6535 18.4993 -41.4607 -8.9059
# 2 38.9481 139.1970 16.6456 32.3353 -7.2230 24.8887
# 3 33.6535 16.6456 53.2900 30.7124 -11.7929 -1.2596
# 4 18.4993 32.3353 30.7124 36.5816 6.5804 1.1302
# 5 -41.4607 -7.2230 -11.7929 6.5804 57.1801 9.1889
# 6 -8.9059 24.8887 -1.2596 1.1302 9.1889 46.8423
#
#
#
# Elastic Compliance Matrix: (Units=1/GPa)
#
#
# Indices 1 2 3 4 5 6 
#
# 1 0.007534 -0.001490 -0.002463 -0.001312 0.004714 0.001265
# 2 -0.001490 0.012383 0.008601 -0.018181 0.005519 -0.007276
# 3 -0.002463 0.008601 0.051413 -0.052375 0.016847 -0.005697
# 4 -0.001312 -0.018181 -0.052375 0.092461 -0.026451 0.010960
# 5 0.004714 0.005519 0.016847 -0.026451 0.029195 -0.006672
# 6 0.001265 -0.007276 -0.005697 0.010960 -0.006672 0.026346
#
#
# Mechanical properties :
#
#
# Convention : Reuss Voigt Hill
#
# Bulk Modulus (GPa) = 12.40326 61.45296 36.92811
# Shear Modulus (GPa) = 21.10478 47.14311 34.12394
#
# Velocity S-wave (km/s) = 2.95492 4.41637 3.75738
# Velocity P-wave (km/s) = 4.09556 7.17149 5.83969
#
# Compressibility (1/GPa) = 0.08062398
#
# Stress axis : x y z
#
# Youngs Moduli (GPa) = 132.72847 80.75439 19.45035
#
# Poissons Ratio (x) = 0.12036 0.04791
# Poissons Ratio (y) = 0.19782 -0.16728
# Poissons Ratio (z) = 0.32695 -0.69453
#
# Static dielectric constant tensor:
#      x y z
#    x 1.971920 0.023680 -0.111020 
#    y 0.023680 1.960150 -0.050250 
#    z -0.111020 -0.050250 2.030790 
# 
# From -- ./inp_files/337518.got.cif
#   From: 2010.05.17/outbox.cif.g08.bks.cpg/sg2_169_cif.got.tgz:337518.got - 2010.06.03 11:33:40.
