data_PCOD9111231
_publ_section_title
;
Structure prediction by ZEFSAII (Michael W. Deem and Ramdas Pophale) SiO2 
 PCOD9111231
Probable space group: P -1
;
_chemical_formula_sum "Si O2"
_cell_formula_units_Z 15
_cell_length_a 15.374897
_cell_length_b 13.856633
_cell_length_c 11.628726
_cell_angle_alpha 137.270948
_cell_angle_beta 154.482156
_cell_angle_gamma 32.216588
_cell_volume 564.443758
_symmetry_space_group_name_H-M "P -1"
_symmetry_group_IT_number 2
_symmetry_cell_setting 'triclinic'
loop_
_space_group_symop_operation_xyz
x,y,z
-x,-y,-z
loop_
_atom_site_type_symbol
_atom_site_label
_atom_site_fract_x
_atom_site_fract_y
_atom_site_fract_z
Si Si1 0.081179 0.861396 0.076837
Si Si2 0.141630 0.587085 0.740219
Si Si3 0.522416 0.655365 0.697334
Si Si4 0.442471 0.839964 0.970057
Si Si5 0.366382 0.045386 0.257174
Si Si6 0.750499 0.335180 0.301123
Si Si7 0.316740 0.359539 0.357583
Si Si8 0.000000 0.000000 0.500000
O O1 0.069816 0.712758 0.873916
O O2 0.866502 0.959825 0.003111
O O3 0.367137 0.769495 0.375657
O O4 0.000000 0.000000 0.000000
O O5 0.106786 0.688839 0.667609
O O6 0.000000 0.500000 0.500000
O O7 0.454380 0.430719 0.990959
O O8 0.500000 0.500000 0.500000
O O9 0.628074 0.669474 0.959567
O O10 0.716778 0.628376 0.808484
O O11 0.227584 0.834614 0.526226
O O12 0.208510 0.822306 0.706485
O O13 0.226430 0.031764 0.819596
O O14 0.544135 0.887203 0.237058
O O15 0.262903 0.239755 0.257240
O O16 0.500000 0.000000 0.500000
O O17 0.762423 0.466153 0.512583
#
# Coordination Sequence:
#
# PCOD9111231 Si02
#       8
#     2   2   2   2   2   2   2   1
#     4  11  22  38  58  91 128 175 213 271 339 400
#     4  10  22  35  58  89 131 169 222 270 336 408
#     4  10  20  42  70  96 128 182 234 279 345 402
#     4  10  22  41  67  94 130 177 228 281 335 410
#     4  12  25  39  64 100 136 167 228 280 343 415
#     4  10  21  38  64  90 127 180 221 277 346 404
#     4  11  22  40  66  92 133 176 217 284 340 403
#     4   8  20  40  68  96 128 174 232 278 332 408
#
# _framework density 26.574836000000001
#
# number of rings (size 3 to 8) (size 9 to 14) (size 15 to 20)
#    0.800    0.800    2.667    2.400    5.600    0.533 
#    0.000    0.000    0.000    4.000    0.000    0.000 
#    0.000    0.000    0.000    0.000    0.000    0.000 
#
# Total GULP energy -83582.725288 kJ/mol
# GULP energy per Si atom -5572.181686 kJ/mol
# Density = 2.651435 g / cm^3
# Si number density = 26.574836 Si / 1000 Ang^3
#
#
#
# Elastic Constant Matrix: (Units=GPa)
#
#
# Indices 1 2 3 4 5 6 
#
# 1 164.2869 31.1767 39.8338 15.1308 -7.6246 -6.4443
# 2 31.1767 87.0969 10.0095 15.5214 0.1909 -3.5026
# 3 39.8338 10.0095 90.1993 20.7778 -12.8554 -8.0669
# 4 15.1308 15.5214 20.7778 46.1794 -7.1751 5.8963
# 5 -7.6246 0.1909 -12.8554 -7.1751 53.9758 6.7350
# 6 -6.4443 -3.5026 -8.0669 5.8963 6.7350 46.1479
#
#
#
# Elastic Compliance Matrix: (Units=1/GPa)
#
#
# Indices 1 2 3 4 5 6 
#
# 1 0.007242 -0.002188 -0.002796 -0.000385 0.000268 0.000367
# 2 -0.002188 0.013021 0.000482 -0.004214 -0.000981 0.001448
# 3 -0.002796 0.000482 0.014055 -0.005601 0.001889 0.002543
# 4 -0.000385 -0.004214 -0.005601 0.026821 0.002840 -0.005194
# 5 0.000268 -0.000981 0.001889 0.002840 0.019764 -0.002954
# 6 0.000367 0.001448 0.002543 -0.005194 -0.002954 0.023370
#
#
# Mechanical properties :
#
#
# Convention : Reuss Voigt Hill
#
# Bulk Modulus (GPa) = 39.50595 55.95812 47.73204
# Shear Modulus (GPa) = 41.07930 46.63149 43.85539
#
# Velocity S-wave (km/s) = 3.93593 4.19349 4.06675
# Velocity P-wave (km/s) = 5.96268 6.67455 6.32863
#
# Compressibility (1/GPa) = 0.02531265
#
# Stress axis : x y z
#
# Youngs Moduli (GPa) = 138.07639 76.80051 71.15092
#
# Poissons Ratio (x) = 0.16807 0.19893
# Poissons Ratio (y) = 0.30217 -0.03428
# Poissons Ratio (z) = 0.38606 -0.03701
#
# Static dielectric constant tensor:
#      x y z
#    x 2.279870 0.149230 -0.193550 
#    y 0.149230 2.175450 -0.146820 
#    z -0.193550 -0.146820 2.304760 
# 
# From -- ./inp_files/454148.got.cif
#   From: 2010.05.17/outbox.cif.g08.bks.cpg/sg2_228_cif.got.tgz:454148.got - 2010.06.03 11:33:40.
