data_PCOD9111607
_publ_section_title
;
Structure prediction by ZEFSAII (Michael W. Deem and Ramdas Pophale) SiO2 
 PCOD9111607
Probable space group: P -1
;
_chemical_formula_sum "Si O2"
_cell_formula_units_Z 16
_cell_length_a 7.749583
_cell_length_b 8.828456
_cell_length_c 18.795719
_cell_angle_alpha 126.134152
_cell_angle_beta 143.681092
_cell_angle_gamma 49.324866
_cell_volume 571.648425
_symmetry_space_group_name_H-M "P -1"
_symmetry_group_IT_number 2
_symmetry_cell_setting 'triclinic'
loop_
_space_group_symop_operation_xyz
x,y,z
-x,-y,-z
loop_
_atom_site_type_symbol
_atom_site_label
_atom_site_fract_x
_atom_site_fract_y
_atom_site_fract_z
Si Si1 0.142026 0.252937 0.711057
Si Si2 0.621969 0.267329 0.454903
Si Si3 0.432737 0.930111 0.074178
Si Si4 0.757820 0.378304 0.113065
Si Si5 0.037549 0.267357 0.456475
Si Si6 0.426519 0.912698 0.316687
Si Si7 0.408885 0.698522 0.802230
Si Si8 0.035106 0.659524 0.113987
O O1 0.414158 0.099042 0.805954
O O2 0.043719 0.477348 0.773211
O O3 0.312090 0.246457 0.691261
O O4 0.866010 0.180908 0.577926
O O5 0.500000 0.500000 0.500000
O O6 0.801580 0.250620 0.435502
O O7 0.407293 0.134632 0.348624
O O8 0.718483 0.760450 0.079653
O O9 0.415754 0.141436 0.096158
O O10 0.150983 0.847711 0.950100
O O11 0.664245 0.358199 0.158610
O O12 0.500000 0.500000 0.000000
O O13 0.907676 0.210969 0.324032
O O14 0.000000 0.500000 0.500000
O O15 0.395573 0.145710 0.565266
O O16 0.129675 0.853221 0.186036
O O17 0.648420 0.497261 0.787973
O O18 0.000000 0.500000 0.000000
#
# Coordination Sequence:
#
# PCOD9111607 Si02
#       8
#     2   2   2   2   2   2   2   2
#     4  10  20  43  67  89 130 180 218 272 339 404
#     4  11  25  41  62 100 139 175 225 277 337 407
#     4  11  24  40  69  97 131 175 226 279 335 394
#     4  10  21  40  68  95 129 175 218 270 345 408
#     4  11  22  42  72  97 129 183 225 278 342 404
#     4  11  22  45  66  95 139 181 223 279 344 402
#     4  12  22  43  67  97 134 171 228 275 341 398
#     4  12  25  42  68 101 136 173 228 285 335 400
#
# _framework density 27.989229000000002
#
# number of rings (size 3 to 8) (size 9 to 14) (size 15 to 20)
#    0.000    1.000    3.750    4.125    1.750    2.000 
#    0.000    1.875    0.000    4.500    0.000    0.000 
#    0.000    0.000    0.000    0.000    0.000    0.000 
#
# Total GULP energy -89431.112663 kJ/mol
# GULP energy per Si atom -5589.444541 kJ/mol
# Density = 2.792552 g / cm^3
# Si number density = 27.989229 Si / 1000 Ang^3
#
#
#
# Elastic Constant Matrix: (Units=GPa)
#
#
# Indices 1 2 3 4 5 6 
#
# 1 64.3038 30.3369 51.6331 7.6326 -10.4140 15.4218
# 2 30.3369 165.1084 49.6957 33.2513 -2.5934 23.1677
# 3 51.6331 49.6957 199.4291 31.6241 2.7780 28.8134
# 4 7.6326 33.2513 31.6241 73.9326 13.9464 4.6088
# 5 -10.4140 -2.5934 2.7780 13.9464 45.6464 7.0590
# 6 15.4218 23.1677 28.8134 4.6088 7.0590 45.5838
#
#
#
# Elastic Compliance Matrix: (Units=1/GPa)
#
#
# Indices 1 2 3 4 5 6 
#
# 1 0.022313 -0.001897 -0.004685 -0.000308 0.006063 -0.004531
# 2 -0.001897 0.007600 -0.000529 -0.003087 0.001406 -0.002792
# 3 -0.004685 -0.000529 0.007021 -0.002035 -0.000550 -0.002293
# 4 -0.000308 -0.003087 -0.002035 0.016733 -0.005563 0.002129
# 5 0.006063 0.001406 -0.000550 -0.005563 0.026014 -0.005884
# 6 -0.004531 -0.002792 -0.002293 0.002129 -0.005884 0.027035
#
#
# Mechanical properties :
#
#
# Convention : Reuss Voigt Hill
#
# Bulk Modulus (GPa) = 44.03126 76.90808 60.46967
# Shear Modulus (GPa) = 38.90779 52.84428 45.87603
#
# Velocity S-wave (km/s) = 3.73245 4.34985 4.05292
# Velocity P-wave (km/s) = 5.86008 7.26400 6.59948
#
# Compressibility (1/GPa) = 0.02271114
#
# Stress axis : x y z
#
# Youngs Moduli (GPa) = 44.81660 131.57831 142.43248
#
# Poissons Ratio (x) = 0.24955 0.66735
# Poissons Ratio (y) = 0.08500 0.07542
# Poissons Ratio (z) = 0.20998 0.06967
#
# Static dielectric constant tensor:
#      x y z
#    x 2.177060 -0.009360 0.045060 
#    y -0.009360 2.227730 -0.080710 
#    z 0.045060 -0.080710 2.356820 
# 
# From -- ./inp_files/587564.got.cif
#   From: 2010.05.17/outbox.cif.g08.bks.cpg/sg2_294_cif.got.tgz:587564.got - 2010.06.03 11:33:40.
