data_PCOD9111537
_publ_section_title
;
Structure prediction by ZEFSAII (Michael W. Deem and Ramdas Pophale) SiO2 
 PCOD9111537
Probable space group: P -1
;
_chemical_formula_sum "Si O2"
_cell_formula_units_Z 16
_cell_length_a 9.124555
_cell_length_b 19.613720
_cell_length_c 9.311611
_cell_angle_alpha 84.054781
_cell_angle_beta 61.212859
_cell_angle_gamma 39.074425
_cell_volume 802.907734
_symmetry_space_group_name_H-M "P -1"
_symmetry_group_IT_number 2
_symmetry_cell_setting 'triclinic'
loop_
_space_group_symop_operation_xyz
x,y,z
-x,-y,-z
loop_
_atom_site_type_symbol
_atom_site_label
_atom_site_fract_x
_atom_site_fract_y
_atom_site_fract_z
Si Si1 0.951753 0.952392 0.638267
Si Si2 0.661895 0.638404 0.599433
Si Si3 0.695718 0.796241 0.156668
Si Si4 0.298040 0.627430 0.741177
Si Si5 0.695084 0.359643 0.609516
Si Si6 0.526306 0.700616 0.320471
Si Si7 0.272244 0.891402 0.788846
Si Si8 0.675225 0.867896 0.468330
O O1 0.161168 0.825181 0.491833
O O2 0.106290 0.917787 0.721556
O O3 0.598036 0.063367 0.795467
O O4 0.000000 0.000000 0.500000
O O5 0.436423 0.651833 0.722203
O O6 0.661452 0.656635 0.426015
O O7 0.529195 0.746618 0.731443
O O8 0.000000 0.500000 0.500000
O O9 0.627262 0.737440 0.193072
O O10 0.714760 0.814962 0.308720
O O11 0.989028 0.715366 0.947329
O O12 0.537477 0.485668 0.693815
O O13 0.251204 0.650795 0.585986
O O14 0.446325 0.383304 0.744767
O O15 0.998444 0.242919 0.583574
O O16 0.449910 0.898994 0.662867
O O17 0.000000 0.000000 0.000000
O O18 0.500000 0.000000 0.500000
#
# Coordination Sequence:
#
# PCOD9111537 Si02
#       8
#     2   2   2   2   2   2   2   2
#     4   9  17  38  62  81 124 166 198 245 315 385
#     4  10  20  43  66  86 128 178 207 254 326 392
#     4  11  22  40  65  94 123 168 213 255 326 385
#     4  10  24  41  67  95 124 166 218 265 319 382
#     4  10  23  44  62  92 131 163 214 267 318 381
#     4   9  19  40  63  86 123 172 204 247 325 383
#     4  11  24  40  62  99 126 166 219 263 318 385
#     4  12  25  41  64  95 131 165 209 274 324 369
#
# _framework density 19.927569999999999
#
# number of rings (size 3 to 8) (size 9 to 14) (size 15 to 20)
#    0.000    1.750    3.750    1.500    5.250    1.000 
#    0.000    2.500    0.000    0.000    0.000    0.000 
#    0.000    0.000    0.000    0.000    0.000    0.000 
#
# Total GULP energy -89211.701667 kJ/mol
# GULP energy per Si atom -5575.731354 kJ/mol
# Density = 1.988221 g / cm^3
# Si number density = 19.927570 Si / 1000 Ang^3
#
#
#
# Elastic Constant Matrix: (Units=GPa)
#
#
# Indices 1 2 3 4 5 6 
#
# 1 74.4236 35.4100 24.0657 2.4954 -18.2593 8.7613
# 2 35.4100 131.7490 26.7025 17.4925 -14.1563 0.5609
# 3 24.0657 26.7025 79.4467 17.8681 -29.4661 5.4248
# 4 2.4954 17.4925 17.8681 18.1726 -2.8918 -4.7837
# 5 -18.2593 -14.1563 -29.4661 -2.8918 30.9337 -0.0135
# 6 8.7613 0.5609 5.4248 -4.7837 -0.0135 48.2785
#
#
#
# Elastic Compliance Matrix: (Units=1/GPa)
#
#
# Indices 1 2 3 4 5 6 
#
# 1 0.018024 -0.004186 -0.002225 0.004183 0.006994 -0.002556
# 2 -0.004186 0.010054 0.000866 -0.009740 0.002045 -0.000419
# 3 -0.002225 0.000866 0.027522 -0.025309 0.022931 -0.005200
# 4 0.004183 -0.009740 -0.025309 0.088775 -0.017793 0.010989
# 5 0.006994 0.002045 0.022931 -0.017793 0.057568 -0.005617
# 6 -0.002556 -0.000419 -0.005200 0.010989 -0.005617 0.022853
#
#
# Mechanical properties :
#
#
# Convention : Reuss Voigt Hill
#
# Bulk Modulus (GPa) = 22.46646 50.88619 36.67633
# Shear Modulus (GPa) = 19.94216 32.77306 26.35761
#
# Velocity S-wave (km/s) = 3.16687 4.05978 3.64080
# Velocity P-wave (km/s) = 4.96695 6.89686 6.00988
#
# Compressibility (1/GPa) = 0.04451079
#
# Stress axis : x y z
#
# Youngs Moduli (GPa) = 55.48010 99.45850 36.33450
#
# Poissons Ratio (x) = 0.41637 0.08084
# Poissons Ratio (y) = 0.23226 -0.03148
# Poissons Ratio (z) = 0.12344 -0.08616
#
# Static dielectric constant tensor:
#      x y z
#    x 1.710890 0.027720 0.020660 
#    y 0.027720 1.784250 0.032330 
#    z 0.020660 0.032330 1.689160 
# 
# From -- ./inp_files/217447.got.cif
#   From: 2010.05.17/outbox.cif.g08.bks.cpg/sg2_109_cif.got.tgz:217447.got - 2010.06.03 11:33:40.
