data_PCOD9111038
_publ_section_title
;
Structure prediction by ZEFSAII (Michael W. Deem and Ramdas Pophale) SiO2 
 PCOD9111038
Probable space group: P -1
;
_chemical_formula_sum "Si O2"
_cell_formula_units_Z 16
_cell_length_a 11.904789
_cell_length_b 12.319799
_cell_length_c 9.519025
_cell_angle_alpha 39.560951
_cell_angle_beta 126.574948
_cell_angle_gamma 120.955063
_cell_volume 709.941323
_symmetry_space_group_name_H-M "P -1"
_symmetry_group_IT_number 2
_symmetry_cell_setting 'triclinic'
loop_
_space_group_symop_operation_xyz
x,y,z
-x,-y,-z
loop_
_atom_site_type_symbol
_atom_site_label
_atom_site_fract_x
_atom_site_fract_y
_atom_site_fract_z
Si Si1 0.415565 0.149719 0.844402
Si Si2 0.049306 0.701552 0.852498
Si Si3 0.657419 0.318031 0.050421
Si Si4 0.107899 0.155664 0.661819
Si Si5 0.406621 0.648917 0.728504
Si Si6 0.641836 0.720869 0.627182
Si Si7 0.907463 0.844861 0.860337
Si Si8 0.859432 0.584807 0.336071
O O1 0.512683 0.255168 0.926099
O O2 0.258922 0.084153 0.844335
O O3 0.389041 0.261467 0.576530
O O4 0.500000 0.000000 0.000000
O O5 0.953286 0.804874 0.575384
O O6 0.018642 0.755985 0.933951
O O7 0.209162 0.735818 0.881799
O O8 0.000000 0.500000 0.000000
O O9 0.678601 0.525638 0.868358
O O10 0.642794 0.258966 0.260719
O O11 0.135451 0.331738 0.591051
O O12 0.987375 0.028490 0.772311
O O13 0.506769 0.752629 0.587968
O O14 0.272738 0.553341 0.647171
O O15 0.500000 0.500000 0.000000
O O16 0.771444 0.845903 0.658642
O O17 0.857531 0.733283 0.069266
O O18 0.000000 0.500000 0.500000
#
# Coordination Sequence:
#
# PCOD9111038 Si02
#       8
#     2   2   2   2   2   2   2   2
#     4  12  27  44  64 103 138 178 229 281 338 404
#     4  12  22  42  70 103 132 180 232 279 340 408
#     4  11  22  42  71  97 132 172 231 281 339 400
#     4  12  26  43  69  99 144 183 218 286 349 404
#     4  10  20  42  68  94 128 173 221 275 331 394
#     4  11  23  43  70  98 132 182 224 284 335 404
#     4  12  24  43  67  99 142 179 223 272 356 405
#     4  12  25  45  71 104 134 173 237 286 336 407
#
# _framework density 22.537071999999998
#
# number of rings (size 3 to 8) (size 9 to 14) (size 15 to 20)
#    0.000    0.500    5.000    4.875    1.750    3.000 
#    0.000    1.875    0.000    0.000    0.000    0.000 
#    0.000    0.000    0.000    0.000    0.000    0.000 
#
# Total GULP energy -89546.518724 kJ/mol
# GULP energy per Si atom -5596.657420 kJ/mol
# Density = 2.248578 g / cm^3
# Si number density = 22.537072 Si / 1000 Ang^3
#
#
#
# Elastic Constant Matrix: (Units=GPa)
#
#
# Indices 1 2 3 4 5 6 
#
# 1 114.2915 28.9125 2.2720 14.3131 10.0762 28.6758
# 2 28.9125 85.2709 15.1202 29.8859 10.9137 26.6500
# 3 2.2720 15.1202 26.4338 14.7249 6.1213 14.4469
# 4 14.3131 29.8859 14.7249 27.6347 -3.4937 8.0520
# 5 10.0762 10.9137 6.1213 -3.4937 43.2234 9.0264
# 6 28.6758 26.6500 14.4469 8.0520 9.0264 41.7636
#
#
#
# Elastic Compliance Matrix: (Units=1/GPa)
#
#
# Indices 1 2 3 4 5 6 
#
# 1 0.012473 0.001485 0.010826 -0.011283 -0.003575 -0.010309
# 2 0.001485 0.025675 0.012635 -0.032323 -0.008363 -0.013734
# 3 0.010826 0.012635 0.080029 -0.055365 -0.015431 -0.029170
# 4 -0.011283 -0.032323 -0.055365 0.102595 0.022130 0.022962
# 5 -0.003575 -0.008363 -0.015431 0.022130 0.029537 0.002478
# 6 -0.010309 -0.013734 -0.029170 0.022962 0.002478 0.044914
#
#
# Mechanical properties :
#
#
# Convention : Reuss Voigt Hill
#
# Bulk Modulus (GPa) = 5.94998 35.40065 20.67531
# Shear Modulus (GPa) = 16.59170 34.50380 25.54775
#
# Velocity S-wave (km/s) = 2.71624 3.91702 3.37053
# Velocity P-wave (km/s) = 3.53314 6.01658 4.93367
#
# Compressibility (1/GPa) = 0.16806785
#
# Stress axis : x y z
#
# Youngs Moduli (GPa) = 80.17080 38.94843 12.49546
#
# Poissons Ratio (x) = -0.05784 -0.13527
# Poissons Ratio (y) = -0.11905 -0.15788
# Poissons Ratio (z) = -0.86789 -0.49210
#
# Static dielectric constant tensor:
#      x y z
#    x 1.852420 -0.003680 -0.011540 
#    y -0.003680 1.800870 -0.018860 
#    z -0.011540 -0.018860 1.845370 
# 
# From -- ./inp_files/184284.got.cif
#   From: 2010.05.17/outbox.cif.g08.bks.cpg/sg2_93_cif.got.tgz:184284.got - 2010.06.03 11:33:40.
