data_PCOD9111977
_publ_section_title
;
Structure prediction by ZEFSAII (Michael W. Deem and Ramdas Pophale) SiO2 
 PCOD9111977
Probable space group: P -1
;
_chemical_formula_sum "Si O2"
_cell_formula_units_Z 15
_cell_length_a 7.616000
_cell_length_b 19.785541
_cell_length_c 10.275538
_cell_angle_alpha 34.877717
_cell_angle_beta 37.768302
_cell_angle_gamma 47.111901
_cell_volume 540.008381
_symmetry_space_group_name_H-M "P -1"
_symmetry_group_IT_number 2
_symmetry_cell_setting 'triclinic'
loop_
_space_group_symop_operation_xyz
x,y,z
-x,-y,-z
loop_
_atom_site_type_symbol
_atom_site_label
_atom_site_fract_x
_atom_site_fract_y
_atom_site_fract_z
Si Si1 0.221675 0.586575 0.177671
Si Si2 0.864514 0.189331 0.536662
Si Si3 0.165624 0.451131 0.169648
Si Si4 0.915887 0.224331 0.754425
Si Si5 0.000000 0.000000 0.500000
Si Si6 0.782291 0.044743 0.327530
Si Si7 0.250777 0.230728 0.878109
Si Si8 0.693207 0.634833 0.103417
O O1 0.233584 0.551837 0.073361
O O2 0.000000 0.500000 0.500000
O O3 0.046123 0.712895 0.098384
O O4 0.553865 0.564108 0.062714
O O5 0.881816 0.173768 0.707237
O O6 0.537223 0.222977 0.636677
O O7 0.989345 0.068401 0.581818
O O8 0.076679 0.287865 0.223517
O O9 0.142888 0.322583 0.449977
O O10 0.850825 0.500784 0.222049
O O11 0.625828 0.307087 0.833226
O O12 0.935625 0.115193 0.015391
O O13 0.274742 0.918125 0.549613
O O14 0.784709 0.896437 0.839500
O O15 0.500000 0.000000 0.500000
O O16 0.305348 0.324896 0.809387
#
# Coordination Sequence:
#
# PCOD9111977 Si02
#       8
#     2   2   2   2   1   2   2   2
#     4  10  22  41  63  90 143 184 221 299 357 409
#     4  11  22  43  70  96 138 191 224 297 368 414
#     4  10  23  39  63 102 134 182 239 286 357 424
#     4  11  24  40  70 103 136 185 238 297 352 437
#     4  12  26  46  74 104 138 192 242 298 354 438
#     4  12  25  48  72 104 148 185 240 300 365 424
#     4  10  23  41  65  98 135 180 239 286 355 423
#     4  10  20  44  65  96 142 181 229 296 356 420
#
# _framework density 27.777349000000001
#
# number of rings (size 3 to 8) (size 9 to 14) (size 15 to 20)
#    0.000    1.333    2.667    2.400    1.867    4.267 
#    0.000    0.000    0.000    0.000    0.000    0.000 
#    0.000    0.000    0.000    0.000    0.000    0.000 
#
# Total GULP energy -83712.801309 kJ/mol
# GULP energy per Si atom -5580.853421 kJ/mol
# Density = 2.771413 g / cm^3
# Si number density = 27.777349 Si / 1000 Ang^3
#
#
#
# Elastic Constant Matrix: (Units=GPa)
#
#
# Indices 1 2 3 4 5 6 
#
# 1 113.7701 2.5006 21.9660 4.7211 12.9114 -31.5955
# 2 2.5006 126.6461 58.4524 14.8685 0.6014 -12.1296
# 3 21.9660 58.4524 188.2384 -10.9349 3.7309 -36.4361
# 4 4.7211 14.8685 -10.9349 50.8961 -8.4018 2.1114
# 5 12.9114 0.6014 3.7309 -8.4018 45.1253 1.2846
# 6 -31.5955 -12.1296 -36.4361 2.1114 1.2846 54.5693
#
#
#
# Elastic Compliance Matrix: (Units=1/GPa)
#
#
# Indices 1 2 3 4 5 6 
#
# 1 0.011202 0.000858 -0.000348 -0.002266 -0.003798 0.006621
# 2 0.000858 0.009898 -0.003245 -0.003836 -0.000843 0.000699
# 3 -0.000348 -0.003245 0.007240 0.002356 -0.000126 0.003823
# 4 -0.002266 -0.003836 0.002356 0.022327 0.004706 -0.001566
# 5 -0.003798 -0.000843 -0.000126 0.004706 0.024237 -0.003223
# 6 0.006621 0.000699 0.003823 -0.001566 -0.003223 0.025003
#
#
# Mechanical properties :
#
#
# Convention : Reuss Voigt Hill
#
# Bulk Modulus (GPa) = 43.72609 66.05473 54.89041
# Shear Modulus (GPa) = 44.24773 53.16720 48.70746
#
# Velocity S-wave (km/s) = 3.99550 4.37973 4.19202
# Velocity P-wave (km/s) = 6.08779 7.02906 6.57529
#
# Compressibility (1/GPa) = 0.02286964
#
# Stress axis : x y z
#
# Youngs Moduli (GPa) = 89.27069 101.03172 138.12281
#
# Poissons Ratio (x) = -0.08667 0.04811
# Poissons Ratio (y) = -0.07658 0.44814
# Poissons Ratio (z) = 0.03109 0.32780
#
# Static dielectric constant tensor:
#      x y z
#    x 7.937310 4.451260 1.609870 
#    y 4.451260 5.719940 1.274850 
#    z 1.609870 1.274850 2.710190 
# 
# From -- ./inp_files/51461.got.cif
#   From: 2010.05.17/outbox.cif.g08.bks.cpg/sg2_26_cif.got.tgz:51461.got - 2010.06.03 11:33:40.
