data_PCOD9111046
_publ_section_title
;
Structure prediction by ZEFSAII (Michael W. Deem and Ramdas Pophale) SiO2 
 PCOD9111046
Probable space group: P -1
;
_chemical_formula_sum "Si O2"
_cell_formula_units_Z 16
_cell_length_a 8.222004
_cell_length_b 6.239800
_cell_length_c 16.398979
_cell_angle_alpha 66.298314
_cell_angle_beta 94.900758
_cell_angle_gamma 101.113900
_cell_volume 755.885321
_symmetry_space_group_name_H-M "P -1"
_symmetry_group_IT_number 2
_symmetry_cell_setting 'triclinic'
loop_
_space_group_symop_operation_xyz
x,y,z
-x,-y,-z
loop_
_atom_site_type_symbol
_atom_site_label
_atom_site_fract_x
_atom_site_fract_y
_atom_site_fract_z
Si Si1 0.751912 0.443197 0.192368
Si Si2 0.178884 0.942970 0.621166
Si Si3 0.538089 0.281716 0.588796
Si Si4 0.477320 0.189787 0.088893
Si Si5 0.893771 0.236455 0.538407
Si Si6 0.491206 0.666867 0.232055
Si Si7 0.334965 0.556015 0.090800
Si Si8 0.990474 0.282776 0.961882
O O1 0.820130 0.246243 0.278127
O O2 0.615792 0.324444 0.137887
O O3 0.669675 0.604067 0.227982
O O4 0.889303 0.599960 0.121081
O O5 0.147361 0.835931 0.545884
O O6 0.367971 0.089302 0.605855
O O7 0.025723 0.084603 0.604648
O O8 0.500000 0.500000 0.500000
O O9 0.714285 0.216293 0.577883
O O10 0.552753 0.351688 0.673541
O O11 0.312491 0.302290 0.082318
O O12 0.474594 0.921082 0.154581
O O13 0.530880 0.278277 0.986948
O O14 0.000000 0.500000 0.500000
O O15 0.373933 0.490210 0.194781
O O16 0.197321 0.713496 0.068585
O O17 0.000000 0.500000 0.000000
O O18 0.000000 0.000000 0.000000
#
# Coordination Sequence:
#
# PCOD9111046 Si02
#       8
#     2   2   2   2   2   2   2   2
#     4  11  24  43  70  99 139 188 240 298 364 446
#     4  11  25  47  72 104 144 190 244 307 372 453
#     4  12  24  46  75 100 146 191 240 304 377 455
#     4  10  20  42  68  94 136 179 234 292 355 425
#     4  11  25  46  72 106 143 187 240 303 386 446
#     4  11  24  41  68 101 132 185 242 290 368 440
#     4  10  23  40  66  99 137 179 238 300 356 433
#     4  12  27  46  70 104 148 197 244 302 386 449
#
# _framework density 21.167231000000001
#
# number of rings (size 3 to 8) (size 9 to 14) (size 15 to 20)
#    0.000    1.000    3.750    2.250    1.750    2.000 
#    0.000    0.000    0.000    0.000    0.000    0.000 
#    0.000    0.000    0.000    0.000    0.000    0.000 
#
# Total GULP energy -89098.003631 kJ/mol
# GULP energy per Si atom -5568.625227 kJ/mol
# Density = 2.111905 g / cm^3
# Si number density = 21.167231 Si / 1000 Ang^3
#
#
#
# Elastic Constant Matrix: (Units=GPa)
#
#
# Indices 1 2 3 4 5 6 
#
# 1 159.1821 63.4824 59.5010 -3.3080 -5.4873 -38.6954
# 2 63.4824 99.8627 63.8611 -9.4196 -2.3250 -17.9452
# 3 59.5010 63.8611 154.2339 -0.5681 4.3934 -19.3372
# 4 -3.3080 -9.4196 -0.5681 41.2692 -6.9016 1.9856
# 5 -5.4873 -2.3250 4.3934 -6.9016 31.7125 -4.1354
# 6 -38.6954 -17.9452 -19.3372 1.9856 -4.1354 36.5027
#
#
#
# Elastic Compliance Matrix: (Units=1/GPa)
#
#
# Indices 1 2 3 4 5 6 
#
# 1 0.010772 -0.004342 -0.001322 -0.000095 0.002871 0.008914
# 2 -0.004342 0.016615 -0.005140 0.003682 0.002095 0.000879
# 3 -0.001322 -0.005140 0.009281 -0.001546 -0.002119 0.000832
# 4 -0.000095 0.003682 -0.001546 0.026065 0.006162 0.000171
# 5 0.002871 0.002095 -0.002119 0.006162 0.034672 0.006543
# 6 0.008914 0.000879 0.000832 0.000171 0.006543 0.038450
#
#
# Mechanical properties :
#
#
# Convention : Reuss Voigt Hill
#
# Bulk Modulus (GPa) = 66.40696 87.44086 76.92391
# Shear Modulus (GPa) = 30.77219 36.99248 33.88234
#
# Velocity S-wave (km/s) = 3.81696 4.18500 4.00521
# Velocity P-wave (km/s) = 7.13206 8.04683 7.60322
#
# Compressibility (1/GPa) = 0.01505866
#
# Stress axis : x y z
#
# Youngs Moduli (GPa) = 92.83277 60.18502 107.74609
#
# Poissons Ratio (x) = 0.26135 0.14246
# Poissons Ratio (y) = 0.40312 0.55385
# Poissons Ratio (z) = 0.12274 0.30937
#
# Static dielectric constant tensor:
#      x y z
#    x 1.930730 0.057240 0.087250 
#    y 0.057240 1.884510 0.059430 
#    z 0.087250 0.059430 1.727830 
# 
# From -- ./inp_files/488192.got.cif
#   From: 2010.05.17/outbox.cif.g08.bks.cpg/sg2_245_cif.got.tgz:488192.got - 2010.06.03 11:33:40.
