data_PCOD9111280
_publ_section_title
;
Structure prediction by ZEFSAII (Michael W. Deem and Ramdas Pophale) SiO2 
 PCOD9111280
Probable space group: P -1
;
_chemical_formula_sum "Si O2"
_cell_formula_units_Z 16
_cell_length_a 8.455345
_cell_length_b 29.080308
_cell_length_c 6.071300
_cell_angle_alpha 123.638201
_cell_angle_beta 122.866754
_cell_angle_gamma 39.797407
_cell_volume 776.087149
_symmetry_space_group_name_H-M "P -1"
_symmetry_group_IT_number 2
_symmetry_cell_setting 'triclinic'
loop_
_space_group_symop_operation_xyz
x,y,z
-x,-y,-z
loop_
_atom_site_type_symbol
_atom_site_label
_atom_site_fract_x
_atom_site_fract_y
_atom_site_fract_z
Si Si1 0.380124 0.653570 0.159764
Si Si2 0.829954 0.910105 0.153933
Si Si3 0.056852 0.756599 0.783051
Si Si4 0.686434 0.017815 0.944803
Si Si5 0.391605 0.503778 0.181530
Si Si6 0.983250 0.668123 0.214854
Si Si7 0.178062 0.885301 0.693422
Si Si8 0.488127 0.728047 0.738990
O O1 0.195083 0.657345 0.197766
O O2 0.532302 0.674387 0.437819
O O3 0.182492 0.717011 0.004593
O O4 0.567548 0.570103 0.985656
O O5 0.594910 0.945816 0.233138
O O6 0.091313 0.873406 0.371877
O O7 0.866124 0.845365 0.883328
O O8 0.754445 0.974970 0.112080
O O9 0.932436 0.725308 0.510104
O O10 0.293152 0.733207 0.759705
O O11 0.683385 0.083996 0.146107
O O12 0.912637 0.954562 0.790547
O O13 0.500000 0.500000 0.500000
O O14 0.118658 0.586679 0.193164
O O15 0.500000 0.500000 0.000000
O O16 0.738500 0.698615 0.973967
O O17 0.340078 0.810324 0.754725
#
# Coordination Sequence:
#
# PCOD9111280 Si02
#       8
#     2   2   2   2   2   2   2   2
#     4  10  22  42  67  89 130 173 214 260 328 382
#     4  11  22  41  62  87 120 162 211 261 321 390
#     4  11  22  40  62  91 129 165 207 269 319 385
#     4  10  24  40  59  89 117 161 211 258 328 385
#     4  10  20  42  71  99 138 180 225 280 333 401
#     4  10  24  41  65  95 128 170 217 257 332 392
#     4  11  22  41  60  85 125 161 205 267 320 380
#     4  11  24  40  61  96 129 165 215 268 320 394
#
# _framework density 20.616243000000001
#
# number of rings (size 3 to 8) (size 9 to 14) (size 15 to 20)
#    0.000    1.500    3.750    0.750    1.750    2.500 
#    9.000    0.625    0.000    0.000    0.000    0.000 
#    0.000    0.000    0.000    0.000    0.000    0.000 
#
# Total GULP energy -89166.204402 kJ/mol
# GULP energy per Si atom -5572.887775 kJ/mol
# Density = 2.056932 g / cm^3
# Si number density = 20.616243 Si / 1000 Ang^3
#
#
#
# Elastic Constant Matrix: (Units=GPa)
#
#
# Indices 1 2 3 4 5 6 
#
# 1 29.7437 -18.1829 7.7526 3.5593 12.2198 4.3028
# 2 -18.1829 -5.0230 -5.9757 -3.3099 9.1912 3.7266
# 3 7.7526 -5.9757 108.3841 -1.6240 22.0613 -12.6551
# 4 3.5593 -3.3099 -1.6240 43.5122 -3.3752 1.3821
# 5 12.2198 9.1912 22.0613 -3.3752 27.0169 -3.1147
# 6 4.3028 3.7266 -12.6551 1.3821 -3.1147 15.3622
#
#
#
# Elastic Compliance Matrix: (Units=1/GPa)
#
#
# Indices 1 2 3 4 5 6 
#
# 1 0.013814 -0.029639 -0.003840 -0.003058 0.006798 0.001811
# 2 -0.029639 -0.026871 -0.002761 0.001811 0.027089 0.017875
# 3 -0.003840 -0.002761 0.011709 -0.000229 -0.005732 0.010249
# 4 -0.003058 0.001811 -0.000229 0.023691 0.003783 -0.001136
# 5 0.006798 0.027089 -0.005732 0.003783 0.028993 -0.007659
# 6 0.001811 0.017875 0.010249 -0.001136 -0.007659 0.067244
#
#
# Mechanical properties :
#
#
# Convention : Reuss Voigt Hill
#
# Bulk Modulus (GPa) = -13.54467 11.14366 -1.20051
# Shear Modulus (GPa) = 30.03886 27.14564 28.59225
#
# Velocity S-wave (km/s) = 3.82127 3.63259 3.72812
# Velocity P-wave (km/s) = 3.58961 4.79701 4.23654
#
# Compressibility (1/GPa) = -0.07382976
#
# Stress axis : x y z
#
# Youngs Moduli (GPa) = 72.39133 -37.21437 85.40499
#
# Poissons Ratio (x) = -1.10300 0.32798
# Poissons Ratio (y) = 2.14561 0.23582
# Poissons Ratio (z) = 0.27801 -0.10276
#
# Static dielectric constant tensor:
#      x y z
#    x 1.763030 -0.017000 -0.070620 
#    y -0.017000 1.703200 0.030540 
#    z -0.070620 0.030540 1.786600 
# 
# From -- ./inp_files/13147.got.cif
#   From: 2010.05.17/outbox.cif.g08.bks.cpg/sg2_7_cif.got.tgz:13147.got - 2010.06.03 11:33:40.
