data_PCOD9111074
_publ_section_title
;
Structure prediction by ZEFSAII (Michael W. Deem and Ramdas Pophale) SiO2 
 PCOD9111074
Probable space group: P -1
;
_chemical_formula_sum "Si O2"
_cell_formula_units_Z 11
_cell_length_a 10.081625
_cell_length_b 7.289150
_cell_length_c 10.056459
_cell_angle_alpha 47.537880
_cell_angle_beta 90.920843
_cell_angle_gamma 64.262642
_cell_volume 434.691706
_symmetry_space_group_name_H-M "P -1"
_symmetry_group_IT_number 2
_symmetry_cell_setting 'triclinic'
loop_
_space_group_symop_operation_xyz
x,y,z
-x,-y,-z
loop_
_atom_site_type_symbol
_atom_site_label
_atom_site_fract_x
_atom_site_fract_y
_atom_site_fract_z
Si Si1 0.825791 0.734963 0.524393
Si Si2 0.489249 0.139575 0.158364
Si Si3 0.056853 0.856186 0.319663
Si Si4 0.386446 0.638260 0.144040
Si Si5 0.342521 0.864246 0.415662
Si Si6 0.000000 0.000000 0.000000
O O1 0.912561 0.364389 0.702502
O O2 0.950669 0.808594 0.440609
O O3 0.677350 0.888207 0.340212
O O4 0.749794 0.884047 0.590495
O O5 0.410789 0.417512 0.129269
O O6 0.386774 0.003075 0.231547
O O7 0.509812 0.244305 0.966148
O O8 0.222235 0.773221 0.425604
O O9 0.972666 0.155785 0.080940
O O10 0.483824 0.414984 0.379825
O O11 0.195625 0.897890 0.043656
#
# Coordination Sequence:
#
# PCOD9111074 Si02
#       6
#     2   2   2   2   2   1
#     4  10  21  44  67  93 135 180 213 271 337 391
#     4  10  20  42  68  97 130 177 222 267 331 397
#     4  11  24  41  68  99 133 172 223 272 331 394
#     4  10  22  40  69  95 135 175 220 269 333 394
#     4  11  23  44  70  97 130 176 224 274 324 393
#     4  12  22  42  62  98 136 170 210 282 324 388
#
# _framework density 25.305291
#
# number of rings (size 3 to 8) (size 9 to 14) (size 15 to 20)
#    0.000    1.455    1.818    4.909    0.000    2.909 
#    6.545    3.636    0.000    0.000    0.000    0.000 
#    0.000    0.000    0.000    0.000    0.000    0.000 
#
# Total GULP energy -61422.629718 kJ/mol
# GULP energy per Si atom -5583.875429 kJ/mol
# Density = 2.524769 g / cm^3
# Si number density = 25.305291 Si / 1000 Ang^3
#
#
#
# Elastic Constant Matrix: (Units=GPa)
#
#
# Indices 1 2 3 4 5 6 
#
# 1 153.8242 23.7890 17.7235 -0.7133 -22.3964 -35.6231
# 2 23.7890 53.3188 12.5572 -11.1912 -13.2669 -6.1588
# 3 17.7235 12.5572 67.9596 2.8852 -10.1069 -17.2588
# 4 -0.7133 -11.1912 2.8852 37.8437 -19.8240 -7.3608
# 5 -22.3964 -13.2669 -10.1069 -19.8240 59.0788 11.9629
# 6 -35.6231 -6.1588 -17.2588 -7.3608 11.9629 33.9115
#
#
#
# Elastic Compliance Matrix: (Units=1/GPa)
#
#
# Indices 1 2 3 4 5 6 
#
# 1 0.009259 -0.002182 0.000582 0.002370 0.002004 0.009433
# 2 -0.002182 0.025095 -0.003279 0.011989 0.008209 0.000303
# 3 0.000582 -0.003279 0.017464 -0.000283 0.000632 0.008619
# 4 0.002370 0.011989 -0.000283 0.039522 0.015240 0.007725
# 5 0.002004 0.008209 0.000632 0.015240 0.025080 -0.001622
# 6 0.009433 0.000303 0.008619 0.007725 -0.001622 0.046088
#
#
# Mechanical properties :
#
#
# Convention : Reuss Voigt Hill
#
# Bulk Modulus (GPa) = 23.77669 42.58242 33.17956
# Shear Modulus (GPa) = 26.84052 40.90233 33.87143
#
# Velocity S-wave (km/s) = 3.26032 4.02475 3.66254
# Velocity P-wave (km/s) = 4.85688 6.20179 5.57008
#
# Compressibility (1/GPa) = 0.04205800
#
# Stress axis : x y z
#
# Youngs Moduli (GPa) = 108.00606 39.84882 57.26181
#
# Poissons Ratio (x) = 0.08696 -0.03331
# Poissons Ratio (y) = 0.23569 0.18776
# Poissons Ratio (z) = -0.06282 0.13067
#
# Static dielectric constant tensor:
#      x y z
#    x 1.947580 0.057500 -0.034710 
#    y 0.057500 2.055330 -0.106040 
#    z -0.034710 -0.106040 2.605480 
# 
# From -- ./inp_files/146642.got.cif
#   From: 2010.05.17/outbox.cif.g08.bks.cpg/sg2_74_cif.got.tgz:146642.got - 2010.06.03 11:33:40.
