data_PCOD9111549
_publ_section_title
;
Structure prediction by ZEFSAII (Michael W. Deem and Ramdas Pophale) SiO2 
 PCOD9111549
Probable space group: P -1
;
_chemical_formula_sum "Si O2"
_cell_formula_units_Z 15
_cell_length_a 5.260546
_cell_length_b 28.299331
_cell_length_c 5.226757
_cell_angle_alpha 134.027079
_cell_angle_beta 78.124645
_cell_angle_gamma 94.932697
_cell_volume 545.692283
_symmetry_space_group_name_H-M "P -1"
_symmetry_group_IT_number 2
_symmetry_cell_setting 'triclinic'
loop_
_space_group_symop_operation_xyz
x,y,z
-x,-y,-z
loop_
_atom_site_type_symbol
_atom_site_label
_atom_site_fract_x
_atom_site_fract_y
_atom_site_fract_z
Si Si1 0.463970 0.045787 0.933739
Si Si2 0.860763 0.801589 0.946087
Si Si3 0.928831 0.557744 0.029103
Si Si4 0.500000 0.500000 0.500000
Si Si5 0.007813 0.923076 0.132821
Si Si6 0.344467 0.615629 0.829915
Si Si7 0.991165 0.685273 0.792929
Si Si8 0.598237 0.265278 0.453131
O O1 0.179403 0.080880 0.085172
O O2 0.692266 0.094434 0.064253
O O3 0.500000 0.000000 0.500000
O O4 0.500000 0.000000 0.000000
O O5 0.612156 0.782079 0.769738
O O6 0.859720 0.759128 0.048584
O O7 0.132061 0.772598 0.648721
O O8 0.891448 0.878746 0.208051
O O9 0.731337 0.541082 0.784496
O O10 0.234741 0.565137 0.879023
O O11 0.000000 0.500000 0.000000
O O12 0.878199 0.632588 0.429527
O O13 0.517286 0.555858 0.454656
O O14 0.000000 0.000000 0.500000
O O15 0.077886 0.647955 0.890326
O O16 0.495748 0.677118 0.117521
O O17 0.285474 0.696385 0.665823
#
# Coordination Sequence:
#
# PCOD9111549 Si02
#       8
#     2   2   2   1   2   2   2   2
#     4  10  21  40  67  99 141 178 221 280 345 410
#     4  10  20  43  66  90 137 176 217 278 339 402
#     4   9  19  38  57  95 129 168 220 281 343 401
#     4   8  18  36  58  90 124 164 216 276 340 396
#     4  10  21  39  70 101 137 174 228 282 346 413
#     4   9  19  42  57  97 123 174 225 274 344 406
#     4   9  21  39  62  90 134 169 223 276 332 411
#     4   9  21  41  61  90 129 174 218 273 328 405
#
# _framework density 27.488019000000001
#
# number of rings (size 3 to 8) (size 9 to 14) (size 15 to 20)
#    1.600    1.067    0.000    1.200    0.000    2.133 
#    7.200    8.000    0.000    0.000    0.000    0.000 
#    0.000    0.000    0.000    0.000    0.000    0.000 
#
# Total GULP energy -83605.725539 kJ/mol
# GULP energy per Si atom -5573.715036 kJ/mol
# Density = 2.742545 g / cm^3
# Si number density = 27.488019 Si / 1000 Ang^3
#
#
#
# Elastic Constant Matrix: (Units=GPa)
#
#
# Indices 1 2 3 4 5 6 
#
# 1 179.5654 35.3878 30.8724 8.5888 59.2100 -8.5006
# 2 35.3878 191.2961 62.9790 25.5508 33.8183 1.3801
# 3 30.8724 62.9790 69.9970 11.7491 11.7172 0.9088
# 4 8.5888 25.5508 11.7491 48.8917 1.1880 12.5227
# 5 59.2100 33.8183 11.7172 1.1880 40.5745 9.0605
# 6 -8.5006 1.3801 0.9088 12.5227 9.0605 46.4010
#
#
#
# Elastic Compliance Matrix: (Units=1/GPa)
#
#
# Indices 1 2 3 4 5 6 
#
# 1 0.014539 0.004017 -0.005115 -0.005094 -0.024922 0.008886
# 2 0.004017 0.009915 -0.007813 -0.004822 -0.012705 0.004376
# 3 -0.005115 -0.007813 0.022213 0.000157 0.008177 -0.002779
# 4 -0.005094 -0.004822 0.000157 0.026176 0.012961 -0.010388
# 5 -0.024922 -0.012705 0.008177 0.012961 0.073835 -0.022263
# 6 0.008886 0.004376 -0.002779 -0.010388 -0.022263 0.030254
#
#
# Mechanical properties :
#
#
# Convention : Reuss Voigt Hill
#
# Bulk Modulus (GPa) = 34.66883 77.70410 56.18647
# Shear Modulus (GPa) = 24.46528 47.94808 36.20668
#
# Velocity S-wave (km/s) = 2.98658 4.18104 3.63324
# Velocity P-wave (km/s) = 4.95304 7.18595 6.17133
#
# Compressibility (1/GPa) = 0.02884435
#
# Stress axis : x y z
#
# Youngs Moduli (GPa) = 68.78041 100.85292 45.01841
#
# Poissons Ratio (x) = -0.40508 0.23026
# Poissons Ratio (y) = -0.27626 0.35175
# Poissons Ratio (z) = 0.35179 0.78801
#
# Static dielectric constant tensor:
#      x y z
#    x 2.341540 0.076790 -0.063170 
#    y 0.076790 2.321420 -0.109820 
#    z -0.063170 -0.109820 2.036760 
# 
# From -- ./inp_files/14247.got.cif
#   From: 2010.05.17/outbox.cif.g08.bks.cpg/sg2_8_cif.got.tgz:14247.got - 2010.06.03 11:33:40.
