data_PCOD9111436
_publ_section_title
;
Structure prediction by ZEFSAII (Michael W. Deem and Ramdas Pophale) SiO2 
 PCOD9111436
Probable space group: P -1
;
_chemical_formula_sum "Si O2"
_cell_formula_units_Z 14
_cell_length_a 19.112637
_cell_length_b 8.831206
_cell_length_c 15.876810
_cell_angle_alpha 38.461489
_cell_angle_beta 159.285920
_cell_angle_gamma 137.557541
_cell_volume 589.371333
_symmetry_space_group_name_H-M "P -1"
_symmetry_group_IT_number 2
_symmetry_cell_setting 'triclinic'
loop_
_space_group_symop_operation_xyz
x,y,z
-x,-y,-z
loop_
_atom_site_type_symbol
_atom_site_label
_atom_site_fract_x
_atom_site_fract_y
_atom_site_fract_z
Si Si1 0.790315 0.791440 0.043291
Si Si2 0.444845 0.011331 0.161241
Si Si3 0.706873 0.802770 0.261360
Si Si4 0.367332 0.480736 0.247365
Si Si5 0.391798 0.698594 0.541055
Si Si6 0.819895 0.010377 0.693215
Si Si7 0.146376 0.700380 0.740033
O O1 0.827773 0.502477 0.213147
O O2 0.594563 0.820178 0.752668
O O3 0.975631 0.919878 0.150777
O O4 0.736521 0.897578 0.026461
O O5 0.429185 0.718015 0.266400
O O6 0.645104 0.094537 0.397234
O O7 0.426812 0.119781 0.000940
O O8 0.628729 0.570057 0.324646
O O9 0.918180 0.739116 0.486757
O O10 0.749153 0.036027 0.266942
O O11 0.560427 0.353252 0.480121
O O12 0.228393 0.274327 0.222667
O O13 0.243073 0.586529 0.982746
O O14 0.216214 0.849065 0.320050
#
# Coordination Sequence:
#
# PCOD9111436 Si02
#       7
#     2   2   2   2   2   2   2
#     4  10  22  40  59  94 122 162 204 238 317 354
#     4  10  24  42  61  92 124 164 200 249 307 367
#     4  10  20  43  63  90 127 151 212 253 298 364
#     4  10  22  42  64  91 123 159 210 250 302 360
#     4  10  22  41  65  92 118 164 204 257 301 352
#     4  11  22  43  62  91 127 160 202 253 303 365
#     4   9  20  39  64  91 115 163 201 255 298 354
#
# _framework density 23.754124999999998
#
# number of rings (size 3 to 8) (size 9 to 14) (size 15 to 20)
#    0.000    2.000    1.429    0.857    0.000   10.857 
#   18.000    0.000    0.000    0.000    0.000    0.000 
#    0.000    0.000    0.000    0.000    0.000    0.000 
#
# Total GULP energy -78386.322934 kJ/mol
# GULP energy per Si atom -5599.023067 kJ/mol
# Density = 2.370006 g / cm^3
# Si number density = 23.754125 Si / 1000 Ang^3
#
#
#
# Elastic Constant Matrix: (Units=GPa)
#
#
# Indices 1 2 3 4 5 6 
#
# 1 112.3199 70.0203 37.1212 11.2844 39.9989 -8.7099
# 2 70.0203 155.8604 24.1490 -8.9988 19.3105 0.3734
# 3 37.1212 24.1490 71.5841 6.7390 18.1329 5.1162
# 4 11.2844 -8.9988 6.7390 36.5428 3.0491 13.3581
# 5 39.9989 19.3105 18.1329 3.0491 36.9614 -3.5182
# 6 -8.7099 0.3734 5.1162 13.3581 -3.5182 46.8862
#
#
#
# Elastic Compliance Matrix: (Units=1/GPa)
#
#
# Indices 1 2 3 4 5 6 
#
# 1 0.022729 -0.007960 -0.004391 -0.008963 -0.016969 0.006045
# 2 -0.007960 0.010042 -0.000292 0.005848 0.002744 -0.002987
# 3 -0.004391 -0.000292 0.017608 -0.000586 -0.003958 -0.002865
# 4 -0.008963 0.005848 -0.000586 0.035679 0.002885 -0.011597
# 5 -0.016969 0.002744 -0.003958 0.002885 0.045676 -0.000137
# 6 0.006045 -0.002987 -0.002865 -0.011597 -0.000137 0.026081
#
#
# Mechanical properties :
#
#
# Convention : Reuss Voigt Hill
#
# Bulk Modulus (GPa) = 39.85295 66.92727 53.39011
# Shear Modulus (GPa) = 26.11435 37.97636 32.04536
#
# Velocity S-wave (km/s) = 3.31926 4.00275 3.67692
# Velocity P-wave (km/s) = 5.61281 7.04264 6.36799
#
# Compressibility (1/GPa) = 0.02509225
#
# Stress axis : x y z
#
# Youngs Moduli (GPa) = 43.99679 99.58043 56.79363
#
# Poissons Ratio (x) = 0.79268 0.24938
# Poissons Ratio (y) = 0.35022 0.01659
# Poissons Ratio (z) = 0.19319 0.02908
#
# Static dielectric constant tensor:
#      x y z
#    x 1.893840 -0.024860 -0.014150 
#    y -0.024860 1.900820 -0.039420 
#    z -0.014150 -0.039420 1.946880 
# 
# From -- ./inp_files/305519.got.cif
#   From: 2010.05.17/outbox.cif.g08.bks.cpg/sg2_153_cif.got.tgz:305519.got - 2010.06.03 11:33:40.
