data_PCOD9111725
_publ_section_title
;
Structure prediction by ZEFSAII (Michael W. Deem and Ramdas Pophale) SiO2 
 PCOD9111725
Probable space group: P -1
;
_chemical_formula_sum "Si O2"
_cell_formula_units_Z 15
_cell_length_a 9.564287
_cell_length_b 5.831628
_cell_length_c 19.148899
_cell_angle_alpha 46.564263
_cell_angle_beta 62.140199
_cell_angle_gamma 45.857651
_cell_volume 556.408129
_symmetry_space_group_name_H-M "P -1"
_symmetry_group_IT_number 2
_symmetry_cell_setting 'triclinic'
loop_
_space_group_symop_operation_xyz
x,y,z
-x,-y,-z
loop_
_atom_site_type_symbol
_atom_site_label
_atom_site_fract_x
_atom_site_fract_y
_atom_site_fract_z
Si Si1 0.923554 0.491668 0.368012
Si Si2 0.393347 0.432992 0.675583
Si Si3 0.649210 0.623349 0.142299
Si Si4 0.771061 0.585974 0.900986
Si Si5 0.000000 0.500000 0.000000
Si Si6 0.745403 0.375916 0.556963
Si Si7 0.602856 0.542948 0.827342
Si Si8 0.891961 0.096479 0.732121
O O1 0.790803 0.474280 0.344443
O O2 0.799875 0.593280 0.446860
O O3 0.974832 0.796948 0.283441
O O4 0.128126 0.062558 0.413146
O O5 0.340032 0.529573 0.749061
O O6 0.517735 0.560268 0.581771
O O7 0.548004 0.966948 0.740786
O O8 0.590429 0.433490 0.137645
O O9 0.459883 0.076287 0.098542
O O10 0.845184 0.553459 0.085580
O O11 0.876324 0.455014 0.976953
O O12 0.745759 0.332346 0.903726
O O13 0.893357 0.714448 0.801818
O O14 0.832473 0.316498 0.626249
O O15 0.713291 0.300903 0.784417
#
# Coordination Sequence:
#
# PCOD9111725 Si02
#       8
#     2   2   2   2   1   2   2   2
#     4  11  25  36  68  98 131 171 221 264 313 368
#     4  11  22  41  66  94 128 173 214 255 324 385
#     4  10  24  43  66  93 130 165 208 267 322 384
#     4  10  23  44  65  92 132 165 210 266 320 385
#     4  12  26  42  70 100 124 156 222 270 312 388
#     4  11  22  44  60  96 138 168 217 272 305 375
#     4  10  20  43  69  87 126 177 205 258 327 383
#     4  11  20  42  66  91 132 176 208 262 325 372
#
# _framework density 26.958628000000001
#
# number of rings (size 3 to 8) (size 9 to 14) (size 15 to 20)
#    0.000    1.333    5.333    1.200    5.600    0.533 
#    0.000    7.333    0.000    0.000    0.000    0.000 
#    0.000    0.000    0.000    0.000    0.000    0.000 
#
# Total GULP energy -83622.865102 kJ/mol
# GULP energy per Si atom -5574.857673 kJ/mol
# Density = 2.689727 g / cm^3
# Si number density = 26.958628 Si / 1000 Ang^3
#
#
#
# Elastic Constant Matrix: (Units=GPa)
#
#
# Indices 1 2 3 4 5 6 
#
# 1 196.6133 4.8099 82.1361 37.9681 -11.0968 2.8375
# 2 4.8099 35.7300 14.5062 19.3004 -13.3470 -12.4652
# 3 82.1361 14.5062 133.0138 37.0518 -20.5733 -4.0117
# 4 37.9681 19.3004 37.0518 43.2695 -2.0034 -0.8086
# 5 -11.0968 -13.3470 -20.5733 -2.0034 67.7720 20.0588
# 6 2.8375 -12.4652 -4.0117 -0.8086 20.0588 41.6060
#
#
#
# Elastic Compliance Matrix: (Units=1/GPa)
#
#
# Indices 1 2 3 4 5 6 
#
# 1 0.007471 0.003290 -0.003463 -0.005029 0.000768 -0.000326
# 2 0.003290 0.045725 0.000765 -0.023466 0.006074 0.010164
# 3 -0.003463 0.000765 0.012152 -0.007567 0.003042 0.000023
# 4 -0.005029 -0.023466 -0.007567 0.044152 -0.005244 -0.004031
# 5 0.000768 0.006074 0.003042 -0.005244 0.018973 -0.007189
# 6 -0.000326 0.010164 0.000023 -0.004031 -0.007189 0.030492
#
#
# Mechanical properties :
#
#
# Convention : Reuss Voigt Hill
#
# Bulk Modulus (GPa) = 15.03058 63.14017 39.08537
# Shear Modulus (GPa) = 27.78407 48.12318 37.95362
#
# Velocity S-wave (km/s) = 3.21381 4.22960 3.75620
# Velocity P-wave (km/s) = 4.39988 6.87929 5.77424
#
# Compressibility (1/GPa) = 0.06653102
#
# Stress axis : x y z
#
# Youngs Moduli (GPa) = 133.84568 21.86995 82.29220
#
# Poissons Ratio (x) = -0.07194 0.28494
# Poissons Ratio (y) = -0.44030 -0.06291
# Poissons Ratio (z) = 0.46345 -0.01672
#
# Static dielectric constant tensor:
#      x y z
#    x 2.144690 0.055170 0.012270 
#    y 0.055170 2.514060 -0.236870 
#    z 0.012270 -0.236870 2.186840 
# 
# From -- ./inp_files/50439.got.cif
#   From: 2010.05.17/outbox.cif.g08.bks.cpg/sg2_26_cif.got.tgz:50439.got - 2010.06.03 11:33:40.
