data_PCOD9111679
_publ_section_title
;
Structure prediction by ZEFSAII (Michael W. Deem and Ramdas Pophale) SiO2 
 PCOD9111679
Probable space group: P -1
;
_chemical_formula_sum "Si O2"
_cell_formula_units_Z 14
_cell_length_a 10.773294
_cell_length_b 11.445919
_cell_length_c 7.573576
_cell_angle_alpha 93.954579
_cell_angle_beta 41.281274
_cell_angle_gamma 99.723632
_cell_volume 604.877528
_symmetry_space_group_name_H-M "P -1"
_symmetry_group_IT_number 2
_symmetry_cell_setting 'triclinic'
loop_
_space_group_symop_operation_xyz
x,y,z
-x,-y,-z
loop_
_atom_site_type_symbol
_atom_site_label
_atom_site_fract_x
_atom_site_fract_y
_atom_site_fract_z
Si Si1 0.694504 0.373217 0.867560
Si Si2 0.652299 0.520625 0.580230
Si Si3 0.527571 0.848880 0.079207
Si Si4 0.037131 0.688347 0.132966
Si Si5 0.410500 0.718470 0.549062
Si Si6 0.890756 0.906882 0.469172
Si Si7 0.565339 0.941722 0.601023
O O1 0.727976 0.453055 0.662540
O O2 0.645886 0.235106 0.843068
O O3 0.859129 0.380292 0.837418
O O4 0.512988 0.415415 0.158411
O O5 0.571391 0.416216 0.519000
O O6 0.828064 0.611637 0.318551
O O7 0.515211 0.785749 0.275852
O O8 0.524696 0.986106 0.144527
O O9 0.713581 0.838976 0.767171
O O10 0.012073 0.815172 0.251309
O O11 0.181828 0.711177 0.815499
O O12 0.496452 0.801353 0.629360
O O13 0.787205 0.962285 0.422465
O O14 0.000000 0.000000 0.500000
O O15 0.500000 0.000000 0.500000
#
# Coordination Sequence:
#
# PCOD9111679 Si02
#       7
#     2   2   2   2   2   2   2
#     4  10  21  41  69  94 134 175 229 281 335 398
#     4  10  22  42  64  96 132 181 227 273 336 403
#     4  10  20  43  68  93 132 180 221 274 345 401
#     4  12  23  40  65 103 130 170 232 284 332 397
#     4  10  23  41  64  94 136 179 217 276 341 407
#     4  12  24  41  70 106 132 172 237 287 329 408
#     4  10  22  44  69  96 137 181 217 275 354 402
#
# _framework density 23.145178999999999
#
# number of rings (size 3 to 8) (size 9 to 14) (size 15 to 20)
#    0.000    1.429    1.429    3.857    0.000    0.571 
#    2.571   15.714    0.000    0.000    0.000    0.000 
#    0.000    0.000    0.000    0.000    0.000    0.000 
#
# Total GULP energy -78167.669341 kJ/mol
# GULP energy per Si atom -5583.404953 kJ/mol
# Density = 2.309250 g / cm^3
# Si number density = 23.145179 Si / 1000 Ang^3
#
#
#
# Elastic Constant Matrix: (Units=GPa)
#
#
# Indices 1 2 3 4 5 6 
#
# 1 108.2842 44.4634 23.4868 5.2189 2.1166 -7.4065
# 2 44.4634 112.8600 6.8845 14.5131 -2.4832 24.9487
# 3 23.4868 6.8845 67.3451 8.2317 7.3395 -9.1291
# 4 5.2189 14.5131 8.2317 39.8446 3.7502 -0.9461
# 5 2.1166 -2.4832 7.3395 3.7502 37.9741 -1.7058
# 6 -7.4065 24.9487 -9.1291 -0.9461 -1.7058 47.9148
#
#
#
# Elastic Compliance Matrix: (Units=1/GPa)
#
#
# Indices 1 2 3 4 5 6 
#
# 1 0.012638 -0.005934 -0.003323 0.001334 -0.000383 0.004423
# 2 -0.005934 0.013578 -0.000001 -0.004481 0.001301 -0.008030
# 3 -0.003323 -0.000001 0.016989 -0.002758 -0.002711 0.002573
# 4 0.001334 -0.004481 -0.002758 0.027412 -0.002431 0.002469
# 5 -0.000383 0.001301 -0.002711 -0.002431 0.027189 -0.000333
# 6 0.004423 -0.008030 0.002573 0.002469 -0.000333 0.026262
#
#
# Mechanical properties :
#
#
# Convention : Reuss Voigt Hill
#
# Bulk Modulus (GPa) = 40.50196 48.68430 44.59313
# Shear Modulus (GPa) = 33.15335 39.39032 36.27183
#
# Velocity S-wave (km/s) = 3.78882 4.12986 3.96301
# Velocity P-wave (km/s) = 6.05618 6.61974 6.34422
#
# Compressibility (1/GPa) = 0.02469016
#
# Stress axis : x y z
#
# Youngs Moduli (GPa) = 79.12668 73.64663 58.86140
#
# Poissons Ratio (x) = 0.43702 0.19557
# Poissons Ratio (y) = 0.46953 0.00006
# Poissons Ratio (z) = 0.26291 0.00008
#
# Static dielectric constant tensor:
#      x y z
#    x 2.109270 -0.094140 0.011770 
#    y -0.094140 1.919120 -0.024890 
#    z 0.011770 -0.024890 1.830550 
# 
# From -- ./inp_files/262655.got.cif
#   From: 2010.05.17/outbox.cif.g08.bks.cpg/sg2_132_cif.got.tgz:262655.got - 2010.06.03 11:33:40.
