data_PCOD9111794
_publ_section_title
;
Structure prediction by ZEFSAII (Michael W. Deem and Ramdas Pophale) SiO2 
 PCOD9111794
Probable space group: P -1
;
_chemical_formula_sum "Si O2"
_cell_formula_units_Z 12
_cell_length_a 5.819741
_cell_length_b 5.223974
_cell_length_c 17.616431
_cell_angle_alpha 67.731888
_cell_angle_beta 68.052608
_cell_angle_gamma 73.112334
_cell_volume 452.748401
_symmetry_space_group_name_H-M "P -1"
_symmetry_group_IT_number 2
_symmetry_cell_setting 'triclinic'
loop_
_space_group_symop_operation_xyz
x,y,z
-x,-y,-z
loop_
_atom_site_type_symbol
_atom_site_label
_atom_site_fract_x
_atom_site_fract_y
_atom_site_fract_z
Si Si1 0.691111 0.315890 0.552425
Si Si2 0.478760 0.946742 0.218164
Si Si3 0.991576 0.214911 0.759726
Si Si4 0.358836 0.484785 0.889410
Si Si5 0.832044 0.682305 0.614451
Si Si6 0.878573 0.902873 0.948111
O O1 0.500000 0.500000 0.500000
O O2 0.666359 0.485327 0.614709
O O3 0.951386 0.303505 0.475812
O O4 0.680011 0.993080 0.605407
O O5 0.712102 0.900066 0.254918
O O6 0.580618 0.691566 0.175347
O O7 0.178969 0.940751 0.257950
O O8 0.489155 0.259773 0.150160
O O9 0.946778 0.523755 0.693237
O O10 0.867238 0.162846 0.862406
O O11 0.074881 0.662228 0.907869
O O12 0.348700 0.256376 0.982504
O O13 0.000000 0.000000 0.000000
#
# Coordination Sequence:
#
# PCOD9111794 Si02
#       6
#     2   2   2   2   2   2
#     4  10  22  46  75 104 139 185 228 286 362 438
#     4  11  26  44  68  96 142 184 238 294 351 408
#     4  11  26  47  67 108 141 186 236 297 351 418
#     4  10  21  43  65  97 129 194 238 289 346 411
#     4  10  24  43  70 108 140 182 234 291 354 434
#     4  10  20  43  70  97 139 188 241 291 351 407
#
# _framework density 26.504785999999999
#
# number of rings (size 3 to 8) (size 9 to 14) (size 15 to 20)
#    0.000    1.667    3.333    0.500    2.333    8.000 
#    3.000    0.000    0.000    0.000    0.000    0.000 
#    0.000    0.000    0.000    0.000    0.000    0.000 
#
# Total GULP energy -67002.981308 kJ/mol
# GULP energy per Si atom -5583.581776 kJ/mol
# Density = 2.644446 g / cm^3
# Si number density = 26.504786 Si / 1000 Ang^3
#
#
#
# Elastic Constant Matrix: (Units=GPa)
#
#
# Indices 1 2 3 4 5 6 
#
# 1 157.6999 60.0389 45.5216 -10.4084 10.8322 0.5604
# 2 60.0389 225.9301 62.6908 -22.4552 17.1008 -1.2980
# 3 45.5216 62.6908 135.7732 -21.2862 24.0024 -5.5991
# 4 -10.4084 -22.4552 -21.2862 54.7177 -15.2428 0.4719
# 5 10.8322 17.1008 24.0024 -15.2428 62.7426 -11.0202
# 6 0.5604 -1.2980 -5.5991 0.4719 -11.0202 33.2038
#
#
#
# Elastic Compliance Matrix: (Units=1/GPa)
#
#
# Indices 1 2 3 4 5 6 
#
# 1 0.007437 -0.001457 -0.001785 0.000045 -0.000295 -0.000582
# 2 -0.001457 0.005451 -0.001799 0.001180 -0.000290 -0.000179
# 3 -0.001785 -0.001799 0.009535 0.002006 -0.002221 0.000802
# 4 0.000045 0.001180 0.002006 0.020704 0.004193 0.001481
# 5 -0.000295 -0.000290 -0.002221 0.004193 0.018965 0.005854
# 6 -0.000582 -0.000179 0.000802 0.001481 0.005854 0.032177
#
#
# Mechanical properties :
#
#
# Convention : Reuss Voigt Hill
#
# Bulk Modulus (GPa) = 81.04672 95.10064 88.07368
# Shear Modulus (GPa) = 46.09801 53.54296 49.82048
#
# Velocity S-wave (km/s) = 4.17494 4.49946 4.34023
# Velocity P-wave (km/s) = 7.34062 7.93422 7.64319
#
# Compressibility (1/GPa) = 0.01233856
#
# Stress axis : x y z
#
# Youngs Moduli (GPa) = 134.46944 183.45374 104.88090
#
# Poissons Ratio (x) = 0.26737 0.18723
# Poissons Ratio (y) = 0.19598 0.18870
# Poissons Ratio (z) = 0.24006 0.33007
#
# Static dielectric constant tensor:
#      x y z
#    x 2.140700 -0.018400 -0.040000 
#    y -0.018400 2.091610 -0.054950 
#    z -0.040000 -0.054950 2.205940 
# 
# From -- ./inp_files/545549.got.cif
#   From: 2010.05.17/outbox.cif.g08.bks.cpg/sg2_273_cif.got.tgz:545549.got - 2010.06.03 11:33:40.
