data_PCOD9111229
_publ_section_title
;
Structure prediction by ZEFSAII (Michael W. Deem and Ramdas Pophale) SiO2 
 PCOD9111229
Probable space group: P -1
;
_chemical_formula_sum "Si O2"
_cell_formula_units_Z 15
_cell_length_a 25.246511
_cell_length_b 20.548828
_cell_length_c 9.316876
_cell_angle_alpha 39.530574
_cell_angle_beta 139.437131
_cell_angle_gamma 166.345571
_cell_volume 724.566345
_symmetry_space_group_name_H-M "P -1"
_symmetry_group_IT_number 2
_symmetry_cell_setting 'triclinic'
loop_
_space_group_symop_operation_xyz
x,y,z
-x,-y,-z
loop_
_atom_site_type_symbol
_atom_site_label
_atom_site_fract_x
_atom_site_fract_y
_atom_site_fract_z
Si Si1 0.304821 0.212654 0.900795
Si Si2 0.213102 0.236684 0.936134
Si Si3 0.979749 0.601574 0.945868
Si Si4 0.148695 0.800004 0.279926
Si Si5 0.000000 0.000000 0.500000
Si Si6 0.345178 0.818861 0.630693
Si Si7 0.729435 0.519997 0.577422
Si Si8 0.640673 0.039815 0.089456
O O1 0.170689 0.109539 0.932701
O O2 0.566305 0.541533 0.903020
O O3 0.199218 0.145104 0.662827
O O4 0.260729 0.041217 0.107625
O O5 0.272893 0.413178 0.682281
O O6 0.000000 0.000000 0.000000
O O7 0.173447 0.801178 0.892355
O O8 0.893103 0.615367 0.731666
O O9 0.075533 0.697105 0.139167
O O10 0.773020 0.283218 0.031733
O O11 0.309303 0.892690 0.488203
O O12 0.910582 0.517957 0.353392
O O13 0.819202 0.701029 0.577965
O O14 0.500000 0.000000 0.500000
O O15 0.461856 0.883759 0.878934
O O16 0.491447 0.193473 0.685791
#
# Coordination Sequence:
#
# PCOD9111229 Si02
#       8
#     2   2   2   2   1   2   2   2
#     4  10  22  44  67  94 133 166 221 277 338 398
#     4  10  25  46  68  97 130 175 225 276 343 404
#     4  11  23  41  64  97 134 173 228 265 327 396
#     4  11  23  40  63  94 130 173 218 272 329 391
#     4  10  20  42  70  96 124 172 216 278 338 390
#     4  11  23  39  62  94 133 173 215 267 325 388
#     4  11  23  43  68  92 135 175 218 279 332 392
#     4  11  24  42  64  97 135 177 224 269 325 400
#
# _framework density 20.702038000000002
#
# number of rings (size 3 to 8) (size 9 to 14) (size 15 to 20)
#    0.000    1.333    4.000    0.400    1.867    5.333 
#    4.800    3.333    0.000    0.000    0.000    0.000 
#    0.000    0.000    0.000    0.000    0.000    0.000 
#
# Total GULP energy -83583.268896 kJ/mol
# GULP energy per Si atom -5572.217926 kJ/mol
# Density = 2.065492 g / cm^3
# Si number density = 20.702038 Si / 1000 Ang^3
#
#
#
# Elastic Constant Matrix: (Units=GPa)
#
#
# Indices 1 2 3 4 5 6 
#
# 1 92.5201 42.6218 14.1895 -23.8744 14.5868 7.0217
# 2 42.6218 69.7364 24.1155 -19.0199 6.8235 11.2887
# 3 14.1895 24.1155 75.9065 -18.0670 10.1582 10.0855
# 4 -23.8744 -19.0199 -18.0670 18.8743 -1.7339 3.0385
# 5 14.5868 6.8235 10.1582 -1.7339 37.4783 -7.9187
# 6 7.0217 11.2887 10.0855 3.0385 -7.9187 36.7100
#
#
#
# Elastic Compliance Matrix: (Units=1/GPa)
#
#
# Indices 1 2 3 4 5 6 
#
# 1 0.022377 -0.005371 0.007437 0.030581 -0.010325 -0.009430
# 2 -0.005371 0.024555 -0.000959 0.018107 -0.003062 -0.008419
# 3 0.007437 -0.000959 0.022337 0.030838 -0.009871 -0.011946
# 4 0.030581 0.018107 0.030838 0.143125 -0.024771 -0.037079
# 5 -0.010325 -0.003062 -0.009871 -0.024771 0.036053 0.015456
# 6 -0.009430 -0.008419 -0.011946 -0.037079 0.015456 0.041318
#
#
# Mechanical properties :
#
#
# Convention : Reuss Voigt Hill
#
# Bulk Modulus (GPa) = 13.98935 44.44628 29.21782
# Shear Modulus (GPa) = 16.05764 29.09492 22.57628
#
# Velocity S-wave (km/s) = 2.78808 3.75295 3.30591
# Velocity P-wave (km/s) = 4.13965 6.34789 5.35875
#
# Compressibility (1/GPa) = 0.07148293
#
# Stress axis : x y z
#
# Youngs Moduli (GPa) = 44.68893 40.72542 44.76884
#
# Poissons Ratio (x) = 0.21872 -0.33294
# Poissons Ratio (y) = 0.24001 0.04293
# Poissons Ratio (z) = -0.33234 0.03905
#
# Static dielectric constant tensor:
#      x y z
#    x 1.730150 -0.014450 -0.020310 
#    y -0.014450 1.732560 0.039110 
#    z -0.020310 0.039110 1.805080 
# 
# From -- ./inp_files/359014.got.cif
#   From: 2010.05.17/outbox.cif.g08.bks.cpg/sg2_180_cif.got.tgz:359014.got - 2010.06.03 11:33:40.
