data_PCOD9111486
_publ_section_title
;
Structure prediction by ZEFSAII (Michael W. Deem and Ramdas Pophale) SiO2 
 PCOD9111486
Probable space group: P -1
;
_chemical_formula_sum "Si O2"
_cell_formula_units_Z 16
_cell_length_a 9.341396
_cell_length_b 20.861419
_cell_length_c 5.165949
_cell_angle_alpha 88.700246
_cell_angle_beta 109.457774
_cell_angle_gamma 127.940116
_cell_volume 725.803227
_symmetry_space_group_name_H-M "P -1"
_symmetry_group_IT_number 2
_symmetry_cell_setting 'triclinic'
loop_
_space_group_symop_operation_xyz
x,y,z
-x,-y,-z
loop_
_atom_site_type_symbol
_atom_site_label
_atom_site_fract_x
_atom_site_fract_y
_atom_site_fract_z
Si Si1 0.004615 0.418734 0.719588
Si Si2 0.228718 0.600437 0.921330
Si Si3 0.067347 0.738240 0.103449
Si Si4 0.942769 0.837209 0.935060
Si Si5 0.334693 0.817947 0.753850
Si Si6 0.196710 0.078626 0.466880
Si Si7 0.590345 0.784586 0.037938
Si Si8 0.365021 0.006969 0.238883
O O1 0.906340 0.400034 0.378432
O O2 0.031052 0.353583 0.840601
O O3 0.196144 0.516870 0.842825
O O4 0.854435 0.408125 0.842332
O O5 0.450039 0.688145 0.037448
O O6 0.193957 0.795960 0.425625
O O7 0.208237 0.765814 0.936413
O O8 0.923054 0.755588 0.916907
O O9 0.856563 0.867275 0.691258
O O10 0.810532 0.820625 0.104241
O O11 0.176630 0.914485 0.050951
O O12 0.481846 0.918337 0.872677
O O13 0.461627 0.789239 0.748105
O O14 0.375427 0.147478 0.752334
O O15 0.263203 0.040118 0.320051
O O16 0.000000 0.000000 0.500000
O O17 0.500000 0.000000 0.500000
#
# Coordination Sequence:
#
# PCOD9111486 Si02
#       8
#     2   2   2   2   2   2   2   2
#     4  10  20  43  65 108 130 168 221 288 335 394
#     4  10  22  37  74  99 135 168 225 278 339 402
#     4  12  25  44  69 101 137 172 227 283 338 399
#     4  12  28  42  63  97 138 182 223 280 347 404
#     4  12  25  43  69  97 130 181 228 280 329 398
#     4  12  26  45  65  93 139 184 225 283 338 407
#     4  12  24  44  67  96 133 182 226 273 341 408
#     4  12  25  45  65  97 131 179 238 287 330 390
#
# _framework density 22.044542
#
# number of rings (size 3 to 8) (size 9 to 14) (size 15 to 20)
#    0.000    0.500    6.250    1.875    5.250    0.500 
#    0.000    0.625    0.000    0.750    0.000    0.000 
#    0.000    0.000    0.000    0.000    0.000    0.000 
#
# Total GULP energy -89278.729235 kJ/mol
# GULP energy per Si atom -5579.920577 kJ/mol
# Density = 2.199437 g / cm^3
# Si number density = 22.044542 Si / 1000 Ang^3
#
#
#
# Elastic Constant Matrix: (Units=GPa)
#
#
# Indices 1 2 3 4 5 6 
#
# 1 64.0980 4.5924 10.5991 -23.7599 8.2798 -7.8418
# 2 4.5924 164.3947 20.5479 -16.9124 2.6028 -15.8891
# 3 10.5991 20.5479 56.5994 -15.5098 4.1556 1.8322
# 4 -23.7599 -16.9124 -15.5098 35.0509 -9.6067 8.2643
# 5 8.2798 2.6028 4.1556 -9.6067 34.9300 -15.7322
# 6 -7.8418 -15.8891 1.8322 8.2643 -15.7322 36.7469
#
#
#
# Elastic Compliance Matrix: (Units=1/GPa)
#
#
# Indices 1 2 3 4 5 6 
#
# 1 0.021086 0.001091 -0.000506 0.014096 -0.000396 0.001657
# 2 0.001091 0.006922 -0.002202 0.002782 0.001825 0.003492
# 3 -0.000506 -0.002202 0.021228 0.008576 -0.002113 -0.004952
# 4 0.014096 0.002782 0.008576 0.045856 0.006321 -0.003823
# 5 -0.000396 0.001825 -0.002113 0.006321 0.037539 0.015460
# 6 0.001657 0.003492 -0.004952 -0.003823 0.015460 0.036802
#
#
# Mechanical properties :
#
#
# Convention : Reuss Voigt Hill
#
# Bulk Modulus (GPa) = 21.73874 39.61899 30.67886
# Shear Modulus (GPa) = 26.59537 37.96909 32.28223
#
# Velocity S-wave (km/s) = 3.47715 4.15466 3.83091
# Velocity P-wave (km/s) = 5.09936 6.40517 5.78920
#
# Compressibility (1/GPa) = 0.04600082
#
# Stress axis : x y z
#
# Youngs Moduli (GPa) = 47.42527 144.45671 47.10819
#
# Poissons Ratio (x) = -0.15758 0.02386
# Poissons Ratio (y) = -0.05173 0.10373
# Poissons Ratio (z) = 0.02402 0.31810
#
# Static dielectric constant tensor:
#      x y z
#    x 3.323420 -0.406140 1.446520 
#    y -0.406140 1.988020 -0.467320 
#    z 1.446520 -0.467320 3.433030 
# 
# From -- ./inp_files/51854.got.cif
#   From: 2010.05.17/outbox.cif.g08.bks.cpg/sg2_26_cif.got.tgz:51854.got - 2010.06.03 11:33:40.
