data_PCOD9111803
_publ_section_title
;
Structure prediction by ZEFSAII (Michael W. Deem and Ramdas Pophale) SiO2 
 PCOD9111803
Probable space group: P -1
;
_chemical_formula_sum "Si O2"
_cell_formula_units_Z 14
_cell_length_a 10.596019
_cell_length_b 12.242333
_cell_length_c 12.074838
_cell_angle_alpha 143.812911
_cell_angle_beta 43.347668
_cell_angle_gamma 131.181706
_cell_volume 624.845435
_symmetry_space_group_name_H-M "P -1"
_symmetry_group_IT_number 2
_symmetry_cell_setting 'triclinic'
loop_
_space_group_symop_operation_xyz
x,y,z
-x,-y,-z
loop_
_atom_site_type_symbol
_atom_site_label
_atom_site_fract_x
_atom_site_fract_y
_atom_site_fract_z
Si Si1 0.374673 0.225954 0.233109
Si Si2 0.117991 0.847900 0.350725
Si Si3 0.875873 0.245489 0.331519
Si Si4 0.227949 0.822395 0.020343
Si Si5 0.130351 0.502229 0.658833
Si Si6 0.296571 0.164272 0.984715
Si Si7 0.616978 0.158692 0.630859
O O1 0.556616 0.188401 0.149311
O O2 0.318851 0.414866 0.467530
O O3 0.396948 0.220927 0.083251
O O4 0.213810 0.040696 0.198099
O O5 0.282061 0.924236 0.396367
O O6 0.009542 0.671710 0.343564
O O7 0.188364 0.765821 0.125564
O O8 0.000000 0.000000 0.500000
O O9 0.878822 0.426388 0.401436
O O10 0.774657 0.258584 0.525438
O O11 0.756855 0.059721 0.193636
O O12 0.091389 0.217651 0.171358
O O13 0.114328 0.680577 0.891318
O O14 0.450644 0.253550 0.868174
O O15 0.500000 0.000000 0.500000
#
# Coordination Sequence:
#
# PCOD9111803 Si02
#       7
#     2   2   2   2   2   2   2
#     4  11  22  41  71  94 141 180 234 292 362 421
#     4  12  25  45  72 104 146 189 240 301 367 427
#     4  10  23  42  71 103 142 182 244 290 360 428
#     4  11  24  44  67 102 141 184 236 293 362 432
#     4  12  25  44  70 105 141 187 239 299 359 431
#     4  10  20  43  70  99 137 191 228 296 360 422
#     4  10  23  44  73 106 141 191 242 294 362 434
#
# _framework density 22.405539999999998
#
# number of rings (size 3 to 8) (size 9 to 14) (size 15 to 20)
#    0.000    1.143    4.286    1.714    0.000    3.429 
#    7.714    1.429    0.000    0.000    0.000    0.000 
#    0.000    0.000    0.000    0.000    0.000    0.000 
#
# Total GULP energy -77998.629080 kJ/mol
# GULP energy per Si atom -5571.330649 kJ/mol
# Density = 2.235454 g / cm^3
# Si number density = 22.405540 Si / 1000 Ang^3
#
#
#
# Elastic Constant Matrix: (Units=GPa)
#
#
# Indices 1 2 3 4 5 6 
#
# 1 83.1006 32.9274 18.5986 -11.5105 10.1240 -2.7792
# 2 32.9274 124.3721 61.8918 -18.2768 -2.5139 -18.0656
# 3 18.5986 61.8918 87.5685 -31.3933 8.7369 -2.3530
# 4 -11.5105 -18.2768 -31.3933 39.6669 -2.7297 7.4077
# 5 10.1240 -2.5139 8.7369 -2.7297 39.5248 -4.0912
# 6 -2.7792 -18.0656 -2.3530 7.4077 -4.0912 27.3470
#
#
#
# Elastic Compliance Matrix: (Units=1/GPa)
#
#
# Indices 1 2 3 4 5 6 
#
# 1 0.014492 -0.004926 0.002201 0.003989 -0.004584 -0.003359
# 2 -0.004926 0.017047 -0.013472 -0.006086 0.006164 0.012172
# 3 0.002201 -0.013472 0.027268 0.017788 -0.007490 -0.012269
# 4 0.003989 -0.006086 0.017788 0.039885 -0.003982 -0.013484
# 5 -0.004584 0.006164 -0.007490 -0.003982 0.029116 0.008396
# 6 -0.003359 0.012172 -0.012269 -0.013484 0.008396 0.048120
#
#
# Mechanical properties :
#
#
# Convention : Reuss Voigt Hill
#
# Bulk Modulus (GPa) = 37.86017 57.98631 47.92324
# Shear Modulus (GPa) = 23.02797 33.41594 28.22196
#
# Velocity S-wave (km/s) = 3.20938 3.86607 3.55293
# Velocity P-wave (km/s) = 5.53786 6.77239 6.18600
#
# Compressibility (1/GPa) = 0.02641298
#
# Stress axis : x y z
#
# Youngs Moduli (GPa) = 69.00535 58.66128 36.67242
#
# Poissons Ratio (x) = 0.28898 -0.08072
# Poissons Ratio (y) = 0.33994 0.49405
# Poissons Ratio (z) = -0.15189 0.79028
#
# Static dielectric constant tensor:
#      x y z
#    x 1.900740 0.070690 -0.030030 
#    y 0.070690 1.893770 -0.066870 
#    z -0.030030 -0.066870 1.901050 
# 
# From -- ./inp_files/426795.got.cif
#   From: 2010.05.17/outbox.cif.g08.bks.cpg/sg2_214_cif.got.tgz:426795.got - 2010.06.03 11:33:40.
