data_PCOD9111333
_publ_section_title
;
Structure prediction by ZEFSAII (Michael W. Deem and Ramdas Pophale) SiO2 
 PCOD9111333
Probable space group: P -1
;
_chemical_formula_sum "Si O2"
_cell_formula_units_Z 14
_cell_length_a 8.287627
_cell_length_b 11.864846
_cell_length_c 16.327074
_cell_angle_alpha 22.321354
_cell_angle_beta 80.259590
_cell_angle_gamma 84.068107
_cell_volume 594.875515
_symmetry_space_group_name_H-M "P -1"
_symmetry_group_IT_number 2
_symmetry_cell_setting 'triclinic'
loop_
_space_group_symop_operation_xyz
x,y,z
-x,-y,-z
loop_
_atom_site_type_symbol
_atom_site_label
_atom_site_fract_x
_atom_site_fract_y
_atom_site_fract_z
Si Si1 0.470013 0.687979 0.296299
Si Si2 0.902228 0.543808 0.897236
Si Si3 0.443691 0.706288 0.937446
Si Si4 0.222875 0.919342 0.368513
Si Si5 0.896243 0.172650 0.733413
Si Si6 0.360817 0.649725 0.162276
Si Si7 0.013053 0.400279 0.812556
O O1 0.500000 0.500000 0.500000
O O2 0.289731 0.792595 0.249830
O O3 0.451999 0.540337 0.306822
O O4 0.602004 0.987676 0.082441
O O5 0.826265 0.851474 0.712770
O O6 0.008627 0.549137 0.802833
O O7 0.747865 0.277081 0.076485
O O8 0.000000 0.500000 0.000000
O O9 0.585218 0.989852 0.731354
O O10 0.500000 0.500000 0.000000
O O11 0.435227 0.570279 0.121503
O O12 0.120800 0.963370 0.265041
O O13 0.162946 0.580875 0.628306
O O14 0.969244 0.944263 0.940835
O O15 0.000000 0.500000 0.500000
O O16 0.163310 0.559204 0.239322
#
# Coordination Sequence:
#
# PCOD9111333 Si02
#       7
#     2   2   2   2   2   2   2
#     4  11  24  43  67  94 136 180 239 288 343 413
#     4  10  20  42  72  99 137 183 227 291 357 419
#     4   9  20  41  70  96 140 176 226 286 348 418
#     4  11  22  42  66 101 138 181 230 290 349 418
#     4  12  25  42  66  99 141 186 234 291 352 410
#     4  10  22  43  66  98 130 186 223 281 350 415
#     4  11  24  42  71 101 141 178 240 287 351 425
#
# _framework density 23.534336
#
# number of rings (size 3 to 8) (size 9 to 14) (size 15 to 20)
#    0.000    1.429    2.857    2.143    0.000    4.571 
#    0.000    0.714    0.000    0.000    0.000    0.000 
#    0.000    0.000    0.000    0.000    0.000    0.000 
#
# Total GULP energy -78287.748132 kJ/mol
# GULP energy per Si atom -5591.982009 kJ/mol
# Density = 2.348077 g / cm^3
# Si number density = 23.534336 Si / 1000 Ang^3
#
#
#
# Elastic Constant Matrix: (Units=GPa)
#
#
# Indices 1 2 3 4 5 6 
#
# 1 72.7094 26.0473 50.8441 12.0212 -13.7406 13.7495
# 2 26.0473 135.7323 25.7963 27.5213 5.2777 20.0622
# 3 50.8441 25.7963 133.4470 9.3247 -13.3063 20.2995
# 4 12.0212 27.5213 9.3247 40.3785 6.3288 4.4700
# 5 -13.7406 5.2777 -13.3063 6.3288 44.7985 -2.4458
# 6 13.7495 20.0622 20.2995 4.4700 -2.4458 42.3230
#
#
#
# Elastic Compliance Matrix: (Units=1/GPa)
#
#
# Indices 1 2 3 4 5 6 
#
# 1 0.021040 -0.001864 -0.006537 -0.004067 0.005192 -0.002087
# 2 -0.001864 0.009368 -0.000376 -0.005199 -0.001226 -0.003176
# 3 -0.006537 -0.000376 0.010580 -0.000106 0.001049 -0.002700
# 4 -0.004067 -0.005199 -0.000106 0.030277 -0.004924 0.000354
# 5 0.005192 -0.001226 0.001049 -0.004924 0.025086 0.000361
# 6 -0.002087 -0.003176 -0.002700 0.000354 0.000361 0.027090
#
#
# Mechanical properties :
#
#
# Convention : Reuss Voigt Hill
#
# Bulk Modulus (GPa) = 42.67417 60.80710 51.74063
# Shear Modulus (GPa) = 33.60030 41.44673 37.52352
#
# Velocity S-wave (km/s) = 3.78261 4.20112 3.99735
# Velocity P-wave (km/s) = 6.10325 7.03038 6.58315
#
# Compressibility (1/GPa) = 0.02343338
#
# Stress axis : x y z
#
# Youngs Moduli (GPa) = 47.52739 106.74492 94.51979
#
# Poissons Ratio (x) = 0.19900 0.61786
# Poissons Ratio (y) = 0.08860 0.03558
# Poissons Ratio (z) = 0.31068 0.04018
#
# Static dielectric constant tensor:
#      x y z
#    x 1.908750 -0.029670 -0.010680 
#    y -0.029670 1.957680 -0.012770 
#    z -0.010680 -0.012770 1.880490 
# 
# From -- ./inp_files/499719.got.cif
#   From: 2010.05.17/outbox.cif.g08.bks.cpg/sg2_250_cif.got.tgz:499719.got - 2010.06.03 11:33:40.
