data_PCOD9111997
_publ_section_title
;
Structure prediction by ZEFSAII (Michael W. Deem and Ramdas Pophale) SiO2 
 PCOD9111997
Probable space group: P -1
;
_chemical_formula_sum "Si O2"
_cell_formula_units_Z 16
_cell_length_a 7.781398
_cell_length_b 7.380388
_cell_length_c 22.248465
_cell_angle_alpha 123.459122
_cell_angle_beta 35.422779
_cell_angle_gamma 118.137430
_cell_volume 617.189184
_symmetry_space_group_name_H-M "P -1"
_symmetry_group_IT_number 2
_symmetry_cell_setting 'triclinic'
loop_
_space_group_symop_operation_xyz
x,y,z
-x,-y,-z
loop_
_atom_site_type_symbol
_atom_site_label
_atom_site_fract_x
_atom_site_fract_y
_atom_site_fract_z
Si Si1 0.979480 0.728993 0.011749
Si Si2 0.066608 0.532005 0.832737
Si Si3 0.615362 0.994754 0.621828
Si Si4 0.882392 0.733289 0.411717
Si Si5 0.039628 0.896223 0.146757
Si Si6 0.288860 0.374508 0.374679
Si Si7 0.324906 0.618838 0.181895
Si Si8 0.145078 0.314018 0.271218
O O1 0.108147 0.894804 0.055965
O O2 0.626195 0.747053 0.104066
O O3 0.000000 0.500000 0.000000
O O4 0.110585 0.714872 0.905059
O O5 0.906495 0.328764 0.876570
O O6 0.390507 0.498903 0.705082
O O7 0.826410 0.554431 0.852686
O O8 0.624454 0.887176 0.533131
O O9 0.653870 0.802814 0.623625
O O10 0.314054 0.095359 0.744571
O O11 0.872820 0.179849 0.592732
O O12 0.859482 0.471264 0.375833
O O13 0.053120 0.767746 0.306351
O O14 0.147522 0.098909 0.192516
O O15 0.000000 0.500000 0.500000
O O16 0.204677 0.276182 0.316087
O O17 0.379101 0.480708 0.201856
#
# Coordination Sequence:
#
# PCOD9111997 Si02
#       8
#     2   2   2   2   2   2   2   2
#     4  10  21  42  68  93 129 173 215 269 326 381
#     4  11  25  42  66  96 129 173 221 267 327 387
#     4  11  21  39  67  90 125 176 213 264 329 379
#     4   9  21  38  66  88 129 165 214 260 327 377
#     4  11  23  40  65  96 131 171 219 267 326 385
#     4  12  24  43  66  97 131 172 217 272 323 386
#     4  10  20  44  66  93 131 171 210 274 318 383
#     4  10  22  39  62  95 130 165 215 261 323 380
#
# _framework density 25.92398
#
# number of rings (size 3 to 8) (size 9 to 14) (size 15 to 20)
#    0.750    0.750    2.500    3.375    3.500    1.500 
#    0.000    9.375    0.000    0.000    0.000    0.000 
#    0.000    0.000    0.000    0.000    0.000    0.000 
#
# Total GULP energy -89298.120204 kJ/mol
# GULP energy per Si atom -5581.132513 kJ/mol
# Density = 2.586498 g / cm^3
# Si number density = 25.923980 Si / 1000 Ang^3
#
#
#
# Elastic Constant Matrix: (Units=GPa)
#
#
# Indices 1 2 3 4 5 6 
#
# 1 79.5493 15.5527 44.5612 1.9254 22.5473 3.5372
# 2 15.5527 74.3986 26.8959 4.0258 15.1127 8.8127
# 3 44.5612 26.8959 129.7163 5.9055 39.1641 21.0630
# 4 1.9254 4.0258 5.9055 32.5764 7.7491 8.1441
# 5 22.5473 15.1127 39.1641 7.7491 28.4342 1.4360
# 6 3.5372 8.8127 21.0630 8.1441 1.4360 37.0132
#
#
#
# Elastic Compliance Matrix: (Units=1/GPa)
#
#
# Indices 1 2 3 4 5 6 
#
# 1 0.017010 -0.000664 -0.002898 0.001863 -0.009659 0.000147
# 2 -0.000664 0.015537 -0.000225 0.000783 -0.007463 -0.003390
# 3 -0.002898 -0.000225 0.016313 0.004474 -0.020809 -0.009130
# 4 0.001863 0.000783 0.004474 0.036392 -0.017457 -0.010241
# 5 -0.009659 -0.007463 -0.020809 -0.017457 0.079441 0.015301
# 6 0.000147 -0.003390 -0.009130 -0.010241 0.015301 0.034666
#
#
# Mechanical properties :
#
#
# Convention : Reuss Voigt Hill
#
# Bulk Modulus (GPa) = 24.22228 50.85375 37.53802
# Shear Modulus (GPa) = 22.65571 32.71505 27.68538
#
# Velocity S-wave (km/s) = 2.95944 3.55626 3.27149
# Velocity P-wave (km/s) = 4.58711 6.04332 5.36485
#
# Compressibility (1/GPa) = 0.04128430
#
# Stress axis : x y z
#
# Youngs Moduli (GPa) = 58.78821 64.36429 61.30093
#
# Poissons Ratio (x) = 0.04276 0.17766
# Poissons Ratio (y) = 0.03906 0.01380
# Poissons Ratio (z) = 0.17038 0.01449
#
# Static dielectric constant tensor:
#      x y z
#    x 2.071740 0.037210 -0.051280 
#    y 0.037210 2.067550 0.011160 
#    z -0.051280 0.011160 2.220260 
# 
# From -- ./inp_files/606463.got.cif
#   From: 2010.05.17/outbox.cif.g08.bks.cpg/sg2_304_cif.got.tgz:606463.got - 2010.06.03 11:33:40.
