data_PCOD9111481
_publ_section_title
;
Structure prediction by ZEFSAII (Michael W. Deem and Ramdas Pophale) SiO2 
 PCOD9111481
Probable space group: P -1
;
_chemical_formula_sum "Si O2"
_cell_formula_units_Z 16
_cell_length_a 22.844288
_cell_length_b 7.816738
_cell_length_c 11.184601
_cell_angle_alpha 38.203093
_cell_angle_beta 34.193167
_cell_angle_gamma 47.945380
_cell_volume 693.017413
_symmetry_space_group_name_H-M "P -1"
_symmetry_group_IT_number 2
_symmetry_cell_setting 'triclinic'
loop_
_space_group_symop_operation_xyz
x,y,z
-x,-y,-z
loop_
_atom_site_type_symbol
_atom_site_label
_atom_site_fract_x
_atom_site_fract_y
_atom_site_fract_z
Si Si1 0.272912 0.323028 0.150579
Si Si2 0.787356 0.053459 0.076205
Si Si3 0.894508 0.191968 0.577376
Si Si4 0.966301 0.766040 0.095910
Si Si5 0.556134 0.781124 0.280743
Si Si6 0.462306 0.223246 0.045044
Si Si7 0.828714 0.219594 0.400060
Si Si8 0.367232 0.353498 0.515275
O O1 0.230366 0.631493 0.023581
O O2 0.190427 0.093058 0.436206
O O3 0.344448 0.217149 0.976145
O O4 0.348282 0.329275 0.135875
O O5 0.823765 0.078900 0.863188
O O6 0.876254 0.892097 0.091637
O O7 0.684445 0.881697 0.344627
O O8 0.842746 0.208039 0.525443
O O9 0.926279 0.503494 0.377384
O O10 0.000000 0.000000 0.500000
O O11 0.067681 0.678895 0.892463
O O12 0.000000 0.000000 0.000000
O O13 0.500000 0.500000 0.500000
O O14 0.592101 0.776189 0.358034
O O15 0.478623 0.038828 0.235551
O O16 0.538365 0.473332 0.786792
O O17 0.500000 0.000000 0.000000
O O18 0.728335 0.416826 0.427809
#
# Coordination Sequence:
#
# PCOD9111481 Si02
#       8
#     2   2   2   2   2   2   2   2
#     4  11  24  43  68 100 139 174 228 281 340 400
#     4  12  28  45  66 104 141 179 224 283 351 395
#     4  12  25  48  71  96 138 182 235 279 330 409
#     4  12  28  46  67 103 143 174 223 291 343 400
#     4  11  20  41  72  97 129 182 227 273 332 401
#     4  10  20  43  64  99 135 166 230 278 317 412
#     4  12  23  45  73  98 130 187 232 274 332 410
#     4  12  23  42  71  98 133 176 231 273 333 409
#
# _framework density 23.087441999999999
#
# number of rings (size 3 to 8) (size 9 to 14) (size 15 to 20)
#    0.000    0.500    7.500    2.625    3.500    1.500 
#    2.250    0.625    0.000    0.000    0.000    0.000 
#    0.000    0.000    0.000    0.000    0.000    0.000 
#
# Total GULP energy -89648.738215 kJ/mol
# GULP energy per Si atom -5603.046138 kJ/mol
# Density = 2.303489 g / cm^3
# Si number density = 23.087442 Si / 1000 Ang^3
#
#
#
# Elastic Constant Matrix: (Units=GPa)
#
#
# Indices 1 2 3 4 5 6 
#
# 1 114.5502 9.6608 45.5160 -5.4793 1.0311 -13.4571
# 2 9.6608 58.7542 25.4275 -14.1987 6.5887 -0.8886
# 3 45.5160 25.4275 124.7517 -17.3276 -10.1231 1.0679
# 4 -5.4793 -14.1987 -17.3276 40.7384 1.5757 8.1125
# 5 1.0311 6.5887 -10.1231 1.5757 42.0467 -8.2781
# 6 -13.4571 -0.8886 1.0679 8.1125 -8.2781 29.4003
#
#
#
# Elastic Compliance Matrix: (Units=1/GPa)
#
#
# Indices 1 2 3 4 5 6 
#
# 1 0.011017 -0.000250 -0.004235 -0.001514 -0.000095 0.005580
# 2 -0.000250 0.020651 -0.003613 0.006303 -0.004819 -0.002455
# 3 -0.004235 -0.003613 0.010990 0.003258 0.002684 -0.002590
# 4 -0.001514 0.006303 0.003258 0.030003 -0.003221 -0.009806
# 5 -0.000095 -0.004819 0.002684 -0.003221 0.026918 0.008181
# 6 0.005580 -0.002455 -0.002590 -0.009806 0.008181 0.041597
#
#
# Mechanical properties :
#
#
# Convention : Reuss Voigt Hill
#
# Bulk Modulus (GPa) = 37.78699 51.02941 44.40820
# Shear Modulus (GPa) = 30.08579 36.93387 33.50983
#
# Velocity S-wave (km/s) = 3.61380 4.00401 3.81390
# Velocity P-wave (km/s) = 5.81508 6.59748 6.21860
#
# Compressibility (1/GPa) = 0.02646414
#
# Stress axis : x y z
#
# Youngs Moduli (GPa) = 90.76515 48.42374 90.99424
#
# Poissons Ratio (x) = 0.01209 0.38533
# Poissons Ratio (y) = 0.02266 0.32874
# Poissons Ratio (z) = 0.38436 0.17494
#
# Static dielectric constant tensor:
#      x y z
#    x 1.842030 0.036050 -0.007320 
#    y 0.036050 1.868080 -0.002150 
#    z -0.007320 -0.002150 1.826690 
# 
# From -- ./inp_files/52160.got.cif
#   From: 2010.05.17/outbox.cif.g08.bks.cpg/sg2_27_cif.got.tgz:52160.got - 2010.06.03 11:33:40.
