data_PCOD9111340
_publ_section_title
;
Structure prediction by ZEFSAII (Michael W. Deem and Ramdas Pophale) SiO2 
 PCOD9111340
Probable space group: P -1
;
_chemical_formula_sum "Si O2"
_cell_formula_units_Z 14
_cell_length_a 7.985559
_cell_length_b 16.857989
_cell_length_c 11.832875
_cell_angle_alpha 32.641010
_cell_angle_beta 124.725954
_cell_angle_gamma 138.851375
_cell_volume 555.968451
_symmetry_space_group_name_H-M "P -1"
_symmetry_group_IT_number 2
_symmetry_cell_setting 'triclinic'
loop_
_space_group_symop_operation_xyz
x,y,z
-x,-y,-z
loop_
_atom_site_type_symbol
_atom_site_label
_atom_site_fract_x
_atom_site_fract_y
_atom_site_fract_z
Si Si1 0.174730 0.718963 0.272088
Si Si2 0.447391 0.119967 0.187839
Si Si3 0.309010 0.732709 0.655634
Si Si4 0.772116 0.783147 0.650105
Si Si5 0.383449 0.297955 0.558113
Si Si6 0.192188 0.254894 0.782587
Si Si7 0.059660 0.674234 0.025246
O O1 0.465434 0.789201 0.296553
O O2 0.096342 0.729637 0.102963
O O3 0.000000 0.500000 0.500000
O O4 0.088299 0.805648 0.221214
O O5 0.578324 0.242055 0.205819
O O6 0.316071 0.909099 0.425958
O O7 0.268909 0.159797 0.011252
O O8 0.679619 0.187669 0.109572
O O9 0.502397 0.737080 0.637747
O O10 0.030246 0.535198 0.768192
O O11 0.773228 0.743909 0.565866
O O12 0.000000 0.000000 0.500000
O O13 0.837447 0.672250 0.884691
O O14 0.233357 0.228321 0.701238
O O15 0.599136 0.521847 0.383319
#
# Coordination Sequence:
#
# PCOD9111340 Si02
#       7
#     2   2   2   2   2   2   2
#     4  10  21  42  74 108 140 190 244 297 364 442
#     4  11  23  43  68 113 146 189 248 305 359 442
#     4  11  24  42  68 106 152 186 247 303 366 434
#     4  12  25  47  70 108 146 196 246 302 363 437
#     4  10  22  42  72 108 144 192 245 299 365 437
#     4  10  20  42  73 107 148 186 246 301 368 435
#     4  12  23  45  76 103 146 200 237 303 376 426
#
# _framework density 25.181283000000001
#
# number of rings (size 3 to 8) (size 9 to 14) (size 15 to 20)
#    0.000    1.143    2.857    4.286    0.000    0.000 
#    2.571    4.286    0.000    9.429    0.000    0.000 
#    0.000    0.000    0.000    0.000    0.000    0.000 
#
# Total GULP energy -78612.726199 kJ/mol
# GULP energy per Si atom -5615.194729 kJ/mol
# Density = 2.512397 g / cm^3
# Si number density = 25.181283 Si / 1000 Ang^3
#
#
#
# Elastic Constant Matrix: (Units=GPa)
#
#
# Indices 1 2 3 4 5 6 
#
# 1 141.5796 28.0054 50.5343 20.3347 -5.4923 -16.7257
# 2 28.0054 88.9516 35.4946 15.6601 -23.1793 -16.1882
# 3 50.5343 35.4946 110.0700 21.5893 -5.8565 -5.6049
# 4 20.3347 15.6601 21.5893 54.1182 -3.2081 -14.2055
# 5 -5.4923 -23.1793 -5.8565 -3.2081 38.1005 15.1373
# 6 -16.7257 -16.1882 -5.6049 -14.2055 15.1373 36.7447
#
#
#
# Elastic Compliance Matrix: (Units=1/GPa)
#
#
# Indices 1 2 3 4 5 6 
#
# 1 0.008986 -0.000985 -0.003531 -0.000896 -0.001224 0.003276
# 2 -0.000985 0.015796 -0.003784 -0.001694 0.007947 0.002005
# 3 -0.003531 -0.003784 0.012418 -0.003213 -0.000157 -0.002558
# 4 -0.000896 -0.001694 -0.003213 0.022598 -0.003071 0.008358
# 5 -0.001224 0.007947 -0.000157 -0.003071 0.035792 -0.013012
# 6 0.003276 0.002005 -0.002558 0.008358 -0.013012 0.037790
#
#
# Mechanical properties :
#
#
# Convention : Reuss Voigt Hill
#
# Bulk Modulus (GPa) = 48.54378 63.18552 55.86465
# Shear Modulus (GPa) = 31.87791 40.89714 36.38753
#
# Velocity S-wave (km/s) = 3.56186 4.03440 3.80547
# Velocity P-wave (km/s) = 6.01958 6.84460 6.44530
#
# Compressibility (1/GPa) = 0.02059996
#
# Stress axis : x y z
#
# Youngs Moduli (GPa) = 111.27887 63.30587 80.52831
#
# Poissons Ratio (x) = 0.06239 0.28431
# Poissons Ratio (y) = 0.10966 0.30474
# Poissons Ratio (z) = 0.39288 0.23957
#
# Static dielectric constant tensor:
#      x y z
#    x 1.963320 0.022130 0.035060 
#    y 0.022130 1.973830 -0.020340 
#    z 0.035060 -0.020340 1.983350 
# 
# From -- ./inp_files/402753.got.cif
#   From: 2010.05.17/outbox.cif.g08.bks.cpg/sg2_202_cif.got.tgz:402753.got - 2010.06.03 11:33:40.
