data_PCOD9111731
_publ_section_title
;
Structure prediction by ZEFSAII (Michael W. Deem and Ramdas Pophale) SiO2 
 PCOD9111731
Probable space group: P -1
;
_chemical_formula_sum "Si O2"
_cell_formula_units_Z 16
_cell_length_a 11.044657
_cell_length_b 13.770094
_cell_length_c 10.783548
_cell_angle_alpha 100.511504
_cell_angle_beta 52.664550
_cell_angle_gamma 55.633173
_cell_volume 646.385096
_symmetry_space_group_name_H-M "P -1"
_symmetry_group_IT_number 2
_symmetry_cell_setting 'triclinic'
loop_
_space_group_symop_operation_xyz
x,y,z
-x,-y,-z
loop_
_atom_site_type_symbol
_atom_site_label
_atom_site_fract_x
_atom_site_fract_y
_atom_site_fract_z
Si Si1 0.767528 0.866909 0.979436
Si Si2 0.873021 0.780551 0.633631
Si Si3 0.314320 0.923748 0.763356
Si Si4 0.255369 0.788070 0.956115
Si Si5 0.043065 0.039665 0.360321
Si Si6 0.974104 0.591118 0.923048
Si Si7 0.984646 0.619498 0.283950
Si Si8 0.605000 0.517884 0.215485
O O1 0.460182 0.073958 0.153802
O O2 0.891736 0.894456 0.973768
O O3 0.952700 0.721753 0.714211
O O4 0.717301 0.815168 0.106688
O O5 0.056383 0.625164 0.374607
O O6 0.845150 0.913538 0.662543
O O7 0.623959 0.809998 0.523481
O O8 0.368794 0.792574 0.773110
O O9 0.105707 0.026410 0.798877
O O10 0.400807 0.597810 0.816733
O O11 0.255416 0.857207 0.094009
O O12 0.714842 0.251517 0.556739
O O13 0.000000 0.000000 0.500000
O O14 0.930436 0.542028 0.823752
O O15 0.252604 0.510115 0.756906
O O16 0.000000 0.500000 0.000000
O O17 0.161550 0.582390 0.062539
#
# Coordination Sequence:
#
# PCOD9111731 Si02
#       8
#     2   2   2   2   2   2   2   2
#     4  10  20  43  69  92 139 172 231 286 339 412
#     4  10  23  41  64  97 131 185 227 273 345 415
#     4  10  21  43  69 103 134 177 237 287 353 400
#     4  11  23  44  73 101 139 185 228 290 350 417
#     4  12  27  44  68 100 144 186 228 285 353 426
#     4  10  22  41  66 100 133 174 227 294 338 400
#     4  10  23  42  66 100 137 181 231 287 340 413
#     4  11  25  46  69 103 140 183 236 288 350 416
#
# _framework density 24.753045
#
# number of rings (size 3 to 8) (size 9 to 14) (size 15 to 20)
#    0.000    1.500    2.500    1.500    3.500    4.000 
#    2.250    2.500    0.000    0.000    0.000    0.000 
#    0.000    0.000    0.000    0.000    0.000    0.000 
#
# Total GULP energy -89230.788880 kJ/mol
# GULP energy per Si atom -5576.924305 kJ/mol
# Density = 2.469671 g / cm^3
# Si number density = 24.753045 Si / 1000 Ang^3
#
#
#
# Elastic Constant Matrix: (Units=GPa)
#
#
# Indices 1 2 3 4 5 6 
#
# 1 111.7796 24.3557 27.5553 7.8262 31.0574 31.3607
# 2 24.3557 143.8627 32.6963 18.4853 19.9326 31.5347
# 3 27.5553 32.6963 72.8981 1.5462 7.4599 9.0749
# 4 7.8262 18.4853 1.5462 29.2867 2.1459 5.5114
# 5 31.0574 19.9326 7.4599 2.1459 50.9251 10.8970
# 6 31.3607 31.5347 9.0749 5.5114 10.8970 33.7966
#
#
#
# Elastic Compliance Matrix: (Units=1/GPa)
#
#
# Indices 1 2 3 4 5 6 
#
# 1 0.015066 0.002464 -0.004504 -0.002500 -0.006713 -0.012498
# 2 0.002464 0.010557 -0.004112 -0.005151 -0.002829 -0.009280
# 3 -0.004504 -0.004112 0.016749 0.002308 0.001217 0.002750
# 4 -0.002500 -0.005151 0.002308 0.037859 0.001650 -0.000200
# 5 -0.006713 -0.002829 0.001217 0.001650 0.024511 0.000371
# 6 -0.012498 -0.009280 0.002750 -0.000200 0.000371 0.049019
#
#
# Mechanical properties :
#
#
# Convention : Reuss Voigt Hill
#
# Bulk Modulus (GPa) = 33.25957 55.30612 44.28285
# Shear Modulus (GPa) = 28.39477 39.06388 33.72933
#
# Velocity S-wave (km/s) = 3.39059 3.97690 3.69539
# Velocity P-wave (km/s) = 5.36599 6.59388 6.01137
#
# Compressibility (1/GPa) = 0.03006653
#
# Stress axis : x y z
#
# Youngs Moduli (GPa) = 66.37318 94.72796 59.70555
#
# Poissons Ratio (x) = -0.23340 0.26893
# Poissons Ratio (y) = -0.16353 0.24552
# Poissons Ratio (z) = 0.29897 0.38953
#
# Static dielectric constant tensor:
#      x y z
#    x 2.023750 -0.056520 0.030580 
#    y -0.056520 1.945230 -0.003120 
#    z 0.030580 -0.003120 2.153870 
# 
# From -- ./inp_files/428346.got.cif
#   From: 2010.05.17/outbox.cif.g08.bks.cpg/sg2_215_cif.got.tgz:428346.got - 2010.06.03 11:33:40.
