data_PCOD9111714
_publ_section_title
;
Structure prediction by ZEFSAII (Michael W. Deem and Ramdas Pophale) SiO2 
 PCOD9111714
Probable space group: P -1
;
_chemical_formula_sum "Si O2"
_cell_formula_units_Z 15
_cell_length_a 12.168292
_cell_length_b 11.644272
_cell_length_c 17.812368
_cell_angle_alpha 151.707619
_cell_angle_beta 32.324710
_cell_angle_gamma 152.284592
_cell_volume 531.202911
_symmetry_space_group_name_H-M "P -1"
_symmetry_group_IT_number 2
_symmetry_cell_setting 'triclinic'
loop_
_space_group_symop_operation_xyz
x,y,z
-x,-y,-z
loop_
_atom_site_type_symbol
_atom_site_label
_atom_site_fract_x
_atom_site_fract_y
_atom_site_fract_z
Si Si1 0.282178 0.198909 0.872165
Si Si2 0.187392 0.393857 0.760723
Si Si3 0.677696 0.020241 0.975859
Si Si4 0.475270 0.584024 0.301078
Si Si5 0.009217 0.813632 0.466431
Si Si6 0.416841 0.803788 0.162204
Si Si7 0.500000 0.500000 0.500000
Si Si8 0.920507 0.383908 0.395605
O O1 0.465698 0.316973 0.762097
O O2 0.400740 0.155434 0.852600
O O3 0.058411 0.878928 0.792892
O O4 0.234061 0.450750 0.058964
O O5 0.122276 0.633855 0.935663
O O6 0.280832 0.352882 0.762733
O O7 0.425512 0.524887 0.644572
O O8 0.992819 0.073444 0.657124
O O9 0.547410 0.919626 0.074122
O O10 0.500000 0.000000 0.000000
O O11 0.718799 0.766688 0.786460
O O12 0.369229 0.732447 0.497221
O O13 0.271919 0.957688 0.352848
O O14 0.779624 0.594310 0.421658
O O15 0.038736 0.639407 0.414831
O O16 0.000000 0.500000 0.500000
#
# Coordination Sequence:
#
# PCOD9111714 Si02
#       8
#     2   2   2   2   2   2   1   2
#     4  10  22  42  73 104 142 185 235 301 349 419
#     4  11  22  43  70  98 136 187 234 286 351 418
#     4   9  21  40  74 103 141 184 229 290 347 421
#     4  10  20  43  69 100 142 180 232 292 347 417
#     4  12  26  43  71 107 141 190 235 291 358 421
#     4  10  22  44  72 108 143 184 239 293 359 420
#     4  12  26  46  64 100 148 184 238 298 342 430
#     4  12  24  41  67 103 144 183 237 289 353 421
#
# _framework density 28.237798000000002
#
# number of rings (size 3 to 8) (size 9 to 14) (size 15 to 20)
#    0.000    1.333    1.333    4.000    1.867    0.533 
#    2.400    0.667    0.000    0.000    0.000    0.000 
#    0.000    0.000    0.000    0.000    0.000    0.000 
#
# Total GULP energy -83927.118117 kJ/mol
# GULP energy per Si atom -5595.141208 kJ/mol
# Density = 2.817353 g / cm^3
# Si number density = 28.237798 Si / 1000 Ang^3
#
#
#
# Elastic Constant Matrix: (Units=GPa)
#
#
# Indices 1 2 3 4 5 6 
#
# 1 194.8553 37.8684 33.6384 4.9286 23.2999 -16.7126
# 2 37.8684 80.8680 34.6047 -0.2869 11.5018 -20.7615
# 3 33.6384 34.6047 142.9527 33.5185 -2.7404 -0.5023
# 4 4.9286 -0.2869 33.5185 76.3656 -6.9924 6.2208
# 5 23.2999 11.5018 -2.7404 -6.9924 40.5801 -3.6002
# 6 -16.7126 -20.7615 -0.5023 6.2208 -3.6002 54.5527
#
#
#
# Elastic Compliance Matrix: (Units=1/GPa)
#
#
# Indices 1 2 3 4 5 6 
#
# 1 0.006102 -0.001734 -0.000994 -0.000327 -0.003043 0.001037
# 2 -0.001734 0.016754 -0.003966 0.001166 -0.003336 0.005455
# 3 -0.000994 -0.003966 0.009081 -0.003695 0.001564 -0.001206
# 4 -0.000327 0.001166 -0.003695 0.015037 0.002086 -0.001268
# 5 -0.003043 -0.003336 0.001564 0.002086 0.027748 -0.000594
# 6 0.001037 0.005455 -0.001206 -0.001268 -0.000594 0.020819
#
#
# Mechanical properties :
#
#
# Convention : Reuss Voigt Hill
#
# Bulk Modulus (GPa) = 53.90966 70.09990 62.00478
# Shear Modulus (GPa) = 43.43612 55.13731 49.28672
#
# Velocity S-wave (km/s) = 3.92628 4.42362 4.18235
# Velocity P-wave (km/s) = 6.29976 7.13933 6.73264
#
# Compressibility (1/GPa) = 0.01854955
#
# Stress axis : x y z
#
# Youngs Moduli (GPa) = 163.88800 59.68719 110.11509
#
# Poissons Ratio (x) = 0.10350 0.10946
# Poissons Ratio (y) = 0.28419 0.43668
# Poissons Ratio (z) = 0.16291 0.23670
#
# Static dielectric constant tensor:
#      x y z
#    x 2.145980 0.051300 0.014220 
#    y 0.051300 6.043330 1.194070 
#    z 0.014220 1.194070 2.563350 
# 
# From -- ./inp_files/569244.got.cif
#   From: 2010.05.17/outbox.cif.g08.bks.cpg/sg2_285_cif.got.tgz:569244.got - 2010.06.03 11:33:40.
