data_PCOD9111835
_publ_section_title
;
Structure prediction by ZEFSAII (Michael W. Deem and Ramdas Pophale) SiO2 
 PCOD9111835
Probable space group: P -1
;
_chemical_formula_sum "Si O2"
_cell_formula_units_Z 16
_cell_length_a 15.787425
_cell_length_b 7.776907
_cell_length_c 8.854573
_cell_angle_alpha 112.129827
_cell_angle_beta 79.652310
_cell_angle_gamma 140.809714
_cell_volume 624.524618
_symmetry_space_group_name_H-M "P -1"
_symmetry_group_IT_number 2
_symmetry_cell_setting 'triclinic'
loop_
_space_group_symop_operation_xyz
x,y,z
-x,-y,-z
loop_
_atom_site_type_symbol
_atom_site_label
_atom_site_fract_x
_atom_site_fract_y
_atom_site_fract_z
Si Si1 0.599374 0.976574 0.807250
Si Si2 0.914056 0.534040 0.595669
Si Si3 0.622133 0.884076 0.458064
Si Si4 0.062369 0.143708 0.772142
Si Si5 0.664688 0.602424 0.138726
Si Si6 0.540700 0.262691 0.784503
Si Si7 0.757193 0.221336 0.141543
Si Si8 0.964616 0.280818 0.060453
O O1 0.608245 0.837466 0.627197
O O2 0.454615 0.727939 0.858563
O O3 0.608645 0.183549 0.780845
O O4 0.713599 0.149798 0.955527
O O5 0.000000 0.500000 0.500000
O O6 0.756881 0.237023 0.510832
O O7 0.977914 0.836452 0.622027
O O8 0.933700 0.568610 0.782379
O O9 0.653769 0.755190 0.307357
O O10 0.481338 0.729573 0.381150
O O11 0.189629 0.253122 0.848277
O O12 0.966215 0.094050 0.903922
O O13 0.137275 0.433578 0.751590
O O14 0.614183 0.535061 0.958822
O O15 0.383885 0.990715 0.798309
O O16 0.828475 0.144536 0.128500
O O17 0.000000 0.500000 0.000000
#
# Coordination Sequence:
#
# PCOD9111835 Si02
#       8
#     2   2   2   2   2   2   2   2
#     4  11  22  43  70  96 129 174 216 285 334 380
#     4  12  25  43  66  97 142 179 210 276 334 386
#     4  12  25  41  62 102 139 167 221 272 336 387
#     4  11  21  43  69  99 131 178 224 261 331 400
#     4  11  22  43  70  94 132 176 221 268 330 399
#     4  11  22  42  70  98 124 177 219 277 328 394
#     4  10  20  43  71  97 130 170 232 267 325 399
#     4  10  23  42  69  96 129 178 227 268 315 401
#
# _framework density 25.619489000000002
#
# number of rings (size 3 to 8) (size 9 to 14) (size 15 to 20)
#    0.000    1.000    3.750    4.500    0.000    0.000 
#    0.000   11.875    0.000    0.000    0.000    0.000 
#    0.000    0.000    0.000    0.000    0.000    0.000 
#
# Total GULP energy -89577.307455 kJ/mol
# GULP energy per Si atom -5598.581716 kJ/mol
# Density = 2.556118 g / cm^3
# Si number density = 25.619489 Si / 1000 Ang^3
#
#
#
# Elastic Constant Matrix: (Units=GPa)
#
#
# Indices 1 2 3 4 5 6 
#
# 1 134.8449 8.0450 41.8344 19.6481 -6.0101 -1.4718
# 2 8.0450 89.6908 32.9777 24.3588 -6.5473 -1.8912
# 3 41.8344 32.9777 172.2396 24.8722 10.0433 -7.4431
# 4 19.6481 24.3588 24.8722 48.2332 -1.1976 -7.5585
# 5 -6.0101 -6.5473 10.0433 -1.1976 51.4931 4.9430
# 6 -1.4718 -1.8912 -7.4431 -7.5585 4.9430 36.4925
#
#
#
# Elastic Compliance Matrix: (Units=1/GPa)
#
#
# Indices 1 2 3 4 5 6 
#
# 1 0.008447 0.000841 -0.001904 -0.002975 0.001474 -0.000820
# 2 0.000841 0.013699 -0.002099 -0.006326 0.002227 -0.001296
# 3 -0.001904 -0.002099 0.007082 -0.001681 -0.002023 0.001185
# 4 -0.002975 -0.006326 -0.001681 0.026748 -0.000666 0.004840
# 5 0.001474 0.002227 -0.002023 -0.000666 0.020558 -0.003160
# 6 -0.000820 -0.001296 0.001185 0.004840 -0.003160 0.028975
#
#
# Mechanical properties :
#
#
# Convention : Reuss Voigt Hill
#
# Bulk Modulus (GPa) = 43.66318 62.49881 53.08099
# Shear Modulus (GPa) = 41.85189 48.17166 45.01178
#
# Velocity S-wave (km/s) = 4.04616 4.34092 4.19613
# Velocity P-wave (km/s) = 6.23767 7.04079 6.65136
#
# Compressibility (1/GPa) = 0.02290259
#
# Stress axis : x y z
#
# Youngs Moduli (GPa) = 118.38741 72.99662 141.19817
#
# Poissons Ratio (x) = -0.06138 0.26889
# Poissons Ratio (y) = -0.09955 0.29644
# Poissons Ratio (z) = 0.22545 0.15326
#
# Static dielectric constant tensor:
#      x y z
#    x 1.989220 -0.027580 -0.033110 
#    y -0.027580 2.173230 -0.033110 
#    z -0.033110 -0.033110 2.026180 
# 
# From -- ./inp_files/329428.got.cif
#   From: 2010.05.17/outbox.cif.g08.bks.cpg/sg2_165_cif.got.tgz:329428.got - 2010.06.03 11:33:40.
