data_PCOD9111319
_publ_section_title
;
Structure prediction by ZEFSAII (Michael W. Deem and Ramdas Pophale) SiO2 
 PCOD9111319
Probable space group: P -1
;
_chemical_formula_sum "Si O2"
_cell_formula_units_Z 15
_cell_length_a 15.190911
_cell_length_b 8.469886
_cell_length_c 7.338002
_cell_angle_alpha 124.798234
_cell_angle_beta 107.868322
_cell_angle_gamma 107.997290
_cell_volume 579.325383
_symmetry_space_group_name_H-M "P -1"
_symmetry_group_IT_number 2
_symmetry_cell_setting 'triclinic'
loop_
_space_group_symop_operation_xyz
x,y,z
-x,-y,-z
loop_
_atom_site_type_symbol
_atom_site_label
_atom_site_fract_x
_atom_site_fract_y
_atom_site_fract_z
Si Si1 0.599309 0.203482 0.833210
Si Si2 0.709990 0.965089 0.717726
Si Si3 0.861292 0.804087 0.838873
Si Si4 0.830635 0.353666 0.451204
Si Si5 0.926215 0.441209 0.169850
Si Si6 0.163069 0.301286 0.822989
Si Si7 0.702033 0.874711 0.271635
Si Si8 0.500000 0.500000 0.000000
O O1 0.644600 0.051555 0.841976
O O2 0.551894 0.331241 0.986148
O O3 0.500000 0.000000 0.500000
O O4 0.717881 0.425045 0.952938
O O5 0.772685 0.866041 0.785038
O O6 0.635304 0.798709 0.381573
O O7 0.820821 0.206732 0.838206
O O8 0.805261 0.544323 0.536532
O O9 0.860057 0.765926 0.026900
O O10 0.000000 0.000000 0.000000
O O11 0.878833 0.339542 0.278679
O O12 0.949978 0.496375 0.742155
O O13 0.737288 0.102724 0.329054
O O14 0.933275 0.678603 0.306973
O O15 0.189065 0.129294 0.638139
O O16 0.591645 0.616910 0.952502
#
# Coordination Sequence:
#
# PCOD9111319 Si02
#       8
#     2   2   2   2   2   2   2   1
#     4  10  20  42  72  95 132 171 228 286 343 396
#     4  11  22  41  67  98 135 181 218 280 336 407
#     4  12  25  41  64  98 142 181 228 274 333 413
#     4  11  23  39  65  94 137 177 222 285 333 408
#     4  10  22  40  63  97 130 177 227 274 340 406
#     4  10  24  41  65  95 135 181 227 283 338 405
#     4  11  23  40  71  96 134 175 226 278 348 400
#     4  10  22  42  72 106 128 176 228 284 348 408
#
# _framework density 25.892184
#
# number of rings (size 3 to 8) (size 9 to 14) (size 15 to 20)
#    0.000    1.333    2.667    3.200    3.733    1.600 
#    0.000    0.667    5.867    6.400    0.000    0.000 
#    0.000    0.000    0.000    0.000    0.000    0.000 
#
# Total GULP energy -83527.670953 kJ/mol
# GULP energy per Si atom -5568.511397 kJ/mol
# Density = 2.583325 g / cm^3
# Si number density = 25.892184 Si / 1000 Ang^3
#
#
#
# Elastic Constant Matrix: (Units=GPa)
#
#
# Indices 1 2 3 4 5 6 
#
# 1 141.1011 60.7653 24.2320 20.9490 -7.4701 -57.1465
# 2 60.7653 140.6611 26.1056 20.8429 -9.5315 -30.3913
# 3 24.2320 26.1056 70.7942 25.8480 -5.8515 -11.3913
# 4 20.9490 20.8429 25.8480 41.2327 -6.1880 -2.9662
# 5 -7.4701 -9.5315 -5.8515 -6.1880 52.8105 3.0723
# 6 -57.1465 -30.3913 -11.3913 -2.9662 3.0723 46.7334
#
#
#
# Elastic Compliance Matrix: (Units=1/GPa)
#
#
# Indices 1 2 3 4 5 6 
#
# 1 0.016208 -0.002275 0.000405 -0.006015 0.000172 0.018045
# 2 -0.002275 0.009344 -0.001256 -0.002464 0.000775 0.002781
# 3 0.000405 -0.001256 0.019182 -0.011272 0.000425 0.003611
# 4 -0.006015 -0.002464 -0.011272 0.035251 0.002145 -0.009608
# 5 0.000172 0.000775 0.000425 0.002145 0.019417 -0.000322
# 6 0.018045 0.002781 0.003611 -0.009608 -0.000322 0.045564
#
#
# Mechanical properties :
#
#
# Convention : Reuss Voigt Hill
#
# Bulk Modulus (GPa) = 25.98648 63.86246 44.92447
# Shear Modulus (GPa) = 30.47969 44.25222 37.36595
#
# Velocity S-wave (km/s) = 3.43472 4.13861 3.80298
# Velocity P-wave (km/s) = 5.07819 6.89607 6.05573
#
# Compressibility (1/GPa) = 0.03848155
#
# Stress axis : x y z
#
# Youngs Moduli (GPa) = 61.69832 107.02530 52.13330
#
# Poissons Ratio (x) = 0.24350 -0.02112
# Poissons Ratio (y) = 0.14037 0.06546
# Poissons Ratio (z) = -0.02499 0.13439
#
# Static dielectric constant tensor:
#      x y z
#    x 2.082960 -0.079360 0.009050 
#    y -0.079360 2.081060 -0.037650 
#    z 0.009050 -0.037650 2.639990 
# 
# From -- ./inp_files/291735.got.cif
#   From: 2010.05.17/outbox.cif.g08.bks.cpg/sg2_146_cif.got.tgz:291735.got - 2010.06.03 11:33:40.
