data_PCOD9111840
_publ_section_title
;
Structure prediction by ZEFSAII (Michael W. Deem and Ramdas Pophale) SiO2 
 PCOD9111840
Probable space group: P -1
;
_chemical_formula_sum "Si O2"
_cell_formula_units_Z 16
_cell_length_a 11.267616
_cell_length_b 11.276727
_cell_length_c 7.860145
_cell_angle_alpha 113.327462
_cell_angle_beta 53.990592
_cell_angle_gamma 113.673368
_cell_volume 722.459653
_symmetry_space_group_name_H-M "P -1"
_symmetry_group_IT_number 2
_symmetry_cell_setting 'triclinic'
loop_
_space_group_symop_operation_xyz
x,y,z
-x,-y,-z
loop_
_atom_site_type_symbol
_atom_site_label
_atom_site_fract_x
_atom_site_fract_y
_atom_site_fract_z
Si Si1 0.885252 0.241538 0.615459
Si Si2 0.334359 0.338173 0.982042
Si Si3 0.446812 0.590514 0.451144
Si Si4 0.457510 0.126466 0.304341
Si Si5 0.559007 0.177202 0.860811
Si Si6 0.862895 0.534190 0.518008
Si Si7 0.078468 0.123522 0.112327
Si Si8 0.167304 0.014088 0.306752
O O1 0.722955 0.265194 0.714333
O O2 0.823991 0.135983 0.755559
O O3 0.026569 0.352512 0.622083
O O4 0.956499 0.181619 0.357397
O O5 0.444528 0.427650 0.807785
O O6 0.441019 0.255931 0.935993
O O7 0.244475 0.408236 0.230618
O O8 0.191610 0.230953 0.965144
O O9 0.500000 0.500000 0.500000
O O10 0.490191 0.747617 0.548606
O O11 0.267292 0.554354 0.539996
O O12 0.469660 0.977704 0.265764
O O13 0.282191 0.104420 0.388469
O O14 0.535997 0.161749 0.074820
O O15 0.000000 0.500000 0.500000
O O16 0.177115 0.070671 0.143455
O O17 0.000000 0.000000 0.000000
O O18 0.000000 0.000000 0.500000
#
# Coordination Sequence:
#
# PCOD9111840 Si02
#       8
#     2   2   2   2   2   2   2   2
#     4   9  21  38  66  94 129 180 221 276 352 402
#     4  11  24  44  70  98 136 183 230 293 352 409
#     4  12  28  43  72 102 142 186 246 286 328 427
#     4  10  22  41  65 106 138 180 231 288 352 411
#     4  10  20  43  71  98 139 178 224 291 367 411
#     4  11  25  50  71  97 139 192 235 279 351 420
#     4  10  21  36  61  98 131 167 224 279 346 413
#     4   9  18  35  64  89 134 171 215 280 348 401
#
# _framework density 22.146566
#
# number of rings (size 3 to 8) (size 9 to 14) (size 15 to 20)
#    0.000    1.750    1.250    1.875    8.750    1.500 
#    4.500    2.500    0.000    0.000    0.000    0.000 
#    0.000    0.000    0.000    0.000    0.000    0.000 
#
# Total GULP energy -89091.235357 kJ/mol
# GULP energy per Si atom -5568.202210 kJ/mol
# Density = 2.209616 g / cm^3
# Si number density = 22.146566 Si / 1000 Ang^3
#
#
#
# Elastic Constant Matrix: (Units=GPa)
#
#
# Indices 1 2 3 4 5 6 
#
# 1 126.6074 58.2249 46.2121 -1.1211 -32.6000 24.6917
# 2 58.2249 93.9345 35.2861 -10.7849 -9.2218 44.5658
# 3 46.2121 35.2861 68.6151 -16.2346 -32.1845 9.8301
# 4 -1.1211 -10.7849 -16.2346 45.0758 7.1446 -2.9930
# 5 -32.6000 -9.2218 -32.1845 7.1446 35.9806 -6.0079
# 6 24.6917 44.5658 9.8301 -2.9930 -6.0079 47.3450
#
#
#
# Elastic Compliance Matrix: (Units=1/GPa)
#
#
# Indices 1 2 3 4 5 6 
#
# 1 0.015071 -0.009284 -0.001393 -0.003969 0.011208 0.002339
# 2 -0.009284 0.031865 -0.014081 0.003499 -0.017582 -0.024239
# 3 -0.001393 -0.014081 0.035508 0.005721 0.027502 0.010460
# 4 -0.003969 0.003499 0.005721 0.025352 -0.002811 -0.001165
# 5 0.011208 -0.017582 0.027502 -0.002811 0.060690 0.012518
# 6 0.002339 -0.024239 0.010460 -0.001165 0.012518 0.042061
#
#
# Mechanical properties :
#
#
# Convention : Reuss Voigt Hill
#
# Bulk Modulus (GPa) = 30.36794 63.17814 46.77304
# Shear Modulus (GPa) = 18.44754 35.64256 27.04505
#
# Velocity S-wave (km/s) = 2.88926 4.01608 3.49834
# Velocity P-wave (km/s) = 4.98723 7.07774 6.12237
#
# Compressibility (1/GPa) = 0.03292947
#
# Stress axis : x y z
#
# Youngs Moduli (GPa) = 66.35313 31.38221 28.16235
#
# Poissons Ratio (x) = 0.29134 0.03923
# Poissons Ratio (y) = 0.61600 0.39655
# Poissons Ratio (z) = 0.09243 0.44189
#
# Static dielectric constant tensor:
#      x y z
#    x 2.310580 -0.146680 -0.164140 
#    y -0.146680 2.038690 0.056200 
#    z -0.164140 0.056200 1.863440 
# 
# From -- ./inp_files/259857.got.cif
#   From: 2010.05.17/outbox.cif.g08.bks.cpg/sg2_130_cif.got.tgz:259857.got - 2010.06.03 11:33:40.
