data_PCOD9111078
_publ_section_title
;
Structure prediction by ZEFSAII (Michael W. Deem and Ramdas Pophale) SiO2 
 PCOD9111078
Probable space group: P -1
;
_chemical_formula_sum "Si O2"
_cell_formula_units_Z 15
_cell_length_a 11.869623
_cell_length_b 17.513187
_cell_length_c 7.354291
_cell_angle_alpha 49.973610
_cell_angle_beta 126.499976
_cell_angle_gamma 149.278392
_cell_volume 594.602240
_symmetry_space_group_name_H-M "P -1"
_symmetry_group_IT_number 2
_symmetry_cell_setting 'triclinic'
loop_
_space_group_symop_operation_xyz
x,y,z
-x,-y,-z
loop_
_atom_site_type_symbol
_atom_site_label
_atom_site_fract_x
_atom_site_fract_y
_atom_site_fract_z
Si Si1 0.946528 0.873079 0.467013
Si Si2 0.500000 0.000000 0.000000
Si Si3 0.304494 0.090814 0.781136
Si Si4 0.928129 0.692904 0.456517
Si Si5 0.205912 0.579975 0.323410
Si Si6 0.347584 0.852260 0.444038
Si Si7 0.781737 0.443831 0.197617
Si Si8 0.439626 0.473870 0.193384
O O1 0.839771 0.915641 0.217296
O O2 0.021502 0.827922 0.471646
O O3 0.749436 0.709218 0.645597
O O4 0.155454 0.017645 0.568605
O O5 0.642924 0.996566 0.023170
O O6 0.457203 0.899169 0.280382
O O7 0.549810 0.269226 0.740923
O O8 0.899948 0.562669 0.688172
O O9 0.675849 0.587466 0.341107
O O10 0.105273 0.771608 0.346716
O O11 0.221287 0.550312 0.593118
O O12 0.040833 0.582359 0.175837
O O13 0.314361 0.719266 0.686093
O O14 0.500000 0.000000 0.500000
O O15 0.655384 0.467831 0.958978
O O16 0.500000 0.500000 0.000000
#
# Coordination Sequence:
#
# PCOD9111078 Si02
#       8
#     2   1   2   2   2   2   2   2
#     4  11  26  45  68 104 150 188 232 302 363 426
#     4  12  26  44  78  98 146 188 238 292 372 426
#     4  11  24  42  71 104 140 190 240 290 363 433
#     4  11  24  46  72 102 144 186 239 298 355 437
#     4  10  20  42  68  97 135 186 233 290 360 418
#     4  11  26  50  71 109 146 189 244 303 361 430
#     4  10  22  41  70 101 141 183 240 300 350 431
#     4  12  24  41  71 103 137 188 243 288 360 432
#
# _framework density 25.226948
#
# number of rings (size 3 to 8) (size 9 to 14) (size 15 to 20)
#    0.000    1.067    4.000    1.200    3.733    1.067 
#    0.000    2.667    0.000    0.000    0.000    0.000 
#    0.000    0.000    0.000    0.000    0.000    0.000 
#
# Total GULP energy -83558.137312 kJ/mol
# GULP energy per Si atom -5570.542487 kJ/mol
# Density = 2.516953 g / cm^3
# Si number density = 25.226948 Si / 1000 Ang^3
#
#
#
# Elastic Constant Matrix: (Units=GPa)
#
#
# Indices 1 2 3 4 5 6 
#
# 1 138.0991 31.4385 36.1053 -20.5453 29.7034 6.5027
# 2 31.4385 98.3336 21.3855 -7.2171 4.2484 4.9455
# 3 36.1053 21.3855 55.1040 -6.3493 23.1931 15.5105
# 4 -20.5453 -7.2171 -6.3493 14.3012 -4.4578 9.5930
# 5 29.7034 4.2484 23.1931 -4.4578 61.5662 -1.0745
# 6 6.5027 4.9455 15.5105 9.5930 -1.0745 54.1033
#
#
#
# Elastic Compliance Matrix: (Units=1/GPa)
#
#
# Indices 1 2 3 4 5 6 
#
# 1 0.011548 -0.001621 -0.002806 0.015693 -0.003324 -0.003284
# 2 -0.001621 0.011633 -0.003775 0.002489 0.001578 -0.000196
# 3 -0.002806 -0.003775 0.029124 0.010814 -0.008745 -0.009758
# 4 0.015693 0.002489 0.010814 0.114449 -0.003977 -0.025586
# 5 -0.003324 0.001578 -0.008745 -0.003977 0.020811 0.003881
# 6 -0.003284 -0.000196 -0.009758 -0.025586 0.003881 0.026307
#
#
# Mechanical properties :
#
#
# Convention : Reuss Voigt Hill
#
# Bulk Modulus (GPa) = 27.85364 52.15504 40.00434
# Shear Modulus (GPa) = 20.64038 39.50132 30.07085
#
# Velocity S-wave (km/s) = 2.86350 3.96136 3.45630
# Velocity P-wave (km/s) = 4.69021 6.45309 5.64094
#
# Compressibility (1/GPa) = 0.03590195
#
# Stress axis : x y z
#
# Youngs Moduli (GPa) = 86.59508 85.96158 34.33564
#
# Poissons Ratio (x) = 0.13937 0.09634
# Poissons Ratio (y) = 0.14040 0.12960
# Poissons Ratio (z) = 0.24297 0.32447
#
# Static dielectric constant tensor:
#      x y z
#    x 1.992790 -0.041270 0.000080 
#    y -0.041270 2.022780 -0.022610 
#    z 0.000080 -0.022610 2.049420 
# 
# From -- ./inp_files/277512.got.cif
#   From: 2010.05.17/outbox.cif.g08.bks.cpg/sg2_139_cif.got.tgz:277512.got - 2010.06.03 11:33:40.
