data_PCOD9111705
_publ_section_title
;
Structure prediction by ZEFSAII (Michael W. Deem and Ramdas Pophale) SiO2 
 PCOD9111705
Probable space group: P -1
;
_chemical_formula_sum "Si O2"
_cell_formula_units_Z 14
_cell_length_a 19.522511
_cell_length_b 12.253766
_cell_length_c 10.051633
_cell_angle_alpha 133.819971
_cell_angle_beta 159.318753
_cell_angle_gamma 43.107676
_cell_volume 579.900385
_symmetry_space_group_name_H-M "P -1"
_symmetry_group_IT_number 2
_symmetry_cell_setting 'triclinic'
loop_
_space_group_symop_operation_xyz
x,y,z
-x,-y,-z
loop_
_atom_site_type_symbol
_atom_site_label
_atom_site_fract_x
_atom_site_fract_y
_atom_site_fract_z
Si Si1 0.767443 0.548221 0.060654
Si Si2 0.281241 0.627627 0.677200
Si Si3 0.924033 0.737907 0.301401
Si Si4 0.158577 0.696498 0.215515
Si Si5 0.626747 0.047208 0.886184
Si Si6 0.302966 0.215794 0.660970
Si Si7 0.877399 0.964391 0.624963
O O1 0.775801 0.658224 0.040962
O O2 0.649585 0.639272 0.052910
O O3 0.000000 0.500000 0.500000
O O4 0.731549 0.397939 0.797051
O O5 0.221243 0.615605 0.404148
O O6 0.103132 0.614262 0.440261
O O7 0.500000 0.500000 0.000000
O O8 0.289745 0.806600 0.871643
O O9 0.005411 0.825433 0.642132
O O10 0.798691 0.884292 0.104778
O O11 0.193159 0.867437 0.434576
O O12 0.917314 0.728289 0.768435
O O13 0.467650 0.117188 0.774656
O O14 0.500000 0.000000 0.500000
O O15 0.283314 0.103554 0.652791
O O16 0.000000 0.000000 0.000000
#
# Coordination Sequence:
#
# PCOD9111705 Si02
#       7
#     2   2   2   2   2   2   2
#     4   9  21  40  71  99 134 173 214 271 339 387
#     4  12  29  45  65  98 135 179 228 272 328 396
#     4  11  24  46  69  93 138 176 222 271 334 393
#     4  10  20  43  68  98 135 179 211 274 336 384
#     4  12  27  45  68 101 131 179 225 277 325 398
#     4   9  21  42  70 100 132 166 228 266 335 398
#     4   9  19  38  71 100 125 175 218 272 329 390
#
# _framework density 24.142077
#
# number of rings (size 3 to 8) (size 9 to 14) (size 15 to 20)
#    0.000    1.714    1.429    2.143   10.000    2.857 
#    0.000    2.143    0.000    0.000    0.000    0.000 
#    0.000    0.000    0.000    0.000    0.000    0.000 
#
# Total GULP energy -78265.751684 kJ/mol
# GULP energy per Si atom -5590.410835 kJ/mol
# Density = 2.408713 g / cm^3
# Si number density = 24.142077 Si / 1000 Ang^3
#
#
#
# Elastic Constant Matrix: (Units=GPa)
#
#
# Indices 1 2 3 4 5 6 
#
# 1 123.2973 28.5850 30.4038 -7.3631 -14.0038 -30.5068
# 2 28.5850 85.4835 29.5086 -5.7839 -10.2755 -8.1075
# 3 30.4038 29.5086 122.4118 -10.1356 -34.3572 -12.9568
# 4 -7.3631 -5.7839 -10.1356 49.6975 -6.5799 -4.9523
# 5 -14.0038 -10.2755 -34.3572 -6.5799 35.1922 -0.1003
# 6 -30.5068 -8.1075 -12.9568 -4.9523 -0.1003 55.6612
#
#
#
# Elastic Compliance Matrix: (Units=1/GPa)
#
#
# Indices 1 2 3 4 5 6 
#
# 1 0.010685 -0.002341 -0.000230 0.002332 0.003795 0.005676
# 2 -0.002341 0.013470 -0.002313 0.000892 0.000911 0.000222
# 3 -0.000230 -0.002313 0.013052 0.004350 0.012797 0.002985
# 4 0.002332 0.000892 0.004350 0.023203 0.009786 0.004503
# 5 0.003795 0.000911 0.012797 0.009786 0.044532 0.006143
# 6 0.005676 0.000222 0.002985 0.004503 0.006143 0.022215
#
#
# Mechanical properties :
#
#
# Convention : Reuss Voigt Hill
#
# Bulk Modulus (GPa) = 36.44527 56.46525 46.45526
# Shear Modulus (GPa) = 34.22988 44.28986 39.25987
#
# Velocity S-wave (km/s) = 3.76952 4.28781 4.03699
# Velocity P-wave (km/s) = 5.83735 6.92483 6.40422
#
# Compressibility (1/GPa) = 0.02743840
#
# Stress axis : x y z
#
# Youngs Moduli (GPa) = 93.59216 74.23796 76.61804
#
# Poissons Ratio (x) = 0.17379 0.01765
# Poissons Ratio (y) = 0.21910 0.17719
# Poissons Ratio (z) = 0.02157 0.17169
#
# Static dielectric constant tensor:
#      x y z
#    x 1.839760 -0.038030 -0.191690 
#    y -0.038030 1.952250 -0.190340 
#    z -0.191690 -0.190340 1.503030 
# 
# From -- ./inp_files/333848.got.cif
#   From: 2010.05.17/outbox.cif.g08.bks.cpg/sg2_167_cif.got.tgz:333848.got - 2010.06.03 11:33:40.
