data_PCOD9111631
_publ_section_title
;
Structure prediction by ZEFSAII (Michael W. Deem and Ramdas Pophale) SiO2 
 PCOD9111631
Probable space group: P -1
;
_chemical_formula_sum "Si O2"
_cell_formula_units_Z 14
_cell_length_a 9.312081
_cell_length_b 19.158349
_cell_length_c 8.258494
_cell_angle_alpha 132.164933
_cell_angle_beta 139.887818
_cell_angle_gamma 36.457548
_cell_volume 557.974914
_symmetry_space_group_name_H-M "P -1"
_symmetry_group_IT_number 2
_symmetry_cell_setting 'triclinic'
loop_
_space_group_symop_operation_xyz
x,y,z
-x,-y,-z
loop_
_atom_site_type_symbol
_atom_site_label
_atom_site_fract_x
_atom_site_fract_y
_atom_site_fract_z
Si Si1 0.115585 0.792477 0.054244
Si Si2 0.223582 0.840979 0.545369
Si Si3 0.870435 0.782127 0.340624
Si Si4 0.251656 0.977508 0.071404
Si Si5 0.581400 0.382786 0.234039
Si Si6 0.250158 0.575854 0.027018
Si Si7 0.765256 0.622590 0.796224
O O1 0.165763 0.863013 0.339258
O O2 0.089026 0.706677 0.010850
O O3 0.360480 0.705275 0.000944
O O4 0.849831 0.894162 0.876943
O O5 0.284022 0.910560 0.827502
O O6 0.505814 0.706226 0.585550
O O7 0.985167 0.842922 0.436221
O O8 0.109213 0.693447 0.538118
O O9 0.550555 0.887949 0.277844
O O10 0.858594 0.697603 0.076459
O O11 0.000000 0.000000 0.000000
O O12 0.446202 0.515082 0.262836
O O13 0.353507 0.402927 0.194666
O O14 0.500000 0.500000 0.000000
O O15 0.047038 0.536261 0.803399
#
# Coordination Sequence:
#
# PCOD9111631 Si02
#       7
#     2   2   2   2   2   2   2
#     4  11  22  44  64  97 138 166 217 275 321 386
#     4  10  22  41  66  97 131 170 218 268 332 381
#     4  10  21  42  68  96 128 173 217 267 326 383
#     4  11  24  43  69  97 131 174 221 266 326 396
#     4  10  23  42  69  95 132 175 222 263 321 391
#     4  10  22  43  66  98 132 173 218 268 330 380
#     4  10  20  43  67  95 133 171 221 265 319 398
#
# _framework density 25.090733
#
# number of rings (size 3 to 8) (size 9 to 14) (size 15 to 20)
#    0.000    1.714    1.429    3.429    0.000    3.429 
#   15.429    1.429    0.000    0.000    0.000    0.000 
#    0.000    0.000    0.000    0.000    0.000    0.000 
#
# Total GULP energy -78068.263057 kJ/mol
# GULP energy per Si atom -5576.304504 kJ/mol
# Density = 2.503363 g / cm^3
# Si number density = 25.090733 Si / 1000 Ang^3
#
#
#
# Elastic Constant Matrix: (Units=GPa)
#
#
# Indices 1 2 3 4 5 6 
#
# 1 123.7306 55.7733 38.2566 -39.7805 2.1807 -4.0131
# 2 55.7733 154.2790 32.7496 -43.9149 5.7214 11.1320
# 3 38.2566 32.7496 68.2727 -14.2059 -7.2247 -3.3701
# 4 -39.7805 -43.9149 -14.2059 46.4613 -6.4617 -1.8934
# 5 2.1807 5.7214 -7.2247 -6.4617 30.1637 -7.4107
# 6 -4.0131 11.1320 -3.3701 -1.8934 -7.4107 51.5736
#
#
#
# Elastic Compliance Matrix: (Units=1/GPa)
#
#
# Indices 1 2 3 4 5 6 
#
# 1 0.012902 -0.001382 -0.004718 0.008399 0.000330 0.001350
# 2 -0.001382 0.009751 -0.002746 0.006888 -0.001511 -0.002356
# 3 -0.004718 -0.002746 0.019432 0.000261 0.006159 0.002390
# 4 0.008399 0.006888 0.000261 0.036233 0.006258 0.001413
# 5 0.000330 -0.001511 0.006159 0.006258 0.037807 0.006417
# 6 0.001350 -0.002356 0.002390 0.001413 0.006417 0.021133
#
#
# Mechanical properties :
#
#
# Convention : Reuss Voigt Hill
#
# Bulk Modulus (GPa) = 40.99371 66.64902 53.82136
# Shear Modulus (GPa) = 30.65986 40.27326 35.46656
#
# Velocity S-wave (km/s) = 3.49945 4.01072 3.76378
# Velocity P-wave (km/s) = 5.71855 6.93316 6.35494
#
# Compressibility (1/GPa) = 0.02439399
#
# Stress axis : x y z
#
# Youngs Moduli (GPa) = 77.50804 102.55692 51.46172
#
# Poissons Ratio (x) = 0.14168 0.24278
# Poissons Ratio (y) = 0.10708 0.14132
# Poissons Ratio (z) = 0.36565 0.28164
#
# Static dielectric constant tensor:
#      x y z
#    x 2.222040 -0.128710 0.026160 
#    y -0.128710 2.171890 0.011960 
#    z 0.026160 0.011960 2.105690 
# 
# From -- ./inp_files/88647.got.cif
#   From: 2010.05.17/outbox.cif.g08.bks.cpg/sg2_45_cif.got.tgz:88647.got - 2010.06.03 11:33:40.
