data_PCOD9111498
_publ_section_title
;
Structure prediction by ZEFSAII (Michael W. Deem and Ramdas Pophale) SiO2 
 PCOD9111498
Probable space group: P -1
;
_chemical_formula_sum "Si O2"
_cell_formula_units_Z 14
_cell_length_a 10.389941
_cell_length_b 13.454647
_cell_length_c 8.336218
_cell_angle_alpha 92.617703
_cell_angle_beta 79.133398
_cell_angle_gamma 32.793529
_cell_volume 572.375617
_symmetry_space_group_name_H-M "P -1"
_symmetry_group_IT_number 2
_symmetry_cell_setting 'triclinic'
loop_
_space_group_symop_operation_xyz
x,y,z
-x,-y,-z
loop_
_atom_site_type_symbol
_atom_site_label
_atom_site_fract_x
_atom_site_fract_y
_atom_site_fract_z
Si Si1 0.812386 0.990248 0.600352
Si Si2 0.648210 0.856035 0.304050
Si Si3 0.102152 0.673466 0.712183
Si Si4 0.377302 0.983033 0.945504
Si Si5 0.685705 0.339488 0.091698
Si Si6 0.104714 0.959676 0.741311
Si Si7 0.929161 0.561028 0.705880
O O1 0.055120 0.752046 0.553755
O O2 0.899341 0.024788 0.695179
O O3 0.553488 0.095592 0.708888
O O4 0.771427 0.058059 0.434718
O O5 0.714861 0.907357 0.187921
O O6 0.913657 0.624787 0.252328
O O7 0.500000 0.000000 0.500000
O O8 0.038278 0.599525 0.723455
O O9 0.331255 0.558388 0.765758
O O10 0.866502 0.883371 0.880648
O O11 0.623468 0.753150 0.832701
O O12 0.500000 0.000000 0.000000
O O13 0.693415 0.240424 0.213801
O O14 0.500000 0.500000 0.000000
O O15 0.940057 0.136671 0.913200
O O16 0.000000 0.500000 0.500000
#
# Coordination Sequence:
#
# PCOD9111498 Si02
#       7
#     2   2   2   2   2   2   2
#     4  10  20  43  65  90 130 172 218 268 327 379
#     4  12  23  38  66  93 135 168 213 270 321 392
#     4  10  22  42  68  93 139 174 212 281 323 389
#     4  10  21  42  59  92 129 173 210 262 320 385
#     4  10  22  43  66  98 131 163 222 266 332 390
#     4   9  22  42  67  91 127 174 214 271 325 385
#     4  11  22  40  63  95 130 173 222 258 326 393
#
# _framework density 24.459461999999998
#
# number of rings (size 3 to 8) (size 9 to 14) (size 15 to 20)
#    0.000    1.714    4.286    0.000    4.000    2.286 
#    2.571    2.143    0.000    0.000    0.000    0.000 
#    0.000    0.000    0.000    0.000    0.000    0.000 
#
# Total GULP energy -77992.326676 kJ/mol
# GULP energy per Si atom -5570.880477 kJ/mol
# Density = 2.440379 g / cm^3
# Si number density = 24.459462 Si / 1000 Ang^3
#
#
#
# Elastic Constant Matrix: (Units=GPa)
#
#
# Indices 1 2 3 4 5 6 
#
# 1 78.4933 23.0011 17.6688 -8.1721 10.0384 11.7792
# 2 23.0011 188.3145 36.0932 -22.8824 4.4790 18.2215
# 3 17.6688 36.0932 72.3528 -16.5247 0.4054 13.9029
# 4 -8.1721 -22.8824 -16.5247 48.9365 9.5672 0.4686
# 5 10.0384 4.4790 0.4054 9.5672 39.3263 -5.0019
# 6 11.7792 18.2215 13.9029 0.4686 -5.0019 17.3676
#
#
#
# Elastic Compliance Matrix: (Units=1/GPa)
#
#
# Indices 1 2 3 4 5 6 
#
# 1 0.015974 -0.000017 -0.000605 0.003859 -0.006577 -0.012331
# 2 -0.000017 0.006653 -0.001279 0.003205 -0.002374 -0.006715
# 3 -0.000605 -0.001279 0.018887 0.006465 -0.003311 -0.014495
# 4 0.003859 0.003205 0.006465 0.026819 -0.009811 -0.014704
# 5 -0.006577 -0.002374 -0.003311 -0.009811 0.032234 0.019150
# 6 -0.012331 -0.006715 -0.014495 -0.014704 0.019150 0.090502
#
#
# Mechanical properties :
#
#
# Convention : Reuss Voigt Hill
#
# Bulk Modulus (GPa) = 26.51620 54.74297 40.62959
# Shear Modulus (GPa) = 24.10302 38.61924 31.36113
#
# Velocity S-wave (km/s) = 3.14256 3.97786 3.58462
# Velocity P-wave (km/s) = 4.90224 6.59754 5.81203
#
# Compressibility (1/GPa) = 0.03771279
#
# Stress axis : x y z
#
# Youngs Moduli (GPa) = 62.60049 150.30562 52.94546
#
# Poissons Ratio (x) = 0.00251 0.03203
# Poissons Ratio (y) = 0.00104 0.06773
# Poissons Ratio (z) = 0.03787 0.19229
#
# Static dielectric constant tensor:
#      x y z
#    x 2.007310 0.029790 -0.084720 
#    y 0.029790 1.893420 0.092750 
#    z -0.084720 0.092750 1.794060 
# 
# From -- ./inp_files/273379.got.cif
#   From: 2010.05.17/outbox.cif.g08.bks.cpg/sg2_137_cif.got.tgz:273379.got - 2010.06.03 11:33:40.
