data_PCOD9111434
_publ_section_title
;
Structure prediction by ZEFSAII (Michael W. Deem and Ramdas Pophale) SiO2 
 PCOD9111434
Probable space group: P -1
;
_chemical_formula_sum "Si O2"
_cell_formula_units_Z 12
_cell_length_a 9.315002
_cell_length_b 8.716466
_cell_length_c 17.527502
_cell_angle_alpha 135.441437
_cell_angle_beta 27.829449
_cell_angle_gamma 124.792455
_cell_volume 458.390222
_symmetry_space_group_name_H-M "P -1"
_symmetry_group_IT_number 2
_symmetry_cell_setting 'triclinic'
loop_
_space_group_symop_operation_xyz
x,y,z
-x,-y,-z
loop_
_atom_site_type_symbol
_atom_site_label
_atom_site_fract_x
_atom_site_fract_y
_atom_site_fract_z
Si Si1 0.459652 0.113500 0.329722
Si Si2 0.659438 0.338852 0.178414
Si Si3 0.980407 0.803556 0.618662
Si Si4 0.745074 0.331704 0.710945
Si Si5 0.666242 0.208587 0.968932
Si Si6 0.458009 0.796301 0.501758
O O1 0.690887 0.176494 0.178757
O O2 0.550672 0.155121 0.388088
O O3 0.111293 0.269403 0.540228
O O4 0.421564 0.859744 0.244142
O O5 0.306675 0.315766 0.308578
O O6 0.824533 0.276342 0.997311
O O7 0.683343 0.573539 0.287704
O O8 0.240879 0.726254 0.406307
O O9 0.118369 0.750622 0.618591
O O10 0.888497 0.071116 0.752504
O O11 0.547639 0.579492 0.894337
O O12 0.500000 0.000000 0.000000
O O13 0.500000 0.000000 0.500000
#
# Coordination Sequence:
#
# PCOD9111434 Si02
#       6
#     2   2   2   2   2   2
#     4  10  22  36  66  91 123 166 199 254 316 353
#     4  10  21  39  60  91 124 158 205 250 301 364
#     4  10  21  38  70  87 118 165 209 243 302 364
#     4  10  20  43  63  88 126 163 206 252 301 367
#     4  10  21  37  67  93 115 166 214 244 297 373
#     4  12  21  38  65  93 121 163 208 250 308 367
#
# _framework density 26.178567000000001
#
# number of rings (size 3 to 8) (size 9 to 14) (size 15 to 20)
#    0.000    1.667    3.333    1.000    7.000    0.000 
#    0.000   17.500    7.333    0.000    0.000    0.000 
#    0.000    0.000    0.000    0.000    0.000    0.000 
#
# Total GULP energy -67033.628253 kJ/mol
# GULP energy per Si atom -5586.135688 kJ/mol
# Density = 2.611898 g / cm^3
# Si number density = 26.178567 Si / 1000 Ang^3
#
#
#
# Elastic Constant Matrix: (Units=GPa)
#
#
# Indices 1 2 3 4 5 6 
#
# 1 162.6019 24.4767 5.7165 12.1568 10.1569 -12.8204
# 2 24.4767 114.4017 44.1768 32.1892 -0.8312 -23.4214
# 3 5.7165 44.1768 114.7449 50.2841 -6.9243 -9.2838
# 4 12.1568 32.1892 50.2841 49.5029 -4.3041 -1.5038
# 5 10.1569 -0.8312 -6.9243 -4.3041 33.8432 7.0102
# 6 -12.8204 -23.4214 -9.2838 -1.5038 7.0102 35.9881
#
#
#
# Elastic Compliance Matrix: (Units=1/GPa)
#
#
# Indices 1 2 3 4 5 6 
#
# 1 0.006774 -0.000623 0.001038 -0.002466 -0.002709 0.002700
# 2 -0.000623 0.012964 -0.001521 -0.006690 -0.002312 0.007993
# 3 0.001038 -0.001521 0.016457 -0.015859 0.000404 0.002884
# 4 -0.002466 -0.006690 -0.015859 0.041387 0.004343 -0.008440
# 5 -0.002709 -0.002312 0.000404 0.004343 0.032711 -0.008556
# 6 0.002700 0.007993 0.002884 -0.008440 -0.008556 0.036009
#
#
# Mechanical properties :
#
#
# Convention : Reuss Voigt Hill
#
# Bulk Modulus (GPa) = 29.42730 60.05427 44.74078
# Shear Modulus (GPa) = 31.28096 45.02539 38.15318
#
# Velocity S-wave (km/s) = 3.46049 4.15171 3.82176
# Velocity P-wave (km/s) = 5.21844 6.78029 6.04997
#
# Compressibility (1/GPa) = 0.03398205
#
# Stress axis : x y z
#
# Youngs Moduli (GPa) = 147.62809 77.13744 60.76581
#
# Poissons Ratio (x) = 0.04807 -0.06309
# Poissons Ratio (y) = 0.09200 0.09244
# Poissons Ratio (z) = -0.15329 0.11735
#
# Static dielectric constant tensor:
#      x y z
#    x 2.112800 -0.001310 -0.052260 
#    y -0.001310 2.218730 -0.124820 
#    z -0.052260 -0.124820 2.332490 
# 
# From -- ./inp_files/162329.got.cif
#   From: 2010.05.17/outbox.cif.g08.bks.cpg/sg2_82_cif.got.tgz:162329.got - 2010.06.03 11:33:40.
