data_PCOD9111751
_publ_section_title
;
Structure prediction by ZEFSAII (Michael W. Deem and Ramdas Pophale) SiO2 
 PCOD9111751
Probable space group: P -1
;
_chemical_formula_sum "Si O2"
_cell_formula_units_Z 16
_cell_length_a 9.577058
_cell_length_b 14.034510
_cell_length_c 12.292600
_cell_angle_alpha 109.006081
_cell_angle_beta 128.735437
_cell_angle_gamma 112.019619
_cell_volume 755.412753
_symmetry_space_group_name_H-M "P -1"
_symmetry_group_IT_number 2
_symmetry_cell_setting 'triclinic'
loop_
_space_group_symop_operation_xyz
x,y,z
-x,-y,-z
loop_
_atom_site_type_symbol
_atom_site_label
_atom_site_fract_x
_atom_site_fract_y
_atom_site_fract_z
Si Si1 0.773112 0.195131 0.528753
Si Si2 0.418990 0.348248 0.404704
Si Si3 0.847908 0.324315 0.845678
Si Si4 0.239595 0.142575 0.920072
Si Si5 0.753566 0.351327 0.403911
Si Si6 0.321899 0.217145 0.541559
Si Si7 0.913492 0.147590 0.925361
Si Si8 0.163894 0.177291 0.672879
O O1 0.877672 0.293632 0.727604
O O2 0.846620 0.297568 0.500341
O O3 0.930827 0.158927 0.579149
O O4 0.424401 0.029263 0.300034
O O5 0.500000 0.500000 0.500000
O O6 0.630701 0.378743 0.440660
O O7 0.437067 0.317102 0.524833
O O8 0.096415 0.198727 0.140510
O O9 0.508564 0.199310 0.646474
O O10 0.938514 0.276970 0.955813
O O11 0.000000 0.500000 0.000000
O O12 0.065981 0.151242 0.905384
O O13 0.346082 0.236162 0.892393
O O14 0.487177 0.210014 0.142081
O O15 0.007395 0.955110 0.708447
O O16 0.000000 0.500000 0.500000
O O17 0.335228 0.282232 0.685990
O O18 0.000000 0.000000 0.500000
#
# Coordination Sequence:
#
# PCOD9111751 Si02
#       8
#     2   2   2   2   2   2   2   2
#     4  12  23  45  71 101 133 183 234 277 338 407
#     4  11  24  43  64  95 138 178 222 279 346 398
#     4  12  24  40  67 105 139 170 222 285 343 401
#     4  10  20  43  69  97 128 175 224 277 333 399
#     4  11  26  44  66  96 137 177 228 282 344 401
#     4  11  22  43  66  95 136 170 227 274 332 411
#     4  11  21  40  74  98 128 179 231 276 331 409
#     4  10  23  41  66 102 134 170 218 282 335 392
#
# _framework density 21.180474
#
# number of rings (size 3 to 8) (size 9 to 14) (size 15 to 20)
#    0.000    1.000    3.750    3.375    1.750    3.000 
#    4.500    4.375    0.000    0.000    0.000    0.000 
#    0.000    0.000    0.000    0.000    0.000    0.000 
#
# Total GULP energy -89427.441562 kJ/mol
# GULP energy per Si atom -5589.215098 kJ/mol
# Density = 2.113227 g / cm^3
# Si number density = 21.180474 Si / 1000 Ang^3
#
#
#
# Elastic Constant Matrix: (Units=GPa)
#
#
# Indices 1 2 3 4 5 6 
#
# 1 95.9238 35.1013 24.1904 -12.2340 -15.0927 12.2763
# 2 35.1013 100.8814 16.8961 -12.3272 -5.5699 13.4629
# 3 24.1904 16.8961 46.3184 -9.0512 -6.8343 8.0022
# 4 -12.2340 -12.3272 -9.0512 34.6011 -0.0466 -5.3974
# 5 -15.0927 -5.5699 -6.8343 -0.0466 25.1512 -4.9092
# 6 12.2763 13.4629 8.0022 -5.3974 -4.9092 42.4218
#
#
#
# Elastic Compliance Matrix: (Units=1/GPa)
#
#
# Indices 1 2 3 4 5 6 
#
# 1 0.014290 -0.003396 -0.004608 0.002468 0.006353 -0.001139
# 2 -0.003396 0.011950 -0.001811 0.002236 -0.000313 -0.002220
# 3 -0.004608 -0.001811 0.026394 0.004306 0.003603 -0.002106
# 4 0.002468 0.002236 0.004306 0.032055 0.003648 0.002264
# 5 0.006353 -0.000313 0.003603 0.003648 0.045126 0.003267
# 6 -0.001139 -0.002220 -0.002106 0.002264 0.003267 0.025670
#
#
# Mechanical properties :
#
#
# Convention : Reuss Voigt Hill
#
# Bulk Modulus (GPa) = 30.29979 43.94434 37.12207
# Shear Modulus (GPa) = 26.86504 31.56386 29.21445
#
# Velocity S-wave (km/s) = 3.56531 3.86454 3.71794
# Velocity P-wave (km/s) = 5.59331 6.38009 5.99961
#
# Compressibility (1/GPa) = 0.03300353
#
# Stress axis : x y z
#
# Youngs Moduli (GPa) = 69.98003 83.68349 37.88779
#
# Poissons Ratio (x) = 0.28419 0.17458
# Poissons Ratio (y) = 0.23765 0.06862
# Poissons Ratio (z) = 0.32245 0.15157
#
# Static dielectric constant tensor:
#      x y z
#    x 1.776590 0.055410 0.006290 
#    y 0.055410 1.815900 0.028880 
#    z 0.006290 0.028880 1.792340 
# 
# From -- ./inp_files/243114.got.cif
#   From: 2010.05.17/outbox.cif.g08.bks.cpg/sg2_122_cif.got.tgz:243114.got - 2010.06.03 11:33:40.
