data_PCOD9111599
_publ_section_title
;
Structure prediction by ZEFSAII (Michael W. Deem and Ramdas Pophale) SiO2 
 PCOD9111599
Probable space group: P -1
;
_chemical_formula_sum "Si O2"
_cell_formula_units_Z 14
_cell_length_a 20.317485
_cell_length_b 13.645538
_cell_length_c 5.246570
_cell_angle_alpha 91.403871
_cell_angle_beta 79.941027
_cell_angle_gamma 155.050034
_cell_volume 571.909564
_symmetry_space_group_name_H-M "P -1"
_symmetry_group_IT_number 2
_symmetry_cell_setting 'triclinic'
loop_
_space_group_symop_operation_xyz
x,y,z
-x,-y,-z
loop_
_atom_site_type_symbol
_atom_site_label
_atom_site_fract_x
_atom_site_fract_y
_atom_site_fract_z
Si Si1 0.184788 0.054338 0.485774
Si Si2 0.863093 0.659748 0.402063
Si Si3 0.635594 0.526194 0.393285
Si Si4 0.043811 0.367909 0.049839
Si Si5 0.163763 0.705579 0.240616
Si Si6 0.332811 0.747456 0.232391
Si Si7 0.406821 0.214500 0.034914
O O1 0.288969 0.263754 0.615858
O O2 0.305255 0.175680 0.188598
O O3 0.017928 0.890459 0.503141
O O4 0.115846 0.868579 0.682525
O O5 0.791373 0.660276 0.323132
O O6 0.686244 0.364664 0.563932
O O7 0.959898 0.698576 0.204474
O O8 0.538918 0.377492 0.186605
O O9 0.507823 0.348023 0.709984
O O10 0.105042 0.561308 0.027989
O O11 0.199930 0.528741 0.103113
O O12 0.265145 0.763443 0.350260
O O13 0.000000 0.500000 0.500000
O O14 0.271371 0.943937 0.111944
O O15 0.500000 0.000000 0.000000
#
# Coordination Sequence:
#
# PCOD9111599 Si02
#       7
#     2   2   2   2   2   2   2
#     4  11  25  49  70 101 143 189 241 289 354 423
#     4  11  24  43  71 103 139 193 236 289 355 428
#     4  12  30  45  75 106 144 187 242 296 353 415
#     4   9  23  38  70  99 138 179 237 281 356 415
#     4  10  20  43  67 101 137 182 234 282 353 429
#     4   9  20  38  61  94 141 170 229 281 355 404
#     4  12  27  49  72 109 143 186 236 299 359 415
#
# _framework density 24.479396000000001
#
# number of rings (size 3 to 8) (size 9 to 14) (size 15 to 20)
#    0.857    0.571    1.429    2.143   10.000    2.286 
#    0.000    2.143    0.000    0.000    0.000    0.000 
#    0.000    0.000    0.000    0.000    0.000    0.000 
#
# Total GULP energy -78035.669193 kJ/mol
# GULP energy per Si atom -5573.976371 kJ/mol
# Density = 2.442368 g / cm^3
# Si number density = 24.479396 Si / 1000 Ang^3
#
#
#
# Elastic Constant Matrix: (Units=GPa)
#
#
# Indices 1 2 3 4 5 6 
#
# 1 92.3872 26.2565 -4.9033 -2.3869 -9.6709 3.5902
# 2 26.2565 99.7694 43.5965 -21.7933 -7.2724 -17.7141
# 3 -4.9033 43.5965 66.4770 4.5332 -2.8906 8.7262
# 4 -2.3869 -21.7933 4.5332 16.7604 -3.1291 -13.0469
# 5 -9.6709 -7.2724 -2.8906 -3.1291 24.1608 -8.7719
# 6 3.5902 -17.7141 8.7262 -13.0469 -8.7719 34.1656
#
#
#
# Elastic Compliance Matrix: (Units=1/GPa)
#
#
# Indices 1 2 3 4 5 6 
#
# 1 0.011203 0.001596 -0.001362 0.010341 0.008353 0.006092
# 2 0.001596 -0.008805 0.011079 -0.036653 -0.014623 -0.025314
# 3 -0.001362 0.011079 0.003262 0.032971 0.015280 0.021568
# 4 0.010341 -0.036653 0.032971 -0.039606 -0.026380 -0.050409
# 5 0.008353 -0.014623 0.015280 -0.026380 0.033742 -0.013773
# 6 0.006092 -0.025314 0.021568 -0.050409 -0.013773 -0.012790
#
#
# Mechanical properties :
#
#
# Convention : Reuss Voigt Hill
#
# Bulk Modulus (GPa) = 35.35441 43.17034 39.26237
# Shear Modulus (GPa) = -190.90367 27.92962 -81.48702
#
# Velocity S-wave (km/s) = -8.84052 3.38145 -5.77583
# Velocity P-wave (km/s) = 9.47272 5.73753 5.32978
#
# Compressibility (1/GPa) = 0.02828502
#
# Stress axis : x y z
#
# Youngs Moduli (GPa) = 89.26321 -113.57241 306.59002
#
# Poissons Ratio (x) = 0.18130 0.41764
# Poissons Ratio (y) = -0.14249 -3.39660
# Poissons Ratio (z) = 0.12160 1.25823
#
# Static dielectric constant tensor:
#      x y z
#    x 1.944990 0.037990 0.061660 
#    y 0.037990 1.944270 0.079430 
#    z 0.061660 0.079430 2.344120 
# 
# From -- ./inp_files/124248.got.cif
#   From: 2010.05.17/outbox.cif.g08.bks.cpg/sg2_63_cif.got.tgz:124248.got - 2010.06.03 11:33:40.
