data_PCOD9111404
_publ_section_title
;
Structure prediction by ZEFSAII (Michael W. Deem and Ramdas Pophale) SiO2 
 PCOD9111404
Probable space group: P -1
;
_chemical_formula_sum "Si O2"
_cell_formula_units_Z 14
_cell_length_a 21.438666
_cell_length_b 15.918437
_cell_length_c 17.076589
_cell_angle_alpha 23.867552
_cell_angle_beta 161.850644
_cell_angle_gamma 162.794026
_cell_volume 535.534591
_symmetry_space_group_name_H-M "P -1"
_symmetry_group_IT_number 2
_symmetry_cell_setting 'triclinic'
loop_
_space_group_symop_operation_xyz
x,y,z
-x,-y,-z
loop_
_atom_site_type_symbol
_atom_site_label
_atom_site_fract_x
_atom_site_fract_y
_atom_site_fract_z
Si Si1 0.896178 0.351144 0.142010
Si Si2 0.469132 0.288055 0.776270
Si Si3 0.247897 0.315234 0.081764
Si Si4 0.936263 0.218349 0.477109
Si Si5 0.578246 0.694471 0.003092
Si Si6 0.724881 0.191434 0.538049
Si Si7 0.562023 0.276815 0.607878
O O1 0.985735 0.335678 0.348696
O O2 0.156061 0.615999 0.178625
O O3 0.761055 0.049309 0.201320
O O4 0.661292 0.350006 0.881895
O O5 0.357131 0.439459 0.503470
O O6 0.661981 0.452264 0.942557
O O7 0.932329 0.142429 0.830211
O O8 0.435031 0.491481 0.080042
O O9 0.352653 0.185503 0.363874
O O10 0.095717 0.110173 0.767377
O O11 0.076680 0.477609 0.483354
O O12 0.623382 0.968428 0.341437
O O13 0.500000 0.500000 0.000000
O O14 0.451816 0.833104 0.722309
O O15 0.500000 0.000000 0.500000
#
# Coordination Sequence:
#
# PCOD9111404 Si02
#       7
#     2   2   2   2   2   2   2
#     4  11  20  43  68  96 135 177 211 272 324 391
#     4   9  22  40  68  95 133 173 219 262 332 390
#     4  10  20  43  61  94 130 170 217 275 319 395
#     4  11  21  43  62  97 132 164 227 267 324 396
#     4  10  22  39  62  91 124 173 220 268 327 388
#     4  11  23  42  61  90 127 170 219 275 330 383
#     4  10  22  39  66  95 135 174 213 266 332 375
#
# _framework density 26.142104
#
# number of rings (size 3 to 8) (size 9 to 14) (size 15 to 20)
#    0.857    0.857    2.857    1.714    0.000    0.571 
#   10.286    7.143    0.000    0.000    0.000    0.000 
#    0.000    0.000    0.000    0.000    0.000    0.000 
#
# Total GULP energy -78329.486017 kJ/mol
# GULP energy per Si atom -5594.963287 kJ/mol
# Density = 2.608260 g / cm^3
# Si number density = 26.142104 Si / 1000 Ang^3
#
#
#
# Elastic Constant Matrix: (Units=GPa)
#
#
# Indices 1 2 3 4 5 6 
#
# 1 70.0416 32.3464 20.1136 3.3858 5.3774 16.0021
# 2 32.3464 94.3361 26.5345 26.1308 28.3660 14.5993
# 3 20.1136 26.5345 126.7792 0.5830 23.4160 21.2315
# 4 3.3858 26.1308 0.5830 45.1997 12.4704 12.7017
# 5 5.3774 28.3660 23.4160 12.4704 39.5447 4.1467
# 6 16.0021 14.5993 21.2315 12.7017 4.1467 46.2446
#
#
#
# Elastic Compliance Matrix: (Units=1/GPa)
#
#
# Indices 1 2 3 4 5 6 
#
# 1 0.018592 -0.007011 -0.001183 0.003294 0.002668 -0.004821
# 2 -0.007011 0.018056 -0.000953 -0.007392 -0.009104 0.000010
# 3 -0.001183 -0.000953 0.010026 0.003281 -0.005678 -0.004285
# 4 0.003294 -0.007392 0.003281 0.029932 -0.005686 -0.008024
# 5 0.002668 -0.009104 -0.005678 -0.005686 0.036310 0.002863
# 6 -0.004821 0.000010 -0.004285 -0.008024 0.002863 0.027204
#
#
# Mechanical properties :
#
#
# Convention : Reuss Voigt Hill
#
# Bulk Modulus (GPa) = 35.23509 49.90509 42.57009
# Shear Modulus (GPa) = 29.78440 40.34195 35.06317
#
# Velocity S-wave (km/s) = 3.37905 3.93259 3.66629
# Velocity P-wave (km/s) = 5.36018 6.30490 5.85164
#
# Compressibility (1/GPa) = 0.02838080
#
# Stress axis : x y z
#
# Youngs Moduli (GPa) = 53.78659 55.38361 99.74085
#
# Poissons Ratio (x) = 0.38829 0.11797
# Poissons Ratio (y) = 0.37709 0.09504
# Poissons Ratio (z) = 0.06362 0.05278
#
# Static dielectric constant tensor:
#      x y z
#    x 2.033830 -0.069930 -0.003060 
#    y -0.069930 2.007220 -0.068370 
#    z -0.003060 -0.068370 2.147770 
# 
# From -- ./inp_files/578334.got.cif
#   From: 2010.05.17/outbox.cif.g08.bks.cpg/sg2_290_cif.got.tgz:578334.got - 2010.06.03 11:33:40.
