data_PCOD9111654
_publ_section_title
;
Structure prediction by ZEFSAII (Michael W. Deem and Ramdas Pophale) SiO2 
 PCOD9111654
Probable space group: P -1
;
_chemical_formula_sum "Si O2"
_cell_formula_units_Z 16
_cell_length_a 5.852105
_cell_length_b 7.751117
_cell_length_c 20.716554
_cell_angle_alpha 119.437255
_cell_angle_beta 65.191709
_cell_angle_gamma 118.466059
_cell_volume 698.047584
_symmetry_space_group_name_H-M "P -1"
_symmetry_group_IT_number 2
_symmetry_cell_setting 'triclinic'
loop_
_space_group_symop_operation_xyz
x,y,z
-x,-y,-z
loop_
_atom_site_type_symbol
_atom_site_label
_atom_site_fract_x
_atom_site_fract_y
_atom_site_fract_z
Si Si1 0.506931 0.884482 0.307600
Si Si2 0.684301 0.482476 0.036055
Si Si3 0.676298 0.769640 0.868832
Si Si4 0.080478 0.162232 0.834947
Si Si5 0.720451 0.515535 0.558399
Si Si6 0.916101 0.393353 0.780267
Si Si7 0.310183 0.142560 0.476805
Si Si8 0.504675 0.441467 0.279314
O O1 0.784195 0.967677 0.250869
O O2 0.486629 0.654475 0.291209
O O3 0.266417 0.820369 0.272854
O O4 0.463140 0.009680 0.396803
O O5 0.530448 0.271788 0.055808
O O6 0.695222 0.676610 0.117650
O O7 0.500000 0.500000 0.000000
O O8 0.000000 0.500000 0.000000
O O9 0.541187 0.715456 0.804055
O O10 0.816990 0.593621 0.832856
O O11 0.875956 0.003746 0.878114
O O12 0.975159 0.309372 0.827556
O O13 0.489511 0.283267 0.539000
O O14 0.678905 0.678794 0.543080
O O15 0.701724 0.614003 0.648193
O O16 0.000000 0.500000 0.500000
O O17 0.187571 0.490623 0.723970
O O18 0.000000 0.000000 0.500000
#
# Coordination Sequence:
#
# PCOD9111654 Si02
#       8
#     2   2   2   2   2   2   2   2
#     4  10  22  40  69  95 135 178 242 299 351 433
#     4  12  27  52  77 110 159 192 240 311 373 456
#     4  11  25  44  73 106 141 188 242 293 359 445
#     4  11  25  44  72 109 136 191 240 287 373 435
#     4  11  26  41  63  96 143 181 240 299 364 435
#     4  10  20  43  68 102 145 178 243 304 354 426
#     4  11  25  43  61  96 135 189 238 296 369 425
#     4  10  22  41  67  98 134 187 233 300 357 427
#
# _framework density 22.921074000000001
#
# number of rings (size 3 to 8) (size 9 to 14) (size 15 to 20)
#    0.000    1.250    3.750    2.250    5.250    6.000 
#    0.000    0.000    0.000    0.000    0.000    0.000 
#    0.000    0.000    0.000    0.000    0.000    0.000 
#
# Total GULP energy -89266.904981 kJ/mol
# GULP energy per Si atom -5579.181561 kJ/mol
# Density = 2.286890 g / cm^3
# Si number density = 22.921074 Si / 1000 Ang^3
#
#
#
# Elastic Constant Matrix: (Units=GPa)
#
#
# Indices 1 2 3 4 5 6 
#
# 1 64.5435 11.4091 26.8135 -13.0699 3.7967 10.0412
# 2 11.4091 108.4674 19.0766 -22.1602 1.5007 9.7754
# 3 26.8135 19.0766 83.6241 -25.9566 -0.4508 0.3853
# 4 -13.0699 -22.1602 -25.9566 45.0686 4.7902 -5.5999
# 5 3.7967 1.5007 -0.4508 4.7902 39.5992 -3.2607
# 6 10.0412 9.7754 0.3853 -5.5999 -3.2607 20.3669
#
#
#
# Elastic Compliance Matrix: (Units=1/GPa)
#
#
# Indices 1 2 3 4 5 6 
#
# 1 0.019948 0.000193 -0.005927 0.001558 -0.002988 -0.009865
# 2 0.000193 0.010671 -0.001167 0.004242 -0.001298 -0.004236
# 3 -0.005927 -0.001167 0.016546 0.007874 0.000291 0.005381
# 4 0.001558 0.004242 0.007874 0.030228 -0.003482 0.004801
# 5 -0.002988 -0.001298 0.000291 -0.003482 0.026455 0.005369
# 6 -0.009865 -0.004236 0.005381 0.004801 0.005369 0.058074
#
#
# Mechanical properties :
#
#
# Convention : Reuss Voigt Hill
#
# Bulk Modulus (GPa) = 29.97401 41.24817 35.61109
# Shear Modulus (GPa) = 26.76029 34.29599 30.52814
#
# Velocity S-wave (km/s) = 3.42057 3.87235 3.65345
# Velocity P-wave (km/s) = 5.35779 6.16671 5.77643
#
# Compressibility (1/GPa) = 0.03336223
#
# Stress axis : x y z
#
# Youngs Moduli (GPa) = 50.13122 93.71435 60.43784
#
# Poissons Ratio (x) = -0.01808 0.35823
# Poissons Ratio (y) = -0.00967 0.07052
# Poissons Ratio (z) = 0.29714 0.10934
#
# Static dielectric constant tensor:
#      x y z
#    x 1.984770 0.094100 0.031770 
#    y 0.094100 1.838410 -0.030930 
#    z 0.031770 -0.030930 1.879780 
# 
# From -- ./inp_files/104517.got.cif
#   From: 2010.05.17/outbox.cif.g08.bks.cpg/sg2_53_cif.got.tgz:104517.got - 2010.06.03 11:33:40.
