data_PCOD9111871
_publ_section_title
;
Structure prediction by ZEFSAII (Michael W. Deem and Ramdas Pophale) SiO2 
 PCOD9111871
Probable space group: P -1
;
_chemical_formula_sum "Si O2"
_cell_formula_units_Z 10
_cell_length_a 8.930592
_cell_length_b 8.018666
_cell_length_c 9.392469
_cell_angle_alpha 130.432862
_cell_angle_beta 47.208165
_cell_angle_gamma 105.124249
_cell_volume 355.726971
_symmetry_space_group_name_H-M "P -1"
_symmetry_group_IT_number 2
_symmetry_cell_setting 'triclinic'
loop_
_space_group_symop_operation_xyz
x,y,z
-x,-y,-z
loop_
_atom_site_type_symbol
_atom_site_label
_atom_site_fract_x
_atom_site_fract_y
_atom_site_fract_z
Si Si1 0.990163 0.970331 0.320555
Si Si2 0.185438 0.312354 0.928092
Si Si3 0.658988 0.108753 0.179877
Si Si4 0.400281 0.586734 0.263290
Si Si5 0.763407 0.574137 0.471666
O O1 0.934059 0.755416 0.166188
O O2 0.794318 0.182347 0.505969
O O3 0.000000 0.000000 0.500000
O O4 0.207186 0.963398 0.092920
O O5 0.391010 0.376418 0.777178
O O6 0.269751 0.093606 0.861066
O O7 0.014063 0.511031 0.241132
O O8 0.718430 0.335022 0.320891
O O9 0.404472 0.202651 0.367283
O O10 0.306769 0.414477 0.312745
O O11 0.500000 0.500000 0.000000
#
# Coordination Sequence:
#
# PCOD9111871 Si02
#       5
#     2   2   2   2   2
#     4  11  22  44  70 105 142 177 231 288 344 417
#     4  11  23  47  77  97 137 195 227 279 358 409
#     4  10  20  43  73 101 138 184 227 289 345 413
#     4  12  25  44  70 105 144 180 235 294 340 409
#     4  10  21  43  70 104 141 173 236 289 342 415
#
# _framework density 28.111447999999999
#
# number of rings (size 3 to 8) (size 9 to 14) (size 15 to 20)
#    0.000    1.200    4.000    3.000    0.000    0.800 
#    7.200    8.000    0.000    0.000    0.000    0.000 
#    0.000    0.000    0.000    0.000    0.000    0.000 
#
# Total GULP energy -56169.374216 kJ/mol
# GULP energy per Si atom -5616.937422 kJ/mol
# Density = 2.804746 g / cm^3
# Si number density = 28.111448 Si / 1000 Ang^3
#
#
#
# Elastic Constant Matrix: (Units=GPa)
#
#
# Indices 1 2 3 4 5 6 
#
# 1 137.2432 53.1598 62.3831 -7.5893 0.3544 -3.5130
# 2 53.1598 133.5744 70.3617 -6.5017 -3.7459 -21.8407
# 3 62.3831 70.3617 220.8088 -25.8510 -29.8472 -21.7757
# 4 -7.5893 -6.5017 -25.8510 48.8349 -18.8466 8.3297
# 5 0.3544 -3.7459 -29.8472 -18.8466 66.4419 1.7796
# 6 -3.5130 -21.8407 -21.7757 8.3297 1.7796 57.4356
#
#
#
# Elastic Compliance Matrix: (Units=1/GPa)
#
#
# Indices 1 2 3 4 5 6 
#
# 1 0.009271 -0.002876 -0.002006 -0.000240 -0.001148 -0.001217
# 2 -0.002876 0.010333 -0.002455 -0.001251 -0.000941 0.003033
# 3 -0.002006 -0.002455 0.007093 0.004658 0.004358 0.000823
# 4 -0.000240 -0.001251 0.004658 0.027009 0.009763 -0.002944
# 5 -0.001148 -0.000941 0.004358 0.009763 0.019752 -0.000804
# 6 -0.001217 0.003033 0.000823 -0.002944 -0.000804 0.019254
#
#
# Mechanical properties :
#
#
# Convention : Reuss Voigt Hill
#
# Bulk Modulus (GPa) = 83.16810 95.93728 89.55269
# Shear Modulus (GPa) = 44.88660 54.92394 49.90527
#
# Velocity S-wave (km/s) = 4.00025 4.42497 4.21796
# Velocity P-wave (km/s) = 7.14041 7.76587 7.45970
#
# Compressibility (1/GPa) = 0.01202384
#
# Stress axis : x y z
#
# Youngs Moduli (GPa) = 107.86815 96.78140 140.97933
#
# Poissons Ratio (x) = 0.27830 0.28281
# Poissons Ratio (y) = 0.31019 0.34605
# Poissons Ratio (z) = 0.21639 0.23756
#
# Static dielectric constant tensor:
#      x y z
#    x 2.257270 0.042180 0.121950 
#    y 0.042180 2.161520 -0.008360 
#    z 0.121950 -0.008360 2.161910 
# 
# From -- ./inp_files/144111.got.cif
#   From: 2010.05.17/outbox.cif.g08.bks.cpg/sg2_73_cif.got.tgz:144111.got - 2010.06.03 11:33:40.
