data_PCOD9111070
_publ_section_title
;
Structure prediction by ZEFSAII (Michael W. Deem and Ramdas Pophale) SiO2 
 PCOD9111070
Probable space group: P -1
;
_chemical_formula_sum "Si O2"
_cell_formula_units_Z 14
_cell_length_a 9.843414
_cell_length_b 26.869396
_cell_length_c 14.690203
_cell_angle_alpha 18.616925
_cell_angle_beta 133.352739
_cell_angle_gamma 143.373521
_cell_volume 681.755142
_symmetry_space_group_name_H-M "P -1"
_symmetry_group_IT_number 2
_symmetry_cell_setting 'triclinic'
loop_
_space_group_symop_operation_xyz
x,y,z
-x,-y,-z
loop_
_atom_site_type_symbol
_atom_site_label
_atom_site_fract_x
_atom_site_fract_y
_atom_site_fract_z
Si Si1 0.144057 0.417425 0.210308
Si Si2 0.548769 0.594001 0.761110
Si Si3 0.484463 0.791844 0.811000
Si Si4 0.041626 0.366752 0.809777
Si Si5 0.616189 0.140224 0.159316
Si Si6 0.861562 0.947956 0.933202
Si Si7 0.999205 0.073041 0.147690
O O1 0.306664 0.469728 0.107817
O O2 0.975144 0.175103 0.559944
O O3 0.346282 0.552972 0.147298
O O4 0.000000 0.500000 0.000000
O O5 0.308764 0.502834 0.747177
O O6 0.735548 0.842610 0.424110
O O7 0.500000 0.500000 0.000000
O O8 0.347558 0.793880 0.831276
O O9 0.772926 0.919044 0.740155
O O10 0.487948 0.901994 0.531596
O O11 0.000000 0.500000 0.500000
O O12 0.840647 0.248947 0.003937
O O13 0.009196 0.210093 0.992164
O O14 0.427388 0.170785 0.985074
O O15 0.932877 0.856224 0.050053
O O16 0.000000 0.000000 0.000000
#
# Coordination Sequence:
#
# PCOD9111070 Si02
#       7
#     2   2   2   2   2   2   2
#     4  11  22  39  68 101 130 167 233 287 331 406
#     4  11  26  44  68 101 136 177 230 282 345 411
#     4  10  20  42  68  97 128 171 228 292 337 389
#     4  12  28  46  66 100 144 187 227 276 354 429
#     4  10  23  39  66  97 131 171 228 281 339 404
#     4  10  23  42  66  96 135 179 224 281 341 408
#     4  10  24  45  68  93 137 180 220 288 342 404
#
# _framework density 20.535232000000001
#
# number of rings (size 3 to 8) (size 9 to 14) (size 15 to 20)
#    0.000    1.429    2.857    0.857   10.000    2.857 
#    0.000    2.857    0.000    0.000    0.000    0.000 
#    0.000    0.000    0.000    0.000    0.000    0.000 
#
# Total GULP energy -77963.236044 kJ/mol
# GULP energy per Si atom -5568.802575 kJ/mol
# Density = 2.048849 g / cm^3
# Si number density = 20.535232 Si / 1000 Ang^3
#
#
#
# Elastic Constant Matrix: (Units=GPa)
#
#
# Indices 1 2 3 4 5 6 
#
# 1 188.5655 68.7115 61.6211 -4.2180 -2.8803 -4.1945
# 2 68.7115 133.2045 41.8974 -7.9091 -3.2635 -1.4160
# 3 61.6211 41.8974 44.8672 -8.7063 6.9553 -2.4145
# 4 -4.2180 -7.9091 -8.7063 43.5837 -8.5672 1.0455
# 5 -2.8803 -3.2635 6.9553 -8.5672 26.5758 -7.7864
# 6 -4.1945 -1.4160 -2.4145 1.0455 -7.7864 26.2270
#
#
#
# Elastic Compliance Matrix: (Units=1/GPa)
#
#
# Indices 1 2 3 4 5 6 
#
# 1 0.010395 -0.000728 -0.014486 -0.001078 0.005015 0.001821
# 2 -0.000728 0.011162 -0.009900 0.000821 0.004396 0.000847
# 3 -0.014486 -0.009900 0.054712 0.004560 -0.016481 -0.002889
# 4 -0.001078 0.000821 0.004560 0.025316 0.007384 0.001475
# 5 0.005015 0.004396 -0.016481 0.007384 0.049483 0.013918
# 6 0.001821 0.000847 -0.002889 0.001475 0.013918 0.042273
#
#
# Mechanical properties :
#
#
# Convention : Reuss Voigt Hill
#
# Bulk Modulus (GPa) = 38.39954 79.01079 58.70517
# Shear Modulus (GPa) = 19.82157 32.23779 26.02968
#
# Velocity S-wave (km/s) = 3.11021 3.96647 3.56415
# Velocity P-wave (km/s) = 5.62475 7.71598 6.75182
#
# Compressibility (1/GPa) = 0.02604198
#
# Stress axis : x y z
#
# Youngs Moduli (GPa) = 96.19853 89.58899 18.27736
#
# Poissons Ratio (x) = 0.06519 0.26476
# Poissons Ratio (y) = 0.07000 0.18095
# Poissons Ratio (z) = 1.39352 0.88697
#
# Static dielectric constant tensor:
#      x y z
#    x 1.784180 -0.020990 0.028770 
#    y -0.020990 1.819880 -0.020350 
#    z 0.028770 -0.020350 1.772970 
# 
# From -- ./inp_files/298868.got.cif
#   From: 2010.05.17/outbox.cif.g08.bks.cpg/sg2_150_cif.got.tgz:298868.got - 2010.06.03 11:33:40.
