data_PCOD9111443
_publ_section_title
;
Structure prediction by ZEFSAII (Michael W. Deem and Ramdas Pophale) SiO2 
 PCOD9111443
Probable space group: P -1
;
_chemical_formula_sum "Si O2"
_cell_formula_units_Z 16
_cell_length_a 18.629638
_cell_length_b 17.542820
_cell_length_c 11.311058
_cell_angle_alpha 30.446889
_cell_angle_beta 151.977582
_cell_angle_gamma 152.181966
_cell_volume 752.618329
_symmetry_space_group_name_H-M "P -1"
_symmetry_group_IT_number 2
_symmetry_cell_setting 'triclinic'
loop_
_space_group_symop_operation_xyz
x,y,z
-x,-y,-z
loop_
_atom_site_type_symbol
_atom_site_label
_atom_site_fract_x
_atom_site_fract_y
_atom_site_fract_z
Si Si1 0.702285 0.136464 0.652168
Si Si2 0.519111 0.332040 0.742864
Si Si3 0.190629 0.949463 0.435176
Si Si4 0.985278 0.842467 0.026839
Si Si5 0.977790 0.554151 0.708213
Si Si6 0.396005 0.950130 0.111888
Si Si7 0.171348 0.546706 0.776560
Si Si8 0.744335 0.375077 0.800238
O O1 0.684397 0.150777 0.746903
O O2 0.771619 0.301264 0.441744
O O3 0.847883 0.077079 0.928684
O O4 0.500000 0.000000 0.500000
O O5 0.500000 0.500000 0.500000
O O6 0.576670 0.337092 0.684180
O O7 0.670066 0.378134 0.999376
O O8 0.385202 0.125428 0.851672
O O9 0.095969 0.902160 0.231432
O O10 0.076866 0.762574 0.581724
O O11 0.396277 0.000369 0.658005
O O12 0.149398 0.086631 0.254261
O O13 0.874033 0.635346 0.107212
O O14 0.789370 0.473795 0.607997
O O15 0.009734 0.513864 0.675185
O O16 0.094068 0.510608 0.025535
O O17 0.293012 0.815549 0.036610
#
# Coordination Sequence:
#
# PCOD9111443 Si02
#       8
#     2   2   2   2   2   2   2   2
#     4  12  21  41  67  94 129 164 209 265 311 378
#     4  11  24  41  64  95 128 161 214 268 310 369
#     4  11  23  41  59  92 132 166 203 263 310 379
#     4  11  24  38  63  93 128 165 209 253 319 376
#     4  10  20  43  63  92 123 165 213 257 313 375
#     4  12  23  42  66  95 127 172 210 259 324 371
#     4  11  22  42  66  92 126 170 206 260 320 375
#     4  10  23  38  67  91 122 167 215 256 311 377
#
# _framework density 21.259114
#
# number of rings (size 3 to 8) (size 9 to 14) (size 15 to 20)
#    0.000    1.000    6.250    1.500    3.500    1.000 
#    0.000    0.625    0.000    6.000    0.000    0.000 
#    0.000    0.000    0.000    0.000    0.000    0.000 
#
# Total GULP energy -89068.746143 kJ/mol
# GULP energy per Si atom -5566.796634 kJ/mol
# Density = 2.121073 g / cm^3
# Si number density = 21.259114 Si / 1000 Ang^3
#
#
#
# Elastic Constant Matrix: (Units=GPa)
#
#
# Indices 1 2 3 4 5 6 
#
# 1 165.2559 63.0393 52.6356 -36.6618 -4.0141 -2.2659
# 2 63.0393 93.9676 25.0188 -21.5527 2.0284 -7.9307
# 3 52.6356 25.0188 65.4998 -20.4097 5.4671 -0.6684
# 4 -36.6618 -21.5527 -20.4097 32.9200 -8.6339 -4.3038
# 5 -4.0141 2.0284 5.4671 -8.6339 22.3747 -10.1960
# 6 -2.2659 -7.9307 -0.6684 -4.3038 -10.1960 43.6833
#
#
#
# Elastic Compliance Matrix: (Units=1/GPa)
#
#
# Indices 1 2 3 4 5 6 
#
# 1 0.011828 -0.004185 -0.005614 0.009641 0.008863 0.002786
# 2 -0.004185 0.015248 -0.000774 0.005811 0.001921 0.003560
# 3 -0.005614 -0.000774 0.022246 0.005816 -0.004374 -0.000539
# 4 0.009641 0.005811 0.005816 0.057817 0.028464 0.013984
# 5 0.008863 0.001921 -0.004374 0.028464 0.066892 0.019159
# 6 0.002786 0.003560 -0.000539 0.013984 0.019159 0.029524
#
#
# Mechanical properties :
#
#
# Convention : Reuss Voigt Hill
#
# Bulk Modulus (GPa) = 35.49203 67.34564 51.41884
# Shear Modulus (GPa) = 21.35907 32.06425 26.71166
#
# Velocity S-wave (km/s) = 3.17314 3.88784 3.54853
# Velocity P-wave (km/s) = 5.49148 7.20424 6.40536
#
# Compressibility (1/GPa) = 0.02817534
#
# Stress axis : x y z
#
# Youngs Moduli (GPa) = 84.54514 65.58401 44.95233
#
# Poissons Ratio (x) = 0.27449 0.25234
# Poissons Ratio (y) = 0.35384 0.03480
# Poissons Ratio (z) = 0.47460 0.05077
#
# Static dielectric constant tensor:
#      x y z
#    x 1.827850 0.005430 -0.016590 
#    y 0.005430 1.832870 0.041260 
#    z -0.016590 0.041260 1.879880 
# 
# From -- ./inp_files/466554.got.cif
#   From: 2010.05.17/outbox.cif.g08.bks.cpg/sg2_234_cif.got.tgz:466554.got - 2010.06.03 11:33:40.
