data_PCOD9111121
_publ_section_title
;
Structure prediction by ZEFSAII (Michael W. Deem and Ramdas Pophale) SiO2 
 PCOD9111121
Probable space group: P -1
;
_chemical_formula_sum "Si O2"
_cell_formula_units_Z 12
_cell_length_a 7.102043
_cell_length_b 15.174683
_cell_length_c 8.820845
_cell_angle_alpha 39.787502
_cell_angle_beta 102.820957
_cell_angle_gamma 87.595312
_cell_volume 557.734867
_symmetry_space_group_name_H-M "P -1"
_symmetry_group_IT_number 2
_symmetry_cell_setting 'triclinic'
loop_
_space_group_symop_operation_xyz
x,y,z
-x,-y,-z
loop_
_atom_site_type_symbol
_atom_site_label
_atom_site_fract_x
_atom_site_fract_y
_atom_site_fract_z
Si Si1 0.905878 0.949514 0.792228
Si Si2 0.024510 0.593638 0.019183
Si Si3 0.856334 0.654207 0.207263
Si Si4 0.584236 0.611877 0.455115
Si Si5 0.550109 0.108473 0.743597
Si Si6 0.819848 0.906226 0.499103
O O1 0.787409 0.969093 0.581546
O O2 0.761803 0.038992 0.781834
O O3 0.957843 0.779351 0.067578
O O4 0.104273 0.991808 0.733470
O O5 0.226474 0.496611 0.271439
O O6 0.836804 0.628151 0.060565
O O7 0.000000 0.500000 0.000000
O O8 0.011669 0.753718 0.750599
O O9 0.659975 0.695867 0.223358
O O10 0.000000 0.500000 0.500000
O O11 0.500000 0.500000 0.500000
O O12 0.459631 0.740465 0.376343
O O13 0.367960 0.130541 0.558560
O O14 0.500000 0.000000 0.000000
#
# Coordination Sequence:
#
# PCOD9111121 Si02
#       6
#     2   2   2   2   2   2
#     4  10  22  43  67  99 130 175 221 282 339 397
#     4  10  20  42  69  88 128 176 227 270 328 399
#     4   9  20  40  64  90 132 175 213 273 333 397
#     4  11  24  43  63  99 138 174 222 277 337 398
#     4  12  24  41  67 101 135 172 227 280 331 403
#     4  10  23  43  68  97 134 176 224 276 340 398
#
# _framework density 21.515598000000001
#
# number of rings (size 3 to 8) (size 9 to 14) (size 15 to 20)
#    0.000    1.667    3.333    0.500    0.000    7.333 
#    9.000    1.667    0.000    0.000    0.000    0.000 
#    0.000    0.000    0.000    0.000    0.000    0.000 
#
# Total GULP energy -66954.717283 kJ/mol
# GULP energy per Si atom -5579.559774 kJ/mol
# Density = 2.146663 g / cm^3
# Si number density = 21.515598 Si / 1000 Ang^3
#
#
#
# Elastic Constant Matrix: (Units=GPa)
#
#
# Indices 1 2 3 4 5 6 
#
# 1 47.4223 46.4134 24.8654 -2.8765 -12.9787 -5.3326
# 2 46.4134 164.9321 29.4712 -9.5279 2.2050 -12.2796
# 3 24.8654 29.4712 90.4508 -10.7668 -16.5470 -1.4810
# 4 -2.8765 -9.5279 -10.7668 35.1174 10.0193 7.2917
# 5 -12.9787 2.2050 -16.5470 10.0193 32.5511 1.4661
# 6 -5.3326 -12.2796 -1.4810 7.2917 1.4661 41.3940
#
#
#
# Elastic Compliance Matrix: (Units=1/GPa)
#
#
# Indices 1 2 3 4 5 6 
#
# 1 0.037440 -0.010018 -0.004986 -0.005848 0.014774 0.002180
# 2 -0.010018 0.009410 -0.001066 0.002910 -0.006122 0.001167
# 3 -0.004986 -0.001066 0.013862 0.002516 0.004404 -0.001062
# 4 -0.005848 0.002910 0.002516 0.033942 -0.011455 -0.005373
# 5 0.014774 -0.006122 0.004404 -0.011455 0.042757 0.000748
# 6 0.002180 0.001167 -0.001062 -0.005373 0.000748 0.025667
#
#
# Mechanical properties :
#
#
# Convention : Reuss Voigt Hill
#
# Bulk Modulus (GPa) = 35.00108 56.03390 45.51749
# Shear Modulus (GPa) = 24.42094 35.28285 29.85190
#
# Velocity S-wave (km/s) = 3.37268 4.05393 3.72890
# Velocity P-wave (km/s) = 5.60979 6.92910 6.30405
#
# Compressibility (1/GPa) = 0.02857055
#
# Stress axis : x y z
#
# Youngs Moduli (GPa) = 26.70917 106.27371 72.14147
#
# Poissons Ratio (x) = 1.06467 0.35970
# Poissons Ratio (y) = 0.26758 0.07693
# Poissons Ratio (z) = 0.13317 0.11333
#
# Static dielectric constant tensor:
#      x y z
#    x 1.815390 -0.022720 -0.017170 
#    y -0.022720 1.747980 0.024600 
#    z -0.017170 0.024600 1.838790 
# 
# From -- ./inp_files/90092.got.cif
#   From: 2010.05.17/outbox.cif.g08.bks.cpg/sg2_46_cif.got.tgz:90092.got - 2010.06.03 11:33:40.
