data_PCOD9111592
_publ_section_title
;
Structure prediction by ZEFSAII (Michael W. Deem and Ramdas Pophale) SiO2 
 PCOD9111592
Probable space group: P -1
;
_chemical_formula_sum "Si O2"
_cell_formula_units_Z 16
_cell_length_a 9.432767
_cell_length_b 11.789925
_cell_length_c 9.866393
_cell_angle_alpha 125.903123
_cell_angle_beta 118.648216
_cell_angle_gamma 53.683227
_cell_volume 701.318348
_symmetry_space_group_name_H-M "P -1"
_symmetry_group_IT_number 2
_symmetry_cell_setting 'triclinic'
loop_
_space_group_symop_operation_xyz
x,y,z
-x,-y,-z
loop_
_atom_site_type_symbol
_atom_site_label
_atom_site_fract_x
_atom_site_fract_y
_atom_site_fract_z
Si Si1 0.250731 0.994774 0.838358
Si Si2 0.744903 0.450637 0.438413
Si Si3 0.683143 0.853260 0.270248
Si Si4 0.301921 0.610672 0.929065
Si Si5 0.271830 0.956193 0.127323
Si Si6 0.817319 0.527558 0.007205
Si Si7 0.440650 0.335886 0.270533
Si Si8 0.956371 0.874574 0.606812
O O1 0.448307 0.849264 0.814408
O O2 0.097545 0.943398 0.683359
O O3 0.256080 0.125982 0.838035
O O4 0.223048 0.029014 0.007669
O O5 0.732365 0.459540 0.276265
O O6 0.601754 0.387289 0.375333
O O7 0.682627 0.603962 0.609821
O O8 0.935289 0.312472 0.468979
O O9 0.469459 0.936083 0.244331
O O10 0.751496 0.669027 0.183443
O O11 0.788738 0.917850 0.461255
O O12 0.175156 0.615685 0.000391
O O13 0.500000 0.500000 0.000000
O O14 0.285112 0.781561 0.006963
O O15 0.123758 0.058883 0.237532
O O16 0.672960 0.583142 0.858307
O O17 0.000000 0.500000 0.000000
#
# Coordination Sequence:
#
# PCOD9111592 Si02
#       8
#     2   2   2   2   2   2   2   2
#     4  11  23  45  71  99 133 186 226 272 340 404
#     4  10  21  41  71  95 136 175 230 277 326 408
#     4  12  25  45  66 103 141 173 228 279 339 401
#     4  12  22  46  70  98 132 185 234 269 343 409
#     4  12  24  45  72  97 139 181 224 278 338 407
#     4  12  26  43  69 101 139 177 227 285 339 403
#     4  10  20  43  66  98 133 180 224 274 336 399
#     4  11  25  44  68 105 134 177 229 279 338 397
#
# _framework density 22.814174999999999
#
# number of rings (size 3 to 8) (size 9 to 14) (size 15 to 20)
#    0.000    0.750    6.250    2.250    1.750    1.000 
#    4.500    1.250    0.000    0.000    0.000    0.000 
#    0.000    0.000    0.000    0.000    0.000    0.000 
#
# Total GULP energy -89507.171624 kJ/mol
# GULP energy per Si atom -5594.198227 kJ/mol
# Density = 2.276225 g / cm^3
# Si number density = 22.814175 Si / 1000 Ang^3
#
#
#
# Elastic Constant Matrix: (Units=GPa)
#
#
# Indices 1 2 3 4 5 6 
#
# 1 110.9501 27.3150 29.3568 -9.0819 -9.3091 -4.1985
# 2 27.3150 45.5451 14.3818 -10.7937 -5.7138 7.6838
# 3 29.3568 14.3818 94.1933 -10.7281 -6.9508 -1.4505
# 4 -9.0819 -10.7937 -10.7281 26.2307 -8.7378 -9.2044
# 5 -9.3091 -5.7138 -6.9508 -8.7378 38.9623 -7.4095
# 6 -4.1985 7.6838 -1.4505 -9.2044 -7.4095 33.1990
#
#
#
# Elastic Compliance Matrix: (Units=1/GPa)
#
#
# Indices 1 2 3 4 5 6 
#
# 1 0.011727 -0.005928 -0.002064 0.003374 0.003159 0.004405
# 2 -0.005928 0.029342 -0.001339 0.009345 0.003959 -0.004125
# 3 -0.002064 -0.001339 0.012457 0.006053 0.003469 0.003046
# 4 0.003374 0.009345 0.006053 0.059175 0.020226 0.019449
# 5 0.003159 0.003959 0.003469 0.020226 0.034622 0.012970
# 6 0.004405 -0.004125 0.003046 0.019449 0.012970 0.040053
#
#
# Mechanical properties :
#
#
# Convention : Reuss Voigt Hill
#
# Bulk Modulus (GPa) = 28.68536 43.64397 36.16466
# Shear Modulus (GPa) = 22.97161 31.65406 27.31283
#
# Velocity S-wave (km/s) = 3.17661 3.72892 3.46379
# Velocity P-wave (km/s) = 5.10444 6.14097 5.64654
#
# Compressibility (1/GPa) = 0.03486098
#
# Stress axis : x y z
#
# Youngs Moduli (GPa) = 85.27517 34.08106 80.27793
#
# Poissons Ratio (x) = 0.20204 0.16573
# Poissons Ratio (y) = 0.50554 0.10753
# Poissons Ratio (z) = 0.17604 0.04565
#
# Static dielectric constant tensor:
#      x y z
#    x 1.846960 -0.000980 0.032770 
#    y -0.000980 1.837410 0.028380 
#    z 0.032770 0.028380 1.891310 
# 
# From -- ./inp_files/190261.got.cif
#   From: 2010.05.17/outbox.cif.g08.bks.cpg/sg2_96_cif.got.tgz:190261.got - 2010.06.03 11:33:40.
