data_PCOD9111180
_publ_section_title
;
Structure prediction by ZEFSAII (Michael W. Deem and Ramdas Pophale) SiO2 
 PCOD9111180
Probable space group: P -1
;
_chemical_formula_sum "Si O2"
_cell_formula_units_Z 16
_cell_length_a 19.188248
_cell_length_b 10.365087
_cell_length_c 13.329095
_cell_angle_alpha 34.868476
_cell_angle_beta 32.253704
_cell_angle_gamma 33.610366
_cell_volume 720.047041
_symmetry_space_group_name_H-M "P -1"
_symmetry_group_IT_number 2
_symmetry_cell_setting 'triclinic'
loop_
_space_group_symop_operation_xyz
x,y,z
-x,-y,-z
loop_
_atom_site_type_symbol
_atom_site_label
_atom_site_fract_x
_atom_site_fract_y
_atom_site_fract_z
Si Si1 0.378632 0.411012 0.435388
Si Si2 0.291361 0.075941 0.884020
Si Si3 0.811688 0.557546 0.932276
Si Si4 0.616671 0.771902 0.677384
Si Si5 0.323617 0.773118 0.700721
Si Si6 0.095280 0.072919 0.948768
Si Si7 0.124923 0.582066 0.281821
Si Si8 0.841388 0.007373 0.705273
O O1 0.320625 0.312599 0.664901
O O2 0.380430 0.260890 0.426252
O O3 0.542127 0.356909 0.301589
O O4 0.275253 0.702459 0.353337
O O5 0.224906 0.040426 0.884695
O O6 0.450398 0.845786 0.862814
O O7 0.179792 0.093935 0.095433
O O8 0.801033 0.528793 0.844503
O O9 0.800549 0.828430 0.797796
O O10 0.973835 0.355794 0.900283
O O11 0.703369 0.447671 0.178513
O O12 0.747914 0.525038 0.721942
O O13 0.643673 0.010220 0.527474
O O14 0.171201 0.946500 0.832931
O O15 0.042433 0.885002 0.183821
O O16 0.000000 0.500000 0.500000
O O17 0.000000 0.000000 0.500000
#
# Coordination Sequence:
#
# PCOD9111180 Si02
#       8
#     2   2   2   2   2   2   2   2
#     4  11  23  45  76 103 141 175 233 295 346 409
#     4  11  24  44  74 104 131 185 235 291 347 402
#     4  11  26  44  61  98 146 187 225 276 345 423
#     4  11  21  43  74 110 135 166 239 299 349 402
#     4  10  20  42  70 102 133 173 218 298 354 390
#     4  11  20  39  70  95 137 173 228 290 346 394
#     4  11  24  37  66 105 135 176 229 288 355 402
#     4  12  30  47  67  98 144 194 237 276 339 430
#
# _framework density 22.220770000000002
#
# number of rings (size 3 to 8) (size 9 to 14) (size 15 to 20)
#    0.000    1.000    2.500    5.250    7.000    3.500 
#    2.250    1.250    0.000    0.000    0.000    0.000 
#    0.000    0.000    0.000    0.000    0.000    0.000 
#
# Total GULP energy -89296.305939 kJ/mol
# GULP energy per Si atom -5581.019121 kJ/mol
# Density = 2.217019 g / cm^3
# Si number density = 22.220770 Si / 1000 Ang^3
#
#
#
# Elastic Constant Matrix: (Units=GPa)
#
#
# Indices 1 2 3 4 5 6 
#
# 1 71.6704 27.1739 26.3562 -0.5128 -7.7909 -19.0206
# 2 27.1739 59.1577 32.5871 -10.3310 -6.4907 -10.6405
# 3 26.3562 32.5871 117.0193 3.8378 -14.9251 1.2414
# 4 -0.5128 -10.3310 3.8378 26.3649 2.1024 -5.3967
# 5 -7.7909 -6.4907 -14.9251 2.1024 37.4446 -5.2099
# 6 -19.0206 -10.6405 1.2414 -5.3967 -5.2099 38.5160
#
#
#
# Elastic Compliance Matrix: (Units=1/GPa)
#
#
# Indices 1 2 3 4 5 6 
#
# 1 0.019719 -0.005749 -0.002510 0.000009 0.003313 0.008680
# 2 -0.005749 0.026593 -0.006456 0.012517 0.001057 0.006612
# 3 -0.002510 -0.006456 0.011465 -0.005233 0.002699 -0.003761
# 4 0.000009 0.012517 -0.005233 0.045708 -0.001105 0.009886
# 5 0.003313 0.001057 0.002699 -0.001105 0.029506 0.005678
# 6 0.008680 0.006612 -0.003761 0.009886 0.005678 0.034351
#
#
# Mechanical properties :
#
#
# Convention : Reuss Voigt Hill
#
# Bulk Modulus (GPa) = 35.27897 46.67575 40.97736
# Shear Modulus (GPa) = 24.24578 31.24713 27.74645
#
# Velocity S-wave (km/s) = 3.30681 3.75402 3.53749
# Velocity P-wave (km/s) = 5.52187 6.31199 5.93011
#
# Compressibility (1/GPa) = 0.02834550
#
# Stress axis : x y z
#
# Youngs Moduli (GPa) = 50.71129 37.60453 87.22461
#
# Poissons Ratio (x) = 0.21618 0.21896
# Poissons Ratio (y) = 0.29153 0.56316
# Poissons Ratio (z) = 0.12730 0.24279
#
# Static dielectric constant tensor:
#      x y z
#    x 1.856930 0.025310 -0.023000 
#    y 0.025310 1.805800 -0.013360 
#    z -0.023000 -0.013360 1.948460 
# 
# From -- ./inp_files/471741.got.cif
#   From: 2010.05.17/outbox.cif.g08.bks.cpg/sg2_236_cif.got.tgz:471741.got - 2010.06.03 11:33:40.
