data_PCOD9111662
_publ_section_title
;
Structure prediction by ZEFSAII (Michael W. Deem and Ramdas Pophale) SiO2 
 PCOD9111662
Probable space group: P -1
;
_chemical_formula_sum "Si O2"
_cell_formula_units_Z 12
_cell_length_a 8.498202
_cell_length_b 9.637178
_cell_length_c 10.289705
_cell_angle_alpha 133.391252
_cell_angle_beta 45.396435
_cell_angle_gamma 117.078119
_cell_volume 435.403147
_symmetry_space_group_name_H-M "P -1"
_symmetry_group_IT_number 2
_symmetry_cell_setting 'triclinic'
loop_
_space_group_symop_operation_xyz
x,y,z
-x,-y,-z
loop_
_atom_site_type_symbol
_atom_site_label
_atom_site_fract_x
_atom_site_fract_y
_atom_site_fract_z
Si Si1 0.295874 0.084781 0.442472
Si Si2 0.762184 0.954395 0.047685
Si Si3 0.749189 0.515036 0.414396
Si Si4 0.683480 0.502455 0.747640
Si Si5 0.183030 0.504982 0.070289
Si Si6 0.135232 0.846802 0.143800
O O1 0.222542 0.275272 0.526095
O O2 0.125036 0.090223 0.663637
O O3 0.241538 0.929234 0.267125
O O4 0.552267 0.053377 0.309325
O O5 0.716131 0.729262 0.907260
O O6 0.747177 0.058620 0.983154
O O7 0.000000 0.000000 0.000000
O O8 0.500000 0.500000 0.500000
O O9 0.753517 0.481921 0.544827
O O10 0.959554 0.393221 0.152026
O O11 0.811483 0.398136 0.725636
O O12 0.436204 0.428759 0.858804
O O13 0.165512 0.627911 0.029592
#
# Coordination Sequence:
#
# PCOD9111662 Si02
#       6
#     2   2   2   2   2   2
#     4  10  21  41  66  92 123 167 216 257 317 373
#     4  12  25  40  67  98 128 165 212 265 316 375
#     4  11  24  42  67  96 127 169 213 261 315 378
#     4  11  23  44  65  94 132 167 208 264 316 376
#     4  10  23  43  66  93 128 172 209 259 321 371
#     4  10  20  43  68  89 123 173 213 258 313 381
#
# _framework density 27.560663000000002
#
# number of rings (size 3 to 8) (size 9 to 14) (size 15 to 20)
#    0.000    1.333    3.333    2.000    2.333    1.333 
#   12.000    0.000    0.000    0.000    0.000    0.000 
#    0.000    0.000    0.000    0.000    0.000    0.000 
#
# Total GULP energy -67036.201212 kJ/mol
# GULP energy per Si atom -5586.350101 kJ/mol
# Density = 2.749793 g / cm^3
# Si number density = 27.560663 Si / 1000 Ang^3
#
#
#
# Elastic Constant Matrix: (Units=GPa)
#
#
# Indices 1 2 3 4 5 6 
#
# 1 128.5168 22.8765 49.8350 -17.3313 -16.9924 -11.9450
# 2 22.8765 129.7434 16.5573 -12.3113 2.5864 -6.8600
# 3 49.8350 16.5573 125.9444 -49.5287 -32.3934 0.7773
# 4 -17.3313 -12.3113 -49.5287 50.7078 0.3028 1.3493
# 5 -16.9924 2.5864 -32.3934 0.3028 58.9942 -17.9803
# 6 -11.9450 -6.8600 0.7773 1.3493 -17.9803 37.9574
#
#
#
# Elastic Compliance Matrix: (Units=1/GPa)
#
#
# Indices 1 2 3 4 5 6 
#
# 1 0.009926 -0.001183 -0.003274 -0.000216 0.002366 0.004105
# 2 -0.001183 0.008124 -0.000243 0.001314 -0.000603 0.000769
# 3 -0.003274 -0.000243 0.018289 0.016557 0.009822 0.002615
# 4 -0.000216 0.001314 0.016557 0.035996 0.009754 0.003171
# 5 0.002366 -0.000603 0.009822 0.009754 0.026914 0.012837
# 6 0.004105 0.000769 0.002615 0.003171 0.012837 0.033691
#
#
# Mechanical properties :
#
#
# Convention : Reuss Voigt Hill
#
# Bulk Modulus (GPa) = 37.11990 62.52691 49.82340
# Shear Modulus (GPa) = 33.04239 49.19427 41.11833
#
# Velocity S-wave (km/s) = 3.46627 4.22944 3.86673
# Velocity P-wave (km/s) = 5.43302 6.82548 6.16867
#
# Compressibility (1/GPa) = 0.02693973
#
# Stress axis : x y z
#
# Youngs Moduli (GPa) = 100.74066 123.08498 54.67783
#
# Poissons Ratio (x) = 0.14561 0.17902
# Poissons Ratio (y) = 0.11918 0.01329
# Poissons Ratio (z) = 0.32983 0.02992
#
# Static dielectric constant tensor:
#      x y z
#    x 2.323170 0.188310 0.062080 
#    y 0.188310 2.260940 0.114100 
#    z 0.062080 0.114100 2.276030 
# 
# From -- ./inp_files/246603.got.cif
#   From: 2010.05.17/outbox.cif.g08.bks.cpg/sg2_124_cif.got.tgz:246603.got - 2010.06.03 11:33:40.
