data_PCOD9111543
_publ_section_title
;
Structure prediction by ZEFSAII (Michael W. Deem and Ramdas Pophale) SiO2 
 PCOD9111543
Probable space group: P -1
;
_chemical_formula_sum "Si O2"
_cell_formula_units_Z 14
_cell_length_a 14.356770
_cell_length_b 8.862457
_cell_length_c 7.891142
_cell_angle_alpha 70.232820
_cell_angle_beta 119.743026
_cell_angle_gamma 139.037812
_cell_volume 570.323851
_symmetry_space_group_name_H-M "P -1"
_symmetry_group_IT_number 2
_symmetry_cell_setting 'triclinic'
loop_
_space_group_symop_operation_xyz
x,y,z
-x,-y,-z
loop_
_atom_site_type_symbol
_atom_site_label
_atom_site_fract_x
_atom_site_fract_y
_atom_site_fract_z
Si Si1 0.506368 0.626043 0.617683
Si Si2 0.238628 0.299399 0.749588
Si Si3 0.949781 0.157608 0.402231
Si Si4 0.920764 0.470299 0.114002
Si Si5 0.380039 0.688056 0.975557
Si Si6 0.177252 0.940641 0.327881
Si Si7 0.562317 0.968380 0.332876
O O1 0.500000 0.500000 0.500000
O O2 0.396595 0.451140 0.731639
O O3 0.465270 0.764717 0.463191
O O4 0.688327 0.833330 0.744491
O O5 0.288975 0.440140 0.913600
O O6 0.125369 0.294929 0.540580
O O7 0.138117 0.029201 0.756871
O O8 0.935681 0.330522 0.298291
O O9 0.865599 0.014259 0.555599
O O10 0.744563 0.340961 0.017631
O O11 0.024669 0.726855 0.177963
O O12 0.000000 0.500000 0.000000
O O13 0.442289 0.856444 0.806011
O O14 0.522161 0.824556 0.180300
O O15 0.266895 0.878751 0.500270
#
# Coordination Sequence:
#
# PCOD9111543 Si02
#       7
#     2   2   2   2   2   2   2
#     4  10  21  41  65  95 124 168 212 260 309 384
#     4  11  23  39  70  94 130 165 216 261 319 377
#     4  11  22  43  65  95 126 176 208 257 326 384
#     4  12  25  41  66  94 128 168 219 264 311 378
#     4  11  22  42  62  98 132 165 212 265 318 372
#     4  10  20  43  66  89 126 168 212 254 313 379
#     4   9  22  39  65  90 132 166 211 256 318 375
#
# _framework density 24.547454999999999
#
# number of rings (size 3 to 8) (size 9 to 14) (size 15 to 20)
#    0.857    0.571    4.286    1.286    2.000    2.857 
#    2.571    2.143    0.000    0.000    0.000    0.000 
#    0.000    0.000    0.000    0.000    0.000    0.000 
#
# Total GULP energy -78106.534869 kJ/mol
# GULP energy per Si atom -5579.038205 kJ/mol
# Density = 2.449158 g / cm^3
# Si number density = 24.547455 Si / 1000 Ang^3
#
#
#
# Elastic Constant Matrix: (Units=GPa)
#
#
# Indices 1 2 3 4 5 6 
#
# 1 71.6305 16.2320 2.4815 -9.2835 -11.7158 15.1071
# 2 16.2320 108.4857 23.4606 15.2097 5.9368 6.7370
# 3 2.4815 23.4606 46.6784 0.7526 -6.5311 1.5250
# 4 -9.2835 15.2097 0.7526 39.1515 -9.1167 -1.0127
# 5 -11.7158 5.9368 -6.5311 -9.1167 24.4399 3.8109
# 6 15.1071 6.7370 1.5250 -1.0127 3.8109 34.4702
#
#
#
# Elastic Compliance Matrix: (Units=1/GPa)
#
#
# Indices 1 2 3 4 5 6 
#
# 1 0.022282 -0.006533 0.005012 0.012051 0.019746 -0.010539
# 2 -0.006533 0.013946 -0.008323 -0.009702 -0.012615 0.001616
# 3 0.005012 -0.008323 0.027423 0.007299 0.014978 -0.003225
# 4 0.012051 -0.009702 0.007299 0.037708 0.024986 -0.005363
# 5 0.019746 -0.012615 0.014978 0.024986 0.068912 -0.013736
# 6 -0.010539 0.001616 -0.003225 -0.005363 -0.013736 0.034817
#
#
# Mechanical properties :
#
#
# Convention : Reuss Voigt Hill
#
# Bulk Modulus (GPa) = 22.74717 34.57145 28.65931
# Shear Modulus (GPa) = 20.88295 31.92037 26.40166
#
# Velocity S-wave (km/s) = 2.91987 3.60995 3.28309
# Velocity P-wave (km/s) = 4.54469 5.61158 5.10608
#
# Compressibility (1/GPa) = 0.04396151
#
# Stress axis : x y z
#
# Youngs Moduli (GPa) = 44.88019 71.70750 36.46532
#
# Poissons Ratio (x) = 0.46849 -0.18276
# Poissons Ratio (y) = 0.29322 0.30350
# Poissons Ratio (z) = -0.22494 0.59683
#
# Static dielectric constant tensor:
#      x y z
#    x 1.998450 -0.031170 -0.001570 
#    y -0.031170 1.938220 -0.035010 
#    z -0.001570 -0.035010 1.955360 
# 
# From -- ./inp_files/298322.got.cif
#   From: 2010.05.17/outbox.cif.g08.bks.cpg/sg2_150_cif.got.tgz:298322.got - 2010.06.03 11:33:40.
