data_PCOD9111295
_publ_section_title
;
Structure prediction by ZEFSAII (Michael W. Deem and Ramdas Pophale) SiO2 
 PCOD9111295
Probable space group: P -1
;
_chemical_formula_sum "Si O2"
_cell_formula_units_Z 15
_cell_length_a 5.176026
_cell_length_b 9.969809
_cell_length_c 14.386765
_cell_angle_alpha 120.405472
_cell_angle_beta 109.175801
_cell_angle_gamma 89.498117
_cell_volume 593.370354
_symmetry_space_group_name_H-M "P -1"
_symmetry_group_IT_number 2
_symmetry_cell_setting 'triclinic'
loop_
_space_group_symop_operation_xyz
x,y,z
-x,-y,-z
loop_
_atom_site_type_symbol
_atom_site_label
_atom_site_fract_x
_atom_site_fract_y
_atom_site_fract_z
Si Si1 0.000000 0.000000 0.500000
Si Si2 0.257451 0.671873 0.892246
Si Si3 0.232799 0.975393 0.090579
Si Si4 0.371232 0.787383 0.345830
Si Si5 0.115318 0.011745 0.290261
Si Si6 0.691911 0.255456 0.476954
Si Si7 0.232628 0.493381 0.101765
Si Si8 0.710379 0.251436 0.284138
O O1 0.338395 0.091508 0.580468
O O2 0.929132 0.152570 0.484944
O O3 0.492098 0.573162 0.913124
O O4 0.207994 0.662231 0.772287
O O5 0.956193 0.613976 0.881630
O O6 0.373900 0.847242 0.009026
O O7 0.137981 0.917960 0.163394
O O8 0.407840 0.149823 0.190290
O O9 0.000000 0.000000 0.000000
O O10 0.122805 0.893995 0.339973
O O11 0.334793 0.686320 0.400963
O O12 0.340992 0.666829 0.216453
O O13 0.397269 0.139485 0.381711
O O14 0.875686 0.108725 0.274791
O O15 0.737125 0.349056 0.417820
O O16 0.000000 0.500000 0.000000
#
# Coordination Sequence:
#
# PCOD9111295 Si02
#       8
#     1   2   2   2   2   2   2   2
#     4  10  20  42  72 104 138 184 246 326 364 422
#     4  12  27  48  73 106 153 202 248 302 373 458
#     4  11  22  39  68 107 144 187 245 315 378 431
#     4  11  24  43  74 104 147 192 255 303 380 430
#     4  10  21  38  68 108 134 181 233 325 369 429
#     4  10  21  39  65 105 140 176 234 318 371 427
#     4  12  30  52  74 106 156 207 249 294 367 474
#     4  11  23  39  72 104 145 180 248 314 386 421
#
# _framework density 25.279322000000001
#
# number of rings (size 3 to 8) (size 9 to 14) (size 15 to 20)
#    0.000    1.067    1.333    5.600    7.467    0.000 
#    0.000    1.333    0.000    0.000    0.000    0.000 
#    0.000    0.000    0.000    0.000    0.000    0.000 
#
# Total GULP energy -83643.443810 kJ/mol
# GULP energy per Si atom -5576.229587 kJ/mol
# Density = 2.522179 g / cm^3
# Si number density = 25.279322 Si / 1000 Ang^3
#
#
#
# Elastic Constant Matrix: (Units=GPa)
#
#
# Indices 1 2 3 4 5 6 
#
# 1 68.4290 5.0331 17.4799 -2.5307 17.1671 -14.5184
# 2 5.0331 54.2055 37.8226 -24.7947 0.4110 0.8883
# 3 17.4799 37.8226 139.9248 -34.3884 1.5321 -10.4301
# 4 -2.5307 -24.7947 -34.3884 50.3471 4.1061 -6.8429
# 5 17.1671 0.4110 1.5321 4.1061 35.8687 -8.8665
# 6 -14.5184 0.8883 -10.4301 -6.8429 -8.8665 47.4644
#
#
#
# Elastic Compliance Matrix: (Units=1/GPa)
#
#
# Indices 1 2 3 4 5 6 
#
# 1 0.017777 -0.000140 -0.001605 0.000864 -0.007600 0.003793
# 2 -0.000140 0.026205 -0.004686 0.009746 -0.001245 -0.000391
# 3 -0.001605 -0.004686 0.009960 0.004722 0.000488 0.002557
# 4 0.000864 0.009746 0.004722 0.028807 -0.002853 0.004740
# 5 -0.007600 -0.001245 0.000488 -0.002853 0.032703 0.003504
# 6 0.003793 -0.000391 0.002557 0.004740 0.003504 0.024136
#
#
# Mechanical properties :
#
#
# Convention : Reuss Voigt Hill
#
# Bulk Modulus (GPa) = 24.34323 42.58117 33.46220
# Shear Modulus (GPa) = 30.09459 40.21762 35.15610
#
# Velocity S-wave (km/s) = 3.45408 3.99297 3.73326
# Velocity P-wave (km/s) = 5.05551 6.17570 5.64347
#
# Compressibility (1/GPa) = 0.04107919
#
# Stress axis : x y z
#
# Youngs Moduli (GPa) = 56.25231 38.16069 100.40527
#
# Poissons Ratio (x) = 0.00536 0.16111
# Poissons Ratio (y) = 0.00790 0.47051
# Poissons Ratio (z) = 0.09026 0.17883
#
# Static dielectric constant tensor:
#      x y z
#    x 2.068570 0.058670 -0.087690 
#    y 0.058670 2.092910 -0.042780 
#    z -0.087690 -0.042780 1.987060 
# 
# From -- ./inp_files/482980.got.cif
#   From: 2010.05.17/outbox.cif.g08.bks.cpg/sg2_242_cif.got.tgz:482980.got - 2010.06.03 11:33:40.
