data_PCOD9111912
_publ_section_title
;
Structure prediction by ZEFSAII (Michael W. Deem and Ramdas Pophale) SiO2 
 PCOD9111912
Probable space group: P -1
;
_chemical_formula_sum "Si O2"
_cell_formula_units_Z 14
_cell_length_a 7.283625
_cell_length_b 10.328757
_cell_length_c 7.080079
_cell_angle_alpha 80.482202
_cell_angle_beta 95.452834
_cell_angle_gamma 99.418738
_cell_volume 516.959941
_symmetry_space_group_name_H-M "P -1"
_symmetry_group_IT_number 2
_symmetry_cell_setting 'triclinic'
loop_
_space_group_symop_operation_xyz
x,y,z
-x,-y,-z
loop_
_atom_site_type_symbol
_atom_site_label
_atom_site_fract_x
_atom_site_fract_y
_atom_site_fract_z
Si Si1 0.779836 0.863824 0.825748
Si Si2 0.299192 0.853662 0.153854
Si Si3 0.404139 0.688360 0.711230
Si Si4 0.814492 0.099235 0.283095
Si Si5 0.187654 0.577208 0.085869
Si Si6 0.717075 0.813497 0.273944
Si Si7 0.208690 0.463587 0.492785
O O1 0.976939 0.843202 0.766749
O O2 0.779416 0.830321 0.057415
O O3 0.605598 0.773252 0.736511
O O4 0.761025 0.020641 0.777510
O O5 0.495584 0.817128 0.249277
O O6 0.309663 0.901033 0.922527
O O7 0.164738 0.713347 0.160523
O O8 0.270817 0.798406 0.620132
O O9 0.332349 0.622296 0.921500
O O10 0.356232 0.571528 0.587556
O O11 0.249731 0.480979 0.271116
O O12 0.802594 0.945251 0.365940
O O13 0.000000 0.500000 0.000000
O O14 0.772031 0.680319 0.393738
O O15 0.000000 0.500000 0.500000
#
# Coordination Sequence:
#
# PCOD9111912 Si02
#       7
#     2   2   2   2   2   2   2
#     4  11  21  42  82 115 149 203 254 315 388 444
#     4  10  20  43  77 109 154 194 258 319 371 450
#     4  11  24  51  78 110 157 193 260 317 371 457
#     4  10  21  40  80 112 147 204 255 308 388 446
#     4  11  24  47  76 103 150 205 245 305 388 447
#     4  11  21  43  74 111 156 200 250 320 375 451
#     4  12  29  46  74 115 155 201 259 311 381 459
#
# _framework density 27.081401
#
# number of rings (size 3 to 8) (size 9 to 14) (size 15 to 20)
#    0.000    1.143    5.714    2.571    6.000    1.143 
#    5.143    2.857    0.000    1.714    0.000    0.000 
#    0.000    0.000    0.000    0.000    0.000    0.000 
#
# Total GULP energy -78674.918722 kJ/mol
# GULP energy per Si atom -5619.637052 kJ/mol
# Density = 2.701976 g / cm^3
# Si number density = 27.081401 Si / 1000 Ang^3
#
#
#
# Elastic Constant Matrix: (Units=GPa)
#
#
# Indices 1 2 3 4 5 6 
#
# 1 168.2475 80.8740 56.7824 7.5506 27.3119 7.3712
# 2 80.8740 261.2346 85.8330 -4.6659 21.6715 7.0195
# 3 56.7824 85.8330 142.9748 -9.8598 8.5209 4.6461
# 4 7.5506 -4.6659 -9.8598 63.9419 4.4464 8.6383
# 5 27.3119 21.6715 8.5209 4.4464 36.1350 -0.3385
# 6 7.3712 7.0195 4.6461 8.6383 -0.3385 47.2850
#
#
#
# Elastic Compliance Matrix: (Units=1/GPa)
#
#
# Indices 1 2 3 4 5 6 
#
# 1 0.008204 -0.001438 -0.002159 -0.000983 -0.004715 -0.000707
# 2 -0.001438 0.005214 -0.002434 0.000332 -0.001511 -0.000382
# 3 -0.002159 -0.002434 0.009395 0.001547 0.000681 -0.000503
# 4 -0.000983 0.000332 0.001547 0.016566 -0.001888 -0.003088
# 5 -0.004715 -0.001511 0.000681 -0.001888 0.032229 0.001468
# 6 -0.000707 -0.000382 -0.000503 -0.003088 0.001468 0.021939
#
#
# Mechanical properties :
#
#
# Convention : Reuss Voigt Hill
#
# Bulk Modulus (GPa) = 93.00416 113.27062 103.13739
# Shear Modulus (GPa) = 45.79003 52.73686 49.26345
#
# Velocity S-wave (km/s) = 4.11643 4.41766 4.26970
# Velocity P-wave (km/s) = 7.55052 8.24244 7.90405
#
# Compressibility (1/GPa) = 0.01075221
#
# Stress axis : x y z
#
# Youngs Moduli (GPa) = 121.89371 191.77706 106.43708
#
# Poissons Ratio (x) = 0.27576 0.22977
# Poissons Ratio (y) = 0.17527 0.25907
# Poissons Ratio (z) = 0.26314 0.46678
#
# Static dielectric constant tensor:
#      x y z
#    x 2.141700 -0.040970 -0.031590 
#    y -0.040970 2.096190 -0.034850 
#    z -0.031590 -0.034850 2.131800 
# 
# From -- ./inp_files/163399.got.cif
#   From: 2010.05.17/outbox.cif.g08.bks.cpg/sg2_82_cif.got.tgz:163399.got - 2010.06.03 11:33:40.
