data_PCOD9111495
_publ_section_title
;
Structure prediction by ZEFSAII (Michael W. Deem and Ramdas Pophale) SiO2 
 PCOD9111495
Probable space group: P -1
;
_chemical_formula_sum "Si O2"
_cell_formula_units_Z 12
_cell_length_a 15.031897
_cell_length_b 14.094390
_cell_length_c 5.921418
_cell_angle_alpha 74.371420
_cell_angle_beta 82.017560
_cell_angle_gamma 26.084394
_cell_volume 515.237502
_symmetry_space_group_name_H-M "P -1"
_symmetry_group_IT_number 2
_symmetry_cell_setting 'triclinic'
loop_
_space_group_symop_operation_xyz
x,y,z
-x,-y,-z
loop_
_atom_site_type_symbol
_atom_site_label
_atom_site_fract_x
_atom_site_fract_y
_atom_site_fract_z
Si Si1 0.150983 0.603632 0.787541
Si Si2 0.798153 0.656337 0.840006
Si Si3 0.753259 0.995444 0.945867
Si Si4 0.649936 0.927289 0.327596
Si Si5 0.411546 0.315830 0.495751
Si Si6 0.482386 0.401671 0.046355
O O1 0.184857 0.537587 0.557066
O O2 0.194167 0.467010 0.023761
O O3 0.297442 0.548872 0.849191
O O4 0.919114 0.858027 0.785385
O O5 0.789437 0.712702 0.556508
O O6 0.552728 0.922229 0.814104
O O7 0.000000 0.500000 0.000000
O O8 0.693650 0.142811 0.040005
O O9 0.784766 0.863753 0.159979
O O10 0.545833 0.178432 0.762542
O O11 0.527547 0.122620 0.417773
O O12 0.430326 0.399232 0.301550
O O13 0.500000 0.500000 0.000000
#
# Coordination Sequence:
#
# PCOD9111495 Si02
#       6
#     2   2   2   2   2   2
#     4  11  23  41  63  96 128 169 222 265 326 389
#     4  11  22  41  65  99 131 183 223 262 325 391
#     4  10  22  42  65  95 130 169 220 268 323 391
#     4  10  22  44  63  92 142 177 218 273 317 384
#     4  10  20  43  65  89 131 168 212 272 328 382
#     4  10  23  44  67  92 128 168 212 272 336 393
#
# _framework density 23.290230999999999
#
# number of rings (size 3 to 8) (size 9 to 14) (size 15 to 20)
#    0.000    1.667    5.000    1.000    0.000    8.667 
#    6.000    1.667    0.000    0.000    0.000    0.000 
#    0.000    0.000    0.000    0.000    0.000    0.000 
#
# Total GULP energy -66855.635819 kJ/mol
# GULP energy per Si atom -5571.302985 kJ/mol
# Density = 2.323722 g / cm^3
# Si number density = 23.290231 Si / 1000 Ang^3
#
#
#
# Elastic Constant Matrix: (Units=GPa)
#
#
# Indices 1 2 3 4 5 6 
#
# 1 125.2770 32.0843 22.5057 1.1648 -7.4450 5.8331
# 2 32.0843 110.5288 33.2071 39.9148 -8.5382 -10.8996
# 3 22.5057 33.2071 67.8585 13.8643 -9.2171 5.0568
# 4 1.1648 39.9148 13.8643 52.6290 -12.2230 2.6643
# 5 -7.4450 -8.5382 -9.2171 -12.2230 34.6877 -9.4409
# 6 5.8331 -10.8996 5.0568 2.6643 -9.4409 30.1189
#
#
#
# Elastic Compliance Matrix: (Units=1/GPa)
#
#
# Indices 1 2 3 4 5 6 
#
# 1 0.009377 -0.003637 -0.001663 0.003388 0.001105 -0.002806
# 2 -0.003637 0.016762 -0.005239 -0.011641 0.000234 0.008753
# 3 -0.001663 -0.005239 0.018470 -0.000162 0.002117 -0.003997
# 4 0.003388 -0.011641 -0.000162 0.029650 0.006817 -0.005328
# 5 0.001105 0.000234 0.002117 0.006817 0.034757 0.009807
# 6 -0.002806 0.008753 -0.003997 -0.005328 0.009807 0.041129
#
#
# Mechanical properties :
#
#
# Convention : Reuss Voigt Hill
#
# Bulk Modulus (GPa) = 42.49533 53.25094 47.87313
# Shear Modulus (GPa) = 27.92238 37.87826 32.90032
#
# Velocity S-wave (km/s) = 3.46625 4.03719 3.76257
# Velocity P-wave (km/s) = 5.85709 6.68173 6.28295
#
# Compressibility (1/GPa) = 0.02353200
#
# Stress axis : x y z
#
# Youngs Moduli (GPa) = 106.63849 59.65802 54.14174
#
# Poissons Ratio (x) = 0.21699 0.09004
# Poissons Ratio (y) = 0.38787 0.28362
# Poissons Ratio (z) = 0.17735 0.31252
#
# Static dielectric constant tensor:
#      x y z
#    x 1.897380 -0.032920 0.067930 
#    y -0.032920 1.982980 0.014140 
#    z 0.067930 0.014140 1.922990 
# 
# From -- ./inp_files/97694.got.cif
#   From: 2010.05.17/outbox.cif.g08.bks.cpg/sg2_49_cif.got.tgz:97694.got - 2010.06.03 11:33:40.
