data_PCOD9111772
_publ_section_title
;
Structure prediction by ZEFSAII (Michael W. Deem and Ramdas Pophale) SiO2 
 PCOD9111772
Probable space group: P -1
;
_chemical_formula_sum "Si O2"
_cell_formula_units_Z 16
_cell_length_a 11.380719
_cell_length_b 15.284160
_cell_length_c 8.214965
_cell_angle_alpha 32.645880
_cell_angle_beta 82.194333
_cell_angle_gamma 83.514974
_cell_volume 763.695204
_symmetry_space_group_name_H-M "P -1"
_symmetry_group_IT_number 2
_symmetry_cell_setting 'triclinic'
loop_
_space_group_symop_operation_xyz
x,y,z
-x,-y,-z
loop_
_atom_site_type_symbol
_atom_site_label
_atom_site_fract_x
_atom_site_fract_y
_atom_site_fract_z
Si Si1 0.062812 0.834699 0.305143
Si Si2 0.956462 0.353946 0.848018
Si Si3 0.109920 0.334056 0.186587
Si Si4 0.305813 0.742697 0.842110
Si Si5 0.730223 0.353355 0.360434
Si Si6 0.924127 0.942693 0.758450
Si Si7 0.466183 0.420037 0.801438
Si Si8 0.711713 0.880651 0.687465
O O1 0.188957 0.754383 0.361153
O O2 0.963765 0.702801 0.578797
O O3 0.094870 0.902328 0.373882
O O4 0.000000 0.000000 0.000000
O O5 0.000000 0.500000 0.500000
O O6 0.819181 0.330174 0.955431
O O7 0.032339 0.348548 0.011333
O O8 0.994549 0.200721 0.966535
O O9 0.202435 0.186433 0.367574
O O10 0.182005 0.499025 0.935425
O O11 0.306930 0.739494 0.650636
O O12 0.319096 0.928592 0.614462
O O13 0.413313 0.629361 0.054426
O O14 0.617125 0.445413 0.309727
O O15 0.798259 0.871858 0.841361
O O16 0.000000 0.000000 0.500000
O O17 0.500000 0.500000 0.500000
O O18 0.391588 0.251288 0.068851
#
# Coordination Sequence:
#
# PCOD9111772 Si02
#       8
#     2   2   2   2   2   2   2   2
#     4  12  23  36  63 101 135 166 205 264 334 388
#     4  11  23  34  68 103 131 167 217 264 328 390
#     4  10  21  41  60  97 138 169 202 262 337 398
#     4  12  22  43  69  92 129 177 221 262 323 386
#     4  11  24  44  64  90 137 170 213 271 327 384
#     4  11  18  40  63  94 131 164 206 262 326 395
#     4  11  28  45  65  94 122 175 233 271 315 383
#     4  10  20  43  70  86 125 173 215 261 323 385
#
# _framework density 20.950766000000002
#
# number of rings (size 3 to 8) (size 9 to 14) (size 15 to 20)
#    0.000    1.000    6.250    1.125    7.000    1.000 
#    0.000    0.625    0.000    0.000    0.000    0.000 
#    0.000    0.000    0.000    0.000    0.000    0.000 
#
# Total GULP energy -89192.596244 kJ/mol
# GULP energy per Si atom -5574.537265 kJ/mol
# Density = 2.090308 g / cm^3
# Si number density = 20.950766 Si / 1000 Ang^3
#
#
#
# Elastic Constant Matrix: (Units=GPa)
#
#
# Indices 1 2 3 4 5 6 
#
# 1 111.6135 11.9532 41.3107 1.6784 21.2142 -28.7994
# 2 11.9532 53.4211 19.4505 -22.1090 2.9016 -21.8151
# 3 41.3107 19.4505 113.7825 -8.2419 19.1943 -26.7844
# 4 1.6784 -22.1090 -8.2419 30.6305 -6.0663 5.4803
# 5 21.2142 2.9016 19.1943 -6.0663 41.8620 -8.4901
# 6 -28.7994 -21.8151 -26.7844 5.4803 -8.4901 34.2527
#
#
#
# Elastic Compliance Matrix: (Units=1/GPa)
#
#
# Indices 1 2 3 4 5 6 
#
# 1 0.012871 0.000293 -0.002185 -0.003501 -0.004263 0.008804
# 2 0.000293 0.036925 -0.000709 0.023783 0.005263 0.020709
# 3 -0.002185 -0.000709 0.011661 0.001122 -0.002821 0.005951
# 4 -0.003501 0.023783 0.001122 0.050708 0.008388 0.007047
# 5 -0.004263 0.005263 -0.002821 0.008388 0.028877 0.003378
# 6 0.008804 0.020709 0.005951 0.007047 0.003378 0.054149
#
#
# Mechanical properties :
#
#
# Convention : Reuss Voigt Hill
#
# Bulk Modulus (GPa) = 17.77587 47.13845 32.45716
# Shear Modulus (GPa) = 22.81574 35.08922 28.95248
#
# Velocity S-wave (km/s) = 3.30361 4.09692 3.72146
# Velocity P-wave (km/s) = 4.80154 6.70285 5.83022
#
# Compressibility (1/GPa) = 0.05625604
#
# Stress axis : x y z
#
# Youngs Moduli (GPa) = 77.69134 27.08162 85.75342
#
# Poissons Ratio (x) = -0.00794 0.18741
# Poissons Ratio (y) = -0.02279 0.06080
# Poissons Ratio (z) = 0.16979 0.01920
#
# Static dielectric constant tensor:
#      x y z
#    x 1.829500 0.024550 0.051390 
#    y 0.024550 1.860610 -0.010490 
#    z 0.051390 -0.010490 1.900720 
# 
# From -- ./inp_files/277231.got.cif
#   From: 2010.05.17/outbox.cif.g08.bks.cpg/sg2_139_cif.got.tgz:277231.got - 2010.06.03 11:33:40.
