data_PCOD9111291
_publ_section_title
;
Structure prediction by ZEFSAII (Michael W. Deem and Ramdas Pophale) SiO2 
 PCOD9111291
Probable space group: P -1
;
_chemical_formula_sum "Si O2"
_cell_formula_units_Z 15
_cell_length_a 18.672769
_cell_length_b 15.301260
_cell_length_c 8.561251
_cell_angle_alpha 52.023643
_cell_angle_beta 40.839888
_cell_angle_gamma 22.188665
_cell_volume 567.039992
_symmetry_space_group_name_H-M "P -1"
_symmetry_group_IT_number 2
_symmetry_cell_setting 'triclinic'
loop_
_space_group_symop_operation_xyz
x,y,z
-x,-y,-z
loop_
_atom_site_type_symbol
_atom_site_label
_atom_site_fract_x
_atom_site_fract_y
_atom_site_fract_z
Si Si1 0.561808 0.843113 0.454533
Si Si2 0.185490 0.586143 0.316106
Si Si3 0.021752 0.320147 0.763033
Si Si4 0.036312 0.842719 0.779168
Si Si5 0.000000 0.000000 0.000000
Si Si6 0.320319 0.255008 0.956811
Si Si7 0.589636 0.354790 0.770500
Si Si8 0.675124 0.136014 0.570428
O O1 0.651234 0.649515 0.602336
O O2 0.738037 0.709307 0.166931
O O3 0.500000 0.000000 0.500000
O O4 0.305272 0.061886 0.548767
O O5 0.120697 0.588547 0.255381
O O6 0.928145 0.849522 0.529202
O O7 0.329180 0.572429 0.048358
O O8 0.990978 0.259214 0.019953
O O9 0.916349 0.527662 0.781442
O O10 0.055020 0.894035 0.852808
O O11 0.271887 0.656598 0.487178
O O12 0.793300 0.105994 0.806936
O O13 0.219341 0.893231 0.719383
O O14 0.469605 0.233147 0.765883
O O15 0.500000 0.000000 0.000000
O O16 0.569911 0.308989 0.689453
#
# Coordination Sequence:
#
# PCOD9111291 Si02
#       8
#     2   2   2   2   1   2   2   2
#     4  12  29  47  72 105 139 187 243 297 357 426
#     4  12  24  44  73 101 140 185 233 294 354 417
#     4  12  25  48  76 100 146 190 237 298 354 428
#     4  10  21  42  70 104 149 185 238 289 354 423
#     4  10  20  42  72 102 144 192 230 288 358 422
#     4  12  28  48  74 105 142 189 239 297 359 426
#     4  10  23  42  67 107 145 183 236 294 345 429
#     4  11  24  43  72 105 142 186 239 291 355 426
#
# _framework density 26.453161999999999
#
# number of rings (size 3 to 8) (size 9 to 14) (size 15 to 20)
#    0.000    0.800    5.333    0.800    3.733    3.200 
#    0.000    6.000    0.000    0.000    0.000    0.000 
#    0.000    0.000    0.000    0.000    0.000    0.000 
#
# Total GULP energy -83891.907049 kJ/mol
# GULP energy per Si atom -5592.793803 kJ/mol
# Density = 2.639295 g / cm^3
# Si number density = 26.453162 Si / 1000 Ang^3
#
#
#
# Elastic Constant Matrix: (Units=GPa)
#
#
# Indices 1 2 3 4 5 6 
#
# 1 47.7239 4.4016 7.2391 0.9738 6.4457 -6.1680
# 2 4.4016 101.0736 32.9310 10.5920 12.8031 -6.8263
# 3 7.2391 32.9310 99.6101 10.7619 -4.9141 -11.4199
# 4 0.9738 10.5920 10.7619 58.7727 0.2893 0.8711
# 5 6.4457 12.8031 -4.9141 0.2893 33.0371 1.9273
# 6 -6.1680 -6.8263 -11.4199 0.8711 1.9273 36.4178
#
#
#
# Elastic Compliance Matrix: (Units=1/GPa)
#
#
# Indices 1 2 3 4 5 6 
#
# 1 0.022296 0.000435 -0.001572 -0.000189 -0.004963 0.003632
# 2 0.000435 0.012110 -0.003984 -0.001454 -0.005441 0.001417
# 3 -0.001572 -0.003984 0.012111 -0.001530 0.003512 0.002636
# 4 -0.000189 -0.001454 -0.001530 0.017577 0.000290 -0.001220
# 5 -0.004963 -0.005441 0.003512 0.000290 0.034015 -0.002566
# 6 0.003632 0.001417 0.002636 -0.001220 -0.002566 0.029331
#
#
# Mechanical properties :
#
#
# Convention : Reuss Voigt Hill
#
# Bulk Modulus (GPa) = 27.56731 37.50568 32.53649
# Shear Modulus (GPa) = 33.38359 39.23458 36.30909
#
# Velocity S-wave (km/s) = 3.55630 3.85537 3.70885
# Velocity P-wave (km/s) = 5.22560 5.83331 5.53779
#
# Compressibility (1/GPa) = 0.03627484
#
# Stress axis : x y z
#
# Youngs Moduli (GPa) = 44.85161 82.57536 82.56813
#
# Poissons Ratio (x) = -0.03592 0.12981
# Poissons Ratio (y) = -0.01951 0.32895
# Poissons Ratio (z) = 0.07051 0.32898
#
# Static dielectric constant tensor:
#      x y z
#    x 2.034110 0.032770 -0.018290 
#    y 0.032770 1.843990 0.035540 
#    z -0.018290 0.035540 2.077350 
# 
# From -- ./inp_files/348320.got.cif
#   From: 2010.05.17/outbox.cif.g08.bks.cpg/sg2_175_cif.got.tgz:348320.got - 2010.06.03 11:33:40.
