data_PCOD9111550
_publ_section_title
;
Structure prediction by ZEFSAII (Michael W. Deem and Ramdas Pophale) SiO2 
 PCOD9111550
Probable space group: P -1
;
_chemical_formula_sum "Si O2"
_cell_formula_units_Z 14
_cell_length_a 5.145823
_cell_length_b 10.138596
_cell_length_c 20.217489
_cell_angle_alpha 139.908318
_cell_angle_beta 78.133146
_cell_angle_gamma 123.707222
_cell_volume 515.763985
_symmetry_space_group_name_H-M "P -1"
_symmetry_group_IT_number 2
_symmetry_cell_setting 'triclinic'
loop_
_space_group_symop_operation_xyz
x,y,z
-x,-y,-z
loop_
_atom_site_type_symbol
_atom_site_label
_atom_site_fract_x
_atom_site_fract_y
_atom_site_fract_z
Si Si1 0.484567 0.214546 0.050671
Si Si2 0.402943 0.686327 0.062236
Si Si3 0.165732 0.542621 0.638825
Si Si4 0.765771 0.240977 0.767286
Si Si5 0.805739 0.680248 0.609360
Si Si6 0.269146 0.467399 0.233493
Si Si7 0.952335 0.997641 0.400058
O O1 0.261668 0.231191 0.121596
O O2 0.827767 0.525371 0.149371
O O3 0.415284 0.159924 0.955440
O O4 0.500000 0.000000 0.000000
O O5 0.444994 0.845731 0.186859
O O6 0.500000 0.500000 0.000000
O O7 0.000000 0.500000 0.000000
O O8 0.579806 0.717961 0.682630
O O9 0.975350 0.575115 0.600588
O O10 0.028712 0.587916 0.727772
O O11 0.035167 0.242584 0.530102
O O12 0.720578 0.416787 0.792885
O O13 0.759451 0.034342 0.642607
O O14 0.500000 0.500000 0.500000
O O15 0.085240 0.928389 0.644521
O O16 0.628674 0.724464 0.343038
#
# Coordination Sequence:
#
# PCOD9111550 Si02
#       7
#     2   2   2   2   2   2   2
#     4  10  23  44  66  96 135 175 227 291 351 405
#     4  10  20  43  66  91 125 172 218 275 335 402
#     4  11  25  42  68  99 142 179 221 280 340 395
#     4  10  23  40  66  95 133 175 229 277 339 412
#     4  10  23  44  64  93 132 183 230 273 328 395
#     4  11  24  41  66 100 136 175 229 280 341 412
#     4  10  23  41  66  95 134 181 224 270 327 409
#
# _framework density 27.144197999999999
#
# number of rings (size 3 to 8) (size 9 to 14) (size 15 to 20)
#    0.000    1.714    1.429    2.143   10.000    2.286 
#    0.000    0.000    0.000    0.000    0.000    0.000 
#    0.000    0.000    0.000    0.000    0.000    0.000 
#
# Total GULP energy -78236.393555 kJ/mol
# GULP energy per Si atom -5588.313825 kJ/mol
# Density = 2.708242 g / cm^3
# Si number density = 27.144198 Si / 1000 Ang^3
#
#
#
# Elastic Constant Matrix: (Units=GPa)
#
#
# Indices 1 2 3 4 5 6 
#
# 1 128.8654 39.5132 51.2888 -1.4690 -39.8520 -6.9415
# 2 39.5132 120.4809 58.9498 -17.4228 -18.7122 8.1282
# 3 51.2888 58.9498 172.8243 -0.7731 -50.6763 6.8785
# 4 -1.4690 -17.4228 -0.7731 42.7624 -2.8625 -12.9273
# 5 -39.8520 -18.7122 -50.6763 -2.8625 61.5934 0.4028
# 6 -6.9415 8.1282 6.8785 -12.9273 0.4028 55.4212
#
#
#
# Elastic Compliance Matrix: (Units=1/GPa)
#
#
# Indices 1 2 3 4 5 6 
#
# 1 0.010586 -0.002292 -0.000823 0.000326 0.005479 0.001800
# 2 -0.002292 0.011212 -0.003270 0.004231 -0.000567 -0.000535
# 3 -0.000823 -0.003270 0.008858 -0.001129 0.005716 -0.001028
# 4 0.000326 0.004231 -0.001129 0.026985 0.001783 0.005842
# 5 0.005479 -0.000567 0.005716 0.001783 0.024392 0.000299
# 6 0.001800 -0.000535 -0.001028 0.005842 0.000299 0.019836
#
#
# Mechanical properties :
#
#
# Convention : Reuss Voigt Hill
#
# Bulk Modulus (GPa) = 55.91712 80.18601 68.05156
# Shear Modulus (GPa) = 41.45939 50.11665 45.78802
#
# Velocity S-wave (km/s) = 3.91241 4.30153 4.11158
# Velocity P-wave (km/s) = 6.40734 7.36721 6.90398
#
# Compressibility (1/GPa) = 0.01788361
#
# Stress axis : x y z
#
# Youngs Moduli (GPa) = 94.46834 89.19317 112.89321
#
# Poissons Ratio (x) = 0.20446 0.09294
# Poissons Ratio (y) = 0.21655 0.36918
# Poissons Ratio (z) = 0.07778 0.29168
#
# Static dielectric constant tensor:
#      x y z
#    x 2.563290 0.061130 0.005400 
#    y 0.061130 2.133560 -0.021590 
#    z 0.005400 -0.021590 2.213780 
# 
# From -- ./inp_files/43444.got.cif
#   From: 2010.05.17/outbox.cif.g08.bks.cpg/sg2_22_cif.got.tgz:43444.got - 2010.06.03 11:33:40.
