data_PCOD9111271
_publ_section_title
;
Structure prediction by ZEFSAII (Michael W. Deem and Ramdas Pophale) SiO2 
 PCOD9111271
Probable space group: P -1
;
_chemical_formula_sum "Si O2"
_cell_formula_units_Z 16
_cell_length_a 14.998772
_cell_length_b 9.162402
_cell_length_c 11.698154
_cell_angle_alpha 72.916888
_cell_angle_beta 42.611519
_cell_angle_gamma 47.466377
_cell_volume 732.067276
_symmetry_space_group_name_H-M "P -1"
_symmetry_group_IT_number 2
_symmetry_cell_setting 'triclinic'
loop_
_space_group_symop_operation_xyz
x,y,z
-x,-y,-z
loop_
_atom_site_type_symbol
_atom_site_label
_atom_site_fract_x
_atom_site_fract_y
_atom_site_fract_z
Si Si1 0.642545 0.323267 0.000379
Si Si2 0.298590 0.989927 0.443648
Si Si3 0.045536 0.819954 0.420125
Si Si4 0.121432 0.357786 0.026957
Si Si5 0.195290 0.559598 0.561070
Si Si6 0.691154 0.499015 0.128613
Si Si7 0.719049 0.282222 0.360322
Si Si8 0.496049 0.876994 0.723827
O O1 0.644336 0.419551 0.091694
O O2 0.579977 0.202800 0.111801
O O3 0.500000 0.500000 0.000000
O O4 0.840951 0.199228 0.786351
O O5 0.490278 0.743468 0.287903
O O6 0.237554 0.933617 0.622596
O O7 0.352704 0.120697 0.380118
O O8 0.138879 0.107165 0.472164
O O9 0.163597 0.616979 0.442914
O O10 0.000000 0.000000 0.500000
O O11 0.991087 0.362464 0.229688
O O12 0.180498 0.458398 0.020722
O O13 0.000000 0.500000 0.000000
O O14 0.305575 0.132349 0.845913
O O15 0.224248 0.686508 0.580836
O O16 0.387081 0.301388 0.447985
O O17 0.792895 0.318834 0.175181
O O18 0.500000 0.500000 0.500000
#
# Coordination Sequence:
#
# PCOD9111271 Si02
#       8
#     2   2   2   2   2   2   2   2
#     4  12  25  46  71 103 143 187 240 297 355 422
#     4  10  23  43  70 104 140 191 234 296 363 419
#     4  12  24  43  74 101 141 188 245 291 357 433
#     4  11  25  48  71 107 151 188 233 302 363 424
#     4  12  24  45  75 102 145 189 240 296 356 431
#     4  10  23  46  70 102 144 186 237 297 358 432
#     4  10  20  42  71  96 137 191 239 283 363 428
#     4  11  26  46  70 110 143 186 244 297 358 421
#
# _framework density 21.855913999999999
#
# number of rings (size 3 to 8) (size 9 to 14) (size 15 to 20)
#    0.000    1.000    3.750    3.000    1.750    2.000 
#    2.250    4.375    0.000    0.000    0.000    0.000 
#    0.000    0.000    0.000    0.000    0.000    0.000 
#
# Total GULP energy -89189.467876 kJ/mol
# GULP energy per Si atom -5574.341742 kJ/mol
# Density = 2.180617 g / cm^3
# Si number density = 21.855914 Si / 1000 Ang^3
#
#
#
# Elastic Constant Matrix: (Units=GPa)
#
#
# Indices 1 2 3 4 5 6 
#
# 1 106.7875 59.3095 22.1117 -19.8961 -23.4951 4.1536
# 2 59.3095 88.4068 18.0515 -5.8632 -10.3553 12.7030
# 3 22.1117 18.0515 84.5439 -5.2146 -20.5505 13.2143
# 4 -19.8961 -5.8632 -5.2146 32.6102 9.1851 -8.9738
# 5 -23.4951 -10.3553 -20.5505 9.1851 39.0243 -2.0133
# 6 4.1536 12.7030 13.2143 -8.9738 -2.0133 32.3235
#
#
#
# Elastic Compliance Matrix: (Units=1/GPa)
#
#
# Indices 1 2 3 4 5 6 
#
# 1 0.019120 -0.012097 -0.001364 0.009257 0.005703 0.005780
# 2 -0.012097 0.020134 -0.000592 -0.005615 -0.001331 -0.007758
# 3 -0.001364 -0.000592 0.014791 -0.002145 0.007016 -0.005797
# 4 0.009257 -0.005615 -0.002145 0.040086 -0.005828 0.012660
# 5 0.005703 -0.001331 0.007016 -0.005828 0.033638 -0.002601
# 6 0.005780 -0.007758 -0.005797 0.012660 -0.002601 0.038966
#
#
# Mechanical properties :
#
#
# Convention : Reuss Voigt Hill
#
# Bulk Modulus (GPa) = 38.55385 53.18707 45.87046
# Shear Modulus (GPa) = 24.57147 32.80930 28.69038
#
# Velocity S-wave (km/s) = 3.35662 3.87869 3.62706
# Velocity P-wave (km/s) = 5.71846 6.66687 6.21079
#
# Compressibility (1/GPa) = 0.02593775
#
# Stress axis : x y z
#
# Youngs Moduli (GPa) = 52.30090 49.66626 67.61018
#
# Poissons Ratio (x) = 0.60082 0.09222
# Poissons Ratio (y) = 0.63270 0.04005
# Poissons Ratio (z) = 0.07134 0.02942
#
# Static dielectric constant tensor:
#      x y z
#    x 1.717010 0.003050 -0.068820 
#    y 0.003050 1.848740 0.033100 
#    z -0.068820 0.033100 1.894480 
# 
# From -- ./inp_files/307186.got.cif
#   From: 2010.05.17/outbox.cif.g08.bks.cpg/sg2_154_cif.got.tgz:307186.got - 2010.06.03 11:33:40.
