data_PCOD9111959
_publ_section_title
;
Structure prediction by ZEFSAII (Michael W. Deem and Ramdas Pophale) SiO2 
 PCOD9111959
Probable space group: P -1
;
_chemical_formula_sum "Si O2"
_cell_formula_units_Z 16
_cell_length_a 5.451082
_cell_length_b 11.571270
_cell_length_c 11.780895
_cell_angle_alpha 91.677520
_cell_angle_beta 101.694093
_cell_angle_gamma 115.364368
_cell_volume 651.837056
_symmetry_space_group_name_H-M "P -1"
_symmetry_group_IT_number 2
_symmetry_cell_setting 'triclinic'
loop_
_space_group_symop_operation_xyz
x,y,z
-x,-y,-z
loop_
_atom_site_type_symbol
_atom_site_label
_atom_site_fract_x
_atom_site_fract_y
_atom_site_fract_z
Si Si1 0.319237 0.593951 0.563975
Si Si2 0.844089 0.467425 0.103878
Si Si3 0.787203 0.853439 0.975163
Si Si4 0.370759 0.341725 0.882423
Si Si5 0.838846 0.217091 0.162162
Si Si6 0.574430 0.132586 0.357666
Si Si7 0.428627 0.362937 0.655428
Si Si8 0.088637 0.915490 0.418105
O O1 0.416442 0.726539 0.645215
O O2 0.408220 0.496797 0.635906
O O3 0.446467 0.644743 0.453528
O O4 0.000000 0.500000 0.500000
O O5 0.826792 0.589896 0.159743
O O6 0.918404 0.370419 0.180983
O O7 0.527763 0.388885 0.019778
O O8 0.000000 0.500000 0.000000
O O9 0.475651 0.838867 0.920825
O O10 0.929173 0.795228 0.894759
O O11 0.796355 0.804200 0.101936
O O12 0.000000 0.000000 0.000000
O O13 0.568057 0.372560 0.792068
O O14 0.780362 0.141624 0.273699
O O15 0.714897 0.126845 0.488948
O O16 0.272457 0.010637 0.337128
O O17 0.162115 0.223007 0.640335
O O18 0.000000 0.000000 0.500000
#
# Coordination Sequence:
#
# PCOD9111959 Si02
#       8
#     2   2   2   2   2   2   2   2
#     4  11  23  45  62 101 135 168 229 286 343 410
#     4  10  20  44  64  96 134 170 228 287 342 412
#     4  11  25  46  64 103 140 173 232 283 332 414
#     4  10  23  40  67  96 131 178 226 284 347 410
#     4  11  25  43  73  99 131 186 226 281 351 405
#     4  11  25  43  69  97 134 183 226 288 344 416
#     4  11  24  41  70  96 133 183 223 288 349 410
#     4  11  24  45  65  95 138 177 233 282 338 422
#
# _framework density 24.546011
#
# number of rings (size 3 to 8) (size 9 to 14) (size 15 to 20)
#    0.000    1.250    3.750    1.125    3.500    2.000 
#    0.000    0.000    0.000    0.000    0.000    0.000 
#    0.000    0.000    0.000    0.000    0.000    0.000 
#
# Total GULP energy -89216.867876 kJ/mol
# GULP energy per Si atom -5576.054242 kJ/mol
# Density = 2.449014 g / cm^3
# Si number density = 24.546011 Si / 1000 Ang^3
#
#
#
# Elastic Constant Matrix: (Units=GPa)
#
#
# Indices 1 2 3 4 5 6 
#
# 1 75.6570 25.2351 18.3439 -11.2713 -11.6733 13.2792
# 2 25.2351 145.7853 36.8943 -23.2980 -8.3922 18.9360
# 3 18.3439 36.8943 99.7754 -36.4446 -19.3112 15.5180
# 4 -11.2713 -23.2980 -36.4446 37.4146 24.1124 -12.1896
# 5 -11.6733 -8.3922 -19.3112 24.1124 31.1810 -8.9218
# 6 13.2792 18.9360 15.5180 -12.1896 -8.9218 47.3449
#
#
#
# Elastic Compliance Matrix: (Units=1/GPa)
#
#
# Indices 1 2 3 4 5 6 
#
# 1 0.015162 -0.001988 -0.001499 -0.002413 0.005340 -0.002581
# 2 -0.001988 0.008377 -0.001272 0.005317 -0.003886 -0.001740
# 3 -0.001499 -0.001272 0.016336 0.017176 -0.004301 -0.000814
# 4 -0.002413 0.005317 0.017176 0.078574 -0.048445 0.004021
# 5 0.005340 -0.003886 -0.004301 -0.048445 0.068360 0.001875
# 6 -0.002581 -0.001740 -0.000814 0.004021 0.001875 0.024197
#
#
# Mechanical properties :
#
#
# Convention : Reuss Voigt Hill
#
# Bulk Modulus (GPa) = 32.94023 53.57381 43.25702
# Shear Modulus (GPa) = 21.67864 39.23773 30.45818
#
# Velocity S-wave (km/s) = 2.97507 4.00251 3.52641
# Velocity P-wave (km/s) = 5.02496 6.57521 5.85165
#
# Compressibility (1/GPa) = 0.03035801
#
# Stress axis : x y z
#
# Youngs Moduli (GPa) = 65.95646 119.37035 61.21338
#
# Poissons Ratio (x) = 0.23732 0.09174
# Poissons Ratio (y) = 0.13113 0.07785
# Poissons Ratio (z) = 0.09884 0.15182
#
# Static dielectric constant tensor:
#      x y z
#    x 1.915680 0.060900 -0.083670 
#    y 0.060900 2.125450 0.046950 
#    z -0.083670 0.046950 1.987740 
# 
# From -- ./inp_files/68674.got.cif
#   From: 2010.05.17/outbox.cif.g08.bks.cpg/sg2_35_cif.got.tgz:68674.got - 2010.06.03 11:33:40.
