data_PCOD9111755
_publ_section_title
;
Structure prediction by ZEFSAII (Michael W. Deem and Ramdas Pophale) SiO2 
 PCOD9111755
Probable space group: P -1
;
_chemical_formula_sum "Si O2"
_cell_formula_units_Z 16
_cell_length_a 8.520722
_cell_length_b 8.716555
_cell_length_c 17.075057
_cell_angle_alpha 88.143802
_cell_angle_beta 28.444895
_cell_angle_gamma 88.153421
_cell_volume 603.718934
_symmetry_space_group_name_H-M "P -1"
_symmetry_group_IT_number 2
_symmetry_cell_setting 'triclinic'
loop_
_space_group_symop_operation_xyz
x,y,z
-x,-y,-z
loop_
_atom_site_type_symbol
_atom_site_label
_atom_site_fract_x
_atom_site_fract_y
_atom_site_fract_z
Si Si1 0.881658 0.816076 0.281526
Si Si2 0.368489 0.596864 0.454590
Si Si3 0.722636 0.224472 0.669485
Si Si4 0.519216 0.705095 0.661040
Si Si5 0.780701 0.894702 0.836885
Si Si6 0.760490 0.988058 0.178088
Si Si7 0.467283 0.343240 0.939214
Si Si8 0.382580 0.354514 0.199834
O O1 0.549409 0.717237 0.429379
O O2 0.899721 0.866254 0.181484
O O3 0.178359 0.706105 0.179311
O O4 0.929193 0.980481 0.302062
O O5 0.344292 0.665544 0.376480
O O6 0.547881 0.435237 0.365082
O O7 0.988309 0.577046 0.643016
O O8 0.595670 0.063213 0.696270
O O9 0.493540 0.269753 0.842279
O O10 0.104486 0.242496 0.521477
O O11 0.506633 0.650771 0.758640
O O12 0.294718 0.854389 0.755330
O O13 0.657457 0.817772 0.812179
O O14 0.786298 0.743616 0.891990
O O15 0.500000 0.000000 0.000000
O O16 0.000000 0.000000 0.000000
O O17 0.416086 0.523645 0.942431
#
# Coordination Sequence:
#
# PCOD9111755 Si02
#       8
#     2   2   2   2   2   2   2   2
#     4  10  25  43  61  97 137 170 212 276 333 386
#     4  10  21  45  68  98 133 164 230 277 326 386
#     4  10  20  43  69  98 127 177 226 274 322 396
#     4  11  22  42  74  97 130 173 233 272 323 397
#     4  10  24  42  62  93 137 174 217 258 330 408
#     4  11  25  42  65  96 139 178 219 274 333 391
#     4  11  21  41  71  93 133 171 222 269 330 398
#     4  11  22  41  72 100 123 178 222 276 322 393
#
# _framework density 26.502396999999998
#
# number of rings (size 3 to 8) (size 9 to 14) (size 15 to 20)
#    0.000    1.500    2.500    2.250    7.000    2.000 
#    2.250    5.000    0.000    0.000    0.000    0.000 
#    0.000    0.000    0.000    0.000    0.000    0.000 
#
# Total GULP energy -89563.943998 kJ/mol
# GULP energy per Si atom -5597.746500 kJ/mol
# Density = 2.644208 g / cm^3
# Si number density = 26.502397 Si / 1000 Ang^3
#
#
#
# Elastic Constant Matrix: (Units=GPa)
#
#
# Indices 1 2 3 4 5 6 
#
# 1 73.1845 49.0386 21.5133 -21.0528 5.1709 -4.9264
# 2 49.0386 116.8708 26.7760 -5.8585 18.6055 13.6197
# 3 21.5133 26.7760 44.9273 -5.4937 9.2974 -7.6779
# 4 -21.0528 -5.8585 -5.4937 45.3416 1.3722 10.5376
# 5 5.1709 18.6055 9.2974 1.3722 43.3722 -8.2346
# 6 -4.9264 13.6197 -7.6779 10.5376 -8.2346 48.1878
#
#
#
# Elastic Compliance Matrix: (Units=1/GPa)
#
#
# Indices 1 2 3 4 5 6 
#
# 1 0.023646 -0.009071 -0.004899 0.008503 0.002375 0.002747
# 2 -0.009071 0.015058 -0.004749 -0.001127 -0.005587 -0.006648
# 3 -0.004899 -0.004749 0.028773 -0.000509 -0.002563 0.005099
# 4 0.008503 -0.001127 -0.000509 0.027073 -0.002265 -0.005200
# 5 0.002375 -0.005587 -0.002563 -0.002265 0.027030 0.006528
# 6 0.002747 -0.006648 0.005099 -0.005200 0.006528 0.025977
#
#
# Mechanical properties :
#
#
# Convention : Reuss Voigt Hill
#
# Bulk Modulus (GPa) = 33.28840 47.73757 40.51299
# Shear Modulus (GPa) = 25.63998 36.55732 31.09865
#
# Velocity S-wave (km/s) = 3.11377 3.71805 3.42925
# Velocity P-wave (km/s) = 5.05126 6.04016 5.56771
#
# Compressibility (1/GPa) = 0.03004049
#
# Stress axis : x y z
#
# Youngs Moduli (GPa) = 42.29102 66.40840 34.75423
#
# Poissons Ratio (x) = 0.60241 0.17024
# Poissons Ratio (y) = 0.38364 0.16504
# Poissons Ratio (z) = 0.20716 0.31535
#
# Static dielectric constant tensor:
#      x y z
#    x 2.104200 0.036120 -0.021050 
#    y 0.036120 2.093710 -0.046120 
#    z -0.021050 -0.046120 2.055830 
# 
# From -- ./inp_files/244113.got.cif
#   From: 2010.05.17/outbox.cif.g08.bks.cpg/sg2_123_cif.got.tgz:244113.got - 2010.06.03 11:33:40.
