data_PCOD9111908
_publ_section_title
;
Structure prediction by ZEFSAII (Michael W. Deem and Ramdas Pophale) SiO2 
 PCOD9111908
Probable space group: P -1
;
_chemical_formula_sum "Si O2"
_cell_formula_units_Z 16
_cell_length_a 14.747503
_cell_length_b 10.139939
_cell_length_c 8.388666
_cell_angle_alpha 133.270695
_cell_angle_beta 40.596248
_cell_angle_gamma 132.791203
_cell_volume 559.955962
_symmetry_space_group_name_H-M "P -1"
_symmetry_group_IT_number 2
_symmetry_cell_setting 'triclinic'
loop_
_space_group_symop_operation_xyz
x,y,z
-x,-y,-z
loop_
_atom_site_type_symbol
_atom_site_label
_atom_site_fract_x
_atom_site_fract_y
_atom_site_fract_z
Si Si1 0.657511 0.962682 0.284246
Si Si2 0.409750 0.185690 0.236584
Si Si3 0.344518 0.776471 0.848122
Si Si4 0.897172 0.884149 0.687039
Si Si5 0.885562 0.473168 0.280493
Si Si6 0.849984 0.521200 0.879515
Si Si7 0.425836 0.475426 0.910771
Si Si8 0.844117 0.952761 0.305100
O O1 0.611783 0.749555 0.242795
O O2 0.773024 0.055319 0.351939
O O3 0.500000 0.000000 0.500000
O O4 0.738028 0.304367 0.275328
O O5 0.515270 0.272832 0.318150
O O6 0.451333 0.372602 0.231064
O O7 0.252955 0.083072 0.436296
O O8 0.421111 0.006381 0.968839
O O9 0.228161 0.655431 0.038412
O O10 0.849001 0.666104 0.514478
O O11 0.995637 0.910785 0.738201
O O12 0.000000 0.000000 0.500000
O O13 0.762207 0.951116 0.983184
O O14 0.978616 0.455656 0.298869
O O15 0.000000 0.500000 0.000000
O O16 0.725798 0.475174 0.867296
O O17 0.853082 0.738043 0.094857
O O18 0.500000 0.500000 0.000000
#
# Coordination Sequence:
#
# PCOD9111908 Si02
#       8
#     2   2   2   2   2   2   2   2
#     4  11  29  57  81 122 178 231 283 360 435 506
#     4  10  22  42  78 117 158 221 284 343 422 520
#     4   9  19  39  71 119 161 207 282 347 417 506
#     4  12  27  51  86 129 169 224 295 356 425 518
#     4  10  20  43  75 121 166 211 278 351 425 503
#     4   9  20  41  69 113 156 214 268 339 424 501
#     4  10  24  48  72 113 175 217 279 357 426 503
#     4  11  24  49  80 122 169 221 287 356 425 513
#
# _framework density 28.573675999999999
#
# number of rings (size 3 to 8) (size 9 to 14) (size 15 to 20)
#    0.000    1.750    0.000    3.375    1.750    8.500 
#   15.750    2.500    0.000    0.000    0.000    0.875 
#    0.000    0.000    0.000    0.000    0.000    0.000 
#
# Total GULP energy -89283.534110 kJ/mol
# GULP energy per Si atom -5580.220882 kJ/mol
# Density = 2.850864 g / cm^3
# Si number density = 28.573676 Si / 1000 Ang^3
#
#
#
# Elastic Constant Matrix: (Units=GPa)
#
#
# Indices 1 2 3 4 5 6 
#
# 1 304.1297 28.1326 54.5198 8.6279 -10.9199 -8.2617
# 2 28.1326 126.7105 64.9773 9.7884 -11.8618 1.4869
# 3 54.5198 64.9773 125.9739 15.3114 -22.3072 -2.0231
# 4 8.6279 9.7884 15.3114 59.1674 9.0394 7.5127
# 5 -10.9199 -11.8618 -22.3072 9.0394 42.6780 8.0104
# 6 -8.2617 1.4869 -2.0231 7.5127 8.0104 49.3913
#
#
#
# Elastic Compliance Matrix: (Units=1/GPa)
#
#
# Indices 1 2 3 4 5 6 
#
# 1 0.003581 -0.000011 -0.001496 -0.000215 0.000072 0.000559
# 2 -0.000011 0.010753 -0.005454 -0.000344 0.000311 -0.000547
# 3 -0.001496 -0.005454 0.012715 -0.002994 0.005378 0.000018
# 4 -0.000215 -0.000344 -0.002994 0.018848 -0.005303 -0.002155
# 5 0.000072 0.000311 0.005378 -0.005303 0.028134 -0.003533
# 6 0.000559 -0.000547 0.000018 -0.002155 -0.003533 0.021258
#
#
# Mechanical properties :
#
#
# Convention : Reuss Voigt Hill
#
# Bulk Modulus (GPa) = 76.17509 94.67484 85.42497
# Shear Modulus (GPa) = 44.01895 57.52630 50.77262
#
# Velocity S-wave (km/s) = 3.92923 4.49181 4.21990
# Velocity P-wave (km/s) = 6.87766 7.75289 7.32835
#
# Compressibility (1/GPa) = 0.01312765
#
# Stress axis : x y z
#
# Youngs Moduli (GPa) = 279.23545 92.99572 78.64524
#
# Poissons Ratio (x) = 0.00102 0.11769
# Poissons Ratio (y) = 0.00307 0.42890
# Poissons Ratio (z) = 0.41785 0.50717
#
# Static dielectric constant tensor:
#      x y z
#    x 2.218530 -0.008820 -0.103500 
#    y -0.008820 2.305190 -0.107290 
#    z -0.103500 -0.107290 2.251670 
# 
# From -- ./inp_files/299647.got.cif
#   From: 2010.05.17/outbox.cif.g08.bks.cpg/sg2_150_cif.got.tgz:299647.got - 2010.06.03 11:33:40.
