data_PCOD9111675
_publ_section_title
;
Structure prediction by ZEFSAII (Michael W. Deem and Ramdas Pophale) SiO2 
 PCOD9111675
Probable space group: P -1
;
_chemical_formula_sum "Si O2"
_cell_formula_units_Z 14
_cell_length_a 9.678645
_cell_length_b 21.866293
_cell_length_c 16.839756
_cell_angle_alpha 157.497669
_cell_angle_beta 29.185456
_cell_angle_gamma 137.986085
_cell_volume 625.323782
_symmetry_space_group_name_H-M "P -1"
_symmetry_group_IT_number 2
_symmetry_cell_setting 'triclinic'
loop_
_space_group_symop_operation_xyz
x,y,z
-x,-y,-z
loop_
_atom_site_type_symbol
_atom_site_label
_atom_site_fract_x
_atom_site_fract_y
_atom_site_fract_z
Si Si1 0.250671 0.582967 0.814224
Si Si2 0.650358 0.911249 0.397590
Si Si3 0.196395 0.311329 0.706167
Si Si4 0.842918 0.378663 0.699845
Si Si5 0.939910 0.902742 0.612197
Si Si6 0.258685 0.726516 0.822910
Si Si7 0.236532 0.829498 0.641033
O O1 0.368170 0.677713 0.800292
O O2 0.537647 0.428620 0.517380
O O3 0.040670 0.484237 0.762595
O O4 0.033728 0.710881 0.137956
O O5 0.438291 0.878771 0.530928
O O6 0.500000 0.000000 0.500000
O O7 0.831985 0.034604 0.480960
O O8 0.909990 0.746393 0.033284
O O9 0.517096 0.279791 0.549672
O O10 0.230368 0.182193 0.462666
O O11 0.000000 0.500000 0.000000
O O12 0.887344 0.234289 0.572577
O O13 0.932266 0.279203 0.452378
O O14 0.500000 0.500000 0.000000
O O15 0.251938 0.915455 0.034399
O O16 0.000000 0.000000 0.000000
#
# Coordination Sequence:
#
# PCOD9111675 Si02
#       7
#     2   2   2   2   2   2   2
#     4  11  22  39  65  94 133 166 221 275 326 393
#     4  10  20  43  68  92 127 174 223 271 325 401
#     4  12  23  42  63 100 137 167 217 285 333 387
#     4  12  22  43  66  95 131 182 215 270 343 395
#     4  10  23  40  72  90 129 180 220 265 338 402
#     4   9  22  40  63  95 121 176 219 271 323 396
#     4  12  26  42  68  99 135 171 228 280 329 399
#
# _framework density 22.388401000000002
#
# number of rings (size 3 to 8) (size 9 to 14) (size 15 to 20)
#    0.857    0.286    5.714    0.000    2.000    5.143 
#    2.571    0.000    0.000    2.571    0.000    0.000 
#    0.000    0.000    0.000    0.000    0.000    0.000 
#
# Total GULP energy -77993.981672 kJ/mol
# GULP energy per Si atom -5570.998691 kJ/mol
# Density = 2.233744 g / cm^3
# Si number density = 22.388401 Si / 1000 Ang^3
#
#
#
# Elastic Constant Matrix: (Units=GPa)
#
#
# Indices 1 2 3 4 5 6 
#
# 1 99.9199 19.6380 35.8611 3.7408 -12.8770 3.0491
# 2 19.6380 57.1718 5.5576 0.9930 -9.3012 -7.4632
# 3 35.8611 5.5576 145.0136 -9.8400 -13.0486 -2.1368
# 4 3.7408 0.9930 -9.8400 34.1400 -5.7488 -4.9256
# 5 -12.8770 -9.3012 -13.0486 -5.7488 39.6050 13.6880
# 6 3.0491 -7.4632 -2.1368 -4.9256 13.6880 27.7854
#
#
#
# Elastic Compliance Matrix: (Units=1/GPa)
#
#
# Indices 1 2 3 4 5 6 
#
# 1 0.012501 -0.004033 -0.002837 -0.002168 0.003525 -0.004794
# 2 -0.004033 0.019775 0.000561 0.001081 0.001934 0.005036
# 3 -0.002837 0.000561 0.007977 0.003028 0.002072 0.000591
# 4 -0.002168 0.001081 0.003028 0.031633 0.003540 0.004625
# 5 0.003525 0.001934 0.002072 0.003540 0.033418 -0.015543
# 6 -0.004794 0.005036 0.000591 0.004625 -0.015543 0.046391
#
#
# Mechanical properties :
#
#
# Convention : Reuss Voigt Hill
#
# Bulk Modulus (GPa) = 36.18717 47.13540 41.66128
# Shear Modulus (GPa) = 28.81430 36.37598 32.59514
#
# Velocity S-wave (km/s) = 3.59140 4.03522 3.81976
# Velocity P-wave (km/s) = 5.77892 6.54292 6.17275
#
# Compressibility (1/GPa) = 0.02763410
#
# Stress axis : x y z
#
# Youngs Moduli (GPa) = 79.99595 50.56857 125.36445
#
# Poissons Ratio (x) = 0.20393 0.35571
# Poissons Ratio (y) = 0.32260 -0.07033
# Poissons Ratio (z) = 0.22698 -0.02837
#
# Static dielectric constant tensor:
#      x y z
#    x 1.935470 -0.035830 -0.102850 
#    y -0.035830 1.955600 0.004230 
#    z -0.102850 0.004230 1.985710 
# 
# From -- ./inp_files/563418.got.cif
#   From: 2010.05.17/outbox.cif.g08.bks.cpg/sg2_282_cif.got.tgz:563418.got - 2010.06.03 11:33:40.
