data_PCOD9111692
_publ_section_title
;
Structure prediction by ZEFSAII (Michael W. Deem and Ramdas Pophale) SiO2 
 PCOD9111692
Probable space group: P -1
;
_chemical_formula_sum "Si O2"
_cell_formula_units_Z 14
_cell_length_a 10.229047
_cell_length_b 9.002308
_cell_length_c 14.142876
_cell_angle_alpha 49.595624
_cell_angle_beta 53.007293
_cell_angle_gamma 40.417935
_cell_volume 627.351266
_symmetry_space_group_name_H-M "P -1"
_symmetry_group_IT_number 2
_symmetry_cell_setting 'triclinic'
loop_
_space_group_symop_operation_xyz
x,y,z
-x,-y,-z
loop_
_atom_site_type_symbol
_atom_site_label
_atom_site_fract_x
_atom_site_fract_y
_atom_site_fract_z
Si Si1 0.140815 0.538807 0.860134
Si Si2 0.321400 0.033754 0.625117
Si Si3 0.342776 0.161968 0.765840
Si Si4 0.763074 0.193593 0.992919
Si Si5 0.675387 0.224583 0.570262
Si Si6 0.537007 0.492449 0.146935
Si Si7 0.019137 0.041267 0.632030
O O1 0.360143 0.424944 0.862975
O O2 0.035783 0.824517 0.770169
O O3 0.000000 0.500000 0.000000
O O4 0.666821 0.402006 0.029466
O O5 0.413142 0.755790 0.730271
O O6 0.113456 0.141568 0.613714
O O7 0.500000 0.000000 0.500000
O O8 0.279359 0.187432 0.673903
O O9 0.565727 0.101664 0.695134
O O10 0.189924 0.403835 0.794502
O O11 0.336042 0.949258 0.897091
O O12 0.697297 0.313807 0.867856
O O13 0.000000 0.000000 0.000000
O O14 0.500000 0.500000 0.500000
O O15 0.826865 0.086594 0.472554
O O16 0.795440 0.223686 0.608196
#
# Coordination Sequence:
#
# PCOD9111692 Si02
#       7
#     2   2   2   2   2   2   2
#     4  11  23  42  66  98 131 170 223 269 329 392
#     4  10  20  43  68  97 130 171 221 269 327 395
#     4  11  23  40  70  95 132 172 222 271 324 390
#     4  10  21  43  63  93 130 172 217 265 327 389
#     4  11  22  44  68  99 134 170 224 273 328 391
#     4   9  22  41  63  90 131 171 206 274 327 374
#     4  10  23  43  70  95 135 177 209 278 335 383
#
# _framework density 22.316046
#
# number of rings (size 3 to 8) (size 9 to 14) (size 15 to 20)
#    0.000    1.714    2.857    0.857    2.000    0.571 
#   12.857    0.714    0.000    0.000    0.000    0.000 
#    0.000    0.000    0.000    0.000    0.000    0.000 
#
# Total GULP energy -78287.404869 kJ/mol
# GULP energy per Si atom -5591.957491 kJ/mol
# Density = 2.226525 g / cm^3
# Si number density = 22.316046 Si / 1000 Ang^3
#
#
#
# Elastic Constant Matrix: (Units=GPa)
#
#
# Indices 1 2 3 4 5 6 
#
# 1 202.6652 55.5867 44.0651 4.7065 0.1696 -22.1841
# 2 55.5867 69.5052 15.9499 2.1521 -2.1318 -24.1591
# 3 44.0651 15.9499 107.0355 13.7412 -12.7820 -14.1049
# 4 4.7065 2.1521 13.7412 20.1518 -0.9610 7.3224
# 5 0.1696 -2.1318 -12.7820 -0.9610 31.2235 1.1650
# 6 -22.1841 -24.1591 -14.1049 7.3224 1.1650 51.8080
#
#
#
# Elastic Compliance Matrix: (Units=1/GPa)
#
#
# Indices 1 2 3 4 5 6 
#
# 1 0.006775 -0.004977 -0.002271 0.000463 -0.001289 -0.000075
# 2 -0.004977 0.021403 0.000776 -0.004750 0.001335 0.008702
# 3 -0.002271 0.000776 0.012438 -0.009254 0.004724 0.003977
# 4 0.000463 -0.004750 -0.009254 0.061017 -0.001748 -0.013121
# 5 -0.001289 0.001335 0.004724 -0.001748 0.033974 0.000840
# 6 -0.000075 0.008702 0.003977 -0.013121 0.000840 0.026246
#
#
# Mechanical properties :
#
#
# Convention : Reuss Voigt Hill
#
# Bulk Modulus (GPa) = 36.13834 67.82325 51.98079
# Shear Modulus (GPa) = 27.17065 38.21027 32.69046
#
# Velocity S-wave (km/s) = 3.49311 4.14240 3.83154
# Velocity P-wave (km/s) = 5.70071 7.30325 6.55117
#
# Compressibility (1/GPa) = 0.02767145
#
# Stress axis : x y z
#
# Youngs Moduli (GPa) = 147.59494 46.72332 80.39706
#
# Poissons Ratio (x) = 0.23255 0.18257
# Poissons Ratio (y) = 0.73461 -0.06237
# Poissons Ratio (z) = 0.33517 -0.03624
#
# Static dielectric constant tensor:
#      x y z
#    x 1.838890 -0.020760 0.015390 
#    y -0.020760 1.853850 0.004240 
#    z 0.015390 0.004240 1.830560 
# 
# From -- ./inp_files/559624.got.cif
#   From: 2010.05.17/outbox.cif.g08.bks.cpg/sg2_280_cif.got.tgz:559624.got - 2010.06.03 11:33:40.
