data_PCOD9111649
_publ_section_title
;
Structure prediction by ZEFSAII (Michael W. Deem and Ramdas Pophale) SiO2 
 PCOD9111649
Probable space group: P -1
;
_chemical_formula_sum "Si O2"
_cell_formula_units_Z 13
_cell_length_a 22.200993
_cell_length_b 16.690344
_cell_length_c 7.962550
_cell_angle_alpha 137.756604
_cell_angle_beta 149.344979
_cell_angle_gamma 23.258701
_cell_volume 575.397047
_symmetry_space_group_name_H-M "P -1"
_symmetry_group_IT_number 2
_symmetry_cell_setting 'triclinic'
loop_
_space_group_symop_operation_xyz
x,y,z
-x,-y,-z
loop_
_atom_site_type_symbol
_atom_site_label
_atom_site_fract_x
_atom_site_fract_y
_atom_site_fract_z
Si Si1 0.562357 0.534579 0.906052
Si Si2 0.588032 0.911392 0.805680
Si Si3 0.139417 0.986474 0.893736
Si Si4 0.500000 0.500000 0.000000
Si Si5 0.773386 0.369284 0.810454
Si Si6 0.761807 0.658359 0.167259
Si Si7 0.668327 0.035614 0.961627
O O1 0.703998 0.389721 0.863078
O O2 0.387835 0.576799 0.607051
O O3 0.669183 0.442001 0.197338
O O4 0.425183 0.762199 0.884527
O O5 0.520523 0.874839 0.445066
O O6 0.383288 0.150494 0.752421
O O7 0.733957 0.892142 0.043951
O O8 0.681491 0.763875 0.956196
O O9 0.008399 0.141841 0.977908
O O10 0.000000 0.000000 0.500000
O O11 0.358020 0.742875 0.069808
O O12 0.171859 0.064023 0.955754
O O13 0.741065 0.535034 0.960338
O O14 0.000000 0.500000 0.500000
#
# Coordination Sequence:
#
# PCOD9111649 Si02
#       7
#     2   2   2   1   2   2   2
#     4  10  22  40  68  99 132 172 218 274 339 400
#     4  10  23  43  70  88 137 184 220 276 329 393
#     4  11  22  40  64  98 134 168 216 277 330 402
#     4  10  22  40  64  94 130 172 214 258 344 396
#     4  11  22  42  66  95 138 170 216 285 327 398
#     4  11  24  44  64 100 129 177 230 275 329 398
#     4  10  20  43  68 100 130 180 223 271 339 396
#
# _framework density 22.593094000000001
#
# number of rings (size 3 to 8) (size 9 to 14) (size 15 to 20)
#    0.000    1.538    4.615    0.923    4.308    0.615 
#    2.769    6.923    0.000    0.000    0.000    0.000 
#    0.000    0.000    0.000    0.000    0.000    0.000 
#
# Total GULP energy -72405.912585 kJ/mol
# GULP energy per Si atom -5569.685583 kJ/mol
# Density = 2.254167 g / cm^3
# Si number density = 22.593094 Si / 1000 Ang^3
#
#
#
# Elastic Constant Matrix: (Units=GPa)
#
#
# Indices 1 2 3 4 5 6 
#
# 1 177.2311 57.7476 13.1828 -4.7064 23.5472 -9.8975
# 2 57.7476 117.8952 24.9393 -1.3234 4.1392 -11.4902
# 3 13.1828 24.9393 50.3839 5.8087 19.2280 9.1702
# 4 -4.7064 -1.3234 5.8087 24.8097 4.2032 10.9198
# 5 23.5472 4.1392 19.2280 4.2032 33.1534 6.4602
# 6 -9.8975 -11.4902 9.1702 10.9198 6.4602 43.9159
#
#
#
# Elastic Compliance Matrix: (Units=1/GPa)
#
#
# Indices 1 2 3 4 5 6 
#
# 1 0.007714 -0.003884 0.002074 0.001493 -0.006558 0.000883
# 2 -0.003884 0.012081 -0.007383 -0.000640 0.004979 0.003254
# 3 0.002074 -0.007383 0.030605 -0.002155 -0.017092 -0.004804
# 4 0.001493 -0.000640 -0.002155 0.046221 -0.003574 -0.010348
# 5 -0.006558 0.004979 -0.017092 -0.003574 0.045021 -0.002340
# 6 0.000883 0.003254 -0.004804 -0.010348 -0.002340 0.027742
#
#
# Mechanical properties :
#
#
# Convention : Reuss Voigt Hill
#
# Bulk Modulus (GPa) = 31.23492 59.69441 45.46467
# Shear Modulus (GPa) = 25.19652 37.01851 31.10751
#
# Velocity S-wave (km/s) = 3.34313 4.05222 3.71463
# Velocity P-wave (km/s) = 5.36256 6.95506 6.21007
#
# Compressibility (1/GPa) = 0.03201545
#
# Stress axis : x y z
#
# Youngs Moduli (GPa) = 129.63559 82.77120 32.67459
#
# Poissons Ratio (x) = 0.32150 -0.06778
# Poissons Ratio (y) = 0.50353 0.24122
# Poissons Ratio (z) = -0.26891 0.61106
#
# Static dielectric constant tensor:
#      x y z
#    x 0.907120 -0.239490 0.962680 
#    y -0.239490 1.762900 0.267750 
#    z 0.962680 0.267750 0.929680 
# 
# From -- ./inp_files/355051.got.cif
#   From: 2010.05.17/outbox.cif.g08.bks.cpg/sg2_178_cif.got.tgz:355051.got - 2010.06.03 11:33:40.
