data_PCOD9111461
_publ_section_title
;
Structure prediction by ZEFSAII (Michael W. Deem and Ramdas Pophale) SiO2 
 PCOD9111461
Probable space group: P -1
;
_chemical_formula_sum "Si O2"
_cell_formula_units_Z 14
_cell_length_a 11.998350
_cell_length_b 17.829582
_cell_length_c 5.315124
_cell_angle_alpha 100.934755
_cell_angle_beta 101.884027
_cell_angle_gamma 28.484108
_cell_volume 530.557074
_symmetry_space_group_name_H-M "P -1"
_symmetry_group_IT_number 2
_symmetry_cell_setting 'triclinic'
loop_
_space_group_symop_operation_xyz
x,y,z
-x,-y,-z
loop_
_atom_site_type_symbol
_atom_site_label
_atom_site_fract_x
_atom_site_fract_y
_atom_site_fract_z
Si Si1 0.909290 0.288604 0.542129
Si Si2 0.204715 0.217080 0.263207
Si Si3 0.333637 0.011531 0.828285
Si Si4 0.356336 0.266292 0.841293
Si Si5 0.903625 0.450812 0.865721
Si Si6 0.205972 0.797600 0.743636
Si Si7 0.305277 0.828109 0.302236
O O1 0.809955 0.422603 0.718951
O O2 0.757104 0.314947 0.347353
O O3 0.093385 0.220735 0.395742
O O4 0.076542 0.137928 0.700687
O O5 0.461066 0.101951 0.358529
O O6 0.005600 0.386631 0.158593
O O7 0.269361 0.132230 0.982892
O O8 0.441648 0.899290 0.029795
O O9 0.471249 0.248214 0.665094
O O10 0.128103 0.347153 0.736615
O O11 0.272987 0.376377 0.083430
O O12 0.297227 0.789905 0.538145
O O13 0.313253 0.764173 0.033163
O O14 0.929777 0.984120 0.737179
#
# Coordination Sequence:
#
# PCOD9111461 Si02
#       7
#     2   2   2   2   2   2   2
#     4  11  21  36  62  91 127 163 212 274 320 387
#     4   9  18  35  55  87 124 158 203 265 325 387
#     4   9  19  32  58  90 118 159 208 263 329 379
#     4  10  20  43  64  90 132 168 215 267 325 395
#     4   9  22  41  61  94 128 170 211 262 336 393
#     4  10  24  40  67  96 131 171 222 271 327 380
#     4  10  23  43  64  97 131 172 219 273 324 386
#
# _framework density 26.387357000000002
#
# number of rings (size 3 to 8) (size 9 to 14) (size 15 to 20)
#    0.000    2.286    0.000    2.143   10.000    1.143 
#    5.143    5.000    0.000    0.000    0.000    0.000 
#    0.000    0.000    0.000    0.000    0.000    0.000 
#
# Total GULP energy -78288.227108 kJ/mol
# GULP energy per Si atom -5592.016222 kJ/mol
# Density = 2.632730 g / cm^3
# Si number density = 26.387357 Si / 1000 Ang^3
#
#
#
# Elastic Constant Matrix: (Units=GPa)
#
#
# Indices 1 2 3 4 5 6 
#
# 1 148.8218 30.9253 41.8623 21.0928 15.9885 7.4851
# 2 30.9253 54.4639 13.5123 3.5413 6.0275 11.2777
# 3 41.8623 13.5123 81.5158 -1.3727 9.2735 6.4643
# 4 21.0928 3.5413 -1.3727 19.5910 -1.5831 2.7837
# 5 15.9885 6.0275 9.2735 -1.5831 60.3401 18.6814
# 6 7.4851 11.2777 6.4643 2.7837 18.6814 32.7525
#
#
#
# Elastic Compliance Matrix: (Units=1/GPa)
#
#
# Indices 1 2 3 4 5 6 
#
# 1 0.010876 -0.004410 -0.004943 -0.011857 -0.002802 0.002614
# 2 -0.004410 0.022381 -0.000986 0.001814 0.001449 -0.007485
# 3 -0.004943 -0.000986 0.015262 0.006852 -0.000121 -0.002056
# 4 -0.011857 0.001814 0.006852 0.065659 0.006231 -0.008402
# 5 -0.002802 0.001449 -0.000121 0.006231 0.021211 -0.012463
# 6 0.002614 -0.007485 -0.002056 -0.008402 -0.012463 0.040740
#
#
# Mechanical properties :
#
#
# Convention : Reuss Voigt Hill
#
# Bulk Modulus (GPa) = 35.91739 50.82235 43.36987
# Shear Modulus (GPa) = 24.26165 35.77017 30.01591
#
# Velocity S-wave (km/s) = 3.03552 3.68581 3.37636
# Velocity P-wave (km/s) = 5.09185 6.11683 5.62772
#
# Compressibility (1/GPa) = 0.02784167
#
# Stress axis : x y z
#
# Youngs Moduli (GPa) = 91.94394 44.68106 65.52422
#
# Poissons Ratio (x) = 0.19703 0.32387
# Poissons Ratio (y) = 0.40544 0.06462
# Poissons Ratio (z) = 0.45445 0.04406
#
# Static dielectric constant tensor:
#      x y z
#    x 2.067260 -0.065840 0.074140 
#    y -0.065840 2.112600 0.005510 
#    z 0.074140 0.005510 2.164090 
# 
# From -- ./inp_files/48235.got.cif
#   From: 2010.05.17/outbox.cif.g08.bks.cpg/sg2_25_cif.got.tgz:48235.got - 2010.06.03 11:33:40.
