data_PCOD9111622
_publ_section_title
;
Structure prediction by ZEFSAII (Michael W. Deem and Ramdas Pophale) SiO2 
 PCOD9111622
Probable space group: P -1
;
_chemical_formula_sum "Si O2"
_cell_formula_units_Z 16
_cell_length_a 10.500100
_cell_length_b 7.996198
_cell_length_c 13.795909
_cell_angle_alpha 68.711048
_cell_angle_beta 91.802207
_cell_angle_gamma 135.530369
_cell_volume 708.593106
_symmetry_space_group_name_H-M "P -1"
_symmetry_group_IT_number 2
_symmetry_cell_setting 'triclinic'
loop_
_space_group_symop_operation_xyz
x,y,z
-x,-y,-z
loop_
_atom_site_type_symbol
_atom_site_label
_atom_site_fract_x
_atom_site_fract_y
_atom_site_fract_z
Si Si1 0.320107 0.906930 0.763661
Si Si2 0.923315 0.430517 0.903105
Si Si3 0.397562 0.647627 0.156794
Si Si4 0.522069 0.730656 0.618980
Si Si5 0.353683 0.750965 0.444028
Si Si6 0.709790 0.866761 0.958303
Si Si7 0.800085 0.710815 0.596462
Si Si8 0.395131 0.572864 0.859956
O O1 0.327705 0.704955 0.831657
O O2 0.096662 0.718399 0.793215
O O3 0.447770 0.132506 0.802968
O O4 0.429503 0.045781 0.636475
O O5 0.722912 0.320450 0.902643
O O6 0.000000 0.500000 0.000000
O O7 0.879765 0.185842 0.913530
O O8 0.533207 0.714381 0.062127
O O9 0.238286 0.365491 0.273670
O O10 0.661103 0.049773 0.584115
O O11 0.358151 0.647162 0.565628
O O12 0.636074 0.690272 0.578269
O O13 0.423404 0.554136 0.752082
O O14 0.228330 0.510182 0.413139
O O15 0.748414 0.702503 0.021910
O O16 0.607831 0.789201 0.869555
O O17 0.000000 0.000000 0.500000
#
# Coordination Sequence:
#
# PCOD9111622 Si02
#       8
#     2   2   2   2   2   2   2   2
#     4  10  21  40  64  93 125 170 206 265 319 387
#     4  12  23  36  65  96 122 165 221 261 312 381
#     4  11  22  43  63  90 133 166 210 263 324 380
#     4  10  20  43  67  93 126 173 211 265 324 387
#     4   9  22  41  69  92 128 169 212 265 332 383
#     4  11  21  39  64  90 125 175 205 264 316 383
#     4  11  24  41  66  99 127 167 215 267 327 394
#     4  10  21  39  64  87 129 171 209 252 336 373
#
# _framework density 22.579955999999999
#
# number of rings (size 3 to 8) (size 9 to 14) (size 15 to 20)
#    0.000    1.500    3.750    1.500    1.750    1.000 
#    2.250    3.750    0.000    0.000    0.000    0.000 
#    0.000    0.000    0.000    0.000    0.000    0.000 
#
# Total GULP energy -89261.970735 kJ/mol
# GULP energy per Si atom -5578.873171 kJ/mol
# Density = 2.252856 g / cm^3
# Si number density = 22.579956 Si / 1000 Ang^3
#
#
#
# Elastic Constant Matrix: (Units=GPa)
#
#
# Indices 1 2 3 4 5 6 
#
# 1 41.1372 -1.8243 -8.2869 -2.0658 6.8696 -2.1911
# 2 -1.8243 70.4230 2.6161 -4.2658 -8.9130 3.2119
# 3 -8.2869 2.6161 83.9277 5.2062 0.2437 16.4367
# 4 -2.0658 -4.2658 5.2062 35.9737 1.3246 -3.2610
# 5 6.8696 -8.9130 0.2437 1.3246 36.7022 -2.0032
# 6 -2.1911 3.2119 16.4367 -3.2610 -2.0032 24.9259
#
#
#
# Elastic Compliance Matrix: (Units=1/GPa)
#
#
# Indices 1 2 3 4 5 6 
#
# 1 0.025690 0.000025 0.002372 0.001357 -0.004841 0.000480
# 2 0.000025 0.014802 -0.000331 0.001568 0.003470 -0.001203
# 3 0.002372 -0.000331 0.014209 -0.002788 -0.001040 -0.009567
# 4 0.001357 0.001568 -0.002788 0.028986 -0.000601 0.005500
# 5 -0.004841 0.003470 -0.001040 -0.000601 0.029137 0.002076
# 6 0.000480 -0.001203 -0.009567 0.005500 0.002076 0.047511
#
#
# Mechanical properties :
#
#
# Convention : Reuss Voigt Hill
#
# Bulk Modulus (GPa) = 16.99719 20.05530 18.52624
# Shear Modulus (GPa) = 28.43920 33.05257 30.74589
#
# Velocity S-wave (km/s) = 3.55278 3.83012 3.69405
# Velocity P-wave (km/s) = 4.93696 5.33488 5.13977
#
# Compressibility (1/GPa) = 0.05883325
#
# Stress axis : x y z
#
# Youngs Moduli (GPa) = 38.92584 67.55924 70.37718
#
# Poissons Ratio (x) = -0.00169 -0.16692
# Poissons Ratio (y) = -0.00097 0.02327
# Poissons Ratio (z) = -0.09232 0.02234
#
# Static dielectric constant tensor:
#      x y z
#    x 1.934140 -0.044990 0.002690 
#    y -0.044990 1.872100 -0.023700 
#    z 0.002690 -0.023700 1.893780 
# 
# From -- ./inp_files/399142.got.cif
#   From: 2010.05.17/outbox.cif.g08.bks.cpg/sg2_200_cif.got.tgz:399142.got - 2010.06.03 11:33:40.
