data_PCOD9111430
_publ_section_title
;
Structure prediction by ZEFSAII (Michael W. Deem and Ramdas Pophale) SiO2 
 PCOD9111430
Probable space group: P -1
;
_chemical_formula_sum "Si O2"
_cell_formula_units_Z 14
_cell_length_a 22.844541
_cell_length_b 11.997530
_cell_length_c 5.279496
_cell_angle_alpha 112.500555
_cell_angle_beta 84.609792
_cell_angle_gamma 149.089856
_cell_volume 597.119871
_symmetry_space_group_name_H-M "P -1"
_symmetry_group_IT_number 2
_symmetry_cell_setting 'triclinic'
loop_
_space_group_symop_operation_xyz
x,y,z
-x,-y,-z
loop_
_atom_site_type_symbol
_atom_site_label
_atom_site_fract_x
_atom_site_fract_y
_atom_site_fract_z
Si Si1 0.583203 0.684239 0.377401
Si Si2 0.799017 0.568513 0.088571
Si Si3 0.874001 0.115438 0.604237
Si Si4 0.310519 0.881486 0.486564
Si Si5 0.975661 0.594314 0.697495
Si Si6 0.013877 0.907058 0.699461
Si Si7 0.478618 0.881074 0.152966
O O1 0.500000 0.500000 0.500000
O O2 0.721878 0.868090 0.471970
O O3 0.621073 0.895338 0.527295
O O4 0.500000 0.500000 0.000000
O O5 0.882844 0.701992 0.423802
O O6 0.893793 0.808295 0.057187
O O7 0.742706 0.335186 0.824572
O O8 0.674717 0.427836 0.054758
O O9 0.944456 0.303971 0.492452
O O10 0.905062 0.031264 0.476607
O O11 0.950616 0.296731 0.978968
O O12 0.181061 0.704617 0.502738
O O13 0.416557 0.032755 0.781958
O O14 0.993316 0.773092 0.810820
O O15 0.500000 0.000000 0.500000
O O16 0.500000 0.000000 0.000000
#
# Coordination Sequence:
#
# PCOD9111430 Si02
#       7
#     2   2   2   2   2   2   2
#     4  12  30  50  75  99 139 186 241 297 351 412
#     4  10  20  43  63 107 135 187 222 286 344 419
#     4  10  23  45  69 102 134 186 223 290 346 410
#     4  11  24  45  71 103 144 185 240 289 347 419
#     4  10  21  42  70 103 138 174 231 281 350 412
#     4   9  21  39  71 100 146 173 227 281 345 419
#     4  10  23  40  63  96 139 182 225 277 344 406
#
# _framework density 23.445879000000001
#
# number of rings (size 3 to 8) (size 9 to 14) (size 15 to 20)
#    0.857    0.857    1.429    1.714    2.000    6.286 
#    5.143    0.000    0.000    0.000    0.000    0.000 
#    0.000    0.000    0.000    0.000    0.000    0.000 
#
# Total GULP energy -78238.845395 kJ/mol
# GULP energy per Si atom -5588.488957 kJ/mol
# Density = 2.339252 g / cm^3
# Si number density = 23.445879 Si / 1000 Ang^3
#
#
#
# Elastic Constant Matrix: (Units=GPa)
#
#
# Indices 1 2 3 4 5 6 
#
# 1 125.5551 44.0355 77.9585 11.3638 36.9686 23.3244
# 2 44.0355 188.3475 79.5325 0.4591 32.1867 3.5510
# 3 77.9585 79.5325 117.6143 3.4267 30.3901 4.7165
# 4 11.3638 0.4591 3.4267 46.5251 -1.1909 4.0484
# 5 36.9686 32.1867 30.3901 -1.1909 60.5845 16.4614
# 6 23.3244 3.5510 4.7165 4.0484 16.4614 47.6967
#
#
#
# Elastic Compliance Matrix: (Units=1/GPa)
#
#
# Indices 1 2 3 4 5 6 
#
# 1 0.016483 0.001393 -0.010504 -0.002896 -0.004101 -0.005464
# 2 0.001393 0.007707 -0.005576 -0.000065 -0.002162 0.000048
# 3 -0.010504 -0.005576 0.019427 0.000798 -0.001462 0.004068
# 4 -0.002896 -0.000065 0.000798 0.022313 0.002195 -0.001310
# 5 -0.004101 -0.002162 -0.001462 0.002195 0.022462 -0.005628
# 6 -0.005464 0.000048 0.004068 -0.001310 -0.005628 0.025286
#
#
# Mechanical properties :
#
#
# Convention : Reuss Voigt Hill
#
# Bulk Modulus (GPa) = 70.21596 92.72999 81.47298
# Shear Modulus (GPa) = 33.82942 46.29396 40.06169
#
# Velocity S-wave (km/s) = 3.80264 4.44836 4.13811
# Velocity P-wave (km/s) = 7.02091 8.12529 7.59321
#
# Compressibility (1/GPa) = 0.01424178
#
# Stress axis : x y z
#
# Youngs Moduli (GPa) = 60.66883 129.75207 51.47483
#
# Poissons Ratio (x) = -0.18070 0.54069
# Poissons Ratio (y) = -0.08449 0.28703
# Poissons Ratio (z) = 0.63727 0.72353
#
# Static dielectric constant tensor:
#      x y z
#    x 2.029780 0.012270 -0.104190 
#    y 0.012270 1.929610 -0.008070 
#    z -0.104190 -0.008070 1.859470 
# 
# From -- ./inp_files/118093.got.cif
#   From: 2010.05.17/outbox.cif.g08.bks.cpg/sg2_60_cif.got.tgz:118093.got - 2010.06.03 11:33:40.
