data_PCOD9111423
_publ_section_title
;
Structure prediction by ZEFSAII (Michael W. Deem and Ramdas Pophale) SiO2 
 PCOD9111423
Probable space group: P -1
;
_chemical_formula_sum "Si O2"
_cell_formula_units_Z 16
_cell_length_a 17.113497
_cell_length_b 12.830418
_cell_length_c 9.355857
_cell_angle_alpha 123.412626
_cell_angle_beta 147.075965
_cell_angle_gamma 48.572436
_cell_volume 837.135757
_symmetry_space_group_name_H-M "P -1"
_symmetry_group_IT_number 2
_symmetry_cell_setting 'triclinic'
loop_
_space_group_symop_operation_xyz
x,y,z
-x,-y,-z
loop_
_atom_site_type_symbol
_atom_site_label
_atom_site_fract_x
_atom_site_fract_y
_atom_site_fract_z
Si Si1 0.872999 0.124325 0.807000
Si Si2 0.117560 0.598246 0.881851
Si Si3 0.529496 0.137676 0.307150
Si Si4 0.509230 0.126639 0.935774
Si Si5 0.390914 0.451286 0.395571
Si Si6 0.217951 0.405475 0.613608
Si Si7 0.149870 0.873532 0.562420
Si Si8 0.669241 0.437300 0.298646
O O1 0.714272 0.102250 0.553225
O O2 0.898451 0.138029 0.686043
O O3 0.857071 0.263671 0.965086
O O4 0.000000 0.000000 0.000000
O O5 0.191309 0.508867 0.785103
O O6 0.932821 0.629997 0.637413
O O7 0.218734 0.507111 0.100118
O O8 0.454743 0.286469 0.379743
O O9 0.506530 0.010196 0.241076
O O10 0.465604 0.152792 0.057427
O O11 0.382966 0.266226 0.773198
O O12 0.691698 0.100446 0.180254
O O13 0.500000 0.500000 0.500000
O O14 0.379798 0.520125 0.582019
O O15 0.229327 0.487926 0.554858
O O16 0.216811 0.728256 0.643494
O O17 0.000000 0.000000 0.500000
O O18 0.500000 0.500000 0.000000
#
# Coordination Sequence:
#
# PCOD9111423 Si02
#       8
#     2   2   2   2   2   2   2   2
#     4  11  23  41  65  94 130 170 218 271 329 399
#     4  11  23  41  68  97 130 169 225 275 323 400
#     4  10  21  36  70  93 122 173 214 267 328 390
#     4  10  20  43  62  96 133 165 219 270 327 392
#     4  12  21  42  68  97 129 171 223 271 323 395
#     4  11  24  41  67  98 133 170 222 276 336 390
#     4  11  25  43  65  96 135 176 216 275 334 395
#     4  12  25  43  70  97 133 178 221 275 339 394
#
# _framework density 19.11279
#
# number of rings (size 3 to 8) (size 9 to 14) (size 15 to 20)
#    0.000    1.000    5.000    2.250    1.750    1.500 
#    2.250    0.625    0.000    0.000    0.000    0.000 
#    0.000    0.000    0.000    0.000    0.000    0.000 
#
# Total GULP energy -89305.996481 kJ/mol
# GULP energy per Si atom -5581.624780 kJ/mol
# Density = 1.906929 g / cm^3
# Si number density = 19.112790 Si / 1000 Ang^3
#
#
#
# Elastic Constant Matrix: (Units=GPa)
#
#
# Indices 1 2 3 4 5 6 
#
# 1 72.7532 40.8995 25.9412 -1.9727 1.2226 0.7103
# 2 40.8995 150.0055 36.7656 -9.8120 9.7978 2.6143
# 3 25.9412 36.7656 84.7306 -9.0627 -3.1532 -5.8324
# 4 -1.9727 -9.8120 -9.0627 40.3430 4.2839 4.9949
# 5 1.2226 9.7978 -3.1532 4.2839 23.3793 -0.9044
# 6 0.7103 2.6143 -5.8324 4.9949 -0.9044 31.6150
#
#
#
# Elastic Compliance Matrix: (Units=1/GPa)
#
#
# Indices 1 2 3 4 5 6 
#
# 1 0.017214 -0.003852 -0.003723 -0.000894 0.000352 -0.000604
# 2 -0.003852 0.008817 -0.002701 0.002000 -0.004285 -0.001579
# 3 -0.003723 -0.002701 0.014611 0.001768 0.003082 0.002811
# 4 -0.000894 0.002000 0.001768 0.026744 -0.005616 -0.004205
# 5 0.000352 -0.004285 0.003082 -0.005616 0.046116 0.003122
# 6 -0.000604 -0.001579 0.002811 -0.004205 0.003122 0.033047
#
#
# Mechanical properties :
#
#
# Convention : Reuss Voigt Hill
#
# Bulk Modulus (GPa) = 49.77428 57.18910 53.48169
# Shear Modulus (GPa) = 28.76927 32.65966 30.71447
#
# Velocity S-wave (km/s) = 3.88395 4.13823 4.01310
# Velocity P-wave (km/s) = 6.79796 7.26775 7.03678
#
# Compressibility (1/GPa) = 0.02009070
#
# Stress axis : x y z
#
# Youngs Moduli (GPa) = 58.09334 113.41953 68.44121
#
# Poissons Ratio (x) = 0.43688 0.25480
# Poissons Ratio (y) = 0.22377 0.18484
# Poissons Ratio (z) = 0.21627 0.30631
#
# Static dielectric constant tensor:
#      x y z
#    x 1.665810 0.009310 -0.009860 
#    y 0.009310 1.690940 -0.013170 
#    z -0.009860 -0.013170 1.643300 
# 
# From -- ./inp_files/263606.got.cif
#   From: 2010.05.17/outbox.cif.g08.bks.cpg/sg2_132_cif.got.tgz:263606.got - 2010.06.03 11:33:40.
