data_PCOD9111651
_publ_section_title
;
Structure prediction by ZEFSAII (Michael W. Deem and Ramdas Pophale) SiO2 
 PCOD9111651
Probable space group: P -1
;
_chemical_formula_sum "Si O2"
_cell_formula_units_Z 16
_cell_length_a 7.104732
_cell_length_b 14.084780
_cell_length_c 19.054021
_cell_angle_alpha 151.054576
_cell_angle_beta 112.691945
_cell_angle_gamma 85.178435
_cell_volume 700.815736
_symmetry_space_group_name_H-M "P -1"
_symmetry_group_IT_number 2
_symmetry_cell_setting 'triclinic'
loop_
_space_group_symop_operation_xyz
x,y,z
-x,-y,-z
loop_
_atom_site_type_symbol
_atom_site_label
_atom_site_fract_x
_atom_site_fract_y
_atom_site_fract_z
Si Si1 0.968593 0.442527 0.124633
Si Si2 0.036900 0.569937 0.724831
Si Si3 0.990205 0.041701 0.822431
Si Si4 0.504530 0.474244 0.567533
Si Si5 0.985504 0.083603 0.395958
Si Si6 0.305530 0.313504 0.795561
Si Si7 0.219285 0.054907 0.012854
Si Si8 0.478139 0.212224 0.612199
O O1 0.877340 0.361731 0.138218
O O2 0.265600 0.593916 0.262046
O O3 0.879596 0.605498 0.191576
O O4 0.892368 0.211577 0.919370
O O5 0.749791 0.479782 0.620980
O O6 0.034952 0.339605 0.559580
O O7 0.202543 0.810444 0.858806
O O8 0.752871 0.770598 0.611545
O O9 0.137349 0.073356 0.792997
O O10 0.144832 0.082941 0.942250
O O11 0.500000 0.500000 0.500000
O O12 0.550249 0.699305 0.763336
O O13 0.247355 0.120362 0.469104
O O14 0.831247 0.943960 0.352982
O O15 0.425411 0.310551 0.738072
O O16 0.500000 0.500000 0.000000
O O17 0.000000 0.000000 0.000000
O O18 0.500000 0.000000 0.500000
#
# Coordination Sequence:
#
# PCOD9111651 Si02
#       8
#     2   2   2   2   2   2   2   2
#     4  12  24  46  75 103 144 194 242 297 360 429
#     4  11  22  44  71 101 144 185 243 297 356 433
#     4  12  25  42  72 105 139 186 244 289 360 436
#     4  11  20  42  73 102 137 191 239 289 365 425
#     4  12  27  45  68 108 140 189 247 298 365 430
#     4  12  28  48  68 106 151 187 240 303 362 432
#     4  10  20  43  68 100 143 181 240 296 350 435
#     4  12  25  47  75 100 143 193 243 303 360 425
#
# _framework density 22.830538000000001
#
# number of rings (size 3 to 8) (size 9 to 14) (size 15 to 20)
#    0.000    0.500    7.500    2.625    3.500    1.500 
#    0.000    0.625    0.000    0.000    0.000    0.000 
#    0.000    0.000    0.000    0.000    0.000    0.000 
#
# Total GULP energy -89544.183795 kJ/mol
# GULP energy per Si atom -5596.511487 kJ/mol
# Density = 2.277857 g / cm^3
# Si number density = 22.830538 Si / 1000 Ang^3
#
#
#
# Elastic Constant Matrix: (Units=GPa)
#
#
# Indices 1 2 3 4 5 6 
#
# 1 56.5837 26.6128 18.6406 8.1621 -18.8395 -7.1842
# 2 26.6128 118.1618 38.5172 3.2260 -19.9272 -6.3779
# 3 18.6406 38.5172 125.4176 13.2932 -15.1062 -12.9360
# 4 8.1621 3.2260 13.2932 47.8285 -2.9868 -9.7632
# 5 -18.8395 -19.9272 -15.1062 -2.9868 49.0786 3.3547
# 6 -7.1842 -6.3779 -12.9360 -9.7632 3.3547 26.5720
#
#
#
# Elastic Compliance Matrix: (Units=1/GPa)
#
#
# Indices 1 2 3 4 5 6 
#
# 1 0.022521 -0.003421 -0.000933 -0.002301 0.006615 0.003133
# 2 -0.003421 0.010404 -0.002468 0.000782 0.002173 0.000384
# 3 -0.000933 -0.002468 0.009506 -0.001619 0.001260 0.003029
# 4 -0.002301 0.000782 -0.001619 0.023181 -0.000153 0.007314
# 5 0.006615 0.002173 0.001260 -0.000153 0.024188 -0.000187
# 6 0.003133 0.000384 0.003029 0.007314 -0.000187 0.042758
#
#
# Mechanical properties :
#
#
# Convention : Reuss Voigt Hill
#
# Bulk Modulus (GPa) = 34.73807 51.96715 43.35261
# Shear Modulus (GPa) = 32.09275 39.12199 35.60737
#
# Velocity S-wave (km/s) = 3.75333 4.14403 3.95351
# Velocity P-wave (km/s) = 5.83369 6.76084 6.31430
#
# Compressibility (1/GPa) = 0.02878686
#
# Stress axis : x y z
#
# Youngs Moduli (GPa) = 44.40260 96.11899 105.19791
#
# Poissons Ratio (x) = 0.32879 0.09815
# Poissons Ratio (y) = 0.15189 0.25966
# Poissons Ratio (z) = 0.04143 0.23725
#
# Static dielectric constant tensor:
#      x y z
#    x 1.795720 -0.021580 -0.090620 
#    y -0.021580 1.829550 -0.029100 
#    z -0.090620 -0.029100 1.796810 
# 
# From -- ./inp_files/583651.got.cif
#   From: 2010.05.17/outbox.cif.g08.bks.cpg/sg2_292_cif.got.tgz:583651.got - 2010.06.03 11:33:40.
