data_PCOD9111764
_publ_section_title
;
Structure prediction by ZEFSAII (Michael W. Deem and Ramdas Pophale) SiO2 
 PCOD9111764
Probable space group: P -1
;
_chemical_formula_sum "Si O2"
_cell_formula_units_Z 16
_cell_length_a 9.559501
_cell_length_b 14.033045
_cell_length_c 10.391017
_cell_angle_alpha 110.288958
_cell_angle_beta 101.447057
_cell_angle_gamma 30.195747
_cell_volume 642.271322
_symmetry_space_group_name_H-M "P -1"
_symmetry_group_IT_number 2
_symmetry_cell_setting 'triclinic'
loop_
_space_group_symop_operation_xyz
x,y,z
-x,-y,-z
loop_
_atom_site_type_symbol
_atom_site_label
_atom_site_fract_x
_atom_site_fract_y
_atom_site_fract_z
Si Si1 0.963911 0.401710 0.419929
Si Si2 0.708168 0.471326 0.150779
Si Si3 0.938769 0.395319 0.705837
Si Si4 0.938241 0.117459 0.377579
Si Si5 0.858989 0.226286 0.688160
Si Si6 0.562125 0.040311 0.644695
Si Si7 0.050089 0.081122 0.101101
Si Si8 0.687677 0.643641 0.002844
O O1 0.000000 0.500000 0.500000
O O2 0.780614 0.492848 0.302328
O O3 0.865132 0.426595 0.556500
O O4 0.240046 0.159016 0.329478
O O5 0.409305 0.604018 0.189550
O O6 0.936220 0.241663 0.069576
O O7 0.686998 0.552834 0.060878
O O8 0.999260 0.249364 0.714179
O O9 0.688292 0.603159 0.836455
O O10 0.237112 0.271112 0.721464
O O11 0.962824 0.980951 0.329556
O O12 0.249728 0.981029 0.381921
O O13 0.874509 0.191649 0.255923
O O14 0.771036 0.255852 0.537487
O O15 0.500000 0.000000 0.500000
O O16 0.391025 0.884024 0.089799
O O17 0.000000 0.000000 0.000000
O O18 0.000000 0.500000 0.000000
#
# Coordination Sequence:
#
# PCOD9111764 Si02
#       8
#     2   2   2   2   2   2   2   2
#     4  11  24  42  71 105 140 184 239 307 367 424
#     4  12  27  47  75 103 153 189 248 308 373 439
#     4  11  24  45  73 105 140 188 245 299 368 443
#     4  11  22  44  70 108 143 187 242 304 371 439
#     4  11  24  40  74 105 138 186 238 299 378 429
#     4  10  20  43  70 100 142 182 235 306 369 428
#     4  12  27  48  74 105 152 199 246 304 371 448
#     4  12  28  50  76 104 151 201 250 303 375 444
#
# _framework density 24.91159
#
# number of rings (size 3 to 8) (size 9 to 14) (size 15 to 20)
#    0.000    0.750    5.000    2.250    5.250    4.500 
#    2.250    0.000    0.000    0.000    0.000    0.000 
#    0.000    0.000    0.000    0.000    0.000    0.000 
#
# Total GULP energy -89412.270141 kJ/mol
# GULP energy per Si atom -5588.266884 kJ/mol
# Density = 2.485489 g / cm^3
# Si number density = 24.911590 Si / 1000 Ang^3
#
#
#
# Elastic Constant Matrix: (Units=GPa)
#
#
# Indices 1 2 3 4 5 6 
#
# 1 128.8814 24.2104 5.3140 8.9417 -6.8479 13.3261
# 2 24.2104 78.9249 24.8330 7.7357 -11.3327 16.8820
# 3 5.3140 24.8330 110.9411 16.9293 -18.6111 1.5027
# 4 8.9417 7.7357 16.9293 35.5432 -4.7896 10.2373
# 5 -6.8479 -11.3327 -18.6111 -4.7896 42.1525 1.8421
# 6 13.3261 16.8820 1.5027 10.2373 1.8421 46.3757
#
#
#
# Elastic Compliance Matrix: (Units=1/GPa)
#
#
# Indices 1 2 3 4 5 6 
#
# 1 0.008433 -0.002174 0.000457 -0.001347 0.000895 -0.001385
# 2 -0.002174 0.015746 -0.002932 0.000404 0.002860 -0.005215
# 3 0.000457 -0.002932 0.010925 -0.004628 0.003520 0.001464
# 4 -0.001347 0.000404 -0.004628 0.032841 0.001881 -0.006934
# 5 0.000895 0.002860 0.003520 0.001881 0.026531 -0.002881
# 6 -0.001385 -0.005215 0.001464 -0.006934 -0.002881 0.025457
#
#
# Mechanical properties :
#
#
# Convention : Reuss Voigt Hill
#
# Bulk Modulus (GPa) = 38.74968 47.49580 43.12274
# Shear Modulus (GPa) = 36.27602 42.44028 39.35815
#
# Velocity S-wave (km/s) = 3.82015 4.13199 3.97912
# Velocity P-wave (km/s) = 5.92002 6.47083 6.20154
#
# Compressibility (1/GPa) = 0.02580666
#
# Stress axis : x y z
#
# Youngs Moduli (GPa) = 118.58520 63.50795 91.53349
#
# Poissons Ratio (x) = 0.13806 -0.04183
# Poissons Ratio (y) = 0.25779 0.26835
# Poissons Ratio (z) = -0.05420 0.18619
#
# Static dielectric constant tensor:
#      x y z
#    x 2.160830 -0.017560 0.081450 
#    y -0.017560 2.039120 0.002070 
#    z 0.081450 0.002070 2.134950 
# 
# From -- ./inp_files/399311.got.cif
#   From: 2010.05.17/outbox.cif.g08.bks.cpg/sg2_200_cif.got.tgz:399311.got - 2010.06.03 11:33:40.
