data_PCOD9111536
_publ_section_title
;
Structure prediction by ZEFSAII (Michael W. Deem and Ramdas Pophale) SiO2 
 PCOD9111536
Probable space group: P -1
;
_chemical_formula_sum "Si O2"
_cell_formula_units_Z 16
_cell_length_a 8.655116
_cell_length_b 8.708938
_cell_length_c 14.862559
_cell_angle_alpha 98.706925
_cell_angle_beta 39.664709
_cell_angle_gamma 87.505027
_cell_volume 683.711457
_symmetry_space_group_name_H-M "P -1"
_symmetry_group_IT_number 2
_symmetry_cell_setting 'triclinic'
loop_
_space_group_symop_operation_xyz
x,y,z
-x,-y,-z
loop_
_atom_site_type_symbol
_atom_site_label
_atom_site_fract_x
_atom_site_fract_y
_atom_site_fract_z
Si Si1 0.084475 0.324109 0.772453
Si Si2 0.627134 0.346775 0.488105
Si Si3 0.292061 0.465004 0.161124
Si Si4 0.387386 0.103848 0.816235
Si Si5 0.727667 0.016989 0.336029
Si Si6 0.579189 0.410047 0.698035
Si Si7 0.485664 0.110319 0.103601
Si Si8 0.146113 0.712596 0.946464
O O1 0.376844 0.307679 0.638407
O O2 0.963158 0.452967 0.765579
O O3 0.959206 0.370065 0.929148
O O4 0.057294 0.143279 0.750247
O O5 0.500000 0.500000 0.500000
O O6 0.769964 0.190258 0.354918
O O7 0.750853 0.381354 0.529065
O O8 0.304296 0.545385 0.258551
O O9 0.327889 0.280138 0.151889
O O10 0.500000 0.500000 0.000000
O O11 0.498311 0.250369 0.749609
O O12 0.102046 0.189629 0.985390
O O13 0.343760 0.004251 0.737935
O O14 0.568468 0.996288 0.798375
O O15 0.500000 0.000000 0.500000
O O16 0.351922 0.570933 0.794877
O O17 0.715665 0.165444 0.055736
O O18 0.500000 0.000000 0.000000
#
# Coordination Sequence:
#
# PCOD9111536 Si02
#       8
#     2   2   2   2   2   2   2   2
#     4  10  20  43  66  86 125 169 198 259 312 372
#     4  11  24  41  66  93 119 164 220 263 294 357
#     4  11  22  41  61  91 135 164 195 247 323 391
#     4  11  21  37  62  91 125 159 206 260 304 367
#     4   9  19  41  64  85 119 162 212 251 303 346
#     4  11  21  37  65  93 126 161 201 254 322 364
#     4  11  24  36  56  92 133 162 193 250 311 379
#     4  10  21  38  61  96 123 159 204 254 322 371
#
# _framework density 23.401683999999999
#
# number of rings (size 3 to 8) (size 9 to 14) (size 15 to 20)
#    0.000    1.500    6.250    1.500    3.500    0.000 
#    4.500    1.250    0.000    0.000    0.000    0.000 
#    0.000    0.000    0.000    0.000    0.000    0.000 
#
# Total GULP energy -89214.604082 kJ/mol
# GULP energy per Si atom -5575.912755 kJ/mol
# Density = 2.334842 g / cm^3
# Si number density = 23.401684 Si / 1000 Ang^3
#
#
#
# Elastic Constant Matrix: (Units=GPa)
#
#
# Indices 1 2 3 4 5 6 
#
# 1 75.1730 52.1251 15.8647 12.0321 31.8970 -14.7945
# 2 52.1251 167.1209 29.5709 22.7109 30.1941 -26.1661
# 3 15.8647 29.5709 55.2021 10.9726 26.2769 0.1178
# 4 12.0321 22.7109 10.9726 29.3652 6.1631 0.0574
# 5 31.8970 30.1941 26.2769 6.1631 40.8128 2.6701
# 6 -14.7945 -26.1661 0.1178 0.0574 2.6701 51.1672
#
#
#
# Elastic Compliance Matrix: (Units=1/GPa)
#
#
# Indices 1 2 3 4 5 6 
#
# 1 0.025334 -0.003380 0.005268 -0.005488 -0.020297 0.006650
# 2 -0.003380 0.008978 -0.001831 -0.004377 -0.002407 0.003749
# 3 0.005268 -0.001831 0.028632 -0.007202 -0.020213 0.001584
# 4 -0.005488 -0.004377 -0.007202 0.041079 0.006235 -0.004180
# 5 -0.020297 -0.002407 -0.020213 0.006235 0.054868 -0.009923
# 6 0.006650 0.003749 0.001584 -0.004180 -0.009923 0.023903
#
#
# Mechanical properties :
#
#
# Convention : Reuss Voigt Hill
#
# Bulk Modulus (GPa) = 15.85789 54.73524 35.29657
# Shear Modulus (GPa) = 24.54619 37.59806 31.07212
#
# Velocity S-wave (km/s) = 3.24220 4.01264 3.64782
# Velocity P-wave (km/s) = 4.56146 6.70139 5.73217
#
# Compressibility (1/GPa) = 0.06306007
#
# Stress axis : x y z
#
# Youngs Moduli (GPa) = 39.47263 111.37913 34.92610
#
# Poissons Ratio (x) = 0.37642 -0.18400
# Poissons Ratio (y) = 0.13340 0.06394
# Poissons Ratio (z) = -0.20795 0.20389
#
# Static dielectric constant tensor:
#      x y z
#    x 1.991490 0.090940 0.013360 
#    y 0.090940 1.971560 0.030820 
#    z 0.013360 0.030820 1.932820 
# 
# From -- ./inp_files/187647.got.cif
#   From: 2010.05.17/outbox.cif.g08.bks.cpg/sg2_94_cif.got.tgz:187647.got - 2010.06.03 11:33:40.
