data_PCOD9111049
_publ_section_title
;
Structure prediction by ZEFSAII (Michael W. Deem and Ramdas Pophale) SiO2 
 PCOD9111049
Probable space group: P -1
;
_chemical_formula_sum "Si O2"
_cell_formula_units_Z 16
_cell_length_a 13.284534
_cell_length_b 14.149142
_cell_length_c 11.317784
_cell_angle_alpha 151.834478
_cell_angle_beta 64.903201
_cell_angle_gamma 131.585730
_cell_volume 668.430979
_symmetry_space_group_name_H-M "P -1"
_symmetry_group_IT_number 2
_symmetry_cell_setting 'triclinic'
loop_
_space_group_symop_operation_xyz
x,y,z
-x,-y,-z
loop_
_atom_site_type_symbol
_atom_site_label
_atom_site_fract_x
_atom_site_fract_y
_atom_site_fract_z
Si Si1 0.338080 0.694397 0.726862
Si Si2 0.915596 0.182092 0.848953
Si Si3 0.515902 0.991332 0.344281
Si Si4 0.381267 0.419193 0.580283
Si Si5 0.603228 0.498795 0.735228
Si Si6 0.776712 0.051294 0.363183
Si Si7 0.809956 0.379145 0.936430
Si Si8 0.041152 0.533522 0.650834
O O1 0.317285 0.539706 0.683415
O O2 0.317121 0.517721 0.431892
O O3 0.217126 0.716438 0.785149
O O4 0.500000 0.000000 0.000000
O O5 0.852969 0.307891 0.953488
O O6 0.770118 0.878990 0.626529
O O7 0.999479 0.330612 0.095117
O O8 0.054838 0.308294 0.828480
O O9 0.525038 0.217208 0.527300
O O10 0.500000 0.000000 0.500000
O O11 0.673661 0.063841 0.339449
O O12 0.351869 0.710893 0.078468
O O13 0.500000 0.500000 0.500000
O O14 0.490853 0.512694 0.739917
O O15 0.696722 0.739373 0.049571
O O16 0.791548 0.182391 0.625857
O O17 0.942440 0.235933 0.428575
O O18 0.000000 0.500000 0.500000
#
# Coordination Sequence:
#
# PCOD9111049 Si02
#       8
#     2   2   2   2   2   2   2   2
#     4  11  26  44  69 100 136 190 236 279 361 428
#     4  10  20  42  68  94 139 179 231 285 347 408
#     4  10  21  41  66 101 129 186 227 280 352 410
#     4  10  22  39  66  99 131 181 233 290 336 418
#     4  11  23  41  68  99 142 176 232 297 340 423
#     4  10  24  41  65 103 139 178 232 284 356 404
#     4   9  20  40  69  95 133 189 230 283 340 417
#     4  11  24  41  67 100 139 180 224 292 353 415
#
# _framework density 23.936651000000001
#
# number of rings (size 3 to 8) (size 9 to 14) (size 15 to 20)
#    0.000    1.750    1.250    2.250    7.000    2.500 
#    6.750    0.000    0.000    3.000    0.000    0.000 
#    0.000    0.000    0.000    0.000    0.000    0.000 
#
# Total GULP energy -89133.886172 kJ/mol
# GULP energy per Si atom -5570.867886 kJ/mol
# Density = 2.388217 g / cm^3
# Si number density = 23.936651 Si / 1000 Ang^3
#
#
#
# Elastic Constant Matrix: (Units=GPa)
#
#
# Indices 1 2 3 4 5 6 
#
# 1 74.6382 24.6731 3.9523 3.9557 16.6383 -6.1807
# 2 24.6731 117.6593 41.3265 12.7429 11.3049 -24.8806
# 3 3.9523 41.3265 83.9947 9.9657 15.6441 0.0386
# 4 3.9557 12.7429 9.9657 50.4206 2.1972 12.3148
# 5 16.6383 11.3049 15.6441 2.1972 36.9592 2.0939
# 6 -6.1807 -24.8806 0.0386 12.3148 2.0939 38.1033
#
#
#
# Elastic Compliance Matrix: (Units=1/GPa)
#
#
# Indices 1 2 3 4 5 6 
#
# 1 0.016070 -0.003080 0.002218 -0.000919 -0.007250 0.001289
# 2 -0.003080 0.013974 -0.006082 -0.004535 -0.000618 0.010131
# 3 0.002218 -0.006082 0.015945 -0.000794 -0.005667 -0.003060
# 4 -0.000919 -0.004535 -0.000794 0.023807 0.001338 -0.010878
# 5 -0.007250 -0.000618 -0.005667 0.001338 0.033045 -0.003822
# 6 0.001289 0.010131 -0.003060 -0.010878 -0.003822 0.036798
#
#
# Mechanical properties :
#
#
# Convention : Reuss Voigt Hill
#
# Bulk Modulus (GPa) = 31.15210 46.24400 38.69805
# Shear Modulus (GPa) = 30.44554 38.85262 34.64908
#
# Velocity S-wave (km/s) = 3.57027 4.03320 3.80877
# Velocity P-wave (km/s) = 5.48073 6.40704 5.96190
#
# Compressibility (1/GPa) = 0.03210057
#
# Stress axis : x y z
#
# Youngs Moduli (GPa) = 62.22652 71.56025 62.71694
#
# Poissons Ratio (x) = 0.22044 -0.13912
# Poissons Ratio (y) = 0.19168 0.38145
# Poissons Ratio (z) = -0.13803 0.43524
#
# Static dielectric constant tensor:
#      x y z
#    x 1.933030 0.090240 -0.015350 
#    y 0.090240 2.008810 -0.042760 
#    z -0.015350 -0.042760 1.989470 
# 
# From -- ./inp_files/456021.got.cif
#   From: 2010.05.17/outbox.cif.g08.bks.cpg/sg2_229_cif.got.tgz:456021.got - 2010.06.03 11:33:40.
