data_PCOD9111093
_publ_section_title
;
Structure prediction by ZEFSAII (Michael W. Deem and Ramdas Pophale) SiO2 
 PCOD9111093
Probable space group: P -1
;
_chemical_formula_sum "Si O2"
_cell_formula_units_Z 16
_cell_length_a 11.776915
_cell_length_b 9.878092
_cell_length_c 11.476767
_cell_angle_alpha 37.162778
_cell_angle_beta 51.623059
_cell_angle_gamma 65.745799
_cell_volume 622.253966
_symmetry_space_group_name_H-M "P -1"
_symmetry_group_IT_number 2
_symmetry_cell_setting 'triclinic'
loop_
_space_group_symop_operation_xyz
x,y,z
-x,-y,-z
loop_
_atom_site_type_symbol
_atom_site_label
_atom_site_fract_x
_atom_site_fract_y
_atom_site_fract_z
Si Si1 0.058765 0.779814 0.957986
Si Si2 0.704797 0.183414 0.520483
Si Si3 0.686227 0.858329 0.535336
Si Si4 0.865791 0.446168 0.715954
Si Si5 0.472069 0.374327 0.394835
Si Si6 0.339366 0.190016 0.020668
Si Si7 0.762173 0.927044 0.094923
Si Si8 0.977060 0.759429 0.749753
O O1 0.930729 0.896547 0.010157
O O2 0.017680 0.751361 0.867323
O O3 0.214300 0.947555 0.737907
O O4 0.078007 0.574459 0.172418
O O5 0.600430 0.339144 0.425931
O O6 0.870718 0.317109 0.337887
O O7 0.683746 0.976193 0.581027
O O8 0.658293 0.054041 0.756886
O O9 0.773189 0.647703 0.631949
O O10 0.535978 0.758500 0.631921
O O11 0.000000 0.500000 0.500000
O O12 0.769967 0.196686 0.923283
O O13 0.509659 0.640561 0.166700
O O14 0.326134 0.255192 0.634791
O O15 0.303267 0.146026 0.939367
O O16 0.201635 0.296191 0.092676
O O17 0.000000 0.000000 0.500000
#
# Coordination Sequence:
#
# PCOD9111093 Si02
#       8
#     2   2   2   2   2   2   2   2
#     4  10  20  42  68  99 133 168 221 287 330 390
#     4  10  24  45  67  96 132 174 229 278 333 399
#     4  11  24  43  69  99 135 172 229 284 333 398
#     4  12  23  40  71 105 131 179 224 281 350 384
#     4  12  25  42  66  96 137 185 218 267 345 401
#     4  10  24  45  66  96 133 176 221 279 334 403
#     4  11  23  45  66  99 142 167 227 281 326 410
#     4   8  18  42  70  91 126 165 220 280 326 385
#
# _framework density 25.712973999999999
#
# number of rings (size 3 to 8) (size 9 to 14) (size 15 to 20)
#    0.000    1.500    2.500    1.875    1.750    3.500 
#    6.750    0.000    0.000    0.000    0.000    0.000 
#    0.000    0.000    0.000    0.000    0.000    0.000 
#
# Total GULP energy -89433.217775 kJ/mol
# GULP energy per Si atom -5589.576111 kJ/mol
# Density = 2.565445 g / cm^3
# Si number density = 25.712974 Si / 1000 Ang^3
#
#
#
# Elastic Constant Matrix: (Units=GPa)
#
#
# Indices 1 2 3 4 5 6 
#
# 1 105.5551 1.9920 33.5157 1.0976 5.1513 24.8796
# 2 1.9920 56.1338 20.9628 -3.3958 -10.0745 11.1955
# 3 33.5157 20.9628 154.9811 5.1513 1.2046 22.4580
# 4 1.0976 -3.3958 5.1513 20.8201 3.1717 1.3507
# 5 5.1513 -10.0745 1.2046 3.1717 49.5917 -10.7219
# 6 24.8796 11.1955 22.4580 1.3507 -10.7219 40.3058
#
#
#
# Elastic Compliance Matrix: (Units=1/GPa)
#
#
# Indices 1 2 3 4 5 6 
#
# 1 0.011856 0.001276 -0.001663 0.000875 -0.002602 -0.007467
# 2 0.001276 0.020332 -0.002537 0.003723 0.002874 -0.004381
# 3 -0.001663 -0.002537 0.007619 -0.001884 -0.000994 -0.002715
# 4 0.000875 0.003723 -0.001884 0.049729 -0.003123 -0.003022
# 5 -0.002602 0.002874 -0.000994 -0.003123 0.022875 0.007552
# 6 -0.007467 -0.004381 -0.002715 -0.003022 0.007552 0.034260
#
#
# Mechanical properties :
#
#
# Convention : Reuss Voigt Hill
#
# Bulk Modulus (GPa) = 29.44895 47.73453 38.59174
# Shear Modulus (GPa) = 30.51767 39.49017 35.00392
#
# Velocity S-wave (km/s) = 3.44882 3.92319 3.69363
# Velocity P-wave (km/s) = 5.22848 6.25512 5.76470
#
# Compressibility (1/GPa) = 0.03395707
#
# Stress axis : x y z
#
# Youngs Moduli (GPa) = 84.34733 49.18432 131.24997
#
# Poissons Ratio (x) = -0.06274 0.21830
# Poissons Ratio (y) = -0.10760 0.33300
# Poissons Ratio (z) = 0.14029 0.12479
#
# Static dielectric constant tensor:
#      x y z
#    x 2.017440 0.007330 0.010260 
#    y 0.007330 2.172380 -0.031630 
#    z 0.010260 -0.031630 2.010860 
# 
# From -- ./inp_files/427212.got.cif
#   From: 2010.05.17/outbox.cif.g08.bks.cpg/sg2_214_cif.got.tgz:427212.got - 2010.06.03 11:33:40.
