data_PCOD9111747
_publ_section_title
;
Structure prediction by ZEFSAII (Michael W. Deem and Ramdas Pophale) SiO2 
 PCOD9111747
Probable space group: P -1
;
_chemical_formula_sum "Si O2"
_cell_formula_units_Z 16
_cell_length_a 12.058106
_cell_length_b 9.106625
_cell_length_c 16.871381
_cell_angle_alpha 40.953106
_cell_angle_beta 48.535155
_cell_angle_gamma 81.926611
_cell_volume 619.703941
_symmetry_space_group_name_H-M "P -1"
_symmetry_group_IT_number 2
_symmetry_cell_setting 'triclinic'
loop_
_space_group_symop_operation_xyz
x,y,z
-x,-y,-z
loop_
_atom_site_type_symbol
_atom_site_label
_atom_site_fract_x
_atom_site_fract_y
_atom_site_fract_z
Si Si1 0.488029 0.377995 0.139778
Si Si2 0.273606 0.956696 0.688636
Si Si3 0.127501 0.300681 0.382994
Si Si4 0.178498 0.664424 0.519047
Si Si5 0.872356 0.690921 0.931244
Si Si6 0.761883 0.764754 0.267892
Si Si7 0.329229 0.313562 0.829578
Si Si8 0.343899 0.702269 0.259271
O O1 0.356880 0.422825 0.229683
O O2 0.731733 0.599480 0.960040
O O3 0.347212 0.997274 0.355589
O O4 0.500000 0.500000 0.000000
O O5 0.237171 0.657119 0.840649
O O6 0.176619 0.971433 0.807290
O O7 0.517093 0.300320 0.416790
O O8 0.118973 0.889845 0.721394
O O9 0.133550 0.371033 0.446291
O O10 0.052709 0.461032 0.318489
O O11 0.000000 0.000000 0.500000
O O12 0.191223 0.428310 0.641380
O O13 0.261395 0.756452 0.351019
O O14 0.819795 0.819756 0.968990
O O15 0.500000 0.500000 0.500000
O O16 0.809199 0.859891 0.114327
O O17 0.502181 0.311406 0.765838
O O18 0.500000 0.000000 0.000000
#
# Coordination Sequence:
#
# PCOD9111747 Si02
#       8
#     2   2   2   2   2   2   2   2
#     4  11  23  44  64  93 138 179 218 288 343 405
#     4  10  23  43  68  99 132 179 223 285 350 408
#     4  10  24  45  65  98 131 180 236 279 344 410
#     4  11  23  42  72  96 133 180 234 284 338 420
#     4  11  24  43  67 101 135 174 235 282 345 414
#     4  10  20  43  69  96 130 178 224 278 350 401
#     4  11  23  44  71  96 139 179 226 286 343 418
#     4  12  24  43  68 103 139 186 231 280 349 415
#
# _framework density 25.81878
#
# number of rings (size 3 to 8) (size 9 to 14) (size 15 to 20)
#    0.000    1.250    3.750    3.000    0.000    3.500 
#    4.500    0.000    0.000    0.000    0.000    0.000 
#    0.000    0.000    0.000    0.000    0.000    0.000 
#
# Total GULP energy -89365.012966 kJ/mol
# GULP energy per Si atom -5585.313310 kJ/mol
# Density = 2.576002 g / cm^3
# Si number density = 25.818780 Si / 1000 Ang^3
#
#
#
# Elastic Constant Matrix: (Units=GPa)
#
#
# Indices 1 2 3 4 5 6 
#
# 1 189.5649 46.7585 18.2952 -13.2615 -13.9442 3.7863
# 2 46.7585 125.9046 10.8509 -4.5367 4.4129 -9.6662
# 3 18.2952 10.8509 78.4934 -7.8155 1.7583 6.7670
# 4 -13.2615 -4.5367 -7.8155 30.4105 11.4911 1.9829
# 5 -13.9442 4.4129 1.7583 11.4911 43.3021 -7.9856
# 6 3.7863 -9.6662 6.7670 1.9829 -7.9856 44.4201
#
#
#
# Elastic Compliance Matrix: (Units=1/GPa)
#
#
# Indices 1 2 3 4 5 6 
#
# 1 0.006172 -0.002265 -0.000963 0.001486 0.001748 -0.000624
# 2 -0.002265 0.009078 -0.000815 0.000553 -0.001396 0.002017
# 3 -0.000963 -0.000815 0.013779 0.004085 -0.002388 -0.002806
# 4 0.001486 0.000553 0.004085 0.039069 -0.010911 -0.004334
# 5 0.001748 -0.001396 -0.002388 -0.010911 0.027786 0.005393
# 6 -0.000624 0.002017 -0.002806 -0.004334 0.005393 0.024595
#
#
# Mechanical properties :
#
#
# Convention : Reuss Voigt Hill
#
# Bulk Modulus (GPa) = 47.74554 60.64133 54.19343
# Shear Modulus (GPa) = 36.88842 44.83042 40.85942
#
# Velocity S-wave (km/s) = 3.78397 4.17147 3.98244
# Velocity P-wave (km/s) = 6.13384 6.83666 6.49476
#
# Compressibility (1/GPa) = 0.02094437
#
# Stress axis : x y z
#
# Youngs Moduli (GPa) = 162.02721 110.16235 72.57383
#
# Poissons Ratio (x) = 0.24949 0.06987
# Poissons Ratio (y) = 0.36695 0.05911
# Poissons Ratio (z) = 0.15599 0.08973
#
# Static dielectric constant tensor:
#      x y z
#    x 2.013050 -0.073700 -0.064540 
#    y -0.073700 3.445720 0.453190 
#    z -0.064540 0.453190 2.288560 
# 
# From -- ./inp_files/566431.got.cif
#   From: 2010.05.17/outbox.cif.g08.bks.cpg/sg2_284_cif.got.tgz:566431.got - 2010.06.03 11:33:40.
