data_PCOD9111396
_publ_section_title
;
Structure prediction by ZEFSAII (Michael W. Deem and Ramdas Pophale) SiO2 
 PCOD9111396
Probable space group: P -1
;
_chemical_formula_sum "Si O2"
_cell_formula_units_Z 12
_cell_length_a 18.522868
_cell_length_b 4.950081
_cell_length_c 7.149649
_cell_angle_alpha 69.952572
_cell_angle_beta 77.146925
_cell_angle_gamma 66.799137
_cell_volume 563.118885
_symmetry_space_group_name_H-M "P -1"
_symmetry_group_IT_number 2
_symmetry_cell_setting 'triclinic'
loop_
_space_group_symop_operation_xyz
x,y,z
-x,-y,-z
loop_
_atom_site_type_symbol
_atom_site_label
_atom_site_fract_x
_atom_site_fract_y
_atom_site_fract_z
Si Si1 0.007910 0.554534 0.764039
Si Si2 0.407325 0.338788 0.407643
Si Si3 0.435608 0.886794 0.160883
Si Si4 0.905235 0.976610 0.430604
Si Si5 0.272053 0.699091 0.640996
Si Si6 0.653089 0.963370 0.192758
O O1 0.929081 0.782216 0.654486
O O2 0.038765 0.237005 0.709447
O O3 0.000000 0.500000 0.000000
O O4 0.928741 0.278914 0.353711
O O5 0.401809 0.128526 0.289130
O O6 0.324148 0.604899 0.444695
O O7 0.415762 0.129307 0.637672
O O8 0.463944 0.534715 0.297574
O O9 0.376423 0.896555 0.022452
O O10 0.500000 0.000000 0.000000
O O11 0.814478 0.072724 0.404691
O O12 0.276894 0.364831 0.791148
O O13 0.317692 0.831457 0.733499
#
# Coordination Sequence:
#
# PCOD9111396 Si02
#       6
#     2   2   2   2   2   2
#     4  10  21  39  60  90 118 154 200 235 284 352
#     4  10  22  42  58  88 121 148 201 247 290 360
#     4  12  24  40  63  87 117 160 197 245 302 350
#     4  10  21  39  61  85 123 152 195 246 282 345
#     4  10  20  43  61  84 125 159 187 253 303 328
#     4  10  22  41  59  86 122 149 199 245 297 353
#
# _framework density 21.309887
#
# number of rings (size 3 to 8) (size 9 to 14) (size 15 to 20)
#    1.000    0.667    1.667    3.000    0.000    1.333 
#    9.000    0.000    0.000    0.000    0.000    0.000 
#    0.000    0.000    0.000    0.000    0.000    0.000 
#
# Total GULP energy -66965.957490 kJ/mol
# GULP energy per Si atom -5580.496458 kJ/mol
# Density = 2.126138 g / cm^3
# Si number density = 21.309887 Si / 1000 Ang^3
#
#
#
# Elastic Constant Matrix: (Units=GPa)
#
#
# Indices 1 2 3 4 5 6 
#
# 1 63.4474 30.2041 28.5104 6.6377 23.1345 -0.0193
# 2 30.2041 107.5632 35.7445 5.0965 14.4494 17.9468
# 3 28.5104 35.7445 134.7127 3.4460 28.9721 -6.8947
# 4 6.6377 5.0965 3.4460 23.0184 8.4105 8.9056
# 5 23.1345 14.4494 28.9721 8.4105 24.8941 -0.7803
# 6 -0.0193 17.9468 -6.8947 8.9056 -0.7803 31.8779
#
#
#
# Elastic Compliance Matrix: (Units=1/GPa)
#
#
# Indices 1 2 3 4 5 6 
#
# 1 0.025754 -0.004890 0.000689 0.000794 -0.022099 0.002155
# 2 -0.004890 0.013037 -0.002714 0.002678 -0.001042 -0.008703
# 3 0.000689 -0.002714 0.010706 0.002088 -0.012138 0.002964
# 4 0.000794 0.002678 0.002088 0.058409 -0.025018 -0.017985
# 5 -0.022099 -0.001042 -0.012138 -0.025018 0.084110 0.006996
# 6 0.002155 -0.008703 0.002964 -0.017985 0.006996 0.042107
#
#
# Mechanical properties :
#
#
# Convention : Reuss Voigt Hill
#
# Bulk Modulus (GPa) = 28.03565 54.96016 41.49791
# Shear Modulus (GPa) = 19.24248 30.04236 24.64242
#
# Velocity S-wave (km/s) = 3.00823 3.75878 3.40425
# Velocity P-wave (km/s) = 5.02500 6.68467 5.91335
#
# Compressibility (1/GPa) = 0.03566887
#
# Stress axis : x y z
#
# Youngs Moduli (GPa) = 38.82834 76.70456 93.40383
#
# Poissons Ratio (x) = 0.37505 -0.06440
# Poissons Ratio (y) = 0.18985 0.25353
# Poissons Ratio (z) = -0.02677 0.20820
#
# Static dielectric constant tensor:
#      x y z
#    x 1.797370 -0.002510 -0.027080 
#    y -0.002510 1.777240 -0.027850 
#    z -0.027080 -0.027850 1.791310 
# 
# From -- ./inp_files/13947.got.cif
#   From: 2010.05.17/outbox.cif.g08.bks.cpg/sg2_7_cif.got.tgz:13947.got - 2010.06.03 11:33:40.
