data_PCOD9111745
_publ_section_title
;
Structure prediction by ZEFSAII (Michael W. Deem and Ramdas Pophale) SiO2 
 PCOD9111745
Probable space group: P -1
;
_chemical_formula_sum "Si O2"
_cell_formula_units_Z 16
_cell_length_a 12.966098
_cell_length_b 22.066061
_cell_length_c 7.061273
_cell_angle_alpha 51.095632
_cell_angle_beta 43.160685
_cell_angle_gamma 33.444060
_cell_volume 760.637250
_symmetry_space_group_name_H-M "P -1"
_symmetry_group_IT_number 2
_symmetry_cell_setting 'triclinic'
loop_
_space_group_symop_operation_xyz
x,y,z
-x,-y,-z
loop_
_atom_site_type_symbol
_atom_site_label
_atom_site_fract_x
_atom_site_fract_y
_atom_site_fract_z
Si Si1 0.892301 0.702330 0.476578
Si Si2 0.333488 0.251133 0.945735
Si Si3 0.642175 0.022976 0.794277
Si Si4 0.023929 0.155541 0.018270
Si Si5 0.785282 0.618149 0.489873
Si Si6 0.379353 0.469213 0.308160
Si Si7 0.992575 0.094300 0.772510
Si Si8 0.355085 0.727359 0.410780
O O1 0.927067 0.770451 0.186820
O O2 0.753860 0.693734 0.548551
O O3 0.128714 0.581718 0.439743
O O4 0.776406 0.757153 0.725296
O O5 0.484320 0.150665 0.796024
O O6 0.171972 0.354294 0.820891
O O7 0.482723 0.260597 0.822938
O O8 0.802444 0.970884 0.508024
O O9 0.500000 0.000000 0.000000
O O10 0.784782 0.960562 0.912408
O O11 0.004139 0.137106 0.866446
O O12 0.814752 0.211646 0.308949
O O13 0.620606 0.608409 0.676670
O O14 0.000000 0.500000 0.500000
O O15 0.495647 0.401234 0.481854
O O16 0.500000 0.500000 0.000000
O O17 0.791786 0.203452 0.711218
O O18 0.000000 0.000000 0.000000
#
# Coordination Sequence:
#
# PCOD9111745 Si02
#       8
#     2   2   2   2   2   2   2   2
#     4  11  23  41  67  95 129 171 215 264 322 388
#     4  11  23  40  63  95 128 165 218 266 317 383
#     4  11  24  41  63  93 128 168 214 271 324 381
#     4  11  23  41  64  93 131 171 218 268 320 386
#     4   9  22  40  65  90 129 168 206 263 323 378
#     4  10  20  43  69  95 129 172 212 267 325 380
#     4  11  24  42  65  95 129 171 221 263 325 387
#     4  10  23  41  64  92 132 166 215 266 325 380
#
# _framework density 21.034994000000001
#
# number of rings (size 3 to 8) (size 9 to 14) (size 15 to 20)
#    0.000    1.500    1.250    3.000    0.000   14.500 
#    0.000    1.875    0.000    0.000    0.000    0.000 
#    0.000    0.000    0.000    0.000    0.000    0.000 
#
# Total GULP energy -89278.237047 kJ/mol
# GULP energy per Si atom -5579.889815 kJ/mol
# Density = 2.098712 g / cm^3
# Si number density = 21.034994 Si / 1000 Ang^3
#
#
#
# Elastic Constant Matrix: (Units=GPa)
#
#
# Indices 1 2 3 4 5 6 
#
# 1 88.4809 18.4316 40.6881 -6.1626 16.7996 -10.5816
# 2 18.4316 53.7997 15.4552 -12.8602 4.8415 -14.9556
# 3 40.6881 15.4552 90.9483 -14.0993 8.7682 -18.8688
# 4 -6.1626 -12.8602 -14.0993 22.5367 5.3509 -2.6251
# 5 16.7996 4.8415 8.7682 5.3509 34.3700 -2.4704
# 6 -10.5816 -14.9556 -18.8688 -2.6251 -2.4704 34.2857
#
#
#
# Elastic Compliance Matrix: (Units=1/GPa)
#
#
# Indices 1 2 3 4 5 6 
#
# 1 0.015806 -0.003223 -0.006008 0.000065 -0.005767 -0.000245
# 2 -0.003223 0.027941 0.003230 0.019982 -0.005281 0.014120
# 3 -0.006008 0.003230 0.017565 0.013142 -0.003327 0.009988
# 4 0.000065 0.019982 0.013142 0.070086 -0.015658 0.020207
# 5 -0.005767 -0.005281 -0.003327 -0.015658 0.035618 -0.004547
# 6 -0.000245 0.014120 0.009988 0.020207 -0.004547 0.041967
#
#
# Mechanical properties :
#
#
# Convention : Reuss Voigt Hill
#
# Bulk Modulus (GPa) = 20.28007 42.48652 31.38329
# Shear Modulus (GPa) = 21.05969 28.81542 24.93755
#
# Velocity S-wave (km/s) = 3.16757 3.70520 3.44688
# Velocity P-wave (km/s) = 4.80000 6.20859 5.54917
#
# Compressibility (1/GPa) = 0.04930949
#
# Stress axis : x y z
#
# Youngs Moduli (GPa) = 63.26552 35.79024 56.93245
#
# Poissons Ratio (x) = 0.11534 0.34208
# Poissons Ratio (y) = 0.20388 -0.18389
# Poissons Ratio (z) = 0.38013 -0.11560
#
# Static dielectric constant tensor:
#      x y z
#    x 1.767660 0.001120 0.000760 
#    y 0.001120 1.787070 -0.029250 
#    z 0.000760 -0.029250 1.718450 
# 
# From -- ./inp_files/83010.got.cif
#   From: 2010.05.17/outbox.cif.g08.bks.cpg/sg2_42_cif.got.tgz:83010.got - 2010.06.03 11:33:40.
