data_PCOD9111363
_publ_section_title
;
Structure prediction by ZEFSAII (Michael W. Deem and Ramdas Pophale) SiO2 
 PCOD9111363
Probable space group: P -1
;
_chemical_formula_sum "Si O2"
_cell_formula_units_Z 15
_cell_length_a 12.467736
_cell_length_b 11.180850
_cell_length_c 12.955456
_cell_angle_alpha 83.818715
_cell_angle_beta 145.671897
_cell_angle_gamma 70.289566
_cell_volume 657.876422
_symmetry_space_group_name_H-M "P -1"
_symmetry_group_IT_number 2
_symmetry_cell_setting 'triclinic'
loop_
_space_group_symop_operation_xyz
x,y,z
-x,-y,-z
loop_
_atom_site_type_symbol
_atom_site_label
_atom_site_fract_x
_atom_site_fract_y
_atom_site_fract_z
Si Si1 0.000000 0.000000 0.000000
Si Si2 0.807173 0.998888 0.048264
Si Si3 0.232079 0.924669 0.525936
Si Si4 0.841105 0.478621 0.267128
Si Si5 0.358787 0.480465 0.118758
Si Si6 0.632256 0.958581 0.221505
Si Si7 0.817670 0.873520 0.719285
Si Si8 0.329398 0.423970 0.651116
O O1 0.951076 0.905125 0.900015
O O2 0.024742 0.903399 0.135274
O O3 0.634356 0.958948 0.925892
O O4 0.557071 0.219266 0.803942
O O5 0.960703 0.968207 0.278686
O O6 0.505561 0.712553 0.729127
O O7 0.272031 0.957178 0.669198
O O8 0.197886 0.055002 0.411495
O O9 0.648586 0.592650 0.204951
O O10 0.093292 0.263243 0.523045
O O11 0.009108 0.522153 0.366683
O O12 0.679802 0.504810 0.037453
O O13 0.576850 0.487571 0.315496
O O14 0.044894 0.656160 0.903718
O O15 0.500000 0.000000 0.000000
O O16 0.500000 0.000000 0.500000
#
# Coordination Sequence:
#
# PCOD9111363 Si02
#       8
#     1   2   2   2   2   2   2   2
#     4  10  20  42  74  90 120 176 224 274 334 388
#     4  10  22  43  68  95 132 176 226 276 336 397
#     4  11  25  42  65 101 134 170 225 273 333 402
#     4  10  23  40  65  93 134 183 219 269 329 400
#     4  12  24  41  68  96 137 171 217 278 334 398
#     4  11  24  41  63  98 139 181 221 274 332 400
#     4  11  24  46  69  95 130 177 222 280 337 391
#     4  10  21  41  63  94 129 172 224 264 331 393
#
# _framework density 22.800633000000001
#
# number of rings (size 3 to 8) (size 9 to 14) (size 15 to 20)
#    0.000    1.333    4.000    1.200    9.333    1.067 
#    0.000    2.667    0.000    0.000    0.000    0.000 
#    0.000    0.000    0.000    0.000    0.000    0.000 
#
# Total GULP energy -83547.803553 kJ/mol
# GULP energy per Si atom -5569.853570 kJ/mol
# Density = 2.274874 g / cm^3
# Si number density = 22.800633 Si / 1000 Ang^3
#
#
#
# Elastic Constant Matrix: (Units=GPa)
#
#
# Indices 1 2 3 4 5 6 
#
# 1 31.8745 8.9118 10.2147 10.3712 11.1431 -4.7221
# 2 8.9118 79.0197 26.3693 7.0350 -4.2576 3.8289
# 3 10.2147 26.3693 54.3920 4.5937 -6.7700 -0.1346
# 4 10.3712 7.0350 4.5937 47.8591 -6.0850 -2.7759
# 5 11.1431 -4.2576 -6.7700 -6.0850 30.2856 8.7269
# 6 -4.7221 3.8289 -0.1346 -2.7759 8.7269 14.4603
#
#
#
# Elastic Compliance Matrix: (Units=1/GPa)
#
#
# Indices 1 2 3 4 5 6 
#
# 1 0.064039 -0.006106 -0.013135 -0.014590 -0.043503 0.045860
# 2 -0.006106 0.016162 -0.005939 -0.000298 0.006018 -0.010018
# 3 -0.013135 -0.005939 0.025114 0.002382 0.012921 -0.009824
# 4 -0.014590 -0.000298 0.002382 0.025091 0.013141 -0.007777
# 5 -0.043503 0.006018 0.012921 0.013141 0.071651 -0.056399
# 6 0.045860 -0.010018 -0.009824 -0.007777 -0.056399 0.119236
#
#
# Mechanical properties :
#
#
# Convention : Reuss Voigt Hill
#
# Bulk Modulus (GPa) = 18.19702 28.47533 23.33617
# Shear Modulus (GPa) = 12.82141 26.50704 19.66422
#
# Velocity S-wave (km/s) = 2.37392 3.41333 2.93992
# Velocity P-wave (km/s) = 3.93856 5.29626 4.66704
#
# Compressibility (1/GPa) = 0.05495406
#
# Stress axis : x y z
#
# Youngs Moduli (GPa) = 15.61540 61.87405 39.81859
#
# Poissons Ratio (x) = 0.37782 0.52302
# Poissons Ratio (y) = 0.09535 0.23649
# Poissons Ratio (z) = 0.20511 0.36748
#
# Static dielectric constant tensor:
#      x y z
#    x 1.881900 0.025030 -0.014630 
#    y 0.025030 1.852860 -0.019610 
#    z -0.014630 -0.019610 1.882240 
# 
# From -- ./inp_files/425831.got.cif
#   From: 2010.05.17/outbox.cif.g08.bks.cpg/sg2_213_cif.got.tgz:425831.got - 2010.06.03 11:33:40.
