data_PCOD9111224
_publ_section_title
;
Structure prediction by ZEFSAII (Michael W. Deem and Ramdas Pophale) SiO2 
 PCOD9111224
Probable space group: P -1
;
_chemical_formula_sum "Si O2"
_cell_formula_units_Z 14
_cell_length_a 11.818451
_cell_length_b 8.349186
_cell_length_c 9.413670
_cell_angle_alpha 105.587511
_cell_angle_beta 51.394645
_cell_angle_gamma 88.220197
_cell_volume 674.387783
_symmetry_space_group_name_H-M "P -1"
_symmetry_group_IT_number 2
_symmetry_cell_setting 'triclinic'
loop_
_space_group_symop_operation_xyz
x,y,z
-x,-y,-z
loop_
_atom_site_type_symbol
_atom_site_label
_atom_site_fract_x
_atom_site_fract_y
_atom_site_fract_z
Si Si1 0.760984 0.750003 0.896729
Si Si2 0.287327 0.534887 0.341495
Si Si3 0.992906 0.190914 0.502942
Si Si4 0.796615 0.720765 0.437119
Si Si5 0.504017 0.065038 0.173219
Si Si6 0.162267 0.422369 0.918211
Si Si7 0.558093 0.438021 0.280299
O O1 0.694451 0.615944 0.826272
O O2 0.876933 0.806311 0.713373
O O3 0.848989 0.654093 0.938435
O O4 0.630843 0.906817 0.097820
O O5 0.229386 0.449471 0.505320
O O6 0.445583 0.554899 0.279543
O O7 0.163711 0.697508 0.414185
O O8 0.043153 0.272897 0.625846
O O9 0.000000 0.000000 0.500000
O O10 0.667669 0.885890 0.630106
O O11 0.771364 0.716297 0.289254
O O12 0.550389 0.243075 0.206335
O O13 0.500000 0.000000 0.000000
O O14 0.275187 0.543116 0.864217
O O15 0.000000 0.500000 0.000000
O O16 0.500000 0.500000 0.500000
#
# Coordination Sequence:
#
# PCOD9111224 Si02
#       7
#     2   2   2   2   2   2   2
#     4  11  24  41  68 100 137 186 228 292 345 407
#     4  10  20  42  70  95 133 180 233 275 348 411
#     4  11  23  41  68  98 136 184 238 290 341 410
#     4  10  21  43  67  96 142 186 216 292 352 402
#     4  11  20  44  72 100 140 176 239 286 338 412
#     4  12  25  44  68 102 143 183 231 285 351 413
#     4  11  23  44  74 101 135 189 230 283 348 413
#
# _framework density 20.759571000000001
#
# number of rings (size 3 to 8) (size 9 to 14) (size 15 to 20)
#    0.000    1.143    7.143    3.429    0.000    4.571 
#    2.571    1.429    0.000    0.000    0.000    0.000 
#    0.000    0.000    0.000    0.000    0.000    0.000 
#
# Total GULP energy -78109.757598 kJ/mol
# GULP energy per Si atom -5579.268400 kJ/mol
# Density = 2.071232 g / cm^3
# Si number density = 20.759571 Si / 1000 Ang^3
#
#
#
# Elastic Constant Matrix: (Units=GPa)
#
#
# Indices 1 2 3 4 5 6 
#
# 1 170.2773 57.7347 37.5757 5.1966 -4.5251 -13.8572
# 2 57.7347 95.0258 36.3217 9.5294 -1.7083 -12.4981
# 3 37.5757 36.3217 89.0795 15.4236 10.9590 -3.4099
# 4 5.1966 9.5294 15.4236 35.2747 -11.9775 -6.6908
# 5 -4.5251 -1.7083 10.9590 -11.9775 45.2740 5.9940
# 6 -13.8572 -12.4981 -3.4099 -6.6908 5.9940 30.8319
#
#
#
# Elastic Compliance Matrix: (Units=1/GPa)
#
#
# Indices 1 2 3 4 5 6 
#
# 1 0.007760 -0.003817 -0.002086 0.001589 0.001319 0.001798
# 2 -0.003817 0.015062 -0.004334 -0.000730 0.000561 0.003643
# 3 -0.002086 -0.004334 0.015925 -0.007833 -0.006108 -0.001446
# 4 0.001589 -0.000730 -0.007833 0.036474 0.010970 0.005334
# 5 0.001319 0.000561 -0.006108 0.010970 0.026982 -0.002720
# 6 0.001798 0.003643 -0.001446 0.005334 -0.002720 0.036246
#
#
# Mechanical properties :
#
#
# Convention : Reuss Voigt Hill
#
# Bulk Modulus (GPa) = 54.72375 68.62743 61.67559
# Shear Modulus (GPa) = 30.30076 37.12615 33.71346
#
# Velocity S-wave (km/s) = 3.82462 4.23352 4.03426
# Velocity P-wave (km/s) = 6.77655 7.55162 7.17456
#
# Compressibility (1/GPa) = 0.01827360
#
# Stress axis : x y z
#
# Youngs Moduli (GPa) = 128.86620 66.39434 62.79307
#
# Poissons Ratio (x) = 0.25340 0.13096
# Poissons Ratio (y) = 0.49184 0.27217
# Poissons Ratio (z) = 0.26876 0.28778
#
# Static dielectric constant tensor:
#      x y z
#    x 1.799390 -0.005420 -0.028810 
#    y -0.005420 1.772170 0.037710 
#    z -0.028810 0.037710 1.924050 
# 
# From -- ./inp_files/158204.got.cif
#   From: 2010.05.17/outbox.cif.g08.bks.cpg/sg2_80_cif.got.tgz:158204.got - 2010.06.03 11:33:40.
