data_PCOD9111405
_publ_section_title
;
Structure prediction by ZEFSAII (Michael W. Deem and Ramdas Pophale) SiO2 
 PCOD9111405
Probable space group: P -1
;
_chemical_formula_sum "Si O2"
_cell_formula_units_Z 16
_cell_length_a 19.298309
_cell_length_b 8.300602
_cell_length_c 16.265229
_cell_angle_alpha 112.717097
_cell_angle_beta 158.689756
_cell_angle_gamma 57.056713
_cell_volume 730.038716
_symmetry_space_group_name_H-M "P -1"
_symmetry_group_IT_number 2
_symmetry_cell_setting 'triclinic'
loop_
_space_group_symop_operation_xyz
x,y,z
-x,-y,-z
loop_
_atom_site_type_symbol
_atom_site_label
_atom_site_fract_x
_atom_site_fract_y
_atom_site_fract_z
Si Si1 0.388124 0.500221 0.251906
Si Si2 0.989798 0.194550 0.781975
Si Si3 0.681966 0.516823 0.153388
Si Si4 0.073418 0.122616 0.243992
Si Si5 0.865872 0.765860 0.491549
Si Si6 0.607414 0.237922 0.276417
Si Si7 0.770367 0.586995 0.713156
Si Si8 0.570847 0.880089 0.682083
O O1 0.470675 0.391515 0.231930
O O2 0.576939 0.537184 0.502205
O O3 0.378334 0.333326 0.262579
O O4 0.150271 0.722615 0.025141
O O5 0.863007 0.192805 0.559435
O O6 0.881087 0.442086 0.725611
O O7 0.260690 0.075272 0.072595
O O8 0.924243 0.076605 0.754649
O O9 0.779582 0.622309 0.338673
O O10 0.905928 0.307540 0.323382
O O11 0.500000 0.500000 0.000000
O O12 0.538878 0.658537 0.945400
O O13 0.069450 0.248605 0.344467
O O14 0.304958 0.046029 0.435962
O O15 0.662678 0.006473 0.302132
O O16 0.645969 0.818581 0.658689
O O17 0.000000 0.500000 0.000000
#
# Coordination Sequence:
#
# PCOD9111405 Si02
#       8
#     2   2   2   2   2   2   2   2
#     4  11  21  38  65  88 120 165 201 245 300 352
#     4   9  21  40  61  87 126 162 198 253 299 349
#     4  11  24  40  64  92 119 157 198 248 300 362
#     4  11  22  40  62  90 122 159 201 251 299 353
#     4  10  22  42  61  88 127 153 194 252 300 356
#     4  10  20  43  62  85 126 162 195 247 303 353
#     4   9  19  39  61  86 127 161 198 252 298 348
#     4  11  21  40  62  88 121 164 202 246 301 357
#
# _framework density 21.916646
#
# number of rings (size 3 to 8) (size 9 to 14) (size 15 to 20)
#    0.000    1.750    5.000    0.750    0.000    4.000 
#    6.750    1.250    0.000    0.000    0.000    0.000 
#    0.000    0.000    0.000    0.000    0.000    0.000 
#
# Total GULP energy -89096.028283 kJ/mol
# GULP energy per Si atom -5568.501768 kJ/mol
# Density = 2.186676 g / cm^3
# Si number density = 21.916646 Si / 1000 Ang^3
#
#
#
# Elastic Constant Matrix: (Units=GPa)
#
#
# Indices 1 2 3 4 5 6 
#
# 1 48.0298 3.1738 33.2521 -3.3171 5.8454 -13.0383
# 2 3.1738 309.5120 -44.1281 58.8506 90.0795 20.6580
# 3 33.2521 -44.1281 180.4909 -34.6660 -7.5337 -15.2539
# 4 -3.3171 58.8506 -34.6660 50.5400 20.1959 4.2796
# 5 5.8454 90.0795 -7.5337 20.1959 71.1946 7.3008
# 6 -13.0383 20.6580 -15.2539 4.2796 7.3008 31.0134
#
#
#
# Elastic Compliance Matrix: (Units=1/GPa)
#
#
# Indices 1 2 3 4 5 6 
#
# 1 0.027092 -0.000783 -0.004448 -0.000151 -0.002727 0.010386
# 2 -0.000783 0.005998 0.000376 -0.004165 -0.006084 -0.002132
# 3 -0.004448 0.000376 0.007381 0.004533 -0.000724 0.001055
# 4 -0.000151 -0.004165 0.004533 0.028606 -0.002515 0.001585
# 5 -0.002727 -0.006084 -0.000724 -0.002515 0.022860 -0.002484
# 6 0.010386 -0.002132 0.001055 0.001585 -0.002484 0.038916
#
#
# Mechanical properties :
#
#
# Convention : Reuss Voigt Hill
#
# Bulk Modulus (GPa) = 32.50645 58.06981 45.28813
# Shear Modulus (GPa) = 33.15310 66.93191 50.04251
#
# Velocity S-wave (km/s) = 3.89355 5.53223 4.78358
# Velocity P-wave (km/s) = 5.92259 8.20736 7.15674
#
# Compressibility (1/GPa) = 0.03076312
#
# Stress axis : x y z
#
# Youngs Moduli (GPa) = 36.91089 166.73390 135.47590
#
# Poissons Ratio (x) = 0.13053 0.60255
# Poissons Ratio (y) = 0.02890 -0.05100
# Poissons Ratio (z) = 0.16417 -0.06277
#
# Static dielectric constant tensor:
#      x y z
#    x 1.854520 0.003190 0.018850 
#    y 0.003190 1.862830 -0.036080 
#    z 0.018850 -0.036080 1.809240 
# 
# From -- ./inp_files/348441.got.cif
#   From: 2010.05.17/outbox.cif.g08.bks.cpg/sg2_175_cif.got.tgz:348441.got - 2010.06.03 11:33:40.
