data_PCOD9111577
_publ_section_title
;
Structure prediction by ZEFSAII (Michael W. Deem and Ramdas Pophale) SiO2 
 PCOD9111577
Probable space group: P -1
;
_chemical_formula_sum "Si O2"
_cell_formula_units_Z 16
_cell_length_a 18.763498
_cell_length_b 5.448827
_cell_length_c 8.097670
_cell_angle_alpha 116.402745
_cell_angle_beta 52.873342
_cell_angle_gamma 95.359601
_cell_volume 573.207651
_symmetry_space_group_name_H-M "P -1"
_symmetry_group_IT_number 2
_symmetry_cell_setting 'triclinic'
loop_
_space_group_symop_operation_xyz
x,y,z
-x,-y,-z
loop_
_atom_site_type_symbol
_atom_site_label
_atom_site_fract_x
_atom_site_fract_y
_atom_site_fract_z
Si Si1 0.803360 0.937370 0.784283
Si Si2 0.736868 0.822428 0.381471
Si Si3 0.920217 0.279060 0.653832
Si Si4 0.415436 0.260125 0.646964
Si Si5 0.952806 0.441872 0.286132
Si Si6 0.484637 0.387258 0.253123
Si Si7 0.159514 0.820473 0.855363
Si Si8 0.371236 0.169261 0.135647
O O1 0.816824 0.240129 0.794627
O O2 0.708221 0.846858 0.886968
O O3 0.869350 0.726038 0.499602
O O4 0.842158 0.967524 0.923676
O O5 0.672921 0.839855 0.313105
O O6 0.782031 0.491389 0.263181
O O7 0.800094 0.034550 0.310660
O O8 0.672803 0.921543 0.660412
O O9 0.938692 0.333479 0.456113
O O10 0.948129 0.487691 0.812137
O O11 0.000000 0.000000 0.500000
O O12 0.427037 0.444412 0.521033
O O13 0.430721 0.466701 0.832421
O O14 0.500000 0.000000 0.500000
O O15 0.933529 0.250305 0.107427
O O16 0.411311 0.429060 0.221126
O O17 0.537300 0.062259 0.107770
#
# Coordination Sequence:
#
# PCOD9111577 Si02
#       8
#     2   2   2   2   2   2   2   2
#     4  11  23  40  71 100 137 182 231 284 343 414
#     4  11  26  45  66 100 142 182 230 294 343 407
#     4   9  21  43  70 101 139 179 228 279 348 410
#     4  10  22  38  65  90 133 181 228 291 343 408
#     4  10  22  44  70 101 140 181 225 287 343 415
#     4   9  21  40  62  93 132 175 234 278 351 401
#     4  12  27  45  71 105 140 182 231 285 347 405
#     4  10  20  43  66  94 134 182 230 286 343 410
#
# _framework density 27.913094000000001
#
# number of rings (size 3 to 8) (size 9 to 14) (size 15 to 20)
#    0.000    1.750    1.250    1.500   10.500    0.500 
#    4.500    7.500    0.000    0.000    0.000    0.000 
#    0.000    0.000    0.000    0.000    0.000    0.000 
#
# Total GULP energy -89245.798122 kJ/mol
# GULP energy per Si atom -5577.862383 kJ/mol
# Density = 2.784956 g / cm^3
# Si number density = 27.913094 Si / 1000 Ang^3
#
#
#
# Elastic Constant Matrix: (Units=GPa)
#
#
# Indices 1 2 3 4 5 6 
#
# 1 208.3863 47.9106 23.8457 22.2146 35.8075 39.7307
# 2 47.9106 75.4929 7.3058 -2.5483 5.2927 -0.7195
# 3 23.8457 7.3058 75.9386 -11.9340 31.1936 -6.7705
# 4 22.2146 -2.5483 -11.9340 34.4446 -5.3575 5.3841
# 5 35.8075 5.2927 31.1936 -5.3575 51.5773 8.8472
# 6 39.7307 -0.7195 -6.7705 5.3841 8.8472 55.4419
#
#
#
# Elastic Compliance Matrix: (Units=1/GPa)
#
#
# Indices 1 2 3 4 5 6 
#
# 1 0.008607 -0.005253 -0.002045 -0.006449 -0.003973 -0.005226
# 2 -0.005253 0.016613 0.000399 0.004481 0.001594 0.003339
# 3 -0.002045 0.000399 0.019497 0.005659 -0.010684 0.005007
# 4 -0.006449 0.004481 0.005659 0.035933 0.004118 0.001224
# 5 -0.003973 0.001594 -0.010684 0.004118 0.029480 -0.003541
# 6 -0.005226 0.003339 0.005007 0.001224 -0.003541 0.022882
#
#
# Mechanical properties :
#
#
# Convention : Reuss Voigt Hill
#
# Bulk Modulus (GPa) = 32.34388 57.54910 44.94649
# Shear Modulus (GPa) = 31.82343 47.00979 39.41661
#
# Velocity S-wave (km/s) = 3.38018 4.10829 3.76189
# Velocity P-wave (km/s) = 5.18138 6.57009 5.91662
#
# Compressibility (1/GPa) = 0.03091775
#
# Stress axis : x y z
#
# Youngs Moduli (GPa) = 116.18231 60.19345 51.29115
#
# Poissons Ratio (x) = 0.31623 0.10487
# Poissons Ratio (y) = 0.61036 -0.02044
# Poissons Ratio (z) = 0.23755 -0.02399
#
# Static dielectric constant tensor:
#      x y z
#    x 2.276610 0.103240 -0.000980 
#    y 0.103240 2.422650 0.051010 
#    z -0.000980 0.051010 2.289180 
# 
# From -- ./inp_files/122692.got.cif
#   From: 2010.05.17/outbox.cif.g08.bks.cpg/sg2_62_cif.got.tgz:122692.got - 2010.06.03 11:33:40.
