data_PCOD9111579
_publ_section_title
;
Structure prediction by ZEFSAII (Michael W. Deem and Ramdas Pophale) SiO2 
 PCOD9111579
Probable space group: P -1
;
_chemical_formula_sum "Si O2"
_cell_formula_units_Z 14
_cell_length_a 19.839300
_cell_length_b 7.072711
_cell_length_c 16.977173
_cell_angle_alpha 131.655278
_cell_angle_beta 19.761483
_cell_angle_gamma 139.582337
_cell_volume 507.385971
_symmetry_space_group_name_H-M "P -1"
_symmetry_group_IT_number 2
_symmetry_cell_setting 'triclinic'
loop_
_space_group_symop_operation_xyz
x,y,z
-x,-y,-z
loop_
_atom_site_type_symbol
_atom_site_label
_atom_site_fract_x
_atom_site_fract_y
_atom_site_fract_z
Si Si1 0.532003 0.620006 0.189654
Si Si2 0.231625 0.240787 0.768819
Si Si3 0.000000 0.500000 0.000000
Si Si4 0.840590 0.048305 0.560819
Si Si5 0.500000 0.000000 0.000000
Si Si6 0.930922 0.025528 0.280110
Si Si7 0.349302 0.152970 0.046768
Si Si8 0.336322 0.622162 0.567429
O O1 0.391241 0.254435 0.225270
O O2 0.371322 0.618899 0.436219
O O3 0.572807 0.818375 0.122774
O O4 0.794174 0.731911 0.962357
O O5 0.185436 0.490331 0.858022
O O6 0.456850 0.374538 0.613073
O O7 0.222219 0.047364 0.649287
O O8 0.000000 0.000000 0.000000
O O9 0.249378 0.805417 0.759961
O O10 0.824059 0.048062 0.485226
O O11 0.781699 0.263335 0.729858
O O12 0.074088 0.051589 0.323235
O O13 0.399263 0.982564 0.011069
O O14 0.911624 0.699657 0.222212
O O15 0.500000 0.500000 0.000000
#
# Coordination Sequence:
#
# PCOD9111579 Si02
#       8
#     2   2   1   2   1   2   2   2
#     4  10  20  43  66  94 138 173 208 278 326 374
#     4  11  21  41  69  91 131 179 216 267 322 374
#     4  10  22  38  62  98 124 172 224 266 314 382
#     4  10  23  43  67  97 135 165 218 273 319 396
#     4  12  24  44  72 100 122 174 220 260 340 398
#     4   9  19  39  64  93 133 174 211 270 325 369
#     4  11  24  45  70  94 131 168 212 275 328 387
#     4  10  21  41  66  95 136 173 223 271 317 384
#
# _framework density 27.592404999999999
#
# number of rings (size 3 to 8) (size 9 to 14) (size 15 to 20)
#    0.000    1.714    2.857    2.143    0.000    1.143 
#    2.571   18.571    0.000    0.000    0.000    0.000 
#    0.000    0.000    0.000    0.000    0.000    0.000 
#
# Total GULP energy -77934.334567 kJ/mol
# GULP energy per Si atom -5566.738183 kJ/mol
# Density = 2.752960 g / cm^3
# Si number density = 27.592405 Si / 1000 Ang^3
#
#
#
# Elastic Constant Matrix: (Units=GPa)
#
#
# Indices 1 2 3 4 5 6 
#
# 1 219.5478 32.6877 120.5896 20.3429 21.5354 -15.5933
# 2 32.6877 90.6823 30.9660 -5.9257 -5.3560 1.3187
# 3 120.5896 30.9660 229.0322 10.8189 41.0272 -3.2467
# 4 20.3429 -5.9257 10.8189 39.6325 7.5544 -5.2237
# 5 21.5354 -5.3560 41.0272 7.5544 71.3128 13.0151
# 6 -15.5933 1.3187 -3.2467 -5.2237 13.0151 42.4359
#
#
#
# Elastic Compliance Matrix: (Units=1/GPa)
#
#
# Indices 1 2 3 4 5 6 
#
# 1 0.007023 -0.001662 -0.003226 -0.002579 -0.000523 0.002228
# 2 -0.001662 0.012394 -0.001333 0.002455 0.002208 -0.001473
# 3 -0.003226 -0.001333 0.006799 0.000245 -0.003131 0.000367
# 4 -0.002579 0.002455 0.000245 0.027802 -0.002716 0.003250
# 5 -0.000523 0.002208 -0.003131 -0.002716 0.017571 -0.006224
# 6 0.002228 -0.001473 0.000367 0.003250 -0.006224 0.026767
#
#
# Mechanical properties :
#
#
# Convention : Reuss Voigt Hill
#
# Bulk Modulus (GPa) = 72.59775 100.86101 86.72938
# Shear Modulus (GPa) = 43.33192 54.34417 48.83804
#
# Velocity S-wave (km/s) = 3.96716 4.44276 4.21168
# Velocity P-wave (km/s) = 6.88131 7.93415 7.42641
#
# Compressibility (1/GPa) = 0.01377453
#
# Stress axis : x y z
#
# Youngs Moduli (GPa) = 142.39884 80.68389 147.07505
#
# Poissons Ratio (x) = 0.13407 0.47442
# Poissons Ratio (y) = 0.23663 0.19609
# Poissons Ratio (z) = 0.45933 0.10757
#
# Static dielectric constant tensor:
#      x y z
#    x 2.167800 0.003630 0.112400 
#    y 0.003630 2.660260 -0.010490 
#    z 0.112400 -0.010490 2.431230 
# 
# From -- ./inp_files/126340.got.cif
#   From: 2010.05.17/outbox.cif.g08.bks.cpg/sg2_64_cif.got.tgz:126340.got - 2010.06.03 11:33:40.
