data_PCOD9111032
_publ_section_title
;
Structure prediction by ZEFSAII (Michael W. Deem and Ramdas Pophale) SiO2 
 PCOD9111032
Probable space group: P -1
;
_chemical_formula_sum "Si O2"
_cell_formula_units_Z 16
_cell_length_a 13.334642
_cell_length_b 10.229059
_cell_length_c 17.490250
_cell_angle_alpha 67.935639
_cell_angle_beta 156.800214
_cell_angle_gamma 99.207874
_cell_volume 750.522226
_symmetry_space_group_name_H-M "P -1"
_symmetry_group_IT_number 2
_symmetry_cell_setting 'triclinic'
loop_
_space_group_symop_operation_xyz
x,y,z
-x,-y,-z
loop_
_atom_site_type_symbol
_atom_site_label
_atom_site_fract_x
_atom_site_fract_y
_atom_site_fract_z
Si Si1 0.178106 0.760744 0.854839
Si Si2 0.795274 0.622105 0.647115
Si Si3 0.251094 0.527650 0.202429
Si Si4 0.912860 0.863110 0.477569
Si Si5 0.104903 0.599486 0.372120
Si Si6 0.731359 0.485873 0.230799
Si Si7 0.821201 0.136066 0.906702
Si Si8 0.779457 0.989728 0.065814
O O1 0.018478 0.685165 0.809827
O O2 0.013282 0.798998 0.648854
O O3 0.519023 0.620088 0.113299
O O4 0.160513 0.921888 0.841204
O O5 0.662496 0.576583 0.635910
O O6 0.949176 0.465313 0.732938
O O7 0.523899 0.766061 0.379022
O O8 0.542095 0.472886 0.367083
O O9 0.105962 0.719570 0.074538
O O10 0.000000 0.500000 0.000000
O O11 0.569248 0.940044 0.203205
O O12 0.094236 0.705411 0.584694
O O13 0.000000 0.000000 0.500000
O O14 0.967709 0.529754 0.352574
O O15 0.944257 0.794011 0.225857
O O16 0.500000 0.500000 0.000000
O O17 0.872531 0.051148 0.042746
O O18 0.000000 0.000000 0.000000
#
# Coordination Sequence:
#
# PCOD9111032 Si02
#       8
#     2   2   2   2   2   2   2   2
#     4  11  24  43  67  98 137 176 226 279 338 400
#     4  11  21  43  67  91 133 179 218 272 341 403
#     4  11  24  42  64  98 131 173 227 277 334 403
#     4  11  23  42  66  96 136 175 227 276 338 400
#     4  11  22  42  69  92 133 180 223 270 339 405
#     4  10  20  42  68  93 131 180 220 273 335 404
#     4  11  22  42  67  94 130 175 222 274 337 398
#     4  12  24  41  67 103 133 172 227 286 328 396
#
# _framework density 21.318489
#
# number of rings (size 3 to 8) (size 9 to 14) (size 15 to 20)
#    0.000    1.000    3.750    6.000    0.000    3.500 
#    2.250    5.000    0.000    0.000    0.000    0.000 
#    0.000    0.000    0.000    0.000    0.000    0.000 
#
# Total GULP energy -89424.793942 kJ/mol
# GULP energy per Si atom -5589.049621 kJ/mol
# Density = 2.126997 g / cm^3
# Si number density = 21.318489 Si / 1000 Ang^3
#
#
#
# Elastic Constant Matrix: (Units=GPa)
#
#
# Indices 1 2 3 4 5 6 
#
# 1 28.5788 29.4222 16.1731 4.0680 16.5608 9.3417
# 2 29.4222 178.4847 78.2199 -14.3414 24.9194 0.6752
# 3 16.1731 78.2199 80.0447 -1.2614 19.0923 -11.5011
# 4 4.0680 -14.3414 -1.2614 50.2383 -0.9737 9.2369
# 5 16.5608 24.9194 19.0923 -0.9737 29.2609 -0.5828
# 6 9.3417 0.6752 -11.5011 9.2369 -0.5828 43.9250
#
#
#
# Elastic Compliance Matrix: (Units=1/GPa)
#
#
# Indices 1 2 3 4 5 6 
#
# 1 0.065495 -0.005884 -0.002113 -0.005115 -0.031122 -0.013729
# 2 -0.005884 0.011343 -0.010295 0.003913 0.000470 -0.002435
# 3 -0.002113 -0.010295 0.025688 -0.003730 -0.006762 0.008028
# 4 -0.005115 0.003913 -0.003730 0.022238 0.002645 -0.004590
# 5 -0.031122 0.000470 -0.006762 0.002645 0.055989 0.005028
# 6 -0.013729 -0.002435 0.008028 -0.004590 0.005028 0.028857
#
#
# Mechanical properties :
#
#
# Convention : Reuss Voigt Hill
#
# Bulk Modulus (GPa) = 15.16533 59.41539 37.29036
# Shear Modulus (GPa) = 18.64447 35.57105 27.10776
#
# Velocity S-wave (km/s) = 2.96052 4.08922 3.56976
# Velocity P-wave (km/s) = 4.33767 7.08707 5.87545
#
# Compressibility (1/GPa) = 0.06593988
#
# Stress axis : x y z
#
# Youngs Moduli (GPa) = 15.26835 88.16293 38.92830
#
# Poissons Ratio (x) = 0.51878 0.08226
# Poissons Ratio (y) = 0.08984 0.40078
# Poissons Ratio (z) = 0.03226 0.90768
#
# Static dielectric constant tensor:
#      x y z
#    x 1.845740 -0.008200 -0.023660 
#    y -0.008200 1.765620 0.027060 
#    z -0.023660 0.027060 1.778210 
# 
# From -- ./inp_files/447598.got.cif
#   From: 2010.05.17/outbox.cif.g08.bks.cpg/sg2_224_cif.got.tgz:447598.got - 2010.06.03 11:33:40.
