data_PCOD9111842
_publ_section_title
;
Structure prediction by ZEFSAII (Michael W. Deem and Ramdas Pophale) SiO2 
 PCOD9111842
Probable space group: P -1
;
_chemical_formula_sum "Si O2"
_cell_formula_units_Z 14
_cell_length_a 8.839699
_cell_length_b 25.071241
_cell_length_c 9.107227
_cell_angle_alpha 142.708260
_cell_angle_beta 66.949043
_cell_angle_gamma 141.419953
_cell_volume 604.442001
_symmetry_space_group_name_H-M "P -1"
_symmetry_group_IT_number 2
_symmetry_cell_setting 'triclinic'
loop_
_space_group_symop_operation_xyz
x,y,z
-x,-y,-z
loop_
_atom_site_type_symbol
_atom_site_label
_atom_site_fract_x
_atom_site_fract_y
_atom_site_fract_z
Si Si1 0.839405 0.162323 0.663887
Si Si2 0.082545 0.987251 0.792867
Si Si3 0.231518 0.807335 0.698549
Si Si4 0.424975 0.702834 0.278903
Si Si5 0.794102 0.580119 0.127629
Si Si6 0.715372 0.828619 0.146277
Si Si7 0.833187 0.686299 0.822949
O O1 0.856384 0.088211 0.382463
O O2 0.941779 0.292820 0.818039
O O3 0.500000 0.000000 0.500000
O O4 0.080084 0.264210 0.930261
O O5 0.770727 0.850277 0.521832
O O6 0.329957 0.142077 0.926774
O O7 0.000000 0.000000 0.000000
O O8 0.327318 0.753974 0.489089
O O9 0.932431 0.692439 0.461917
O O10 0.102162 0.751120 0.789017
O O11 0.500000 0.000000 0.000000
O O12 0.441693 0.702510 0.094140
O O13 0.266435 0.547123 0.075333
O O14 0.500000 0.500000 0.000000
O O15 0.830895 0.782960 0.969477
O O16 0.000000 0.000000 0.500000
O O17 0.500000 0.500000 0.500000
#
# Coordination Sequence:
#
# PCOD9111842 Si02
#       7
#     2   2   2   2   2   2   2
#     4  12  27  46  72 108 151 194 243 306 377 438
#     4  11  25  42  73 107 147 192 247 302 374 442
#     4  12  27  43  76 110 143 188 262 302 352 448
#     4  11  24  46  73 106 144 196 251 303 368 435
#     4  12  25  48  74 105 154 197 238 309 380 436
#     4  10  20  43  71  99 141 189 245 295 364 438
#     4  12  25  46  71 106 144 193 243 299 372 441
#
# _framework density 23.161860000000001
#
# number of rings (size 3 to 8) (size 9 to 14) (size 15 to 20)
#    0.000    0.571    4.286    4.714    8.000    1.143 
#    0.000    0.714    0.000    0.000    0.000    0.000 
#    0.000    0.000    0.000    0.000    0.000    0.000 
#
# Total GULP energy -78197.589178 kJ/mol
# GULP energy per Si atom -5585.542084 kJ/mol
# Density = 2.310914 g / cm^3
# Si number density = 23.161860 Si / 1000 Ang^3
#
#
#
# Elastic Constant Matrix: (Units=GPa)
#
#
# Indices 1 2 3 4 5 6 
#
# 1 82.5927 46.2995 42.4788 7.0404 -26.9452 -6.8199
# 2 46.2995 184.7887 57.1022 2.2910 -33.8867 -14.7966
# 3 42.4788 57.1022 132.2103 8.1584 -11.3350 -7.2197
# 4 7.0404 2.2910 8.1584 44.0878 3.8554 -7.3837
# 5 -26.9452 -33.8867 -11.3350 3.8554 36.2805 1.5776
# 6 -6.8199 -14.7966 -7.2197 -7.3837 1.5776 46.9221
#
#
#
# Elastic Compliance Matrix: (Units=1/GPa)
#
#
# Indices 1 2 3 4 5 6 
#
# 1 0.019351 -0.001125 -0.004442 -0.003133 0.012229 0.000870
# 2 -0.001125 0.007542 -0.002343 0.000030 0.005401 0.001677
# 3 -0.004442 -0.002343 0.009856 -0.000774 -0.002330 0.000088
# 4 -0.003133 0.000030 -0.000774 0.024363 -0.005280 0.003446
# 5 0.012229 0.005401 -0.002330 -0.005280 0.041484 0.000896
# 6 0.000870 0.001677 0.000088 0.003446 0.000896 0.022493
#
#
# Mechanical properties :
#
#
# Convention : Reuss Voigt Hill
#
# Bulk Modulus (GPa) = 47.78207 76.81696 62.29952
# Shear Modulus (GPa) = 33.80990 42.37217 38.09103
#
# Velocity S-wave (km/s) = 3.82478 4.28178 4.05972
# Velocity P-wave (km/s) = 6.33874 7.59488 6.99506
#
# Compressibility (1/GPa) = 0.02092835
#
# Stress axis : x y z
#
# Youngs Moduli (GPa) = 51.67573 132.59448 101.46213
#
# Poissons Ratio (x) = 0.14913 0.45074
# Poissons Ratio (y) = 0.05812 0.23774
# Poissons Ratio (z) = 0.22957 0.31069
#
# Static dielectric constant tensor:
#      x y z
#    x 1.978400 -0.017910 -0.026670 
#    y -0.017910 2.015160 0.033200 
#    z -0.026670 0.033200 1.867640 
# 
# From -- ./inp_files/226623.got.cif
#   From: 2010.05.17/outbox.cif.g08.bks.cpg/sg2_114_cif.got.tgz:226623.got - 2010.06.03 11:33:40.
