data_PCOD9111279
_publ_section_title
;
Structure prediction by ZEFSAII (Michael W. Deem and Ramdas Pophale) SiO2 
 PCOD9111279
Probable space group: P -1
;
_chemical_formula_sum "Si O2"
_cell_formula_units_Z 14
_cell_length_a 7.538446
_cell_length_b 11.394422
_cell_length_c 8.162070
_cell_angle_alpha 84.947371
_cell_angle_beta 60.376768
_cell_angle_gamma 93.147961
_cell_volume 603.150169
_symmetry_space_group_name_H-M "P -1"
_symmetry_group_IT_number 2
_symmetry_cell_setting 'triclinic'
loop_
_space_group_symop_operation_xyz
x,y,z
-x,-y,-z
loop_
_atom_site_type_symbol
_atom_site_label
_atom_site_fract_x
_atom_site_fract_y
_atom_site_fract_z
Si Si1 0.833116 0.567465 0.969595
Si Si2 0.329374 0.812046 0.040361
Si Si3 0.912363 0.407186 0.690014
Si Si4 0.108361 0.799907 0.793428
Si Si5 0.719947 0.922756 0.972793
Si Si6 0.360424 0.378016 0.629742
Si Si7 0.479018 0.874883 0.425697
O O1 0.666219 0.609388 0.163255
O O2 0.000000 0.500000 0.000000
O O3 0.770951 0.480502 0.861575
O O4 0.971772 0.680263 0.824808
O O5 0.577533 0.836122 0.926320
O O6 0.230465 0.717916 0.230487
O O7 0.241892 0.783132 0.899732
O O8 0.266842 0.940931 0.099818
O O9 0.127158 0.376834 0.674033
O O10 0.000000 0.500000 0.500000
O O11 0.239695 0.840019 0.570952
O O12 0.945447 0.888972 0.900154
O O13 0.591366 0.908325 0.201037
O O14 0.500000 0.500000 0.500000
O O15 0.437109 0.253356 0.555738
O O16 0.500000 0.000000 0.500000
#
# Coordination Sequence:
#
# PCOD9111279 Si02
#       7
#     2   2   2   2   2   2   2
#     4  10  20  42  71  99 137 194 231 298 374 429
#     4  11  24  46  71 101 148 181 246 301 369 431
#     4  11  25  44  71 108 146 187 245 310 370 442
#     4  12  23  46  75  97 146 189 239 298 375 429
#     4  11  26  47  71 105 142 195 239 310 361 444
#     4  11  24  43  71 106 145 191 249 304 370 446
#     4  12  25  42  76 110 139 195 253 292 373 452
#
# _framework density 23.211463999999999
#
# number of rings (size 3 to 8) (size 9 to 14) (size 15 to 20)
#    0.000    0.857    5.714    2.143    6.000    0.000 
#    2.571    5.714    0.000    0.000    0.000    0.000 
#    0.000    0.000    0.000    0.000    0.000    0.000 
#
# Total GULP energy -78064.827373 kJ/mol
# GULP energy per Si atom -5576.059098 kJ/mol
# Density = 2.315863 g / cm^3
# Si number density = 23.211464 Si / 1000 Ang^3
#
#
#
# Elastic Constant Matrix: (Units=GPa)
#
#
# Indices 1 2 3 4 5 6 
#
# 1 61.0076 25.6810 27.6984 15.2849 -6.0177 -1.0872
# 2 25.6810 188.5131 61.9808 -19.4599 -12.2188 9.2798
# 3 27.6984 61.9808 131.9351 -3.0260 -21.6521 -1.4722
# 4 15.2849 -19.4599 -3.0260 41.1975 3.6781 -7.5404
# 5 -6.0177 -12.2188 -21.6521 3.6781 26.0227 -4.5232
# 6 -1.0872 9.2798 -1.4722 -7.5404 -4.5232 28.5807
#
#
#
# Elastic Compliance Matrix: (Units=1/GPa)
#
#
# Indices 1 2 3 4 5 6 
#
# 1 0.021670 -0.002771 -0.003083 -0.009914 0.002430 -0.000666
# 2 -0.002771 0.007028 -0.002718 0.003900 -0.000425 -0.001566
# 3 -0.003083 -0.002718 0.010748 0.000471 0.007340 0.002605
# 4 -0.009914 0.003900 0.000471 0.031248 -0.003429 0.006082
# 5 0.002430 -0.000425 0.007340 -0.003429 0.046613 0.007081
# 6 -0.000666 -0.001566 0.002605 0.006082 0.007081 0.038331
#
#
# Mechanical properties :
#
#
# Convention : Reuss Voigt Hill
#
# Bulk Modulus (GPa) = 44.84193 68.01957 56.43075
# Shear Modulus (GPa) = 27.74464 36.89989 32.32227
#
# Velocity S-wave (km/s) = 3.46106 3.99146 3.73569
# Velocity P-wave (km/s) = 5.94413 7.11409 6.55527
#
# Compressibility (1/GPa) = 0.02230056
#
# Stress axis : x y z
#
# Youngs Moduli (GPa) = 46.14750 142.29273 93.04150
#
# Poissons Ratio (x) = 0.39435 0.28689
# Poissons Ratio (y) = 0.12789 0.25285
# Poissons Ratio (z) = 0.14229 0.38669
#
# Static dielectric constant tensor:
#      x y z
#    x 1.898900 0.004690 0.104710 
#    y 0.004690 1.971450 0.053490 
#    z 0.104710 0.053490 1.780510 
# 
# From -- ./inp_files/187260.got.cif
#   From: 2010.05.17/outbox.cif.g08.bks.cpg/sg2_94_cif.got.tgz:187260.got - 2010.06.03 11:33:40.
