data_PCOD9111742
_publ_section_title
;
Structure prediction by ZEFSAII (Michael W. Deem and Ramdas Pophale) SiO2 
 PCOD9111742
Probable space group: P -1
;
_chemical_formula_sum "Si O2"
_cell_formula_units_Z 16
_cell_length_a 14.416952
_cell_length_b 8.521410
_cell_length_c 15.503487
_cell_angle_alpha 70.503592
_cell_angle_beta 152.543645
_cell_angle_gamma 94.556112
_cell_volume 717.576485
_symmetry_space_group_name_H-M "P -1"
_symmetry_group_IT_number 2
_symmetry_cell_setting 'triclinic'
loop_
_space_group_symop_operation_xyz
x,y,z
-x,-y,-z
loop_
_atom_site_type_symbol
_atom_site_label
_atom_site_fract_x
_atom_site_fract_y
_atom_site_fract_z
Si Si1 0.442942 0.326455 0.798001
Si Si2 0.087297 0.661449 0.782236
Si Si3 0.735880 0.804051 0.710404
Si Si4 0.635484 0.931175 0.929408
Si Si5 0.325144 0.418038 0.873631
Si Si6 0.815264 0.310876 0.595264
Si Si7 0.722163 0.007309 0.503725
Si Si8 0.904185 0.452963 0.802364
O O1 0.313332 0.361761 0.776157
O O2 0.278877 0.488887 0.566753
O O3 0.531032 0.118953 0.867620
O O4 0.668140 0.353156 0.990869
O O5 0.108961 0.581059 0.718367
O O6 0.897828 0.885343 0.595083
O O7 0.021103 0.537255 0.815683
O O8 0.842422 0.879345 0.711029
O O9 0.729114 0.630439 0.685839
O O10 0.500000 0.000000 0.500000
O O11 0.899265 0.704405 0.944742
O O12 0.514533 0.979720 0.726717
O O13 0.586235 0.771812 0.960449
O O14 0.912146 0.833049 0.169391
O O15 0.500000 0.500000 0.000000
O O16 0.788603 0.358869 0.665662
O O17 0.683733 0.211639 0.461069
#
# Coordination Sequence:
#
# PCOD9111742 Si02
#       8
#     2   2   2   2   2   2   2   2
#     4  11  24  42  65 100 132 176 227 268 328 387
#     4  10  20  43  69  94 135 178 220 271 329 392
#     4  10  22  40  70  95 130 169 215 269 332 388
#     4  12  24  45  68  97 136 175 223 272 329 389
#     4  10  22  41  67  98 134 173 222 275 322 388
#     4  12  25  43  71  98 132 179 222 266 331 391
#     4  11  24  44  69  98 132 177 220 272 330 394
#     4  10  22  42  64  97 132 170 214 272 325 389
#
# _framework density 22.297274000000002
#
# number of rings (size 3 to 8) (size 9 to 14) (size 15 to 20)
#    0.000    1.250    2.500    4.125    1.750    1.000 
#    2.250    2.500    0.000    0.000    0.000    0.000 
#    0.000    0.000    0.000    0.000    0.000    0.000 
#
# Total GULP energy -89346.140235 kJ/mol
# GULP energy per Si atom -5584.133765 kJ/mol
# Density = 2.224652 g / cm^3
# Si number density = 22.297274 Si / 1000 Ang^3
#
#
#
# Elastic Constant Matrix: (Units=GPa)
#
#
# Indices 1 2 3 4 5 6 
#
# 1 56.4052 26.0141 17.5615 -4.0545 -0.7978 -33.0880
# 2 26.0141 135.4665 32.9037 -12.2429 6.1696 -41.3374
# 3 17.5615 32.9037 70.1192 -2.1015 -1.7044 -32.0648
# 4 -4.0545 -12.2429 -2.1015 41.6084 -1.8803 9.8025
# 5 -0.7978 6.1696 -1.7044 -1.8803 32.1849 -4.2200
# 6 -33.0880 -41.3374 -32.0648 9.8025 -4.2200 50.4350
#
#
#
# Elastic Compliance Matrix: (Units=1/GPa)
#
#
# Indices 1 2 3 4 5 6 
#
# 1 0.029578 -0.000021 0.002548 -0.001942 0.003602 0.021687
# 2 -0.000021 0.010020 -0.001526 0.001195 -0.001026 0.006911
# 3 0.002548 -0.001526 0.020973 -0.002410 0.003226 0.014494
# 4 -0.001942 0.001195 -0.002410 0.025686 0.000204 -0.006802
# 5 0.003602 -0.001026 0.003226 0.000204 0.032357 0.006241
# 6 0.021687 0.006911 0.014494 -0.006802 0.006241 0.050778
#
#
# Mechanical properties :
#
#
# Convention : Reuss Voigt Hill
#
# Bulk Modulus (GPa) = 15.98077 46.10549 31.04313
# Shear Modulus (GPa) = 26.56078 37.21310 31.88694
#
# Velocity S-wave (km/s) = 3.45514 4.08971 3.78575
# Velocity P-wave (km/s) = 4.80625 6.55923 5.74994
#
# Compressibility (1/GPa) = 0.06257519
#
# Stress axis : x y z
#
# Youngs Moduli (GPa) = 33.80874 99.80030 47.68010
#
# Poissons Ratio (x) = 0.00208 -0.12151
# Poissons Ratio (y) = 0.00071 0.07274
# Poissons Ratio (z) = -0.08616 0.15225
#
# Static dielectric constant tensor:
#      x y z
#    x 1.886880 -0.021590 0.017150 
#    y -0.021590 1.865440 0.019400 
#    z 0.017150 0.019400 1.819190 
# 
# From -- ./inp_files/348889.got.cif
#   From: 2010.05.17/outbox.cif.g08.bks.cpg/sg2_175_cif.got.tgz:348889.got - 2010.06.03 11:33:40.
