data_PCOD9111300
_publ_section_title
;
Structure prediction by ZEFSAII (Michael W. Deem and Ramdas Pophale) SiO2 
 PCOD9111300
Probable space group: P -1
;
_chemical_formula_sum "Si O2"
_cell_formula_units_Z 14
_cell_length_a 12.049140
_cell_length_b 19.833978
_cell_length_c 8.930864
_cell_angle_alpha 139.084699
_cell_angle_beta 50.393960
_cell_angle_gamma 152.950872
_cell_volume 631.145851
_symmetry_space_group_name_H-M "P -1"
_symmetry_group_IT_number 2
_symmetry_cell_setting 'triclinic'
loop_
_space_group_symop_operation_xyz
x,y,z
-x,-y,-z
loop_
_atom_site_type_symbol
_atom_site_label
_atom_site_fract_x
_atom_site_fract_y
_atom_site_fract_z
Si Si1 0.654510 0.285657 0.164194
Si Si2 0.881091 0.616469 0.597279
Si Si3 0.814728 0.963809 0.691461
Si Si4 0.333738 0.997283 0.694792
Si Si5 0.959438 0.274840 0.014691
Si Si6 0.524401 0.472182 0.104426
Si Si7 0.150609 0.081740 0.855146
O O1 0.843622 0.489031 0.325631
O O2 0.470201 0.221410 0.345466
O O3 0.788790 0.262615 0.071610
O O4 0.497384 0.160711 0.944376
O O5 0.949047 0.638450 0.751638
O O6 0.624230 0.531352 0.674825
O O7 0.097938 0.810392 0.665675
O O8 0.000000 0.000000 0.500000
O O9 0.945190 0.015311 0.819738
O O10 0.831471 0.091116 0.841917
O O11 0.500000 0.000000 0.500000
O O12 0.242438 0.017117 0.670035
O O13 0.187711 0.381917 0.888440
O O14 0.500000 0.500000 0.000000
O O15 0.385533 0.286463 0.952868
O O16 0.000000 0.000000 0.000000
#
# Coordination Sequence:
#
# PCOD9111300 Si02
#       7
#     2   2   2   2   2   2   2
#     4  12  26  45  71 109 148 191 245 302 370 438
#     4  11  23  47  71 104 147 189 248 303 360 437
#     4  12  25  43  76 111 141 194 253 297 369 439
#     4  12  29  49  71 102 150 198 241 303 372 441
#     4  11  23  44  72 109 150 185 238 314 364 428
#     4  10  20  42  72 108 139 187 248 293 357 437
#     4  12  22  49  75 100 152 197 238 307 368 428
#
# _framework density 22.181877
#
# number of rings (size 3 to 8) (size 9 to 14) (size 15 to 20)
#    0.000    0.571    7.143    1.714    6.000    0.571 
#    0.000    1.429    0.000    0.000    0.000    0.000 
#    0.000    0.000    0.000    0.000    0.000    0.000 
#
# Total GULP energy -78093.782628 kJ/mol
# GULP energy per Si atom -5578.127331 kJ/mol
# Density = 2.213139 g / cm^3
# Si number density = 22.181877 Si / 1000 Ang^3
#
#
#
# Elastic Constant Matrix: (Units=GPa)
#
#
# Indices 1 2 3 4 5 6 
#
# 1 -826.5648 105.0216 -126.9387 442.9306 -89.7602 -73.3989
# 2 105.0216 100.0638 35.6870 -25.7594 -3.5951 -6.0910
# 3 -126.9387 35.6870 72.7283 82.8759 -28.7212 -18.8318
# 4 442.9306 -25.7594 82.8759 -162.2877 26.4682 23.9944
# 5 -89.7602 -3.5951 -28.7212 26.4682 37.3314 -6.6541
# 6 -73.3989 -6.0910 -18.8318 23.9944 -6.6541 28.4864
#
#
#
# Elastic Compliance Matrix: (Units=1/GPa)
#
#
# Indices 1 2 3 4 5 6 
#
# 1 0.003402 -0.000493 -0.002786 0.008015 0.000331 0.000144
# 2 -0.000493 0.010430 -0.001252 -0.002958 0.001484 0.002971
# 3 -0.002786 -0.001252 0.011832 -0.000633 0.003019 0.001613
# 4 0.008015 -0.002958 -0.000633 0.017895 0.006907 0.006142
# 5 0.000331 0.001484 0.003019 0.006907 0.025751 0.003364
# 6 0.000144 0.002971 0.001613 0.006142 0.003364 0.032790
#
#
# Mechanical properties :
#
#
# Convention : Reuss Voigt Hill
#
# Bulk Modulus (GPa) = 60.23230 -69.58143 -4.67457
# Shear Modulus (GPa) = 42.84685 -63.79683 -10.47499
#
# Velocity S-wave (km/s) = 4.39978 -5.36873 -2.17545
# Velocity P-wave (km/s) = 7.28173 8.35869 2.90208
#
# Compressibility (1/GPa) = 0.01660239
#
# Stress axis : x y z
#
# Youngs Moduli (GPa) = 293.96069 95.87918 84.51742
#
# Poissons Ratio (x) = 0.04724 0.23549
# Poissons Ratio (y) = 0.14482 0.10579
# Poissons Ratio (z) = 0.81905 0.12001
#
# Static dielectric constant tensor:
#      x y z
#    x 1.808020 -0.024440 0.038510 
#    y -0.024440 1.891920 -0.090450 
#    z 0.038510 -0.090450 1.943260 
# 
# From -- ./inp_files/206008.got.cif
#   From: 2010.05.17/outbox.cif.g08.bks.cpg/sg2_104_cif.got.tgz:206008.got - 2010.06.03 11:33:40.
