data_PCOD9111489
_publ_section_title
;
Structure prediction by ZEFSAII (Michael W. Deem and Ramdas Pophale) SiO2 
 PCOD9111489
Probable space group: P -1
;
_chemical_formula_sum "Si O2"
_cell_formula_units_Z 16
_cell_length_a 12.081361
_cell_length_b 9.362566
_cell_length_c 18.424672
_cell_angle_alpha 130.488042
_cell_angle_beta 29.184331
_cell_angle_gamma 122.795786
_cell_volume 771.097440
_symmetry_space_group_name_H-M "P -1"
_symmetry_group_IT_number 2
_symmetry_cell_setting 'triclinic'
loop_
_space_group_symop_operation_xyz
x,y,z
-x,-y,-z
loop_
_atom_site_type_symbol
_atom_site_label
_atom_site_fract_x
_atom_site_fract_y
_atom_site_fract_z
Si Si1 0.144900 0.821592 0.450627
Si Si2 0.767572 0.448317 0.322957
Si Si3 0.569842 0.594325 0.066141
Si Si4 0.345128 0.720084 0.976662
Si Si5 0.261508 0.720339 0.858604
Si Si6 0.231820 0.214590 0.468164
Si Si7 0.842369 0.855723 0.766559
Si Si8 0.072460 0.138012 0.110373
O O1 0.345808 0.675373 0.262698
O O2 0.932674 0.807358 0.513047
O O3 0.051271 0.791734 0.574520
O O4 0.228532 0.029502 0.458417
O O5 0.500000 0.500000 0.500000
O O6 0.820235 0.431081 0.201679
O O7 0.864191 0.607633 0.370582
O O8 0.844070 0.245676 0.246592
O O9 0.693635 0.438344 0.995016
O O10 0.500000 0.500000 0.000000
O O11 0.727795 0.762027 0.012481
O O12 0.283777 0.665526 0.911853
O O13 0.612532 0.761743 0.843564
O O14 0.211832 0.919383 0.137234
O O15 0.515123 0.763199 0.700015
O O16 0.104432 0.914684 0.007526
O O17 0.894622 0.821698 0.809873
#
# Coordination Sequence:
#
# PCOD9111489 Si02
#       8
#     2   2   2   2   2   2   2   2
#     4  11  23  36  62  95 134 159 200 264 321 367
#     4  10  23  40  66  90 122 165 221 258 298 374
#     4  12  24  37  61  96 133 162 202 262 319 380
#     4  10  22  38  61  94 128 168 207 251 321 370
#     4  10  20  43  65  86 126 173 209 252 302 376
#     4  10  21  36  60  95 124 164 206 254 314 364
#     4  10  22  38  64  91 133 163 202 260 316 380
#     4  11  22  41  65  95 122 166 212 256 320 370
#
# _framework density 20.749648000000001
#
# number of rings (size 3 to 8) (size 9 to 14) (size 15 to 20)
#    0.000    1.500    3.750    1.125    5.250    2.500 
#    0.000    0.625    2.750    2.250    0.000    0.000 
#    0.000    0.000    0.000    0.000    0.000    0.000 
#
# Total GULP energy -89447.431391 kJ/mol
# GULP energy per Si atom -5590.464462 kJ/mol
# Density = 2.070242 g / cm^3
# Si number density = 20.749648 Si / 1000 Ang^3
#
#
#
# Elastic Constant Matrix: (Units=GPa)
#
#
# Indices 1 2 3 4 5 6 
#
# 1 88.8021 20.3931 42.0979 15.5184 17.8321 -20.5773
# 2 20.3931 37.7298 20.1688 5.1355 13.7691 -13.8762
# 3 42.0979 20.1688 129.6729 -4.1150 11.1347 -16.9644
# 4 15.5184 5.1355 -4.1150 24.6155 3.5721 -3.1400
# 5 17.8321 13.7691 11.1347 3.5721 42.7796 2.7004
# 6 -20.5773 -13.8762 -16.9644 -3.1400 2.7004 23.5683
#
#
#
# Elastic Compliance Matrix: (Units=1/GPa)
#
#
# Indices 1 2 3 4 5 6 
#
# 1 0.019701 0.001016 -0.004410 -0.010500 -0.007403 0.014074
# 2 0.001016 0.042551 -0.002541 -0.004603 -0.014662 0.025177
# 3 -0.004410 -0.002541 0.010121 0.005439 -0.000605 0.002732
# 4 -0.010500 -0.004603 0.005439 0.048855 0.000458 -0.001507
# 5 -0.007403 -0.014662 -0.000605 0.000458 0.032511 -0.019195
# 6 0.014074 0.025177 0.002732 -0.001507 -0.019195 0.073506
#
#
# Mechanical properties :
#
#
# Convention : Reuss Voigt Hill
#
# Bulk Modulus (GPa) = 16.52867 46.83604 31.68235
# Shear Modulus (GPa) = 19.28396 29.76234 24.52315
#
# Velocity S-wave (km/s) = 3.05185 3.79140 3.44155
# Velocity P-wave (km/s) = 4.51680 6.46430 5.57623
#
# Compressibility (1/GPa) = 0.06050093
#
# Stress axis : x y z
#
# Youngs Moduli (GPa) = 50.75874 23.50146 98.80810
#
# Poissons Ratio (x) = -0.02387 0.43576
# Poissons Ratio (y) = -0.05156 0.25110
# Poissons Ratio (z) = 0.22386 0.05972
#
# Static dielectric constant tensor:
#      x y z
#    x 1.741470 0.027900 -0.006290 
#    y 0.027900 1.742240 0.003690 
#    z -0.006290 0.003690 1.747600 
# 
# From -- ./inp_files/186545.got.cif
#   From: 2010.05.17/outbox.cif.g08.bks.cpg/sg2_94_cif.got.tgz:186545.got - 2010.06.03 11:33:40.
