data_PCOD9111775
_publ_section_title
;
Structure prediction by ZEFSAII (Michael W. Deem and Ramdas Pophale) SiO2 
 PCOD9111775
Probable space group: P -1
;
_chemical_formula_sum "Si O2"
_cell_formula_units_Z 14
_cell_length_a 9.375464
_cell_length_b 10.264703
_cell_length_c 13.696997
_cell_angle_alpha 50.717298
_cell_angle_beta 136.119377
_cell_angle_gamma 120.661019
_cell_volume 703.684125
_symmetry_space_group_name_H-M "P -1"
_symmetry_group_IT_number 2
_symmetry_cell_setting 'triclinic'
loop_
_space_group_symop_operation_xyz
x,y,z
-x,-y,-z
loop_
_atom_site_type_symbol
_atom_site_label
_atom_site_fract_x
_atom_site_fract_y
_atom_site_fract_z
Si Si1 0.520160 0.628923 0.095069
Si Si2 0.444857 0.731669 0.788053
Si Si3 0.610337 0.065650 0.623689
Si Si4 0.635650 0.147503 0.934604
Si Si5 0.920397 0.880300 0.219580
Si Si6 0.008071 0.157042 0.502134
Si Si7 0.427050 0.304170 0.569255
O O1 0.516578 0.427676 0.184256
O O2 0.364436 0.695431 0.065823
O O3 0.749426 0.723832 0.184431
O O4 0.461383 0.684655 0.931579
O O5 0.214099 0.776722 0.633593
O O6 0.597906 0.897147 0.763218
O O7 0.480061 0.200330 0.548709
O O8 0.847712 0.138391 0.691932
O O9 0.500000 0.000000 0.500000
O O10 0.534919 0.209929 0.756391
O O11 0.500000 0.000000 0.000000
O O12 0.839294 0.054621 0.058224
O O13 0.929291 0.894073 0.334603
O O14 0.185944 0.289123 0.484095
O O15 0.000000 0.000000 0.500000
O O16 0.500000 0.500000 0.500000
#
# Coordination Sequence:
#
# PCOD9111775 Si02
#       7
#     2   2   2   2   2   2   2
#     4  10  23  42  68  96 129 179 228 274 328 408
#     4  11  24  41  67  97 138 172 224 279 337 396
#     4  12  25  43  64 100 141 171 216 285 338 388
#     4  10  20  43  70  92 128 175 230 267 326 403
#     4  11  23  41  74  92 126 185 225 266 336 409
#     4  12  22  43  68  95 129 183 221 267 343 405
#     4  12  27  42  68 103 137 170 230 284 325 396
#
# _framework density 19.895288999999998
#
# number of rings (size 3 to 8) (size 9 to 14) (size 15 to 20)
#    0.000    0.857    5.714    2.571    4.000    2.857 
#    2.571    0.714    0.000    0.000    0.000    0.000 
#    0.000    0.000    0.000    0.000    0.000    0.000 
#
# Total GULP energy -78200.668066 kJ/mol
# GULP energy per Si atom -5585.762005 kJ/mol
# Density = 1.985001 g / cm^3
# Si number density = 19.895289 Si / 1000 Ang^3
#
#
#
# Elastic Constant Matrix: (Units=GPa)
#
#
# Indices 1 2 3 4 5 6 
#
# 1 59.4550 8.8832 -1.4410 -2.4940 -1.0084 4.6512
# 2 8.8832 102.6066 16.3115 -7.4427 -12.4294 -9.3255
# 3 -1.4410 16.3115 69.6346 7.3962 -6.4266 -0.9752
# 4 -2.4940 -7.4427 7.3962 29.0152 1.3633 -2.4473
# 5 -1.0084 -12.4294 -6.4266 1.3633 22.9803 5.4451
# 6 4.6512 -9.3255 -0.9752 -2.4473 5.4451 43.9339
#
#
#
# Elastic Compliance Matrix: (Units=1/GPa)
#
#
# Indices 1 2 3 4 5 6 
#
# 1 0.017299 -0.001699 0.000703 0.000662 0.000520 -0.002204
# 2 -0.001699 0.011302 -0.002586 0.003376 0.004608 0.002138
# 3 0.000703 -0.002586 0.015816 -0.004886 0.003579 -0.000988
# 4 0.000662 0.003376 -0.004886 0.036990 -0.002392 0.002895
# 5 0.000520 0.004608 0.003579 -0.002392 0.048389 -0.005128
# 6 -0.002204 0.002138 -0.000988 0.002895 -0.005128 0.024224
#
#
# Mechanical properties :
#
#
# Convention : Reuss Voigt Hill
#
# Bulk Modulus (GPa) = 26.84308 31.02262 28.93285
# Shear Modulus (GPa) = 28.80174 33.04872 30.92523
#
# Velocity S-wave (km/s) = 3.80895 4.08012 3.94686
# Velocity P-wave (km/s) = 5.73285 6.15007 5.94512
#
# Compressibility (1/GPa) = 0.03725355
#
# Stress axis : x y z
#
# Youngs Moduli (GPa) = 57.80584 88.48373 63.22544
#
# Poissons Ratio (x) = 0.15031 -0.04443
# Poissons Ratio (y) = 0.09820 0.16349
# Poissons Ratio (z) = -0.04062 0.22880
#
# Static dielectric constant tensor:
#      x y z
#    x 1.748400 0.009490 0.004760 
#    y 0.009490 1.700920 -0.000760 
#    z 0.004760 -0.000760 1.730080 
# 
# From -- ./inp_files/157411.got.cif
#   From: 2010.05.17/outbox.cif.g08.bks.cpg/sg2_79_cif.got.tgz:157411.got - 2010.06.03 11:33:40.
