data_PCOD9111065
_publ_section_title
;
Structure prediction by ZEFSAII (Michael W. Deem and Ramdas Pophale) SiO2 
 PCOD9111065
Probable space group: P -1
;
_chemical_formula_sum "Si O2"
_cell_formula_units_Z 16
_cell_length_a 5.273258
_cell_length_b 9.818343
_cell_length_c 18.481498
_cell_angle_alpha 64.868993
_cell_angle_beta 118.823067
_cell_angle_gamma 92.819720
_cell_volume 744.233670
_symmetry_space_group_name_H-M "P -1"
_symmetry_group_IT_number 2
_symmetry_cell_setting 'triclinic'
loop_
_space_group_symop_operation_xyz
x,y,z
-x,-y,-z
loop_
_atom_site_type_symbol
_atom_site_label
_atom_site_fract_x
_atom_site_fract_y
_atom_site_fract_z
Si Si1 0.792356 0.001282 0.817885
Si Si2 0.397496 0.678457 0.887121
Si Si3 0.482130 0.731212 0.642255
Si Si4 0.830265 0.644784 0.847535
Si Si5 0.459297 0.962486 0.919447
Si Si6 0.376613 0.661092 0.482251
Si Si7 0.021079 0.870370 0.657724
Si Si8 0.742173 0.820783 0.386858
O O1 0.699707 0.008638 0.887794
O O2 0.529460 0.116540 0.717707
O O3 0.114773 0.035349 0.839083
O O4 0.798482 0.827028 0.826973
O O5 0.659376 0.580639 0.900856
O O6 0.207820 0.791478 0.771748
O O7 0.169940 0.578554 0.903685
O O8 0.475242 0.785437 0.937325
O O9 0.679342 0.631451 0.753065
O O10 0.446027 0.658496 0.577364
O O11 0.169126 0.780881 0.627705
O O12 0.681554 0.861069 0.626189
O O13 0.500000 0.000000 0.000000
O O14 0.500000 0.500000 0.500000
O O15 0.568950 0.771403 0.443332
O O16 0.017673 0.698837 0.420157
O O17 0.088443 0.036854 0.614662
#
# Coordination Sequence:
#
# PCOD9111065 Si02
#       8
#     2   2   2   2   2   2   2   2
#     4  10  18  32  46  73  99 129 176 190 248 308
#     4   8  14  24  40  63 103 118 156 180 227 306
#     4  10  19  34  51  72 103 119 164 231 249 318
#     4   8  14  26  44  64  92 117 149 203 243 284
#     4  10  17  26  44  70 108 142 156 183 229 306
#     4  12  28  40  49  70 100 142 179 221 271 295
#     4  10  18  32  54  83  90 126 168 217 270 284
#     4  12  22  38  59  68 101 137 176 222 258 310
#
# _framework density 21.498622999999998
#
# number of rings (size 3 to 8) (size 9 to 14) (size 15 to 20)
#    0.000    2.000    3.750    3.000    1.750    3.000 
#    0.000    0.000    0.000    0.000    0.000    0.000 
#    0.000    0.000    0.000  202.500    0.000    0.000 
#
# Total GULP energy -89159.269825 kJ/mol
# GULP energy per Si atom -5572.454364 kJ/mol
# Density = 2.144969 g / cm^3
# Si number density = 21.498623 Si / 1000 Ang^3
#
#
#
# Elastic Constant Matrix: (Units=GPa)
#
#
# Indices 1 2 3 4 5 6 
#
# 1 146.3433 2.9364 20.5529 -2.6629 -10.1560 -30.5792
# 2 2.9364 39.9004 33.9340 17.7735 -13.3898 -11.2201
# 3 20.5529 33.9340 90.9037 17.4027 -22.4327 -5.3889
# 4 -2.6629 17.7735 17.4027 22.6119 -7.5072 -7.0540
# 5 -10.1560 -13.3898 -22.4327 -7.5072 34.9276 11.5929
# 6 -30.5792 -11.2201 -5.3889 -7.0540 11.5929 19.6884
#
#
#
# Elastic Compliance Matrix: (Units=1/GPa)
#
#
# Indices 1 2 3 4 5 6 
#
# 1 0.013902 0.008168 -0.007498 0.008604 -0.006024 0.030823
# 2 0.008168 0.058025 -0.018264 -0.020671 -0.003259 0.035267
# 3 -0.007498 -0.018264 0.022487 -0.007870 0.012158 -0.025878
# 4 0.008604 -0.020671 -0.007870 0.075205 -0.003812 0.028617
# 5 -0.006024 -0.003259 0.012158 -0.003812 0.044359 -0.035371
# 6 0.030823 0.035267 -0.025878 0.028617 -0.035371 0.142759
#
#
# Mechanical properties :
#
#
# Convention : Reuss Voigt Hill
#
# Bulk Modulus (GPa) = 16.88482 43.55489 30.21986
# Shear Modulus (GPa) = 12.14575 30.09388 21.11982
#
# Velocity S-wave (km/s) = 2.37946 3.74546 3.13769
# Velocity P-wave (km/s) = 3.92684 6.24563 5.21670
#
# Compressibility (1/GPa) = 0.05922480
#
# Stress axis : x y z
#
# Youngs Moduli (GPa) = 71.93420 17.23386 44.47088
#
# Poissons Ratio (x) = -0.14076 0.33346
# Poissons Ratio (y) = -0.58753 0.81220
# Poissons Ratio (z) = 0.53939 0.31475
#
# Static dielectric constant tensor:
#      x y z
#    x 1.880900 -0.009220 0.000300 
#    y -0.009220 1.773320 -0.023730 
#    z 0.000300 -0.023730 1.808960 
# 
# From -- ./inp_files/548122.got.cif
#   From: 2010.05.17/outbox.cif.g08.bks.cpg/sg2_275_cif.got.tgz:548122.got - 2010.06.03 11:33:40.
