data_PCOD9111561
_publ_section_title
;
Structure prediction by ZEFSAII (Michael W. Deem and Ramdas Pophale) SiO2 
 PCOD9111561
Probable space group: P -1
;
_chemical_formula_sum "Si O2"
_cell_formula_units_Z 14
_cell_length_a 9.523554
_cell_length_b 9.960276
_cell_length_c 7.426562
_cell_angle_alpha 107.934803
_cell_angle_beta 105.765270
_cell_angle_gamma 103.261653
_cell_volume 606.144640
_symmetry_space_group_name_H-M "P -1"
_symmetry_group_IT_number 2
_symmetry_cell_setting 'triclinic'
loop_
_space_group_symop_operation_xyz
x,y,z
-x,-y,-z
loop_
_atom_site_type_symbol
_atom_site_label
_atom_site_fract_x
_atom_site_fract_y
_atom_site_fract_z
Si Si1 0.958399 0.626823 0.648533
Si Si2 0.802417 0.400546 0.755176
Si Si3 0.633300 0.475503 0.418720
Si Si4 0.766464 0.092202 0.033891
Si Si5 0.755772 0.880397 0.254208
Si Si6 0.909602 0.118530 0.716572
Si Si7 0.578089 0.308074 0.958440
O O1 0.929679 0.560468 0.814338
O O2 0.790227 0.622060 0.520770
O O3 0.000000 0.500000 0.500000
O O4 0.093797 0.782796 0.759697
O O5 0.695493 0.369991 0.525739
O O6 0.870793 0.269183 0.739234
O O7 0.698157 0.403623 0.890463
O O8 0.500000 0.500000 0.500000
O O9 0.585431 0.401627 0.180122
O O10 0.706385 0.955025 0.091874
O O11 0.844661 0.057028 0.865753
O O12 0.643017 0.171716 0.968482
O O13 0.597142 0.750674 0.198872
O O14 0.907138 0.844136 0.230079
O O15 0.817020 0.998555 0.485662
#
# Coordination Sequence:
#
# PCOD9111561 Si02
#       7
#     2   2   2   2   2   2   2
#     4  10  20  43  66  93 128 161 215 254 319 385
#     4   9  23  43  63  96 126 168 210 259 319 378
#     4  10  23  43  63  99 128 166 207 264 324 372
#     4  11  22  42  66  93 124 175 207 260 316 377
#     4  11  24  41  61  98 125 167 215 261 308 382
#     4  10  23  42  62  91 129 167 215 256 319 366
#     4  11  23  41  66  93 132 166 211 261 324 371
#
# _framework density 23.096796999999999
#
# number of rings (size 3 to 8) (size 9 to 14) (size 15 to 20)
#    0.857    0.857    1.429    2.571    2.000    6.286 
#   10.286    0.000    0.000    0.000    0.000    0.000 
#    0.000    0.000    0.000    0.000    0.000    0.000 
#
# Total GULP energy -78310.382938 kJ/mol
# GULP energy per Si atom -5593.598781 kJ/mol
# Density = 2.304423 g / cm^3
# Si number density = 23.096797 Si / 1000 Ang^3
#
#
#
# Elastic Constant Matrix: (Units=GPa)
#
#
# Indices 1 2 3 4 5 6 
#
# 1 158.4020 17.3158 63.4580 3.4120 -5.1518 23.2283
# 2 17.3158 44.8517 6.8802 -9.9427 -6.9867 6.9799
# 3 63.4580 6.8802 103.5247 -8.1401 -8.7464 4.0595
# 4 3.4120 -9.9427 -8.1401 18.0230 5.9076 0.2652
# 5 -5.1518 -6.9867 -8.7464 5.9076 41.2112 -6.5066
# 6 23.2283 6.9799 4.0595 0.2652 -6.5066 24.6399
#
#
#
# Elastic Compliance Matrix: (Units=1/GPa)
#
#
# Indices 1 2 3 4 5 6 
#
# 1 0.010606 -0.003394 -0.006543 -0.006384 -0.001011 -0.008157
# 2 -0.003394 0.027962 0.001838 0.016446 0.001594 -0.004780
# 3 -0.006543 0.001838 0.014193 0.007967 0.001954 0.003740
# 4 -0.006384 0.016446 0.007967 0.071698 -0.007003 -0.002574
# 5 -0.001011 0.001594 0.001954 -0.007003 0.026993 0.007383
# 6 -0.008157 -0.004780 0.003740 -0.002574 0.007383 0.050990
#
#
# Mechanical properties :
#
#
# Convention : Reuss Voigt Hill
#
# Bulk Modulus (GPa) = 27.35124 53.56516 40.45820
# Shear Modulus (GPa) = 21.66098 31.38313 26.52205
#
# Velocity S-wave (km/s) = 3.06573 3.69014 3.39233
# Velocity P-wave (km/s) = 4.93957 6.43414 5.73574
#
# Compressibility (1/GPa) = 0.03656141
#
# Stress axis : x y z
#
# Youngs Moduli (GPa) = 94.28356 35.76265 70.45615
#
# Poissons Ratio (x) = 0.12139 0.46102
# Poissons Ratio (y) = 0.32003 -0.12946
# Poissons Ratio (z) = 0.61693 -0.06571
#
# Static dielectric constant tensor:
#      x y z
#    x 1.879270 0.015460 0.019480 
#    y 0.015460 1.929300 -0.047080 
#    z 0.019480 -0.047080 1.835470 
# 
# From -- ./inp_files/182730.got.cif
#   From: 2010.05.17/outbox.cif.g08.bks.cpg/sg2_92_cif.got.tgz:182730.got - 2010.06.03 11:33:40.
