data_PCOD9111998
_publ_section_title
;
Structure prediction by ZEFSAII (Michael W. Deem and Ramdas Pophale) SiO2 
 PCOD9111998
Probable space group: P -1
;
_chemical_formula_sum "Si O2"
_cell_formula_units_Z 13
_cell_length_a 7.515120
_cell_length_b 12.075733
_cell_length_c 7.996362
_cell_angle_alpha 124.666084
_cell_angle_beta 79.778358
_cell_angle_gamma 65.076432
_cell_volume 448.703937
_symmetry_space_group_name_H-M "P -1"
_symmetry_group_IT_number 2
_symmetry_cell_setting 'triclinic'
loop_
_space_group_symop_operation_xyz
x,y,z
-x,-y,-z
loop_
_atom_site_type_symbol
_atom_site_label
_atom_site_fract_x
_atom_site_fract_y
_atom_site_fract_z
Si Si1 0.414239 0.688321 0.884812
Si Si2 0.890754 0.348328 0.451287
Si Si3 0.901911 0.519866 0.252917
Si Si4 0.113655 0.166188 0.797778
Si Si5 0.000000 0.000000 0.500000
Si Si6 0.312549 0.986084 0.946623
Si Si7 0.521380 0.332559 0.791896
O O1 0.607007 0.480384 0.637020
O O2 0.146193 0.780041 0.067256
O O3 0.514133 0.714298 0.055769
O O4 0.391894 0.801225 0.833195
O O5 0.903306 0.430292 0.346993
O O6 0.004374 0.383317 0.611287
O O7 0.055661 0.143486 0.204143
O O8 0.655484 0.629270 0.288676
O O9 0.065033 0.346389 0.958263
O O10 0.156968 0.066603 0.536354
O O11 0.287080 0.035262 0.799845
O O12 0.207058 0.827811 0.431333
O O13 0.500000 0.000000 0.000000
O O14 0.500000 0.500000 0.000000
#
# Coordination Sequence:
#
# PCOD9111998 Si02
#       7
#     2   2   2   2   1   2   2
#     4  11  23  42  63 102 127 164 224 265 318 387
#     4  10  24  41  68  96 127 176 213 262 330 374
#     4  10  20  44  66  94 128 174 210 261 324 385
#     4  10  22  41  67  97 129 167 220 269 319 380
#     4  10  22  36  64  98 124 178 204 252 338 372
#     4  11  24  43  65  97 133 169 217 268 315 389
#     4  11  23  43  64  94 134 167 213 271 316 385
#
# _framework density 28.972332999999999
#
# number of rings (size 3 to 8) (size 9 to 14) (size 15 to 20)
#    0.000    1.538    3.077    3.231    4.308    5.538 
#    0.000    0.769    0.000    0.000    0.000    0.000 
#    0.000    0.000    0.000    0.000    0.000    0.000 
#
# Total GULP energy -72548.950929 kJ/mol
# GULP energy per Si atom -5580.688533 kJ/mol
# Density = 2.890639 g / cm^3
# Si number density = 28.972333 Si / 1000 Ang^3
#
#
#
# Elastic Constant Matrix: (Units=GPa)
#
#
# Indices 1 2 3 4 5 6 
#
# 1 104.5765 62.0019 10.2026 -6.8643 15.3124 -34.8235
# 2 62.0019 203.7359 57.5628 20.6040 22.2296 -51.9772
# 3 10.2026 57.5628 96.0058 25.4232 11.4700 -13.3819
# 4 -6.8643 20.6040 25.4232 66.6068 -17.0913 9.5499
# 5 15.3124 22.2296 11.4700 -17.0913 54.0738 -18.4180
# 6 -34.8235 -51.9772 -13.3819 9.5499 -18.4180 67.2789
#
#
#
# Elastic Compliance Matrix: (Units=1/GPa)
#
#
# Indices 1 2 3 4 5 6 
#
# 1 0.012892 -0.003186 0.000871 0.001208 -0.000782 0.003999
# 2 -0.003186 0.008214 -0.003198 -0.002545 -0.001207 0.004092
# 3 0.000871 -0.003198 0.014126 -0.005269 -0.003386 0.000611
# 4 0.001208 -0.002545 -0.005269 0.020231 0.007085 -0.003321
# 5 -0.000782 -0.001207 -0.003386 0.007085 0.023315 0.003366
# 6 0.003999 0.004092 0.000611 -0.003321 0.003366 0.021609
#
#
# Mechanical properties :
#
#
# Convention : Reuss Voigt Hill
#
# Bulk Modulus (GPa) = 41.31108 73.76144 57.53626
# Shear Modulus (GPa) = 41.84751 55.89528 48.87140
#
# Velocity S-wave (km/s) = 3.80464 4.39710 4.11156
# Velocity P-wave (km/s) = 5.79570 7.16198 6.51476
#
# Compressibility (1/GPa) = 0.02420658
#
# Stress axis : x y z
#
# Youngs Moduli (GPa) = 77.56889 121.73625 70.79210
#
# Poissons Ratio (x) = 0.38785 -0.06168
# Poissons Ratio (y) = 0.24713 0.22640
# Poissons Ratio (z) = -0.06759 0.38932
#
# Static dielectric constant tensor:
#      x y z
#    x 2.187490 0.187750 -0.542510 
#    y 0.187750 2.362380 0.102320 
#    z -0.542510 0.102320 0.512150 
# 
# From -- ./inp_files/198447.got.cif
#   From: 2010.05.17/outbox.cif.g08.bks.cpg/sg2_100_cif.got.tgz:198447.got - 2010.06.03 11:33:40.
