data_PCOD9111557
_publ_section_title
;
Structure prediction by ZEFSAII (Michael W. Deem and Ramdas Pophale) SiO2 
 PCOD9111557
Probable space group: P -1
;
_chemical_formula_sum "Si O2"
_cell_formula_units_Z 16
_cell_length_a 11.104616
_cell_length_b 12.903833
_cell_length_c 7.663501
_cell_angle_alpha 136.090201
_cell_angle_beta 119.088511
_cell_angle_gamma 61.041681
_cell_volume 649.062459
_symmetry_space_group_name_H-M "P -1"
_symmetry_group_IT_number 2
_symmetry_cell_setting 'triclinic'
loop_
_space_group_symop_operation_xyz
x,y,z
-x,-y,-z
loop_
_atom_site_type_symbol
_atom_site_label
_atom_site_fract_x
_atom_site_fract_y
_atom_site_fract_z
Si Si1 0.981621 0.361268 0.195281
Si Si2 0.288811 0.807089 0.819662
Si Si3 0.192448 0.375373 0.827354
Si Si4 0.480340 0.450872 0.227974
Si Si5 0.843986 0.118888 0.740485
Si Si6 0.975555 0.202284 0.568842
Si Si7 0.558919 0.210000 0.468581
Si Si8 0.744663 0.843123 0.732079
O O1 0.136744 0.247994 0.160587
O O2 0.000000 0.500000 0.500000
O O3 0.891954 0.460175 0.099334
O O4 0.883076 0.246804 0.048645
O O5 0.391200 0.693356 0.882792
O O6 0.376889 0.819861 0.717378
O O7 0.158910 0.737601 0.575336
O O8 0.242182 0.981274 0.064880
O O9 0.085834 0.308841 0.790747
O O10 0.229767 0.258004 0.548654
O O11 0.335308 0.396968 0.040522
O O12 0.500000 0.500000 0.500000
O O13 0.474102 0.605440 0.301607
O O14 0.681399 0.130619 0.592471
O O15 0.913434 0.159143 0.654593
O O16 0.933616 0.951958 0.640917
O O17 0.413904 0.156018 0.318463
#
# Coordination Sequence:
#
# PCOD9111557 Si02
#       8
#     2   2   2   2   2   2   2   2
#     4  10  22  43  63  94 130 165 219 258 315 387
#     4  10  22  42  64  97 126 165 220 260 319 376
#     4  11  25  44  63  95 131 171 216 261 324 381
#     4  10  23  43  63  94 128 164 215 267 321 377
#     4  10  20  43  66  92 124 167 220 265 319 369
#     4  10  23  40  68  94 127 166 216 274 313 371
#     4  10  22  41  66  91 130 170 211 266 314 378
#     4  11  24  42  65  95 131 174 210 260 321 383
#
# _framework density 24.650941
#
# number of rings (size 3 to 8) (size 9 to 14) (size 15 to 20)
#    0.000    1.750    2.500    0.375    3.500    4.000 
#    0.000    0.000    0.000    0.000    0.000    0.000 
#    0.000    0.000    0.000    0.000    0.000    0.000 
#
# Total GULP energy -89534.871231 kJ/mol
# GULP energy per Si atom -5595.929452 kJ/mol
# Density = 2.459483 g / cm^3
# Si number density = 24.650941 Si / 1000 Ang^3
#
#
#
# Elastic Constant Matrix: (Units=GPa)
#
#
# Indices 1 2 3 4 5 6 
#
# 1 75.1034 26.8940 28.7058 -22.9763 17.3056 -26.0991
# 2 26.8940 113.6279 38.4298 2.7287 20.8948 -49.0434
# 3 28.7058 38.4298 111.0816 1.4156 18.5725 -21.6257
# 4 -22.9763 2.7287 1.4156 55.0579 -10.7524 9.1928
# 5 17.3056 20.8948 18.5725 -10.7524 63.8567 -9.7814
# 6 -26.0991 -49.0434 -21.6257 9.1928 -9.7814 32.9369
#
#
#
# Elastic Compliance Matrix: (Units=1/GPa)
#
#
# Indices 1 2 3 4 5 6 
#
# 1 0.022116 0.005428 -0.003019 0.004918 -0.002782 0.021426
# 2 0.005428 0.030641 -0.001351 -0.008515 -0.004885 0.049965
# 3 -0.003019 -0.001351 0.011193 -0.002364 -0.001929 0.003032
# 4 0.004918 -0.008515 -0.002364 0.024093 0.003756 -0.015944
# 5 -0.002782 -0.004885 -0.001929 0.003756 0.018229 -0.006379
# 6 0.021426 0.049965 0.003032 -0.015944 -0.006379 0.126284
#
#
# Mechanical properties :
#
#
# Convention : Reuss Voigt Hill
#
# Bulk Modulus (GPa) = 15.13652 54.20802 34.67227
# Shear Modulus (GPa) = 19.80491 44.08919 31.94705
#
# Velocity S-wave (km/s) = 2.83753 4.23370 3.60387
# Velocity P-wave (km/s) = 4.10964 6.77768 5.60473
#
# Compressibility (1/GPa) = 0.06606537
#
# Stress axis : x y z
#
# Youngs Moduli (GPa) = 45.21517 32.63593 89.34252
#
# Poissons Ratio (x) = -0.17714 0.26977
# Poissons Ratio (y) = -0.24541 0.12068
# Poissons Ratio (z) = 0.13653 0.04408
#
# Static dielectric constant tensor:
#      x y z
#    x 1.995620 0.028270 -0.102820 
#    y 0.028270 1.937710 0.002220 
#    z -0.102820 0.002220 2.050760 
# 
# From -- ./inp_files/184316.got.cif
#   From: 2010.05.17/outbox.cif.g08.bks.cpg/sg2_93_cif.got.tgz:184316.got - 2010.06.03 11:33:40.
