data_PCOD9111568
_publ_section_title
;
Structure prediction by ZEFSAII (Michael W. Deem and Ramdas Pophale) SiO2 
 PCOD9111568
Probable space group: P -1
;
_chemical_formula_sum "Si O2"
_cell_formula_units_Z 16
_cell_length_a 15.368253
_cell_length_b 15.785978
_cell_length_c 8.677186
_cell_angle_alpha 113.746487
_cell_angle_beta 120.396214
_cell_angle_gamma 26.198864
_cell_volume 794.326006
_symmetry_space_group_name_H-M "P -1"
_symmetry_group_IT_number 2
_symmetry_cell_setting 'triclinic'
loop_
_space_group_symop_operation_xyz
x,y,z
-x,-y,-z
loop_
_atom_site_type_symbol
_atom_site_label
_atom_site_fract_x
_atom_site_fract_y
_atom_site_fract_z
Si Si1 0.948738 0.993758 0.784840
Si Si2 0.680912 0.085914 0.808395
Si Si3 0.024244 0.513646 0.855096
Si Si4 0.587562 0.352701 0.085205
Si Si5 0.307772 0.632108 0.313006
Si Si6 0.962561 0.760956 0.085762
Si Si7 0.436973 0.139464 0.446308
Si Si8 0.688747 0.882529 0.190820
O O1 0.837416 0.989622 0.737526
O O2 0.795697 0.187757 0.702245
O O3 0.175900 0.806959 0.769688
O O4 0.000000 0.000000 0.000000
O O5 0.490935 0.182871 0.633308
O O6 0.806593 0.928986 0.938798
O O7 0.603671 0.242108 0.933575
O O8 0.071266 0.584755 0.969645
O O9 0.802432 0.678188 0.691047
O O10 0.192408 0.306533 0.784536
O O11 0.000000 0.500000 0.000000
O O12 0.421247 0.486653 0.169738
O O13 0.500000 0.500000 0.000000
O O14 0.500000 0.500000 0.500000
O O15 0.120419 0.713537 0.250412
O O16 0.837614 0.822508 0.167505
O O17 0.500000 0.000000 0.500000
O O18 0.586412 0.019074 0.341097
O O19 0.500000 0.000000 0.000000
#
# Coordination Sequence:
#
# PCOD9111568 Si02
#       8
#     2   2   2   2   2   2   2   2
#     4  10  20  43  66  93 137 172 227 279 333 401
#     4  11  22  43  72  98 137 185 230 280 340 404
#     4  10  22  44  68  96 142 176 221 275 340 408
#     4  11  21  45  71  90 134 187 220 280 351 389
#     4  12  26  43  68 104 135 173 236 291 332 413
#     4  11  22  45  68  99 137 185 224 278 353 407
#     4  12  24  44  69 105 137 172 236 285 324 421
#     4  11  23  45  70  97 141 184 217 282 352 398
#
# _framework density 20.142862999999998
#
# number of rings (size 3 to 8) (size 9 to 14) (size 15 to 20)
#    0.000    1.000    8.750    0.000    0.000    6.000 
#    6.750    0.000    0.000    0.000    0.000    0.000 
#    0.000    0.000    0.000    0.000    0.000    0.000 
#
# Total GULP energy -89303.625011 kJ/mol
# GULP energy per Si atom -5581.476563 kJ/mol
# Density = 2.009702 g / cm^3
# Si number density = 20.142863 Si / 1000 Ang^3
#
#
#
# Elastic Constant Matrix: (Units=GPa)
#
#
# Indices 1 2 3 4 5 6 
#
# 1 89.5259 15.1774 31.9845 -7.0873 -3.0690 4.8299
# 2 15.1774 105.5781 27.5662 -18.3828 -11.8268 17.8428
# 3 31.9845 27.5662 101.0323 -26.3002 13.4011 13.2617
# 4 -7.0873 -18.3828 -26.3002 43.0312 -0.9809 -3.3614
# 5 -3.0690 -11.8268 13.4011 -0.9809 19.6970 1.4128
# 6 4.8299 17.8428 13.2617 -3.3614 1.4128 39.1260
#
#
#
# Elastic Compliance Matrix: (Units=1/GPa)
#
#
# Indices 1 2 3 4 5 6 
#
# 1 0.013112 -0.000089 -0.005045 -0.000850 0.005389 -0.000136
# 2 -0.000089 0.012957 -0.003421 0.003293 0.010605 -0.004838
# 3 -0.005045 -0.003421 0.016400 0.007247 -0.013475 -0.002266
# 4 -0.000850 0.003293 0.007247 0.028796 -0.001556 -0.001323
# 5 0.005389 0.010605 -0.013475 -0.001556 0.067317 -0.003499
# 6 -0.000136 -0.004838 -0.002266 -0.001323 -0.003499 0.028562
#
#
# Mechanical properties :
#
#
# Convention : Reuss Voigt Hill
#
# Bulk Modulus (GPa) = 39.43521 49.51027 44.47274
# Shear Modulus (GPa) = 25.94604 35.13139 30.53871
#
# Velocity S-wave (km/s) = 3.59291 4.18079 3.89794
# Velocity P-wave (km/s) = 6.06896 6.92374 6.51039
#
# Compressibility (1/GPa) = 0.02535805
#
# Stress axis : x y z
#
# Youngs Moduli (GPa) = 76.26461 77.18014 60.97703
#
# Poissons Ratio (x) = 0.00687 0.30763
# Poissons Ratio (y) = 0.00679 0.20862
# Poissons Ratio (z) = 0.38475 0.26406
#
# Static dielectric constant tensor:
#      x y z
#    x 1.729300 0.013270 0.019630 
#    y 0.013270 1.683370 -0.003400 
#    z 0.019630 -0.003400 1.703650 
# 
# From -- ./inp_files/315674.got.cif
#   From: 2010.05.17/outbox.cif.g08.bks.cpg/sg2_158_cif.got.tgz:315674.got - 2010.06.03 11:33:40.
