data_PCOD9111100
_publ_section_title
;
Structure prediction by ZEFSAII (Michael W. Deem and Ramdas Pophale) SiO2 
 PCOD9111100
Probable space group: P -1
;
_chemical_formula_sum "Si O2"
_cell_formula_units_Z 13
_cell_length_a 14.654985
_cell_length_b 8.227407
_cell_length_c 9.558383
_cell_angle_alpha 67.129185
_cell_angle_beta 132.590449
_cell_angle_gamma 141.831852
_cell_volume 497.597690
_symmetry_space_group_name_H-M "P -1"
_symmetry_group_IT_number 2
_symmetry_cell_setting 'triclinic'
loop_
_space_group_symop_operation_xyz
x,y,z
-x,-y,-z
loop_
_atom_site_type_symbol
_atom_site_label
_atom_site_fract_x
_atom_site_fract_y
_atom_site_fract_z
Si Si1 0.497202 0.725920 0.364737
Si Si2 0.211765 0.977347 0.211366
Si Si3 0.218718 0.076074 0.626174
Si Si4 0.920366 0.766181 0.768409
Si Si5 0.940717 0.393590 0.232824
Si Si6 0.500000 0.500000 0.000000
Si Si7 0.559135 0.953459 0.819776
O O1 0.573259 0.740971 0.290816
O O2 0.274558 0.478296 0.261806
O O3 0.626825 0.771038 0.601991
O O4 0.562593 0.004571 0.346459
O O5 0.056736 0.701498 0.236093
O O6 0.327659 0.975713 0.227771
O O7 0.098599 0.985713 0.988361
O O8 0.121323 0.122307 0.419505
O O9 0.288579 0.210036 0.807599
O O10 0.083474 0.755556 0.606510
O O11 0.962943 0.633268 0.772418
O O12 0.719642 0.184773 0.023706
O O13 0.458864 0.663056 0.858920
#
# Coordination Sequence:
#
# PCOD9111100 Si02
#       7
#     2   2   2   2   2   1   2
#     4  12  24  41  72 103 135 177 226 278 338 402
#     4  11  22  41  72  99 134 182 229 264 340 402
#     4  11  26  43  68 103 139 174 227 283 340 391
#     4  11  22  45  68  99 137 179 225 281 320 410
#     4  10  21  42  68  95 134 183 226 272 329 405
#     4  10  24  42  66  98 132 176 226 272 336 396
#     4  10  20  42  69 101 129 178 229 275 328 406
#
# _framework density 26.125520999999999
#
# number of rings (size 3 to 8) (size 9 to 14) (size 15 to 20)
#    0.000    1.231    3.077    3.231    2.154    3.692 
#    0.000    4.615    0.000    0.000    0.000    0.000 
#    0.000    0.000    0.000    0.000    0.000    0.000 
#
# Total GULP energy -72556.967580 kJ/mol
# GULP energy per Si atom -5581.305198 kJ/mol
# Density = 2.606606 g / cm^3
# Si number density = 26.125521 Si / 1000 Ang^3
#
#
#
# Elastic Constant Matrix: (Units=GPa)
#
#
# Indices 1 2 3 4 5 6 
#
# 1 48.3577 8.3721 3.4371 -2.9398 12.6692 15.5431
# 2 8.3721 97.4869 31.4224 -18.7292 0.9679 1.6719
# 3 3.4371 31.4224 125.4407 -12.7043 18.4246 1.1858
# 4 -2.9398 -18.7292 -12.7043 45.8984 -0.8977 7.1802
# 5 12.6692 0.9679 18.4246 -0.8977 16.9547 -4.9829
# 6 15.5431 1.6719 1.1858 7.1802 -4.9829 25.8646
#
#
#
# Elastic Compliance Matrix: (Units=1/GPa)
#
#
# Indices 1 2 3 4 5 6 
#
# 1 0.054096 -0.004573 0.010859 0.010889 -0.065602 -0.048372
# 2 -0.004573 0.012419 -0.003808 0.003456 0.007813 0.002666
# 3 0.010859 -0.003808 0.012932 0.004251 -0.025538 -0.012972
# 4 0.010889 0.003456 0.004251 0.027534 -0.016735 -0.017829
# 5 -0.065602 0.007813 -0.025538 -0.016735 0.156426 0.074871
# 6 -0.048372 0.002666 -0.012972 -0.017829 0.074871 0.087528
#
#
# Mechanical properties :
#
#
# Convention : Reuss Voigt Hill
#
# Bulk Modulus (GPa) = 11.84802 39.74982 25.79892
# Shear Modulus (GPa) = 13.36495 32.94710 23.15603
#
# Velocity S-wave (km/s) = 2.26424 3.55506 2.98037
# Velocity P-wave (km/s) = 3.37351 5.66562 4.66261
#
# Compressibility (1/GPa) = 0.08440228
#
# Stress axis : x y z
#
# Youngs Moduli (GPa) = 18.48572 80.52324 77.32465
#
# Poissons Ratio (x) = 0.36823 -0.83966
# Poissons Ratio (y) = 0.08454 0.29447
# Poissons Ratio (z) = -0.20073 0.30665
#
# Static dielectric constant tensor:
#      x y z
#    x 2.074630 -0.001900 -0.036830 
#    y -0.001900 2.064260 -0.032700 
#    z -0.036830 -0.032700 2.061820 
# 
# From -- ./inp_files/232578.got.cif
#   From: 2010.05.17/outbox.cif.g08.bks.cpg/sg2_117_cif.got.tgz:232578.got - 2010.06.03 11:33:40.
