data_PCOD9111834
_publ_section_title
;
Structure prediction by ZEFSAII (Michael W. Deem and Ramdas Pophale) SiO2 
 PCOD9111834
Probable space group: P -1
;
_chemical_formula_sum "Si O2"
_cell_formula_units_Z 14
_cell_length_a 16.561909
_cell_length_b 12.618572
_cell_length_c 10.883149
_cell_angle_alpha 149.228245
_cell_angle_beta 145.678664
_cell_angle_gamma 33.571818
_cell_volume 592.848918
_symmetry_space_group_name_H-M "P -1"
_symmetry_group_IT_number 2
_symmetry_cell_setting 'triclinic'
loop_
_space_group_symop_operation_xyz
x,y,z
-x,-y,-z
loop_
_atom_site_type_symbol
_atom_site_label
_atom_site_fract_x
_atom_site_fract_y
_atom_site_fract_z
Si Si1 0.653921 0.729812 0.278666
Si Si2 0.431039 0.583474 0.691858
Si Si3 0.053748 0.349918 0.039117
Si Si4 0.652591 0.832780 0.635906
Si Si5 0.399237 0.869339 0.695859
Si Si6 0.900733 0.746487 0.433534
Si Si7 0.845053 0.103315 0.172098
O O1 0.661298 0.669129 0.371391
O O2 0.820086 0.707014 0.414447
O O3 0.523756 0.995232 0.380527
O O4 0.575273 0.609981 0.971074
O O5 0.375204 0.744271 0.661659
O O6 0.951927 0.894338 0.191561
O O7 0.282646 0.689935 0.703559
O O8 0.962408 0.515345 0.200716
O O9 0.239737 0.279186 0.223618
O O10 0.496636 0.671193 0.524003
O O11 0.000000 0.500000 0.000000
O O12 0.741873 0.990934 0.861192
O O13 0.239664 0.053966 0.619206
O O14 0.500000 0.000000 0.000000
O O15 0.043387 0.822170 0.694708
#
# Coordination Sequence:
#
# PCOD9111834 Si02
#       7
#     2   2   2   2   2   2   2
#     4  10  20  43  71  97 129 184 228 276 325 397
#     4  10  22  42  67  88 138 173 226 278 328 399
#     4  10  23  42  66  95 139 178 219 276 340 398
#     4   8  21  45  69  93 137 180 228 270 332 399
#     4  11  24  40  63 101 129 173 227 281 338 388
#     4  12  25  36  67 101 134 174 223 279 342 394
#     4   9  23  43  60 104 130 178 218 277 335 398
#
# _framework density 23.614785000000001
#
# number of rings (size 3 to 8) (size 9 to 14) (size 15 to 20)
#    0.857    1.143    1.429    0.857    2.000    6.857 
#    0.000    1.429    0.000    5.143    0.000    0.000 
#    0.000    0.000    0.000    0.000    0.000    0.000 
#
# Total GULP energy -78213.407284 kJ/mol
# GULP energy per Si atom -5586.671949 kJ/mol
# Density = 2.356104 g / cm^3
# Si number density = 23.614785 Si / 1000 Ang^3
#
#
#
# Elastic Constant Matrix: (Units=GPa)
#
#
# Indices 1 2 3 4 5 6 
#
# 1 88.2795 23.9603 28.6439 8.4950 12.1683 -22.5240
# 2 23.9603 91.0956 30.4816 -1.2884 6.5677 -11.8117
# 3 28.6439 30.4816 78.5432 12.4316 -3.5268 -11.5997
# 4 8.4950 -1.2884 12.4316 39.6904 0.4154 -6.1553
# 5 12.1683 6.5677 -3.5268 0.4154 38.7635 -5.9743
# 6 -22.5240 -11.8117 -11.5997 -6.1553 -5.9743 37.9062
#
#
#
# Elastic Compliance Matrix: (Units=1/GPa)
#
#
# Indices 1 2 3 4 5 6 
#
# 1 0.015394 -0.001569 -0.004039 -0.001009 -0.003899 0.006644
# 2 -0.001569 0.013441 -0.004868 0.002609 -0.001966 0.001880
# 3 -0.004039 -0.004868 0.017164 -0.004522 0.003890 0.001214
# 4 -0.001009 0.002609 -0.004522 0.027416 -0.000333 0.003229
# 5 -0.003899 -0.001966 0.003890 -0.000333 0.028119 0.002639
# 6 0.006644 0.001880 0.001214 0.003229 0.002639 0.032226
#
#
# Mechanical properties :
#
#
# Convention : Reuss Voigt Hill
#
# Bulk Modulus (GPa) = 39.92508 47.12109 43.52309
# Shear Modulus (GPa) = 30.66335 34.92750 32.79542
#
# Velocity S-wave (km/s) = 3.60735 3.85002 3.73066
# Velocity P-wave (km/s) = 5.85612 6.30562 6.08503
#
# Compressibility (1/GPa) = 0.02504691
#
# Stress axis : x y z
#
# Youngs Moduli (GPa) = 64.96129 74.39685 58.26258
#
# Poissons Ratio (x) = 0.11674 0.23533
# Poissons Ratio (y) = 0.10193 0.28361
# Poissons Ratio (z) = 0.26239 0.36214
#
# Static dielectric constant tensor:
#      x y z
#    x 1.919540 0.055000 0.020140 
#    y 0.055000 1.912980 0.003710 
#    z 0.020140 0.003710 1.918890 
# 
# From -- ./inp_files/465653.got.cif
#   From: 2010.05.17/outbox.cif.g08.bks.cpg/sg2_233_cif.got.tgz:465653.got - 2010.06.03 11:33:40.
