data_PCOD9111101
_publ_section_title
;
Structure prediction by ZEFSAII (Michael W. Deem and Ramdas Pophale) SiO2 
 PCOD9111101
Probable space group: P -1
;
_chemical_formula_sum "Si O2"
_cell_formula_units_Z 16
_cell_length_a 9.386752
_cell_length_b 12.034080
_cell_length_c 15.607137
_cell_angle_alpha 115.712614
_cell_angle_beta 29.085410
_cell_angle_gamma 104.831041
_cell_volume 740.989030
_symmetry_space_group_name_H-M "P -1"
_symmetry_group_IT_number 2
_symmetry_cell_setting 'triclinic'
loop_
_space_group_symop_operation_xyz
x,y,z
-x,-y,-z
loop_
_atom_site_type_symbol
_atom_site_label
_atom_site_fract_x
_atom_site_fract_y
_atom_site_fract_z
Si Si1 0.387032 0.386338 0.556371
Si Si2 0.477520 0.227236 0.606173
Si Si3 0.659808 0.920925 0.125669
Si Si4 0.330471 0.729250 0.303644
Si Si5 0.783578 0.237980 0.982779
Si Si6 0.633365 0.781062 0.647417
Si Si7 0.108730 0.981086 0.790018
Si Si8 0.668695 0.456633 0.986995
O O1 0.500000 0.500000 0.500000
O O2 0.528358 0.340042 0.558566
O O3 0.455610 0.273117 0.412580
O O4 0.024836 0.430956 0.774038
O O5 0.676834 0.205367 0.578518
O O6 0.594607 0.103785 0.442090
O O7 0.117237 0.262200 0.828303
O O8 0.485133 0.812782 0.188670
O O9 0.450644 0.064336 0.262211
O O10 0.808153 0.938548 0.146438
O O11 0.915368 0.896321 0.909281
O O12 0.539865 0.583600 0.154277
O O13 0.995423 0.729727 0.451534
O O14 0.552701 0.262547 0.192607
O O15 0.639195 0.328564 0.008651
O O16 0.894923 0.081910 0.869705
O O17 0.500000 0.500000 0.000000
#
# Coordination Sequence:
#
# PCOD9111101 Si02
#       8
#     2   2   2   2   2   2   2   2
#     4  11  26  42  72  96 132 179 228 277 329 408
#     4  11  24  41  68 102 130 176 226 276 331 396
#     4  10  22  41  71  99 137 173 224 273 330 399
#     4  12  26  42  67 100 138 179 220 276 338 399
#     4  10  24  42  69  92 132 176 225 278 320 398
#     4  11  24  47  65 101 137 177 220 279 339 388
#     4  10  20  42  69 101 130 175 225 280 326 385
#     4  11  26  47  64  96 134 180 221 278 345 392
#
# _framework density 21.592763000000001
#
# number of rings (size 3 to 8) (size 9 to 14) (size 15 to 20)
#    0.000    1.250    3.750    0.750    5.250    2.500 
#    2.250    1.250    0.000    0.000    0.000    0.000 
#    0.000    0.000    0.000    0.000    0.000    0.000 
#
# Total GULP energy -89311.729051 kJ/mol
# GULP energy per Si atom -5581.983066 kJ/mol
# Density = 2.154362 g / cm^3
# Si number density = 21.592763 Si / 1000 Ang^3
#
#
#
# Elastic Constant Matrix: (Units=GPa)
#
#
# Indices 1 2 3 4 5 6 
#
# 1 59.6544 33.1838 11.7533 -9.8198 6.3762 -21.5364
# 2 33.1838 122.9749 48.4079 -23.6056 1.4335 -37.6117
# 3 11.7533 48.4079 93.5471 -9.5556 -1.2875 -10.4024
# 4 -9.8198 -23.6056 -9.5556 32.8777 -6.8806 0.5432
# 5 6.3762 1.4335 -1.2875 -6.8806 14.3570 1.7023
# 6 -21.5364 -37.6117 -10.4024 0.5432 1.7023 35.7962
#
#
#
# Elastic Compliance Matrix: (Units=1/GPa)
#
#
# Indices 1 2 3 4 5 6 
#
# 1 0.024203 -0.001374 -0.000614 0.003644 -0.010508 0.013384
# 2 -0.001374 0.017804 -0.006171 0.010629 0.001493 0.015854
# 3 -0.000614 -0.006171 0.013651 -0.000089 0.002426 -0.003000
# 4 0.003644 0.010629 -0.000089 0.042297 0.016169 0.011924
# 5 -0.010508 0.001493 0.002426 0.016169 0.083114 -0.008246
# 6 0.013384 0.015854 -0.003000 0.011924 -0.008246 0.051986
#
#
# Mechanical properties :
#
#
# Convention : Reuss Voigt Hill
#
# Bulk Modulus (GPa) = 25.41942 51.42958 38.42450
# Shear Modulus (GPa) = 19.04867 28.79495 23.92181
#
# Velocity S-wave (km/s) = 2.97337 3.65574 3.33207
# Velocity P-wave (km/s) = 4.85651 6.45669 5.71290
#
# Compressibility (1/GPa) = 0.03934000
#
# Stress axis : x y z
#
# Youngs Moduli (GPa) = 41.31668 56.16849 73.25552
#
# Poissons Ratio (x) = 0.07717 0.04498
# Poissons Ratio (y) = 0.05676 0.45205
# Poissons Ratio (z) = 0.02537 0.34661
#
# Static dielectric constant tensor:
#      x y z
#    x 1.798430 -0.007370 0.020240 
#    y -0.007370 1.813480 0.019140 
#    z 0.020240 0.019140 1.788590 
# 
# From -- ./inp_files/242459.got.cif
#   From: 2010.05.17/outbox.cif.g08.bks.cpg/sg2_122_cif.got.tgz:242459.got - 2010.06.03 11:33:40.
