data_PCOD9111991
_publ_section_title
;
Structure prediction by ZEFSAII (Michael W. Deem and Ramdas Pophale) SiO2 
 PCOD9111991
Probable space group: P -1
;
_chemical_formula_sum "Si O2"
_cell_formula_units_Z 13
_cell_length_a 5.296404
_cell_length_b 19.890580
_cell_length_c 9.095218
_cell_angle_alpha 135.457298
_cell_angle_beta 87.072661
_cell_angle_gamma 113.504758
_cell_volume 574.407714
_symmetry_space_group_name_H-M "P -1"
_symmetry_group_IT_number 2
_symmetry_cell_setting 'triclinic'
loop_
_space_group_symop_operation_xyz
x,y,z
-x,-y,-z
loop_
_atom_site_type_symbol
_atom_site_label
_atom_site_fract_x
_atom_site_fract_y
_atom_site_fract_z
Si Si1 0.267573 0.834706 0.497015
Si Si2 0.804912 0.711884 0.071161
Si Si3 0.406670 0.464927 0.779719
Si Si4 0.500000 0.000000 0.000000
Si Si5 0.325399 0.101605 0.670182
Si Si6 0.714460 0.324224 0.524397
Si Si7 0.727085 0.175805 0.032559
O O1 0.263812 0.914431 0.746345
O O2 0.474275 0.909443 0.474398
O O3 0.384520 0.766793 0.483001
O O4 0.981091 0.746320 0.275214
O O5 0.634415 0.778378 0.179906
O O6 0.595155 0.579447 0.861568
O O7 0.022506 0.762334 0.002512
O O8 0.510984 0.377718 0.602762
O O9 0.058721 0.414299 0.688143
O O10 0.500000 0.500000 0.000000
O O11 0.274170 0.916870 0.007319
O O12 0.429416 0.113136 0.849979
O O13 0.000000 0.000000 0.500000
O O14 0.711923 0.262218 0.278688
#
# Coordination Sequence:
#
# PCOD9111991 Si02
#       7
#     2   2   2   1   2   2   2
#     4  10  22  42  66  98 136 178 230 282 344 412
#     4  11  24  41  70  96 138 179 229 280 345 413
#     4  12  25  44  74 102 143 182 234 280 345 409
#     4  10  20  44  66  90 134 178 222 292 344 408
#     4  11  23  42  68 100 133 180 231 282 351 412
#     4  11  26  45  71 106 138 185 230 288 341 405
#     4  10  25  44  66 100 138 176 230 286 350 408
#
# _framework density 22.632007000000002
#
# number of rings (size 3 to 8) (size 9 to 14) (size 15 to 20)
#    0.000    1.231    1.538    3.231    6.462    3.692 
#    0.000    3.077    0.000    0.000    0.000    0.000 
#    0.000    0.000    0.000    0.000    0.000    0.000 
#
# Total GULP energy -72383.808966 kJ/mol
# GULP energy per Si atom -5567.985305 kJ/mol
# Density = 2.258050 g / cm^3
# Si number density = 22.632007 Si / 1000 Ang^3
#
#
#
# Elastic Constant Matrix: (Units=GPa)
#
#
# Indices 1 2 3 4 5 6 
#
# 1 20.3463 -4.6867 -5.7012 -3.5211 1.0590 0.9042
# 2 -4.6867 130.3074 31.3695 -8.2795 12.1124 -2.6906
# 3 -5.7012 31.3695 99.1224 -27.3864 4.1908 3.2378
# 4 -3.5211 -8.2795 -27.3864 44.3301 -1.0431 -0.6598
# 5 1.0590 12.1124 4.1908 -1.0431 36.4577 11.8075
# 6 0.9042 -2.6906 3.2378 -0.6598 11.8075 31.2951
#
#
#
# Elastic Compliance Matrix: (Units=1/GPa)
#
#
# Indices 1 2 3 4 5 6 
#
# 1 0.052175 0.001374 0.004679 0.007231 -0.001989 -0.000971
# 2 0.001374 0.008710 -0.002583 0.000095 -0.003362 0.002247
# 3 0.004679 -0.002583 0.013495 0.008201 -0.000094 -0.001545
# 4 0.007231 0.000095 0.008201 0.028205 -0.000262 -0.000356
# 5 -0.001989 -0.003362 -0.000094 -0.000262 0.032673 -0.012555
# 6 -0.000971 0.002247 -0.001545 -0.000356 -0.012555 0.037064
#
#
# Mechanical properties :
#
#
# Convention : Reuss Voigt Hill
#
# Bulk Modulus (GPa) = 12.29669 32.41550 22.35610
# Shear Modulus (GPa) = 25.97564 37.66956 31.82260
#
# Velocity S-wave (km/s) = 3.39151 4.08418 3.75385
# Velocity P-wave (km/s) = 4.55868 6.04935 5.35613
#
# Compressibility (1/GPa) = 0.08132268
#
# Stress axis : x y z
#
# Youngs Moduli (GPa) = 19.16638 114.80796 74.09944
#
# Poissons Ratio (x) = -0.15778 -0.34675
# Poissons Ratio (y) = -0.02634 0.19137
# Poissons Ratio (z) = -0.08969 0.29650
#
# Static dielectric constant tensor:
#      x y z
#    x 1.878050 -0.009560 -0.024870 
#    y -0.009560 1.864060 0.039670 
#    z -0.024870 0.039670 1.834190 
# 
# From -- ./inp_files/23112.got.cif
#   From: 2010.05.17/outbox.cif.g08.bks.cpg/sg2_12_cif.got.tgz:23112.got - 2010.06.03 11:33:40.
