data_PCOD9111643
_publ_section_title
;
Structure prediction by ZEFSAII (Michael W. Deem and Ramdas Pophale) SiO2 
 PCOD9111643
Probable space group: P -1
;
_chemical_formula_sum "Si O2"
_cell_formula_units_Z 12
_cell_length_a 10.669295
_cell_length_b 13.791141
_cell_length_c 6.927922
_cell_angle_alpha 78.251945
_cell_angle_beta 97.870675
_cell_angle_gamma 148.762469
_cell_volume 516.179522
_symmetry_space_group_name_H-M "P -1"
_symmetry_group_IT_number 2
_symmetry_cell_setting 'triclinic'
loop_
_space_group_symop_operation_xyz
x,y,z
-x,-y,-z
loop_
_atom_site_type_symbol
_atom_site_label
_atom_site_fract_x
_atom_site_fract_y
_atom_site_fract_z
Si Si1 0.173537 0.561894 0.859199
Si Si2 0.453554 0.857888 0.484300
Si Si3 0.272099 0.145925 0.476290
Si Si4 0.902074 0.712076 0.016776
Si Si5 0.480654 0.479341 0.277068
Si Si6 0.426681 0.150911 0.864140
O O1 0.080307 0.389339 0.870550
O O2 0.564891 0.166877 0.741113
O O3 0.766422 0.336319 0.362290
O O4 0.423674 0.725806 0.966453
O O5 0.682836 0.937322 0.544077
O O6 0.500000 0.000000 0.500000
O O7 0.836719 0.067684 0.054262
O O8 0.407369 0.314076 0.301962
O O9 0.389783 0.219728 0.685792
O O10 0.000000 0.000000 0.500000
O O11 0.735931 0.662714 0.150532
O O12 0.738987 0.607427 0.830107
O O13 0.500000 0.500000 0.500000
O O14 0.000000 0.500000 0.000000
#
# Coordination Sequence:
#
# PCOD9111643 Si02
#       6
#     2   2   2   2   2   2
#     4  12  26  44  70  99 136 182 236 286 342 416
#     4  10  23  44  67  98 139 180 231 283 344 408
#     4  10  20  43  67  98 137 176 221 278 343 410
#     4  11  23  42  66 101 137 175 228 283 338 416
#     4  11  22  41  68  99 138 178 224 279 347 410
#     4  10  24  43  69  98 137 179 231 280 352 402
#
# _framework density 23.247724999999999
#
# number of rings (size 3 to 8) (size 9 to 14) (size 15 to 20)
#    1.000    0.333    3.333    2.000    0.000    6.000 
#    0.000    5.000    0.000    0.000    0.000    0.000 
#    0.000    0.000    0.000    0.000    0.000    0.000 
#
# Total GULP energy -67050.584619 kJ/mol
# GULP energy per Si atom -5587.548718 kJ/mol
# Density = 2.319481 g / cm^3
# Si number density = 23.247725 Si / 1000 Ang^3
#
#
#
# Elastic Constant Matrix: (Units=GPa)
#
#
# Indices 1 2 3 4 5 6 
#
# 1 103.7789 24.2538 1.6503 -5.8318 5.5062 -2.8648
# 2 24.2538 108.6772 37.3998 -31.1542 3.7901 13.3486
# 3 1.6503 37.3998 88.1546 -8.5940 -10.8243 7.7416
# 4 -5.8318 -31.1542 -8.5940 40.1913 -0.9113 3.4782
# 5 5.5062 3.7901 -10.8243 -0.9113 31.8124 -12.5338
# 6 -2.8648 13.3486 7.7416 3.4782 -12.5338 40.4004
#
#
#
# Elastic Compliance Matrix: (Units=1/GPa)
#
#
# Indices 1 2 3 4 5 6 
#
# 1 0.010342 -0.002945 0.000779 -0.000753 -0.000634 0.001425
# 2 -0.002945 0.016230 -0.005808 0.011407 -0.005943 -0.007284
# 3 0.000779 -0.005808 0.014281 -0.001304 0.005836 0.001161
# 4 -0.000753 0.011407 -0.001304 0.033912 -0.003712 -0.007644
# 5 -0.000634 -0.005943 0.005836 -0.003712 0.039387 0.013340
# 6 0.001425 -0.007284 0.001161 -0.007644 0.013340 0.031834
#
#
# Mechanical properties :
#
#
# Convention : Reuss Voigt Hill
#
# Bulk Modulus (GPa) = 40.15341 47.46873 43.81107
# Shear Modulus (GPa) = 29.37089 38.30128 33.83608
#
# Velocity S-wave (km/s) = 3.55827 4.06338 3.81919
# Velocity P-wave (km/s) = 5.84732 6.51749 6.19148
#
# Compressibility (1/GPa) = 0.02490449
#
# Stress axis : x y z
#
# Youngs Moduli (GPa) = 96.68871 61.61558 70.02350
#
# Poissons Ratio (x) = 0.18148 -0.05458
# Poissons Ratio (y) = 0.28478 0.40672
# Poissons Ratio (z) = -0.07537 0.35789
#
# Static dielectric constant tensor:
#      x y z
#    x 1.939070 -0.005970 -0.008620 
#    y -0.005970 1.858300 0.014310 
#    z -0.008620 0.014310 1.892900 
# 
# From -- ./inp_files/80510.got.cif
#   From: 2010.05.17/outbox.cif.g08.bks.cpg/sg2_41_cif.got.tgz:80510.got - 2010.06.03 11:33:40.
