data_PCOD9111367
_publ_section_title
;
Structure prediction by ZEFSAII (Michael W. Deem and Ramdas Pophale) SiO2 
 PCOD9111367
Probable space group: P -1
;
_chemical_formula_sum "Si O2"
_cell_formula_units_Z 15
_cell_length_a 14.043482
_cell_length_b 12.910474
_cell_length_c 13.821787
_cell_angle_alpha 146.453311
_cell_angle_beta 31.019583
_cell_angle_gamma 151.101129
_cell_volume 588.273828
_symmetry_space_group_name_H-M "P -1"
_symmetry_group_IT_number 2
_symmetry_cell_setting 'triclinic'
loop_
_space_group_symop_operation_xyz
x,y,z
-x,-y,-z
loop_
_atom_site_type_symbol
_atom_site_label
_atom_site_fract_x
_atom_site_fract_y
_atom_site_fract_z
Si Si1 0.802720 0.789566 0.692438
Si Si2 0.798987 0.638924 0.357213
Si Si3 0.000000 0.500000 0.500000
Si Si4 0.547998 0.293224 0.624760
Si Si5 0.273220 0.389937 0.051142
Si Si6 0.732589 0.233655 0.005131
Si Si7 0.310291 0.106866 0.494028
Si Si8 0.624347 0.256878 0.926615
O O1 0.796345 0.724997 0.534123
O O2 0.689505 0.555197 0.667382
O O3 0.639267 0.865184 0.922017
O O4 0.054264 0.966710 0.644055
O O5 0.665863 0.697945 0.444769
O O6 0.055369 0.778599 0.202571
O O7 0.737342 0.381838 0.204554
O O8 0.730786 0.307484 0.548070
O O9 0.919838 0.648580 0.740597
O O10 0.476175 0.167680 0.486233
O O11 0.312691 0.225211 0.825091
O O12 0.290862 0.569966 0.099687
O O13 0.500000 0.500000 0.000000
O O14 0.747376 0.385630 0.018247
O O15 0.500000 0.000000 0.000000
O O16 0.316736 0.922162 0.282992
#
# Coordination Sequence:
#
# PCOD9111367 Si02
#       8
#     2   2   1   2   2   2   2   2
#     4  11  24  43  65  97 144 188 233 286 340 411
#     4  11  25  42  66  98 144 193 235 286 346 402
#     4  10  20  42  74  96 126 174 228 294 360 410
#     4  10  24  42  69  98 134 179 226 292 353 413
#     4   9  20  43  69 100 133 174 230 291 352 414
#     4  11  25  44  67  99 141 192 242 287 339 413
#     4  12  25  43  65 104 145 186 238 284 343 420
#     4  11  24  40  68 100 142 186 236 286 343 417
#
# _framework density 25.498329999999999
#
# number of rings (size 3 to 8) (size 9 to 14) (size 15 to 20)
#    0.000    1.333    1.333    3.600    3.733    2.133 
#    0.000    6.000    0.000   12.000    0.000    0.000 
#    0.000    0.000    0.000    0.000    0.000    0.000 
#
# Total GULP energy -83523.995133 kJ/mol
# GULP energy per Si atom -5568.266342 kJ/mol
# Density = 2.544030 g / cm^3
# Si number density = 25.498330 Si / 1000 Ang^3
#
#
#
# Elastic Constant Matrix: (Units=GPa)
#
#
# Indices 1 2 3 4 5 6 
#
# 1 95.2335 10.1638 29.0169 -0.0030 4.8782 18.2505
# 2 10.1638 57.8366 14.2478 -6.1733 -14.6022 23.7039
# 3 29.0169 14.2478 164.7833 -26.4110 -21.2695 11.0211
# 4 -0.0030 -6.1733 -26.4110 39.5997 14.5842 -8.5249
# 5 4.8782 -14.6022 -21.2695 14.5842 36.7744 0.7859
# 6 18.2505 23.7039 11.0211 -8.5249 0.7859 29.6763
#
#
#
# Elastic Compliance Matrix: (Units=1/GPa)
#
#
# Indices 1 2 3 4 5 6 
#
# 1 0.012853 0.001357 -0.002402 -0.002846 -0.001237 -0.008880
# 2 0.001357 0.032276 -0.000179 -0.007245 0.016027 -0.029054
# 3 -0.002402 -0.000179 0.007529 0.003821 0.003090 -0.000160
# 4 -0.002846 -0.007245 0.003821 0.035742 -0.014823 0.016778
# 5 -0.001237 0.016027 0.003090 -0.014823 0.041783 -0.018553
# 6 -0.008880 -0.029054 -0.000160 0.016778 -0.018553 0.067736
#
#
# Mechanical properties :
#
#
# Convention : Reuss Voigt Hill
#
# Bulk Modulus (GPa) = 19.91685 47.19005 33.55345
# Shear Modulus (GPa) = 23.03027 38.83841 30.93434
#
# Velocity S-wave (km/s) = 3.00860 3.90702 3.48687
# Velocity P-wave (km/s) = 4.46059 6.23702 5.42205
#
# Compressibility (1/GPa) = 0.05020875
#
# Stress axis : x y z
#
# Youngs Moduli (GPa) = 77.80363 30.98230 132.81803
#
# Poissons Ratio (x) = -0.04203 0.31909
# Poissons Ratio (y) = -0.10555 0.02377
# Poissons Ratio (z) = 0.18692 0.00554
#
# Static dielectric constant tensor:
#      x y z
#    x 2.138090 -0.158180 0.002640 
#    y -0.158180 2.272050 -0.005140 
#    z 0.002640 -0.005140 2.058640 
# 
# From -- ./inp_files/534542.got.cif
#   From: 2010.05.17/outbox.cif.g08.bks.cpg/sg2_268_cif.got.tgz:534542.got - 2010.06.03 11:33:40.
