data_PCOD9111530
_publ_section_title
;
Structure prediction by ZEFSAII (Michael W. Deem and Ramdas Pophale) SiO2 
 PCOD9111530
Probable space group: P -1
;
_chemical_formula_sum "Si O2"
_cell_formula_units_Z 15
_cell_length_a 8.623505
_cell_length_b 8.099112
_cell_length_c 19.777502
_cell_angle_alpha 43.430074
_cell_angle_beta 52.757396
_cell_angle_gamma 46.776516
_cell_volume 675.744293
_symmetry_space_group_name_H-M "P -1"
_symmetry_group_IT_number 2
_symmetry_cell_setting 'triclinic'
loop_
_space_group_symop_operation_xyz
x,y,z
-x,-y,-z
loop_
_atom_site_type_symbol
_atom_site_label
_atom_site_fract_x
_atom_site_fract_y
_atom_site_fract_z
Si Si1 0.115327 0.049023 0.593172
Si Si2 0.884258 0.340372 0.112532
Si Si3 0.500000 0.500000 0.500000
Si Si4 0.949542 0.509666 0.407032
Si Si5 0.821644 0.273591 0.795042
Si Si6 0.659848 0.040472 0.698780
Si Si7 0.573372 0.496141 0.270030
Si Si8 0.470058 0.437336 0.103226
O O1 0.067778 0.259651 0.604350
O O2 0.119720 0.218899 0.476364
O O3 0.912010 0.978955 0.660493
O O4 0.332462 0.778397 0.630185
O O5 0.766599 0.465324 0.177254
O O6 0.696141 0.347229 0.110309
O O7 0.059495 0.033565 0.167166
O O8 0.000000 0.500000 0.000000
O O9 0.724764 0.495309 0.468908
O O10 0.574337 0.196519 0.604833
O O11 0.012892 0.595465 0.294086
O O12 0.629178 0.449321 0.741546
O O13 0.710656 0.302750 0.887909
O O14 0.514470 0.259146 0.728133
O O15 0.614583 0.786069 0.797431
O O16 0.500000 0.500000 0.000000
#
# Coordination Sequence:
#
# PCOD9111530 Si02
#       8
#     2   2   1   2   2   2   2   2
#     4  10  22  40  69  99 136 179 224 276 335 411
#     4  11  26  46  71  98 132 182 232 283 340 408
#     4  10  24  40  70  98 148 178 218 286 340 402
#     4  10  20  43  66 101 140 177 227 273 338 410
#     4  11  24  46  71 100 136 182 231 281 336 415
#     4  11  24  45  66 103 139 179 228 282 343 408
#     4  11  23  41  73  99 133 181 229 285 332 408
#     4  11  29  45  70 102 141 179 226 290 345 404
#
# _framework density 22.197745999999999
#
# number of rings (size 3 to 8) (size 9 to 14) (size 15 to 20)
#    0.000    1.333    2.667    0.800    7.467    5.333 
#    0.000    2.667    0.000    0.000    0.000    0.000 
#    0.000    0.000    0.000    0.000    0.000    0.000 
#
# Total GULP energy -83657.134187 kJ/mol
# GULP energy per Si atom -5577.142279 kJ/mol
# Density = 2.214722 g / cm^3
# Si number density = 22.197746 Si / 1000 Ang^3
#
#
#
# Elastic Constant Matrix: (Units=GPa)
#
#
# Indices 1 2 3 4 5 6 
#
# 1 55.9215 8.2500 21.2875 -10.6388 -9.9985 -9.7805
# 2 8.2500 89.3637 21.9344 1.6224 -1.2064 0.1399
# 3 21.2875 21.9344 109.9854 -17.8175 -18.6014 -9.3915
# 4 -10.6388 1.6224 -17.8175 26.8273 0.1911 6.2558
# 5 -9.9985 -1.2064 -18.6014 0.1911 41.3955 -4.5831
# 6 -9.7805 0.1399 -9.3915 6.2558 -4.5831 15.4809
#
#
#
# Elastic Compliance Matrix: (Units=1/GPa)
#
#
# Indices 1 2 3 4 5 6 
#
# 1 0.023159 -0.001945 -0.000910 0.005415 0.006640 0.013875
# 2 -0.001945 0.012146 -0.003028 -0.002919 -0.001741 -0.002511
# 3 -0.000910 -0.003028 0.012473 0.006643 0.005941 0.006094
# 4 0.005415 -0.002919 0.006643 0.046427 0.002837 -0.010443
# 5 0.006640 -0.001741 0.005941 0.002837 0.030091 0.015576
# 6 0.013875 -0.002511 0.006094 -0.010443 0.015576 0.085912
#
#
# Mechanical properties :
#
#
# Convention : Reuss Voigt Hill
#
# Bulk Modulus (GPa) = 27.76683 39.80163 33.78423
# Shear Modulus (GPa) = 21.36946 30.32732 25.84839
#
# Velocity S-wave (km/s) = 3.10608 3.70027 3.41612
# Velocity P-wave (km/s) = 5.03981 6.01875 5.55091
#
# Compressibility (1/GPa) = 0.03601420
#
# Stress axis : x y z
#
# Youngs Moduli (GPa) = 43.17907 82.32934 80.17137
#
# Poissons Ratio (x) = 0.16015 0.07293
# Poissons Ratio (y) = 0.08399 0.24272
# Poissons Ratio (z) = 0.03928 0.24926
#
# Static dielectric constant tensor:
#      x y z
#    x 1.810850 0.033400 0.035220 
#    y 0.033400 1.875090 0.051730 
#    z 0.035220 0.051730 1.818800 
# 
# From -- ./inp_files/38957.got.cif
#   From: 2010.05.17/outbox.cif.g08.bks.cpg/sg2_20_cif.got.tgz:38957.got - 2010.06.03 11:33:40.
