data_PCOD9111442
_publ_section_title
;
Structure prediction by ZEFSAII (Michael W. Deem and Ramdas Pophale) SiO2 
 PCOD9111442
Probable space group: P -1
;
_chemical_formula_sum "Si O2"
_cell_formula_units_Z 15
_cell_length_a 8.962390
_cell_length_b 14.460260
_cell_length_c 21.042347
_cell_angle_alpha 28.691707
_cell_angle_beta 150.882610
_cell_angle_gamma 138.884284
_cell_volume 636.098712
_symmetry_space_group_name_H-M "P -1"
_symmetry_group_IT_number 2
_symmetry_cell_setting 'triclinic'
loop_
_space_group_symop_operation_xyz
x,y,z
-x,-y,-z
loop_
_atom_site_type_symbol
_atom_site_label
_atom_site_fract_x
_atom_site_fract_y
_atom_site_fract_z
Si Si1 0.809318 0.361241 0.199898
Si Si2 0.000000 0.000000 0.000000
Si Si3 0.656714 0.455781 0.885089
Si Si4 0.621886 0.141841 0.513857
Si Si5 0.185282 0.673503 0.100518
Si Si6 0.922555 0.560702 0.244951
Si Si7 0.846313 0.623599 0.428122
Si Si8 0.379122 0.036622 0.244205
O O1 0.950955 0.395456 0.301930
O O2 0.679361 0.152716 0.268373
O O3 0.041529 0.462814 0.178616
O O4 0.500000 0.500000 0.000000
O O5 0.996974 0.231877 0.875297
O O6 0.229343 0.950770 0.177673
O O7 0.503888 0.647616 0.681421
O O8 0.675826 0.291259 0.938566
O O9 0.439624 0.408742 0.890276
O O10 0.000000 0.500000 0.000000
O O11 0.985452 0.175027 0.627487
O O12 0.500000 0.000000 0.500000
O O13 0.538294 0.092167 0.585104
O O14 0.485165 0.666497 0.259668
O O15 0.899439 0.820810 0.918069
O O16 0.087956 0.493581 0.411793
O O17 0.000000 0.500000 0.500000
#
# Coordination Sequence:
#
# PCOD9111442 Si02
#       8
#     2   1   2   2   2   2   2   2
#     4  10  20  43  63  91 132 177 220 262 336 405
#     4  12  24  40  64 100 136 178 210 278 348 384
#     4  11  23  41  71  95 127 179 229 268 332 407
#     4  11  23  44  67 101 135 175 218 290 337 380
#     4  11  22  42  67  99 123 185 228 265 327 413
#     4  11  22  42  66  91 133 180 210 274 336 396
#     4  11  22  43  66  94 136 175 223 272 336 393
#     4  11  24  43  69  97 141 175 223 279 340 398
#
# _framework density 23.581244000000002
#
# number of rings (size 3 to 8) (size 9 to 14) (size 15 to 20)
#    0.000    1.067    5.333    4.800    0.000    1.067 
#    2.400    2.000    0.000    0.000    0.000    0.000 
#    0.000    0.000    0.000    0.000    0.000    0.000 
#
# Total GULP energy -83520.397407 kJ/mol
# GULP energy per Si atom -5568.026494 kJ/mol
# Density = 2.352757 g / cm^3
# Si number density = 23.581244 Si / 1000 Ang^3
#
#
#
# Elastic Constant Matrix: (Units=GPa)
#
#
# Indices 1 2 3 4 5 6 
#
# 1 72.5704 18.4446 0.2382 3.7422 -12.8265 -11.6552
# 2 18.4446 110.3637 21.2797 14.6650 -5.4734 -3.6321
# 3 0.2382 21.2797 72.9026 12.2157 -14.0223 2.0931
# 4 3.7422 14.6650 12.2157 34.2221 0.0747 -6.3148
# 5 -12.8265 -5.4734 -14.0223 0.0747 47.6782 13.3697
# 6 -11.6552 -3.6321 2.0931 -6.3148 13.3697 38.7814
#
#
#
# Elastic Compliance Matrix: (Units=1/GPa)
#
#
# Indices 1 2 3 4 5 6 
#
# 1 0.015544 -0.002514 0.001342 -0.000538 0.003420 0.003097
# 2 -0.002514 0.010390 -0.002501 -0.003307 -0.000179 -0.000124
# 3 0.001342 -0.002501 0.016671 -0.005730 0.006036 -0.003745
# 4 -0.000538 -0.003307 -0.005730 0.034009 -0.004174 0.006814
# 5 0.003420 -0.000179 0.006036 -0.004174 0.026185 -0.009021
# 6 0.003097 -0.000124 -0.003745 0.006814 -0.009021 0.031127
#
#
# Mechanical properties :
#
#
# Convention : Reuss Voigt Hill
#
# Bulk Modulus (GPa) = 28.36147 37.30683 32.83415
# Shear Modulus (GPa) = 32.67468 38.52794 35.60131
#
# Velocity S-wave (km/s) = 3.72643 4.04646 3.88974
# Velocity P-wave (km/s) = 5.52886 6.13895 5.84187
#
# Compressibility (1/GPa) = 0.03525911
#
# Stress axis : x y z
#
# Youngs Moduli (GPa) = 64.33437 96.24850 59.98354
#
# Poissons Ratio (x) = 0.24192 -0.08049
# Poissons Ratio (y) = 0.16171 0.15003
# Poissons Ratio (z) = -0.08633 0.24074
#
# Static dielectric constant tensor:
#      x y z
#    x 1.911270 -0.056270 -0.000460 
#    y -0.056270 1.922440 0.042500 
#    z -0.000460 0.042500 1.907480 
# 
# From -- ./inp_files/590258.got.cif
#   From: 2010.05.17/outbox.cif.g08.bks.cpg/sg2_296_cif.got.tgz:590258.got - 2010.06.03 11:33:40.
