data_PCOD9111221
_publ_section_title
;
Structure prediction by ZEFSAII (Michael W. Deem and Ramdas Pophale) SiO2 
 PCOD9111221
Probable space group: P -1
;
_chemical_formula_sum "Si O2"
_cell_formula_units_Z 16
_cell_length_a 7.773437
_cell_length_b 17.120990
_cell_length_c 14.594973
_cell_angle_alpha 142.848964
_cell_angle_beta 36.453115
_cell_angle_gamma 135.081203
_cell_volume 684.734655
_symmetry_space_group_name_H-M "P -1"
_symmetry_group_IT_number 2
_symmetry_cell_setting 'triclinic'
loop_
_space_group_symop_operation_xyz
x,y,z
-x,-y,-z
loop_
_atom_site_type_symbol
_atom_site_label
_atom_site_fract_x
_atom_site_fract_y
_atom_site_fract_z
Si Si1 0.627052 0.778491 0.112359
Si Si2 0.159444 0.887608 0.865973
Si Si3 0.314491 0.056737 0.210091
Si Si4 0.397577 0.661848 0.604607
Si Si5 0.775504 0.003367 0.515539
Si Si6 0.932399 0.547860 0.311816
Si Si7 0.715088 0.489883 0.049580
Si Si8 0.554358 0.271944 0.653541
O O1 0.391980 0.874924 0.292920
O O2 0.618940 0.743532 0.189765
O O3 0.509241 0.649318 0.980596
O O4 0.951004 0.845809 0.004674
O O5 0.490357 0.968102 0.809040
O O6 0.230033 0.739816 0.674786
O O7 0.000000 0.000000 0.000000
O O8 0.417806 0.213544 0.302841
O O9 0.978199 0.018018 0.349070
O O10 0.500000 0.000000 0.000000
O O11 0.658053 0.580205 0.399985
O O12 0.178116 0.567389 0.676609
O O13 0.533544 0.869733 0.487623
O O14 0.000000 0.000000 0.500000
O O15 0.110311 0.671807 0.408320
O O16 0.161541 0.508502 0.105427
O O17 0.558709 0.613504 0.246447
O O18 0.000000 0.500000 0.000000
#
# Coordination Sequence:
#
# PCOD9111221 Si02
#       8
#     2   2   2   2   2   2   2   2
#     4  11  22  42  65  96 132 177 232 275 328 415
#     4  10  21  38  61  91 130 175 216 278 337 393
#     4  10  22  39  65  92 135 177 221 268 336 412
#     4   9  21  39  69  90 134 169 234 268 339 397
#     4  12  25  42  67 103 140 172 222 291 346 396
#     4  10  20  42  70  95 124 183 224 286 319 420
#     4  11  23  39  65  96 136 169 223 281 348 394
#     4  11  23  39  69  96 130 173 234 272 338 407
#
# _framework density 23.366716
#
# number of rings (size 3 to 8) (size 9 to 14) (size 15 to 20)
#    0.750    0.750    0.000    7.125    1.750    1.000 
#    0.000    0.000    2.750    3.000    0.000    0.000 
#    0.000    0.000    0.000    0.000    0.000    0.000 
#
# Total GULP energy -89099.759963 kJ/mol
# GULP energy per Si atom -5568.734998 kJ/mol
# Density = 2.331353 g / cm^3
# Si number density = 23.366716 Si / 1000 Ang^3
#
#
#
# Elastic Constant Matrix: (Units=GPa)
#
#
# Indices 1 2 3 4 5 6 
#
# 1 77.6926 30.3823 15.7254 13.5392 -24.2999 2.3494
# 2 30.3823 139.7776 38.5469 3.9416 -5.0362 -2.0844
# 3 15.7254 38.5469 90.7306 4.5149 -30.0544 -14.1159
# 4 13.5392 3.9416 4.5149 49.2207 -4.1121 -3.3959
# 5 -24.2999 -5.0362 -30.0544 -4.1121 44.9406 3.0244
# 6 2.3494 -2.0844 -14.1159 -3.3959 3.0244 25.4101
#
#
#
# Elastic Compliance Matrix: (Units=1/GPa)
#
#
# Indices 1 2 3 4 5 6 
#
# 1 0.018107 -0.003966 0.001731 -0.004155 0.010314 -0.002821
# 2 -0.003966 0.009154 -0.004766 0.000376 -0.004206 -0.000979
# 3 0.001731 -0.004766 0.017913 -0.000200 0.011827 0.007966
# 4 -0.004155 0.000376 -0.000200 0.021624 -0.000579 0.003263
# 5 0.010314 -0.004206 0.011827 -0.000579 0.035145 0.001011
# 6 -0.002821 -0.000979 0.007966 0.003263 0.001011 0.044276
#
#
# Mechanical properties :
#
#
# Convention : Reuss Voigt Hill
#
# Bulk Modulus (GPa) = 32.07992 53.05666 42.56829
# Shear Modulus (GPa) = 29.30606 38.81736 34.06171
#
# Velocity S-wave (km/s) = 3.54528 4.08023 3.82213
# Velocity P-wave (km/s) = 5.52426 6.70471 6.14290
#
# Compressibility (1/GPa) = 0.03117215
#
# Stress axis : x y z
#
# Youngs Moduli (GPa) = 55.22699 109.24298 55.82409
#
# Poissons Ratio (x) = 0.43331 -0.09664
# Poissons Ratio (y) = 0.21906 0.26604
# Poissons Ratio (z) = -0.09560 0.52062
#
# Static dielectric constant tensor:
#      x y z
#    x 2.634410 -0.114830 0.321130 
#    y -0.114830 1.877490 -0.018360 
#    z 0.321130 -0.018360 2.081190 
# 
# From -- ./inp_files/562934.got.cif
#   From: 2010.05.17/outbox.cif.g08.bks.cpg/sg2_282_cif.got.tgz:562934.got - 2010.06.03 11:33:40.
