data_PCOD9111744
_publ_section_title
;
Structure prediction by ZEFSAII (Michael W. Deem and Ramdas Pophale) SiO2 
 PCOD9111744
Probable space group: P -1
;
_chemical_formula_sum "Si O2"
_cell_formula_units_Z 16
_cell_length_a 16.640269
_cell_length_b 16.681400
_cell_length_c 12.932791
_cell_angle_alpha 32.644307
_cell_angle_beta 155.007828
_cell_angle_gamma 152.469201
_cell_volume 687.449319
_symmetry_space_group_name_H-M "P -1"
_symmetry_group_IT_number 2
_symmetry_cell_setting 'triclinic'
loop_
_space_group_symop_operation_xyz
x,y,z
-x,-y,-z
loop_
_atom_site_type_symbol
_atom_site_label
_atom_site_fract_x
_atom_site_fract_y
_atom_site_fract_z
Si Si1 0.109415 0.698033 0.651956
Si Si2 0.297541 0.421148 0.430160
Si Si3 0.278061 0.309050 0.916569
Si Si4 0.521931 0.339534 0.968235
Si Si5 0.762131 0.359104 0.721722
Si Si6 0.688428 0.717499 0.796690
Si Si7 0.831991 0.081317 0.171396
Si Si8 0.139055 0.005529 0.488226
O O1 0.124189 0.839254 0.597431
O O2 0.932856 0.682591 0.377189
O O3 0.000990 0.509860 0.788646
O O4 0.345028 0.745782 0.826040
O O5 0.500000 0.500000 0.500000
O O6 0.382309 0.361959 0.691111
O O7 0.260541 0.569352 0.272077
O O8 0.064844 0.260336 0.287514
O O9 0.365198 0.251782 0.981677
O O10 0.500000 0.500000 0.000000
O O11 0.215937 0.201012 0.068357
O O12 0.705287 0.547202 0.985292
O O13 0.577147 0.354508 0.436476
O O14 0.706312 0.163323 0.882523
O O15 0.774549 0.844616 0.660455
O O16 0.727483 0.965016 0.279326
O O17 0.915592 0.994003 0.283628
#
# Coordination Sequence:
#
# PCOD9111744 Si02
#       8
#     2   2   2   2   2   2   2   2
#     4  12  22  42  68  97 125 167 214 263 318 381
#     4  11  20  36  64  94 129 161 217 268 305 366
#     4  10  20  43  69  95 127 159 218 274 309 371
#     4  10  22  40  68  98 124 166 219 266 310 376
#     4  11  21  40  65  94 121 168 223 259 306 384
#     4  10  22  44  62  93 132 163 209 272 319 376
#     4  11  23  41  63  89 132 176 210 259 320 382
#     4  11  25  42  57  95 133 167 209 261 329 379
#
# _framework density 23.274442000000001
#
# number of rings (size 3 to 8) (size 9 to 14) (size 15 to 20)
#    0.000    1.250    5.000    3.375    1.750    3.000 
#    9.000    0.625    0.000    0.000    0.000    0.000 
#    0.000    0.000    0.000    0.000    0.000    0.000 
#
# Total GULP energy -89423.706998 kJ/mol
# GULP energy per Si atom -5588.981687 kJ/mol
# Density = 2.322147 g / cm^3
# Si number density = 23.274442 Si / 1000 Ang^3
#
#
#
# Elastic Constant Matrix: (Units=GPa)
#
#
# Indices 1 2 3 4 5 6 
#
# 1 150.7587 27.5694 43.2693 -16.1859 -10.3032 -5.5704
# 2 27.5694 53.0910 11.8205 -15.8771 -2.7036 -7.9073
# 3 43.2693 11.8205 91.6428 -15.5286 11.6205 -16.6102
# 4 -16.1859 -15.8771 -15.5286 33.7770 -3.4125 -0.4820
# 5 -10.3032 -2.7036 11.6205 -3.4125 44.3616 -10.6031
# 6 -5.5704 -7.9073 -16.6102 -0.4820 -10.6031 33.8650
#
#
#
# Elastic Compliance Matrix: (Units=1/GPa)
#
#
# Indices 1 2 3 4 5 6 
#
# 1 0.008637 -0.003183 -0.003895 0.001135 0.002841 -0.000327
# 2 -0.003183 0.024706 0.001036 0.010963 0.002973 0.006841
# 3 -0.003895 0.001036 0.014994 0.005309 -0.002897 0.006124
# 4 0.001135 0.010963 0.005309 0.038272 0.004209 0.007213
# 5 0.002841 0.002973 -0.002897 0.004209 0.026393 0.008064
# 6 -0.000327 0.006841 0.006124 0.007213 0.008064 0.036704
#
#
# Mechanical properties :
#
#
# Convention : Reuss Voigt Hill
#
# Bulk Modulus (GPa) = 27.58213 51.20122 39.39168
# Shear Modulus (GPa) = 28.75666 36.58962 32.67314
#
# Velocity S-wave (km/s) = 3.51885 3.96927 3.75082
# Velocity P-wave (km/s) = 5.32788 6.56151 5.97661
#
# Compressibility (1/GPa) = 0.03625535
#
# Stress axis : x y z
#
# Youngs Moduli (GPa) = 115.78296 40.47566 66.69313
#
# Poissons Ratio (x) = 0.12882 0.25975
# Poissons Ratio (y) = 0.36849 -0.06912
# Poissons Ratio (z) = 0.45094 -0.04195
#
# Static dielectric constant tensor:
#      x y z
#    x 1.900330 0.025420 -0.016020 
#    y 0.025420 2.000190 0.009870 
#    z -0.016020 0.009870 1.859970 
# 
# From -- ./inp_files/454568.got.cif
#   From: 2010.05.17/outbox.cif.g08.bks.cpg/sg2_228_cif.got.tgz:454568.got - 2010.06.03 11:33:40.
