data_PCOD9111994
_publ_section_title
;
Structure prediction by ZEFSAII (Michael W. Deem and Ramdas Pophale) SiO2 
 PCOD9111994
Probable space group: P -1
;
_chemical_formula_sum "Si O2"
_cell_formula_units_Z 15
_cell_length_a 10.961941
_cell_length_b 11.171958
_cell_length_c 10.390565
_cell_angle_alpha 77.578210
_cell_angle_beta 145.988825
_cell_angle_gamma 88.035806
_cell_volume 640.317510
_symmetry_space_group_name_H-M "P -1"
_symmetry_group_IT_number 2
_symmetry_cell_setting 'triclinic'
loop_
_space_group_symop_operation_xyz
x,y,z
-x,-y,-z
loop_
_atom_site_type_symbol
_atom_site_label
_atom_site_fract_x
_atom_site_fract_y
_atom_site_fract_z
Si Si1 0.003702 0.131053 0.112383
Si Si2 0.578402 0.263865 0.530607
Si Si3 0.114531 0.350036 0.280370
Si Si4 0.747799 0.008655 0.086521
Si Si5 0.339742 0.123529 0.197165
Si Si6 0.291870 0.222349 0.740988
Si Si7 0.000000 0.500000 0.500000
Si Si8 0.900146 0.390588 0.689685
O O1 0.796475 0.156470 0.822890
O O2 0.251343 0.082550 0.264278
O O3 0.962352 0.039349 0.206936
O O4 0.964870 0.277672 0.097038
O O5 0.354867 0.312533 0.418394
O O6 0.662977 0.379905 0.537232
O O7 0.516541 0.193761 0.370371
O O8 0.168061 0.283530 0.483639
O O9 0.016934 0.507736 0.180610
O O10 0.566748 0.137304 0.972364
O O11 0.603952 0.980906 0.845119
O O12 0.805890 0.882204 0.258794
O O13 0.100113 0.243991 0.911215
O O14 0.225176 0.352454 0.739431
O O15 0.136290 0.551688 0.498089
#
# Coordination Sequence:
#
# PCOD9111994 Si02
#       8
#     2   2   2   2   2   2   1   2
#     4  10  22  39  64  96 129 169 213 263 317 383
#     4  10  21  39  63  97 125 171 211 268 319 374
#     4  10  21  40  63  96 128 167 213 265 321 382
#     4  11  21  42  64  96 130 171 216 257 320 383
#     4  10  22  40  63  97 129 168 212 266 311 388
#     4  10  22  40  69  90 130 171 211 272 311 385
#     4  10  20  44  66  92 128 166 212 266 322 368
#     4  10  21  39  65  91 129 167 212 268 318 380
#
# _framework density 23.425878999999998
#
# number of rings (size 3 to 8) (size 9 to 14) (size 15 to 20)
#    0.000    1.867    2.667    0.800    0.000    6.933 
#    4.800    6.000    0.000    0.000    0.000    0.000 
#    0.000    0.000    0.000    0.000    0.000    0.000 
#
# Total GULP energy -83571.651860 kJ/mol
# GULP energy per Si atom -5571.443457 kJ/mol
# Density = 2.337256 g / cm^3
# Si number density = 23.425879 Si / 1000 Ang^3
#
#
#
# Elastic Constant Matrix: (Units=GPa)
#
#
# Indices 1 2 3 4 5 6 
#
# 1 130.5852 33.6319 9.3927 -3.0317 1.3149 43.4030
# 2 33.6319 97.6487 3.8053 -5.3539 9.0490 20.4598
# 3 9.3927 3.8053 26.5937 2.3378 10.0555 12.3368
# 4 -3.0317 -5.3539 2.3378 42.0027 -4.1853 3.4200
# 5 1.3149 9.0490 10.0555 -4.1853 20.1659 -8.2137
# 6 43.4030 20.4598 12.3368 3.4200 -8.2137 45.3998
#
#
#
# Elastic Compliance Matrix: (Units=1/GPa)
#
#
# Indices 1 2 3 4 5 6 
#
# 1 0.012548 -0.000354 0.006557 0.000753 -0.010086 -0.015500
# 2 -0.000354 0.013738 0.008834 0.000645 -0.014892 -0.010996
# 3 0.006557 0.008834 0.076849 -0.005340 -0.060818 -0.041733
# 4 0.000753 0.000645 -0.005340 0.024994 0.007475 -0.000090
# 5 -0.010086 -0.014892 -0.060818 0.007475 0.110081 0.052233
# 6 -0.015500 -0.010996 -0.041733 -0.000090 0.052233 0.062597
#
#
# Mechanical properties :
#
#
# Convention : Reuss Voigt Hill
#
# Bulk Modulus (GPa) = 7.50699 38.72080 23.11390
# Shear Modulus (GPa) = 15.86618 35.38020 25.62319
#
# Velocity S-wave (km/s) = 2.60531 3.89048 3.31085
# Velocity P-wave (km/s) = 3.50167 6.06185 4.95014
#
# Compressibility (1/GPa) = 0.13320912
#
# Stress axis : x y z
#
# Youngs Moduli (GPa) = 79.69311 72.79230 13.01255
#
# Poissons Ratio (x) = 0.02575 -0.08532
# Poissons Ratio (y) = 0.02819 -0.11496
# Poissons Ratio (z) = -0.52251 -0.64308
#
# Static dielectric constant tensor:
#      x y z
#    x 1.924920 -0.046220 -0.025110 
#    y -0.046220 1.924310 -0.003310 
#    z -0.025110 -0.003310 1.846930 
# 
# From -- ./inp_files/423634.got.cif
#   From: 2010.05.17/outbox.cif.g08.bks.cpg/sg2_212_cif.got.tgz:423634.got - 2010.06.03 11:33:40.
