data_PCOD9111127
_publ_section_title
;
Structure prediction by ZEFSAII (Michael W. Deem and Ramdas Pophale) SiO2 
 PCOD9111127
Probable space group: P -1
;
_chemical_formula_sum "Si O2"
_cell_formula_units_Z 16
_cell_length_a 8.938515
_cell_length_b 10.946594
_cell_length_c 17.439694
_cell_angle_alpha 147.576252
_cell_angle_beta 125.716154
_cell_angle_gamma 62.186091
_cell_volume 741.511999
_symmetry_space_group_name_H-M "P -1"
_symmetry_group_IT_number 2
_symmetry_cell_setting 'triclinic'
loop_
_space_group_symop_operation_xyz
x,y,z
-x,-y,-z
loop_
_atom_site_type_symbol
_atom_site_label
_atom_site_fract_x
_atom_site_fract_y
_atom_site_fract_z
Si Si1 0.776741 0.558793 0.553109
Si Si2 0.160105 0.452056 0.680003
Si Si3 0.791573 0.916509 0.609519
Si Si4 0.229389 0.473593 0.876414
Si Si5 0.884032 0.717714 0.100030
Si Si6 0.553018 0.176680 0.777584
Si Si7 0.512388 0.843401 0.716457
Si Si8 0.505204 0.181713 0.029684
O O1 0.766682 0.712496 0.555819
O O2 0.684530 0.698637 0.668353
O O3 0.650761 0.324242 0.387976
O O4 0.985172 0.512192 0.609499
O O5 0.210176 0.198847 0.535222
O O6 0.104739 0.478076 0.766516
O O7 0.335433 0.623362 0.805627
O O8 0.636001 0.089929 0.677737
O O9 0.986184 0.056130 0.754365
O O10 0.164288 0.307372 0.837603
O O11 0.413689 0.376974 0.842430
O O12 0.278580 0.712217 0.060833
O O13 0.695036 0.723815 0.998628
O O14 0.000000 0.500000 0.000000
O O15 0.461428 0.965680 0.686419
O O16 0.555767 0.041385 0.894897
O O17 0.500000 0.000000 0.000000
#
# Coordination Sequence:
#
# PCOD9111127 Si02
#       8
#     2   2   2   2   2   2   2   2
#     4  10  23  42  67  97 133 175 223 277 340 405
#     4  12  25  40  66 104 137 165 227 289 333 391
#     4  11  24  43  68  97 134 179 217 280 338 403
#     4  11  22  42  67  94 132 177 223 271 329 406
#     4  12  25  45  70  98 136 188 226 267 343 418
#     4  10  20  43  69  89 128 182 220 258 338 408
#     4  10  20  42  69  91 128 184 223 262 342 414
#     4  12  24  41  69 100 136 176 228 286 335 394
#
# _framework density 21.577534
#
# number of rings (size 3 to 8) (size 9 to 14) (size 15 to 20)
#    0.000    1.000    3.750    3.375    0.000    2.500 
#    0.000    0.000    0.000    0.000    0.000    0.000 
#    0.000    0.000    0.000    0.000    0.000    0.000 
#
# Total GULP energy -89403.888486 kJ/mol
# GULP energy per Si atom -5587.743030 kJ/mol
# Density = 2.152842 g / cm^3
# Si number density = 21.577534 Si / 1000 Ang^3
#
#
#
# Elastic Constant Matrix: (Units=GPa)
#
#
# Indices 1 2 3 4 5 6 
#
# 1 89.1835 22.3941 36.7093 3.1555 10.2174 -4.7973
# 2 22.3941 53.6749 4.1612 2.9291 3.9637 4.0890
# 3 36.7093 4.1612 104.8054 15.2741 3.4863 -17.1559
# 4 3.1555 2.9291 15.2741 26.1920 7.5351 -0.2967
# 5 10.2174 3.9637 3.4863 7.5351 44.3614 15.3813
# 6 -4.7973 4.0890 -17.1559 -0.2967 15.3813 39.7106
#
#
#
# Elastic Compliance Matrix: (Units=1/GPa)
#
#
# Indices 1 2 3 4 5 6 
#
# 1 0.015225 -0.005971 -0.005121 0.002887 -0.003641 0.001674
# 2 -0.005971 0.021326 0.001148 -0.002587 0.000769 -0.002738
# 3 -0.005121 0.001148 0.013160 -0.006971 -0.000544 0.005107
# 4 0.002887 -0.002587 -0.006971 0.044429 -0.007758 0.000940
# 5 -0.003641 0.000769 -0.000544 -0.007758 0.028825 -0.011977
# 6 0.001674 -0.002738 0.005107 0.000940 -0.011977 0.032519
#
#
# Mechanical properties :
#
#
# Convention : Reuss Voigt Hill
#
# Bulk Modulus (GPa) = 33.53251 41.57703 37.55477
# Shear Modulus (GPa) = 26.98111 34.34608 30.66360
#
# Velocity S-wave (km/s) = 3.53997 3.99400 3.77382
# Velocity P-wave (km/s) = 5.68179 6.37024 6.03584
#
# Compressibility (1/GPa) = 0.02982181
#
# Stress axis : x y z
#
# Youngs Moduli (GPa) = 65.67993 46.89094 75.98904
#
# Poissons Ratio (x) = 0.28000 0.38917
# Poissons Ratio (y) = 0.39220 -0.08724
# Poissons Ratio (z) = 0.33637 -0.05383
#
# Static dielectric constant tensor:
#      x y z
#    x 1.811080 0.012220 -0.014370 
#    y 0.012220 1.829830 -0.001750 
#    z -0.014370 -0.001750 1.789900 
# 
# From -- ./inp_files/333026.got.cif
#   From: 2010.05.17/outbox.cif.g08.bks.cpg/sg2_167_cif.got.tgz:333026.got - 2010.06.03 11:33:40.
