data_PCOD9111856
_publ_section_title
;
Structure prediction by ZEFSAII (Michael W. Deem and Ramdas Pophale) SiO2 
 PCOD9111856
Probable space group: P -1
;
_chemical_formula_sum "Si O2"
_cell_formula_units_Z 14
_cell_length_a 9.915210
_cell_length_b 9.636232
_cell_length_c 8.541464
_cell_angle_alpha 72.482252
_cell_angle_beta 71.492746
_cell_angle_gamma 70.926132
_cell_volume 713.464344
_symmetry_space_group_name_H-M "P -1"
_symmetry_group_IT_number 2
_symmetry_cell_setting 'triclinic'
loop_
_space_group_symop_operation_xyz
x,y,z
-x,-y,-z
loop_
_atom_site_type_symbol
_atom_site_label
_atom_site_fract_x
_atom_site_fract_y
_atom_site_fract_z
Si Si1 0.208306 0.317849 0.224845
Si Si2 0.654385 0.553563 0.581093
Si Si3 0.895433 0.906575 0.148001
Si Si4 0.153921 0.018921 0.501691
Si Si5 0.374570 0.139573 0.933740
Si Si6 0.948145 0.562884 0.322975
Si Si7 0.588727 0.263261 0.596989
O O1 0.299563 0.393954 0.286688
O O2 0.178376 0.174173 0.373854
O O3 0.051487 0.438663 0.215977
O O4 0.297597 0.254466 0.058714
O O5 0.775584 0.573095 0.400631
O O6 0.653157 0.380226 0.632508
O O7 0.494373 0.650304 0.553481
O O8 0.848146 0.974622 0.312735
O O9 0.754997 0.914096 0.087263
O O10 0.965904 0.727821 0.217053
O O11 0.000000 0.000000 0.000000
O O12 0.284086 0.881487 0.443324
O O13 0.000000 0.000000 0.500000
O O14 0.463127 0.216183 0.755889
O O15 0.500000 0.000000 0.000000
O O16 0.000000 0.500000 0.500000
#
# Coordination Sequence:
#
# PCOD9111856 Si02
#       7
#     2   2   2   2   2   2   2
#     4  11  23  41  72  95 135 188 227 279 354 413
#     4  10  22  43  67  98 131 185 231 286 345 418
#     4  12  27  46  69 108 143 179 234 296 350 414
#     4  12  24  43  72 101 134 188 236 281 356 419
#     4  12  26  44  67 104 145 180 229 295 348 408
#     4  10  20  43  72  94 133 180 232 281 340 415
#     4  11  24  42  69  97 139 177 237 288 344 415
#
# _framework density 19.622565999999999
#
# number of rings (size 3 to 8) (size 9 to 14) (size 15 to 20)
#    0.000    0.857    5.714    1.714    4.000    2.286 
#    5.143    0.000    0.000    0.000    0.000    0.000 
#    0.000    0.000    0.000    0.000    0.000    0.000 
#
# Total GULP energy -78207.984040 kJ/mol
# GULP energy per Si atom -5586.284574 kJ/mol
# Density = 1.957790 g / cm^3
# Si number density = 19.622566 Si / 1000 Ang^3
#
#
#
# Elastic Constant Matrix: (Units=GPa)
#
#
# Indices 1 2 3 4 5 6 
#
# 1 134.3558 92.0678 55.0211 14.6573 -1.3339 9.1218
# 2 92.0678 154.8014 67.5796 6.5897 -9.0989 -4.5389
# 3 55.0211 67.5796 90.3983 10.4864 -14.0816 -4.0374
# 4 14.6573 6.5897 10.4864 50.8347 3.7326 -5.0196
# 5 -1.3339 -9.0989 -14.0816 3.7326 34.9475 -1.3751
# 6 9.1218 -4.5389 -4.0374 -5.0196 -1.3751 40.2078
#
#
#
# Elastic Compliance Matrix: (Units=1/GPa)
#
#
# Indices 1 2 3 4 5 6 
#
# 1 0.014517 -0.007158 -0.003812 -0.002756 -0.002745 -0.004922
# 2 -0.007158 0.013134 -0.005392 0.001684 0.000905 0.002806
# 3 -0.003812 -0.005392 0.018764 -0.002334 0.006342 0.002066
# 4 -0.002756 0.001684 -0.002334 0.021241 -0.002753 0.003139
# 5 -0.002745 0.000905 0.006342 -0.002753 0.031677 0.002101
# 6 -0.004922 0.002806 0.002066 0.003139 0.002101 0.026975
#
#
# Mechanical properties :
#
#
# Convention : Reuss Voigt Hill
#
# Bulk Modulus (GPa) = 73.03585 89.87695 81.45640
# Shear Modulus (GPa) = 30.56306 36.19047 33.37676
#
# Velocity S-wave (km/s) = 3.95086 4.29922 4.12872
# Velocity P-wave (km/s) = 7.62322 8.39921 8.02061
#
# Compressibility (1/GPa) = 0.01369191
#
# Stress axis : x y z
#
# Youngs Moduli (GPa) = 68.88679 76.13581 53.29333
#
# Poissons Ratio (x) = 0.54496 0.20317
# Poissons Ratio (y) = 0.49308 0.28733
# Poissons Ratio (z) = 0.26262 0.41049
#
# Static dielectric constant tensor:
#      x y z
#    x 1.731240 -0.036470 0.069770 
#    y -0.036470 1.724060 -0.043290 
#    z 0.069770 -0.043290 1.793840 
# 
# From -- ./inp_files/157117.got.cif
#   From: 2010.05.17/outbox.cif.g08.bks.cpg/sg2_79_cif.got.tgz:157117.got - 2010.06.03 11:33:40.
