data_PCOD9111596
_publ_section_title
;
Structure prediction by ZEFSAII (Michael W. Deem and Ramdas Pophale) SiO2 
 PCOD9111596
Probable space group: P -1
;
_chemical_formula_sum "Si O2"
_cell_formula_units_Z 16
_cell_length_a 27.940729
_cell_length_b 5.851480
_cell_length_c 11.845033
_cell_angle_alpha 47.847534
_cell_angle_beta 150.621996
_cell_angle_gamma 133.427215
_cell_volume 675.695595
_symmetry_space_group_name_H-M "P -1"
_symmetry_group_IT_number 2
_symmetry_cell_setting 'triclinic'
loop_
_space_group_symop_operation_xyz
x,y,z
-x,-y,-z
loop_
_atom_site_type_symbol
_atom_site_label
_atom_site_fract_x
_atom_site_fract_y
_atom_site_fract_z
Si Si1 0.554318 0.250967 0.130290
Si Si2 0.840910 0.030581 0.917792
Si Si3 0.690056 0.239481 0.095145
Si Si4 0.962863 0.864729 0.593883
Si Si5 0.308350 0.066475 0.145001
Si Si6 0.855256 0.360265 0.216395
Si Si7 0.490549 0.123313 0.618373
Si Si8 0.764002 0.318903 0.445912
O O1 0.669446 0.426235 0.269022
O O2 0.559349 0.007589 0.321731
O O3 0.500000 0.500000 0.000000
O O4 0.500000 0.000000 0.000000
O O5 0.749725 0.965439 0.842976
O O6 0.809308 0.158539 0.694057
O O7 0.945006 0.236339 0.123840
O O8 0.868608 0.696524 0.071075
O O9 0.795296 0.365492 0.206138
O O10 0.711276 0.093825 0.305821
O O11 0.601926 0.072688 0.880224
O O12 0.660471 0.566128 0.954639
O O13 0.858245 0.591109 0.495388
O O14 0.938961 0.187940 0.480280
O O15 0.000000 0.000000 0.500000
O O16 0.409593 0.955665 0.411687
O O17 0.224349 0.876317 0.950814
O O18 0.500000 0.500000 0.500000
#
# Coordination Sequence:
#
# PCOD9111596 Si02
#       8
#     2   2   2   2   2   2   2   2
#     4  12  28  50  75 112 159 202 247 311 392 462
#     4  11  24  44  68 104 138 180 243 307 367 433
#     4  10  22  42  68 102 143 188 238 290 370 445
#     4  12  24  47  74  98 141 192 243 306 372 445
#     4  10  20  43  67 100 139 183 243 293 362 440
#     4  11  23  43  73  99 138 190 243 300 370 448
#     4  10  22  44  71 105 145 191 247 300 370 455
#     4  12  25  47  73 106 152 188 240 306 376 449
#
# _framework density 23.679302
#
# number of rings (size 3 to 8) (size 9 to 14) (size 15 to 20)
#    0.000    1.000    5.000    1.500    1.750    1.500 
#    2.250    1.250    0.000    0.000    0.000    0.000 
#    0.000    0.000    0.000    0.000    0.000    0.000 
#
# Total GULP energy -89125.767125 kJ/mol
# GULP energy per Si atom -5570.360445 kJ/mol
# Density = 2.362541 g / cm^3
# Si number density = 23.679302 Si / 1000 Ang^3
#
#
#
# Elastic Constant Matrix: (Units=GPa)
#
#
# Indices 1 2 3 4 5 6 
#
# 1 101.5138 22.7284 80.4462 -14.9704 -14.1768 24.4401
# 2 22.7284 56.1962 40.7354 2.8478 0.7567 10.1205
# 3 80.4462 40.7354 202.2346 3.2452 -15.5939 3.7999
# 4 -14.9704 2.8478 3.2452 22.6273 4.7263 -0.7005
# 5 -14.1768 0.7567 -15.5939 4.7263 51.7512 4.5376
# 6 24.4401 10.1205 3.7999 -0.7005 4.5376 36.9787
#
#
#
# Elastic Compliance Matrix: (Units=1/GPa)
#
#
# Indices 1 2 3 4 5 6 
#
# 1 0.023295 -0.001393 -0.008690 0.015639 0.003606 -0.014268
# 2 -0.001393 0.022171 -0.003866 -0.003055 -0.001183 -0.004662
# 3 -0.008690 -0.003866 0.009221 -0.006526 0.000554 0.005663
# 4 0.015639 -0.003055 -0.006526 0.056068 -0.002100 -0.007509
# 5 0.003606 -0.001183 0.000554 -0.002100 0.021103 -0.004746
# 6 -0.014268 -0.004662 0.005663 -0.007509 -0.004746 0.037607
#
#
# Mechanical properties :
#
#
# Convention : Reuss Voigt Hill
#
# Bulk Modulus (GPa) = 37.33119 71.97385 54.65252
# Shear Modulus (GPa) = 24.23724 36.67375 30.45550
#
# Velocity S-wave (km/s) = 3.20279 3.93971 3.59021
# Velocity P-wave (km/s) = 5.42924 7.15236 6.34953
#
# Compressibility (1/GPa) = 0.02678725
#
# Stress axis : x y z
#
# Youngs Moduli (GPa) = 42.92832 45.10336 108.44234
#
# Poissons Ratio (x) = 0.06285 0.94241
# Poissons Ratio (y) = 0.05982 0.41926
# Poissons Ratio (z) = 0.37307 0.17438
#
# Static dielectric constant tensor:
#      x y z
#    x 1.952510 -0.004900 0.084420 
#    y -0.004900 1.995540 0.108540 
#    z 0.084420 0.108540 2.059300 
# 
# From -- ./inp_files/475979.got.cif
#   From: 2010.05.17/outbox.cif.g08.bks.cpg/sg2_238_cif.got.tgz:475979.got - 2010.06.03 11:33:40.
