data_PCOD9111768
_publ_section_title
;
Structure prediction by ZEFSAII (Michael W. Deem and Ramdas Pophale) SiO2 
 PCOD9111768
Probable space group: P -1
;
_chemical_formula_sum "Si O2"
_cell_formula_units_Z 16
_cell_length_a 5.349157
_cell_length_b 9.810822
_cell_length_c 23.421697
_cell_angle_alpha 148.841278
_cell_angle_beta 91.610570
_cell_angle_gamma 81.400292
_cell_volume 616.737225
_symmetry_space_group_name_H-M "P -1"
_symmetry_group_IT_number 2
_symmetry_cell_setting 'triclinic'
loop_
_space_group_symop_operation_xyz
x,y,z
-x,-y,-z
loop_
_atom_site_type_symbol
_atom_site_label
_atom_site_fract_x
_atom_site_fract_y
_atom_site_fract_z
Si Si1 0.631528 0.692544 0.225932
Si Si2 0.497801 0.267214 0.370250
Si Si3 0.294628 0.594316 0.983818
Si Si4 0.847266 0.922298 0.162650
Si Si5 0.701905 0.843231 0.400559
Si Si6 0.972175 0.732978 0.872647
Si Si7 0.535845 0.246861 0.189554
Si Si8 0.172257 0.615590 0.403782
O O1 0.585073 0.459714 0.098331
O O2 0.934607 0.545604 0.190366
O O3 0.513777 0.978712 0.297115
O O4 0.550839 0.756310 0.314199
O O5 0.500000 0.500000 0.500000
O O6 0.245995 0.393724 0.375247
O O7 0.747341 0.173926 0.295677
O O8 0.137519 0.352461 0.899996
O O9 0.500000 0.500000 0.000000
O O10 0.101490 0.864367 0.104022
O O11 0.620242 0.982190 0.135211
O O12 0.825309 0.088569 0.465554
O O13 0.500000 0.000000 0.500000
O O14 0.926642 0.660973 0.376837
O O15 0.200534 0.719297 0.823523
O O16 0.685609 0.772013 0.862530
O O17 0.000000 0.000000 0.000000
O O18 0.407933 0.492896 0.318349
#
# Coordination Sequence:
#
# PCOD9111768 Si02
#       8
#     2   2   2   2   2   2   2   2
#     4  11  23  44  70 102 143 194 248 311 374 454
#     4  10  20  43  70 101 142 184 250 303 380 449
#     4  10  22  43  66  99 140 187 249 304 375 447
#     4   9  22  41  68  97 137 190 236 303 374 444
#     4  11  22  42  68 103 142 186 251 305 378 444
#     4  12  26  44  70 109 145 190 251 313 369 449
#     4  11  24  44  71 104 142 191 243 303 385 444
#     4  10  22  42  70  97 142 192 232 315 367 450
#
# _framework density 25.942979999999999
#
# number of rings (size 3 to 8) (size 9 to 14) (size 15 to 20)
#    0.000    1.500    2.500    1.875    3.500    0.000 
#    6.750    0.625    0.000    0.000    0.000    0.000 
#    0.000    0.000    0.000    0.000    0.000    0.000 
#
# Total GULP energy -89117.244958 kJ/mol
# GULP energy per Si atom -5569.827810 kJ/mol
# Density = 2.588393 g / cm^3
# Si number density = 25.942980 Si / 1000 Ang^3
#
#
#
# Elastic Constant Matrix: (Units=GPa)
#
#
# Indices 1 2 3 4 5 6 
#
# 1 78.9214 43.7333 26.0972 -1.0167 -13.0007 -22.3896
# 2 43.7333 220.3967 48.4038 13.8965 -12.9860 -22.3394
# 3 26.0972 48.4038 169.9428 -14.7772 -22.6843 -11.7684
# 4 -1.0167 13.8965 -14.7772 58.2703 0.7983 -2.6335
# 5 -13.0007 -12.9860 -22.6843 0.7983 41.8027 9.2714
# 6 -22.3896 -22.3394 -11.7684 -2.6335 9.2714 30.8073
#
#
#
# Elastic Compliance Matrix: (Units=1/GPa)
#
#
# Indices 1 2 3 4 5 6 
#
# 1 0.017427 -0.002149 -0.001014 0.000995 0.001915 0.010229
# 2 -0.002149 0.005525 -0.001256 -0.001591 -0.000010 0.001832
# 3 -0.001014 -0.001256 0.006993 0.002028 0.002984 0.000299
# 4 0.000995 -0.001591 0.002028 0.018154 0.000159 0.001849
# 5 0.001915 -0.000010 0.002984 0.000159 0.027396 -0.005707
# 6 0.010229 0.001832 0.000299 0.001849 -0.005707 0.043212
#
#
# Mechanical properties :
#
#
# Convention : Reuss Voigt Hill
#
# Bulk Modulus (GPa) = 47.37647 78.41439 62.89543
# Shear Modulus (GPa) = 37.15259 49.57784 43.36521
#
# Velocity S-wave (km/s) = 3.78840 4.37628 4.09291
# Velocity P-wave (km/s) = 6.11861 7.47175 6.82878
#
# Compressibility (1/GPa) = 0.02110753
#
# Stress axis : x y z
#
# Youngs Moduli (GPa) = 57.38325 180.99683 142.99462
#
# Poissons Ratio (x) = 0.38887 0.14496
# Poissons Ratio (y) = 0.12329 0.17967
# Poissons Ratio (z) = 0.05817 0.22742
#
# Static dielectric constant tensor:
#      x y z
#    x 1.809870 0.615730 1.028170 
#    y 0.615730 1.682730 -1.037730 
#    z 1.028170 -1.037730 -0.261840 
# 
# From -- ./inp_files/604500.got.cif
#   From: 2010.05.17/outbox.cif.g08.bks.cpg/sg2_303_cif.got.tgz:604500.got - 2010.06.03 11:33:40.
