data_PCOD9111132
_publ_section_title
;
Structure prediction by ZEFSAII (Michael W. Deem and Ramdas Pophale) SiO2 
 PCOD9111132
Probable space group: P -1
;
_chemical_formula_sum "Si O2"
_cell_formula_units_Z 15
_cell_length_a 7.725994
_cell_length_b 9.224563
_cell_length_c 11.572629
_cell_angle_alpha 123.876875
_cell_angle_beta 77.600291
_cell_angle_gamma 118.514005
_cell_volume 600.200375
_symmetry_space_group_name_H-M "P -1"
_symmetry_group_IT_number 2
_symmetry_cell_setting 'triclinic'
loop_
_space_group_symop_operation_xyz
x,y,z
-x,-y,-z
loop_
_atom_site_type_symbol
_atom_site_label
_atom_site_fract_x
_atom_site_fract_y
_atom_site_fract_z
Si Si1 0.003690 0.701467 0.050926
Si Si2 0.601568 0.926059 0.858417
Si Si3 0.502050 0.764774 0.223226
Si Si4 0.876830 0.879665 0.330712
Si Si5 0.390331 0.693397 0.567591
Si Si6 0.500000 0.000000 0.500000
Si Si7 0.696339 0.699093 0.935861
Si Si8 0.176339 0.283274 0.491534
O O1 0.214474 0.877156 0.119877
O O2 0.849257 0.721134 0.169262
O O3 0.000000 0.500000 0.000000
O O4 0.917686 0.736500 0.957921
O O5 0.442627 0.809404 0.732388
O O6 0.674102 0.785418 0.855363
O O7 0.500000 0.000000 0.000000
O O8 0.662296 0.879186 0.358694
O O9 0.409004 0.535730 0.156560
O O10 0.379908 0.879163 0.333160
O O11 0.596027 0.780667 0.088033
O O12 0.916241 0.793483 0.403325
O O13 0.038521 0.087294 0.356906
O O14 0.206831 0.484935 0.523943
O O15 0.598063 0.682328 0.511732
O O16 0.363619 0.802313 0.510316
#
# Coordination Sequence:
#
# PCOD9111132 Si02
#       8
#     2   2   2   2   2   1   2   2
#     4  11  26  42  68 103 137 184 233 285 344 413
#     4  12  26  44  71 103 138 181 235 292 345 415
#     4  10  22  40  68  98 134 185 221 283 351 408
#     4  10  20  42  69  93 137 175 232 280 347 407
#     4  11  24  41  67  97 133 178 230 272 358 405
#     4  12  24  40  64 104 138 170 232 300 334 418
#     4  10  24  45  70  94 144 187 235 276 351 415
#     4  10  21  40  66  95 123 182 223 275 335 426
#
# _framework density 24.991652999999999
#
# number of rings (size 3 to 8) (size 9 to 14) (size 15 to 20)
#    0.000    1.333    2.667    2.000   11.200    0.000 
#    0.000    0.667    0.000    0.000    0.000    0.000 
#    0.000    0.000    0.000    0.000    0.000    0.000 
#
# Total GULP energy -83504.267375 kJ/mol
# GULP energy per Si atom -5566.951158 kJ/mol
# Density = 2.493477 g / cm^3
# Si number density = 24.991653 Si / 1000 Ang^3
#
#
#
# Elastic Constant Matrix: (Units=GPa)
#
#
# Indices 1 2 3 4 5 6 
#
# 1 59.4700 21.4116 12.1625 5.2814 5.3151 -1.6407
# 2 21.4116 156.1501 52.4643 12.2278 1.2242 -3.5232
# 3 12.1625 52.4643 111.2532 -0.5261 2.0530 -5.5015
# 4 5.2814 12.2278 -0.5261 36.6727 -1.7840 8.0576
# 5 5.3151 1.2242 2.0530 -1.7840 22.1458 0.9527
# 6 -1.6407 -3.5232 -5.5015 8.0576 0.9527 37.0544
#
#
#
# Elastic Compliance Matrix: (Units=1/GPa)
#
#
# Indices 1 2 3 4 5 6 
#
# 1 0.018361 -0.001938 -0.000966 -0.002479 -0.004459 0.001139
# 2 -0.001938 0.008095 -0.003584 -0.002624 0.000108 0.000720
# 3 -0.000966 -0.003584 0.010848 0.001252 -0.000516 0.000968
# 4 -0.002479 -0.002624 0.001252 0.030180 0.003349 -0.006822
# 5 -0.004459 0.000108 -0.000516 0.003349 0.046631 -0.002191
# 6 0.001139 0.000720 0.000968 -0.006822 -0.002191 0.028790
#
#
# Mechanical properties :
#
#
# Convention : Reuss Voigt Hill
#
# Bulk Modulus (GPa) = 41.10874 55.43889 48.27381
# Shear Modulus (GPa) = 30.48946 35.23025 32.85985
#
# Velocity S-wave (km/s) = 3.49662 3.75864 3.63000
# Velocity P-wave (km/s) = 5.72595 6.40841 6.07677
#
# Compressibility (1/GPa) = 0.02432573
#
# Stress axis : x y z
#
# Youngs Moduli (GPa) = 54.46406 123.53233 92.18500
#
# Poissons Ratio (x) = 0.23943 0.08908
# Poissons Ratio (y) = 0.10556 0.33042
# Poissons Ratio (z) = 0.05263 0.44278
#
# Static dielectric constant tensor:
#      x y z
#    x 4.608810 -0.162650 -0.659450 
#    y -0.162650 1.962300 0.052100 
#    z -0.659450 0.052100 2.365310 
# 
# From -- ./inp_files/237207.got.cif
#   From: 2010.05.17/outbox.cif.g08.bks.cpg/sg2_119_cif.got.tgz:237207.got - 2010.06.03 11:33:40.
