data_PCOD9111666
_publ_section_title
;
Structure prediction by ZEFSAII (Michael W. Deem and Ramdas Pophale) SiO2 
 PCOD9111666
Probable space group: P -1
;
_chemical_formula_sum "Si O2"
_cell_formula_units_Z 12
_cell_length_a 11.088547
_cell_length_b 14.257810
_cell_length_c 13.763900
_cell_angle_alpha 29.959230
_cell_angle_beta 34.315741
_cell_angle_gamma 26.781576
_cell_volume 476.136519
_symmetry_space_group_name_H-M "P -1"
_symmetry_group_IT_number 2
_symmetry_cell_setting 'triclinic'
loop_
_space_group_symop_operation_xyz
x,y,z
-x,-y,-z
loop_
_atom_site_type_symbol
_atom_site_label
_atom_site_fract_x
_atom_site_fract_y
_atom_site_fract_z
Si Si1 0.665171 0.302457 0.175995
Si Si2 0.864302 0.448795 0.370793
Si Si3 0.497821 0.203094 0.198486
Si Si4 0.768018 0.877654 0.143143
Si Si5 0.039623 0.004872 0.353722
Si Si6 0.284540 0.267110 0.975165
O O1 0.536743 0.205585 0.285739
O O2 0.748977 0.205677 0.315425
O O3 0.484549 0.589654 0.035318
O O4 0.949068 0.204631 0.018919
O O5 0.761170 0.655634 0.333327
O O6 0.194442 0.300386 0.283988
O O7 0.843481 0.237067 0.566566
O O8 0.707315 0.608662 0.236427
O O9 0.723582 0.959470 0.210299
O O10 0.519097 0.115771 0.035739
O O11 0.218414 0.092162 0.142077
O O12 0.000000 0.000000 0.500000
O O13 0.000000 0.500000 0.000000
#
# Coordination Sequence:
#
# PCOD9111666 Si02
#       6
#     2   2   2   2   2   2
#     4  10  23  40  66  97 120 171 213 253 314 371
#     4  11  24  39  64  95 125 170 205 258 315 368
#     4  10  20  43  68  89 128 166 213 257 309 372
#     4  11  21  40  65  91 129 165 209 261 310 371
#     4  12  23  40  64  96 129 163 210 256 316 373
#     4  12  21  43  64  90 130 167 207 258 315 366
#
# _framework density 25.202857999999999
#
# number of rings (size 3 to 8) (size 9 to 14) (size 15 to 20)
#    0.000    1.000    6.667    1.000    0.000    1.333 
#    0.000    2.500    0.000    0.000    0.000    0.000 
#    0.000    0.000    0.000    0.000    0.000    0.000 
#
# Total GULP energy -67147.525749 kJ/mol
# GULP energy per Si atom -5595.627146 kJ/mol
# Density = 2.514549 g / cm^3
# Si number density = 25.202858 Si / 1000 Ang^3
#
#
#
# Elastic Constant Matrix: (Units=GPa)
#
#
# Indices 1 2 3 4 5 6 
#
# 1 124.9229 13.1079 22.9238 -0.1310 -1.3513 1.8129
# 2 13.1079 95.5435 -1.6541 -13.2782 -14.9878 11.4225
# 3 22.9238 -1.6541 70.1262 -15.6889 -18.3607 -1.9264
# 4 -0.1310 -13.2782 -15.6889 35.4570 5.1566 -5.5584
# 5 -1.3513 -14.9878 -18.3607 5.1566 47.1316 -7.3844
# 6 1.8129 11.4225 -1.9264 -5.5584 -7.3844 50.2560
#
#
#
# Elastic Compliance Matrix: (Units=1/GPa)
#
#
# Indices 1 2 3 4 5 6 
#
# 1 0.008896 -0.001792 -0.003899 -0.002206 -0.001679 -0.000554
# 2 -0.001792 0.012323 0.003112 0.005138 0.004295 -0.001418
# 3 -0.003899 0.003112 0.019800 0.009125 0.007964 0.002372
# 4 -0.002206 0.005138 0.009125 0.034407 0.001885 0.003344
# 5 -0.001679 0.004295 0.007964 0.001885 0.025966 0.003413
# 6 -0.000554 -0.001418 0.002372 0.003344 0.003413 0.021203
#
#
# Mechanical properties :
#
#
# Convention : Reuss Voigt Hill
#
# Bulk Modulus (GPa) = 27.88468 39.92752 33.90610
# Shear Modulus (GPa) = 35.78946 43.64994 39.71970
#
# Velocity S-wave (km/s) = 3.77245 4.16618 3.97419
# Velocity P-wave (km/s) = 5.48300 6.24656 5.87720
#
# Compressibility (1/GPa) = 0.03586199
#
# Stress axis : x y z
#
# Youngs Moduli (GPa) = 112.41146 81.14583 50.50577
#
# Poissons Ratio (x) = 0.14538 0.19690
# Poissons Ratio (y) = 0.20140 -0.15715
# Poissons Ratio (z) = 0.43824 -0.25249
#
# Static dielectric constant tensor:
#      x y z
#    x 2.026770 0.019140 0.043890 
#    y 0.019140 2.128480 0.050770 
#    z 0.043890 0.050770 2.042130 
# 
# From -- ./inp_files/320240.got.cif
#   From: 2010.05.17/outbox.cif.g08.bks.cpg/sg2_161_cif.got.tgz:320240.got - 2010.06.03 11:33:40.
