data_PCOD9111269
_publ_section_title
;
Structure prediction by ZEFSAII (Michael W. Deem and Ramdas Pophale) SiO2 
 PCOD9111269
Probable space group: P -1
;
_chemical_formula_sum "Si O2"
_cell_formula_units_Z 15
_cell_length_a 11.224944
_cell_length_b 14.098558
_cell_length_c 19.103225
_cell_angle_alpha 158.926098
_cell_angle_beta 145.868421
_cell_angle_gamma 45.482224
_cell_volume 570.630123
_symmetry_space_group_name_H-M "P -1"
_symmetry_group_IT_number 2
_symmetry_cell_setting 'triclinic'
loop_
_space_group_symop_operation_xyz
x,y,z
-x,-y,-z
loop_
_atom_site_type_symbol
_atom_site_label
_atom_site_fract_x
_atom_site_fract_y
_atom_site_fract_z
Si Si1 0.966437 0.724904 0.221200
Si Si2 0.969545 0.657545 0.479646
Si Si3 0.714192 0.671527 0.788598
Si Si4 0.195089 0.879048 0.237152
Si Si5 0.500000 0.000000 0.000000
Si Si6 0.888150 0.229507 0.526104
Si Si7 0.518229 0.832827 0.241495
Si Si8 0.225305 0.945778 0.047208
O O1 0.809720 0.899489 0.240072
O O2 0.944374 0.720167 0.291981
O O3 0.224286 0.932999 0.474537
O O4 0.881492 0.393865 0.936287
O O5 0.851461 0.345548 0.235254
O O6 0.003438 0.616472 0.385173
O O7 0.804955 0.835978 0.530795
O O8 0.222865 0.826109 0.745419
O O9 0.286060 0.639854 0.438709
O O10 0.977215 0.817274 0.038500
O O11 0.547726 0.721411 0.798987
O O12 0.681033 0.815032 0.800671
O O13 0.403085 0.888314 0.295731
O O14 0.500000 0.500000 0.000000
O O15 0.379990 0.904470 0.158173
O O16 0.000000 0.000000 0.000000
#
# Coordination Sequence:
#
# PCOD9111269 Si02
#       8
#     2   2   2   2   1   2   2   2
#     4  10  22  42  72  98 130 180 232 274 347 401
#     4  11  24  44  64  95 140 176 224 284 341 406
#     4  10  21  44  62  96 132 168 227 275 341 393
#     4  10  23  45  63  97 141 176 216 292 341 390
#     4  10  26  40  62  92 134 180 212 278 338 402
#     4  10  20  42  71  95 132 178 223 285 331 408
#     4  12  24  44  73 102 135 179 236 283 331 412
#     4  12  23  42  70  99 129 183 224 279 347 398
#
# _framework density 26.286729000000001
#
# number of rings (size 3 to 8) (size 9 to 14) (size 15 to 20)
#    0.000    1.333    2.667    4.000    1.867    6.400 
#    7.200    2.667    0.000    0.000    0.000    0.000 
#    0.000    0.000    0.000    0.000    0.000    0.000 
#
# Total GULP energy -83580.486566 kJ/mol
# GULP energy per Si atom -5572.032438 kJ/mol
# Density = 2.622690 g / cm^3
# Si number density = 26.286729 Si / 1000 Ang^3
#
#
#
# Elastic Constant Matrix: (Units=GPa)
#
#
# Indices 1 2 3 4 5 6 
#
# 1 121.9707 51.9007 42.7686 16.6673 4.1300 -41.1147
# 2 51.9007 165.9934 65.1330 39.9104 -4.9317 -33.3456
# 3 42.7686 65.1330 75.3216 10.5810 9.8225 -33.5574
# 4 16.6673 39.9104 10.5810 53.3256 -4.5540 -16.5330
# 5 4.1300 -4.9317 9.8225 -4.5540 30.8904 11.3950
# 6 -41.1147 -33.3456 -33.5574 -16.5330 11.3950 63.1766
#
#
#
# Elastic Compliance Matrix: (Units=1/GPa)
#
#
# Indices 1 2 3 4 5 6 
#
# 1 0.011936 -0.001710 -0.001904 -0.000399 -0.003689 0.006415
# 2 -0.001710 0.011804 -0.010457 -0.006742 0.005631 -0.003217
# 3 -0.001904 -0.010457 0.030834 0.005254 -0.015534 0.013797
# 4 -0.000399 -0.006742 0.005254 0.024518 -0.001143 0.005595
# 5 -0.003689 0.005631 -0.015534 -0.001143 0.044436 -0.015994
# 6 0.006415 -0.003217 0.013797 0.005595 -0.015994 0.029983
#
#
# Mechanical properties :
#
#
# Convention : Reuss Voigt Hill
#
# Bulk Modulus (GPa) = 37.83107 75.87670 56.85389
# Shear Modulus (GPa) = 26.25209 43.04409 34.64809
#
# Velocity S-wave (km/s) = 3.16362 4.05097 3.63448
# Velocity P-wave (km/s) = 5.26950 7.12799 6.26801
#
# Compressibility (1/GPa) = 0.02643330
#
# Stress axis : x y z
#
# Youngs Moduli (GPa) = 83.78348 84.71673 32.43168
#
# Poissons Ratio (x) = 0.14486 0.06173
# Poissons Ratio (y) = 0.14326 0.33913
# Poissons Ratio (z) = 0.15948 0.88586
#
# Static dielectric constant tensor:
#      x y z
#    x 2.112660 -0.024620 -0.091970 
#    y -0.024620 2.137320 0.063590 
#    z -0.091970 0.063590 2.255010 
# 
# From -- ./inp_files/595712.got.cif
#   From: 2010.05.17/outbox.cif.g08.bks.cpg/sg2_298_cif.got.tgz:595712.got - 2010.06.03 11:33:40.
