data_PCOD9111895
_publ_section_title
;
Structure prediction by ZEFSAII (Michael W. Deem and Ramdas Pophale) SiO2 
 PCOD9111895
Probable space group: P -1
;
_chemical_formula_sum "Si O2"
_cell_formula_units_Z 16
_cell_length_a 7.090344
_cell_length_b 9.591428
_cell_length_c 18.832499
_cell_angle_alpha 33.527992
_cell_angle_beta 62.354718
_cell_angle_gamma 74.604970
_cell_volume 607.076517
_symmetry_space_group_name_H-M "P -1"
_symmetry_group_IT_number 2
_symmetry_cell_setting 'triclinic'
loop_
_space_group_symop_operation_xyz
x,y,z
-x,-y,-z
loop_
_atom_site_type_symbol
_atom_site_label
_atom_site_fract_x
_atom_site_fract_y
_atom_site_fract_z
Si Si1 0.254670 0.140304 0.413805
Si Si2 0.707395 0.017075 0.678661
Si Si3 0.057081 0.264746 0.918623
Si Si4 0.290830 0.453236 0.505464
Si Si5 0.159761 0.941771 0.669373
Si Si6 0.437471 0.804100 0.951823
Si Si7 0.209643 0.451819 0.944834
Si Si8 0.528065 0.366510 0.756650
O O1 0.277538 0.043000 0.531380
O O2 0.336537 0.455634 0.278781
O O3 0.356568 0.043090 0.366461
O O4 0.000000 0.000000 0.500000
O O5 0.822064 0.327452 0.537439
O O6 0.900364 0.883318 0.723364
O O7 0.587776 0.603739 0.025291
O O8 0.129583 0.210807 0.008185
O O9 0.282502 0.415264 0.776750
O O10 0.821050 0.330632 0.938745
O O11 0.000000 0.000000 0.000000
O O12 0.500000 0.500000 0.500000
O O13 0.189240 0.148225 0.641545
O O14 0.354605 0.538712 0.377805
O O15 0.238346 0.690633 0.784074
O O16 0.510149 0.926164 0.808602
O O17 0.495811 0.053103 0.889994
O O18 0.000000 0.500000 0.000000
#
# Coordination Sequence:
#
# PCOD9111895 Si02
#       8
#     2   2   2   2   2   2   2   2
#     4   9  20  41  73 113 146 196 247 317 387 445
#     4  10  20  43  74 105 143 192 249 312 380 449
#     4  10  25  48  71 104 146 203 258 304 371 451
#     4  10  22  40  72 106 140 193 250 312 381 451
#     4  10  22  44  67 106 152 190 245 310 382 453
#     4  10  23  48  75 107 151 202 251 308 379 453
#     4  12  26  47  70 109 153 198 248 314 373 457
#     4   9  21  45  75 107 153 195 253 316 376 454
#
# _framework density 26.355820000000001
#
# number of rings (size 3 to 8) (size 9 to 14) (size 15 to 20)
#    0.000    2.000    1.250    0.375    0.000    9.500 
#   11.250    2.500    2.750    3.000    0.000    0.000 
#    0.000    0.500    0.000    0.000    0.000    0.000 
#
# Total GULP energy -89326.051431 kJ/mol
# GULP energy per Si atom -5582.878214 kJ/mol
# Density = 2.629583 g / cm^3
# Si number density = 26.355820 Si / 1000 Ang^3
#
#
#
# Elastic Constant Matrix: (Units=GPa)
#
#
# Indices 1 2 3 4 5 6 
#
# 1 140.6208 33.1112 30.9854 0.1638 -14.1156 -13.4731
# 2 33.1112 218.4831 51.3676 -14.8056 -0.8729 14.9816
# 3 30.9854 51.3676 57.2589 -5.2048 0.8711 -5.0800
# 4 0.1638 -14.8056 -5.2048 48.4397 -0.9382 0.4916
# 5 -14.1156 -0.8729 0.8711 -0.9382 46.0894 -0.1393
# 6 -13.4731 14.9816 -5.0800 0.4916 -0.1393 48.5792
#
#
#
# Elastic Compliance Matrix: (Units=1/GPa)
#
#
# Indices 1 2 3 4 5 6 
#
# 1 0.008613 -0.000516 -0.004104 -0.000597 0.002700 0.002133
# 2 -0.000516 0.006194 -0.005390 0.001344 0.000080 -0.002631
# 3 -0.004104 -0.005390 0.024913 0.000977 -0.001801 0.003114
# 4 -0.000597 0.001344 0.000977 0.021174 0.000253 -0.000692
# 5 0.002700 0.000080 -0.001801 0.000253 0.022566 0.000598
# 6 0.002133 -0.002631 0.003114 -0.000692 0.000598 0.022322
#
#
# Mechanical properties :
#
#
# Convention : Reuss Voigt Hill
#
# Bulk Modulus (GPa) = 50.76078 71.92126 61.34102
# Shear Modulus (GPa) = 37.77277 48.68154 43.22715
#
# Velocity S-wave (km/s) = 3.78985 4.30244 4.05425
# Velocity P-wave (km/s) = 6.20099 7.21312 6.72612
#
# Compressibility (1/GPa) = 0.01970025
#
# Stress axis : x y z
#
# Youngs Moduli (GPa) = 116.09988 161.43902 40.13933
#
# Poissons Ratio (x) = 0.08337 0.16473
# Poissons Ratio (y) = 0.05995 0.21635
# Poissons Ratio (z) = 0.47646 0.87015
#
# Static dielectric constant tensor:
#      x y z
#    x 2.131640 0.001920 -0.114960 
#    y 0.001920 2.294380 -0.245810 
#    z -0.114960 -0.245810 2.487510 
# 
# From -- ./inp_files/556844.got.cif
#   From: 2010.05.17/outbox.cif.g08.bks.cpg/sg2_279_cif.got.tgz:556844.got - 2010.06.03 11:33:40.
