data_PCOD9111200
_publ_section_title
;
Structure prediction by ZEFSAII (Michael W. Deem and Ramdas Pophale) SiO2 
 PCOD9111200
Probable space group: P -1
;
_chemical_formula_sum "Si O2"
_cell_formula_units_Z 15
_cell_length_a 8.845892
_cell_length_b 9.860214
_cell_length_c 9.553986
_cell_angle_alpha 118.877250
_cell_angle_beta 106.709763
_cell_angle_gamma 56.850213
_cell_volume 610.627209
_symmetry_space_group_name_H-M "P -1"
_symmetry_group_IT_number 2
_symmetry_cell_setting 'triclinic'
loop_
_space_group_symop_operation_xyz
x,y,z
-x,-y,-z
loop_
_atom_site_type_symbol
_atom_site_label
_atom_site_fract_x
_atom_site_fract_y
_atom_site_fract_z
Si Si1 0.477334 0.900771 0.158623
Si Si2 0.124151 0.573025 0.643896
Si Si3 0.500000 0.000000 0.500000
Si Si4 0.081412 0.816345 0.346040
Si Si5 0.475075 0.679218 0.475086
Si Si6 0.441895 0.246091 0.181235
Si Si7 0.979993 0.498083 0.827675
Si Si8 0.932448 0.980116 0.821605
O O1 0.575485 0.857100 0.311503
O O2 0.271170 0.985333 0.199864
O O3 0.505129 0.048846 0.158136
O O4 0.510051 0.761259 0.973766
O O5 0.328025 0.463640 0.594831
O O6 0.000000 0.500000 0.500000
O O7 0.102239 0.549910 0.791752
O O8 0.045981 0.780353 0.696398
O O9 0.463267 0.862596 0.511162
O O10 0.293548 0.692626 0.372517
O O11 0.991637 0.696129 0.296709
O O12 0.058936 0.880246 0.211774
O O13 0.000000 0.000000 0.500000
O O14 0.475822 0.678447 0.644134
O O15 0.225959 0.356966 0.190576
O O16 0.000000 0.500000 0.000000
O O17 0.000000 0.000000 0.000000
#
# Coordination Sequence:
#
# PCOD9111200 Si02
#       8
#     2   2   1   2   2   2   2   2
#     4  10  21  42  70 102 141 185 246 294 369 436
#     4  12  24  50  79 106 146 201 256 294 373 467
#     4  10  20  42  70 108 134 192 250 296 358 450
#     4  12  30  47  73 114 153 190 254 316 380 432
#     4  11  25  44  76 106 149 194 251 308 376 448
#     4  10  23  42  70 106 142 189 246 303 370 437
#     4  12  27  46  71 112 151 197 250 315 373 444
#     4  12  26  48  71 106 147 197 240 310 376 444
#
# _framework density 24.564906000000001
#
# number of rings (size 3 to 8) (size 9 to 14) (size 15 to 20)
#    0.000    0.800    4.000    2.400    5.600    2.667 
#    0.000    2.000    0.000    0.000    0.000    0.000 
#    0.000    0.000    0.000    0.000    0.000    0.000 
#
# Total GULP energy -83732.232967 kJ/mol
# GULP energy per Si atom -5582.148864 kJ/mol
# Density = 2.450899 g / cm^3
# Si number density = 24.564906 Si / 1000 Ang^3
#
#
#
# Elastic Constant Matrix: (Units=GPa)
#
#
# Indices 1 2 3 4 5 6 
#
# 1 91.8656 25.6296 10.7721 1.3395 -4.2317 -10.7310
# 2 25.6296 78.6090 30.0748 -7.0060 2.7400 4.0560
# 3 10.7721 30.0748 146.3894 -28.1852 -16.3803 -0.1010
# 4 1.3395 -7.0060 -28.1852 45.3897 4.8567 -11.5499
# 5 -4.2317 2.7400 -16.3803 4.8567 24.0487 -5.1938
# 6 -10.7310 4.0560 -0.1010 -11.5499 -5.1938 34.8030
#
#
#
# Elastic Compliance Matrix: (Units=1/GPa)
#
#
# Indices 1 2 3 4 5 6 
#
# 1 0.012987 -0.004857 0.000545 0.000076 0.004327 0.005243
# 2 -0.004857 0.016133 -0.003660 -0.000087 -0.006103 -0.004328
# 3 0.000545 -0.003660 0.009304 0.005359 0.006495 0.003369
# 4 0.000076 -0.000087 0.005359 0.027688 0.000079 0.009250
# 5 0.004327 -0.006103 0.006495 0.000079 0.049494 0.009477
# 6 0.005243 -0.004328 0.003369 0.009250 0.009477 0.035348
#
#
# Mechanical properties :
#
#
# Convention : Reuss Voigt Hill
#
# Bulk Modulus (GPa) = 44.48460 49.97967 47.23214
# Shear Modulus (GPa) = 28.67095 37.54080 33.10588
#
# Velocity S-wave (km/s) = 3.42007 3.91350 3.67507
# Velocity P-wave (km/s) = 5.80897 6.38833 6.10552
#
# Compressibility (1/GPa) = 0.02247969
#
# Stress axis : x y z
#
# Youngs Moduli (GPa) = 76.99770 61.98365 107.48387
#
# Poissons Ratio (x) = 0.30108 -0.05855
# Poissons Ratio (y) = 0.37400 0.39336
# Poissons Ratio (z) = -0.04194 0.22684
#
# Static dielectric constant tensor:
#      x y z
#    x 1.996360 -0.016690 0.124550 
#    y -0.016690 1.970100 0.018380 
#    z 0.124550 0.018380 2.103040 
# 
# From -- ./inp_files/235645.got.cif
#   From: 2010.05.17/outbox.cif.g08.bks.cpg/sg2_118_cif.got.tgz:235645.got - 2010.06.03 11:33:40.
