data_PCOD9111332
_publ_section_title
;
Structure prediction by ZEFSAII (Michael W. Deem and Ramdas Pophale) SiO2 
 PCOD9111332
Probable space group: P -1
;
_chemical_formula_sum "Si O2"
_cell_formula_units_Z 16
_cell_length_a 11.241755
_cell_length_b 9.565584
_cell_length_c 9.581809
_cell_angle_alpha 57.296823
_cell_angle_beta 132.067920
_cell_angle_gamma 113.110698
_cell_volume 642.877244
_symmetry_space_group_name_H-M "P -1"
_symmetry_group_IT_number 2
_symmetry_cell_setting 'triclinic'
loop_
_space_group_symop_operation_xyz
x,y,z
-x,-y,-z
loop_
_atom_site_type_symbol
_atom_site_label
_atom_site_fract_x
_atom_site_fract_y
_atom_site_fract_z
Si Si1 0.670228 0.695322 0.646723
Si Si2 0.562679 0.478836 0.218357
Si Si3 0.157152 0.746251 0.340854
Si Si4 0.079770 0.465264 0.229938
Si Si5 0.510014 0.828780 0.011810
Si Si6 0.429972 0.956627 0.314391
Si Si7 0.153774 0.833600 0.742998
Si Si8 0.060022 0.027848 0.300122
O O1 0.578459 0.603138 0.751020
O O2 0.739930 0.571704 0.654673
O O3 0.540477 0.815128 0.417045
O O4 0.821983 0.820499 0.742638
O O5 0.712203 0.358118 0.414687
O O6 0.500000 0.500000 0.000000
O O7 0.608599 0.666809 0.208088
O O8 0.064840 0.614276 0.243320
O O9 0.257245 0.873268 0.251037
O O10 0.055165 0.865608 0.289505
O O11 0.988241 0.305190 0.310651
O O12 0.000000 0.500000 0.000000
O O13 0.325473 0.759910 0.911564
O O14 0.557264 0.889608 0.861121
O O15 0.500000 0.000000 0.000000
O O16 0.500000 0.000000 0.500000
O O17 0.144543 0.969142 0.541524
O O18 0.111143 0.915002 0.813698
#
# Coordination Sequence:
#
# PCOD9111332 Si02
#       8
#     2   2   2   2   2   2   2   2
#     4  10  21  41  70  93 141 185 230 288 356 417
#     4  11  25  41  68 108 145 177 226 303 360 415
#     4  11  25  42  73 106 138 189 243 280 361 421
#     4  11  26  44  66  99 144 191 236 294 343 418
#     4  12  26  41  70 106 139 175 236 300 353 423
#     4  11  21  41  73  99 139 180 233 296 352 424
#     4  10  22  43  69  97 141 187 229 285 358 416
#     4  10  20  42  72  99 132 188 235 279 344 436
#
# _framework density 24.888112
#
# number of rings (size 3 to 8) (size 9 to 14) (size 15 to 20)
#    0.000    1.250    2.500    3.000    5.250    1.500 
#    0.000    6.250    0.000    0.000    0.000    0.000 
#    0.000    0.000    0.000    0.000    0.000    0.000 
#
# Total GULP energy -89581.704874 kJ/mol
# GULP energy per Si atom -5598.856555 kJ/mol
# Density = 2.483147 g / cm^3
# Si number density = 24.888112 Si / 1000 Ang^3
#
#
#
# Elastic Constant Matrix: (Units=GPa)
#
#
# Indices 1 2 3 4 5 6 
#
# 1 93.4115 39.8579 19.9366 -15.1659 -14.3658 -8.3779
# 2 39.8579 154.1147 31.8535 -12.9824 -25.9845 -25.8560
# 3 19.9366 31.8535 103.0631 -12.5486 -25.6354 4.4665
# 4 -15.1659 -12.9824 -12.5486 38.4482 0.1351 -6.9628
# 5 -14.3658 -25.9845 -25.6354 0.1351 26.7793 -11.2546
# 6 -8.3779 -25.8560 4.4665 -6.9628 -11.2546 40.5393
#
#
#
# Elastic Compliance Matrix: (Units=1/GPa)
#
#
# Indices 1 2 3 4 5 6 
#
# 1 0.014053 -0.000217 0.000547 0.006852 0.010696 0.006852
# 2 -0.000217 0.012539 0.001173 0.007064 0.019173 0.014359
# 3 0.000547 0.001173 0.013944 0.006017 0.016869 0.005042
# 4 0.006852 0.007064 0.006017 0.036249 0.023699 0.018064
# 5 0.010696 0.019173 0.016869 0.023699 0.095900 0.043275
# 6 0.006852 0.014359 0.005042 0.018064 0.043275 0.049803
#
#
# Mechanical properties :
#
#
# Convention : Reuss Voigt Hill
#
# Bulk Modulus (GPa) = 22.96637 59.32058 41.14347
# Shear Modulus (GPa) = 21.36771 38.41610 29.89191
#
# Velocity S-wave (km/s) = 2.93328 3.93307 3.46938
# Velocity P-wave (km/s) = 4.55193 6.67173 5.71105
#
# Compressibility (1/GPa) = 0.04354192
#
# Stress axis : x y z
#
# Youngs Moduli (GPa) = 71.15754 79.74990 71.71344
#
# Poissons Ratio (x) = 0.01734 -0.03919
# Poissons Ratio (y) = 0.01547 -0.08415
# Poissons Ratio (z) = -0.03889 -0.09358
#
# Static dielectric constant tensor:
#      x y z
#    x 1.949630 -0.038950 0.014820 
#    y -0.038950 2.061310 0.027240 
#    z 0.014820 0.027240 1.975100 
# 
# From -- ./inp_files/242712.got.cif
#   From: 2010.05.17/outbox.cif.g08.bks.cpg/sg2_122_cif.got.tgz:242712.got - 2010.06.03 11:33:40.
