data_PCOD9111514
_publ_section_title
;
Structure prediction by ZEFSAII (Michael W. Deem and Ramdas Pophale) SiO2 
 PCOD9111514
Probable space group: P -1
;
_chemical_formula_sum "Si O2"
_cell_formula_units_Z 16
_cell_length_a 13.658122
_cell_length_b 8.488257
_cell_length_c 19.686458
_cell_angle_alpha 65.909903
_cell_angle_beta 156.955449
_cell_angle_gamma 101.233156
_cell_volume 703.508706
_symmetry_space_group_name_H-M "P -1"
_symmetry_group_IT_number 2
_symmetry_cell_setting 'triclinic'
loop_
_space_group_symop_operation_xyz
x,y,z
-x,-y,-z
loop_
_atom_site_type_symbol
_atom_site_label
_atom_site_fract_x
_atom_site_fract_y
_atom_site_fract_z
Si Si1 0.860408 0.775749 0.595091
Si Si2 0.730218 0.554245 0.271175
Si Si3 0.102264 0.887825 0.857399
Si Si4 0.209550 0.498571 0.299297
Si Si5 0.842563 0.713068 0.823774
Si Si6 0.248687 0.795563 0.725293
Si Si7 0.312433 0.158786 0.913329
Si Si8 0.225851 0.079813 0.120547
O O1 0.874844 0.585680 0.674414
O O2 0.114793 0.735014 0.713109
O O3 0.548104 0.906491 0.335416
O O4 0.924026 0.883320 0.679570
O O5 0.438353 0.726994 0.087599
O O6 0.668318 0.376466 0.246491
O O7 0.804446 0.633955 0.236386
O O8 0.000000 0.500000 0.500000
O O9 0.015595 0.809102 0.881458
O O10 0.088465 0.099291 0.810892
O O11 0.500000 0.500000 0.500000
O O12 0.290243 0.338069 0.317253
O O13 0.948088 0.715888 0.070165
O O14 0.698585 0.860758 0.768691
O O15 0.000000 0.500000 0.000000
O O16 0.487577 0.839008 0.899922
O O17 0.000000 0.000000 0.500000
O O18 0.500000 0.000000 0.000000
O O19 0.000000 0.000000 0.000000
#
# Coordination Sequence:
#
# PCOD9111514 Si02
#       8
#     2   2   2   2   2   2   2   2
#     4  11  24  43  68  98 138 175 226 276 336 402
#     4  11  24  43  69  97 133 178 225 277 340 397
#     4  10  22  44  70  94 136 175 220 277 341 393
#     4  10  21  45  68  93 134 171 218 284 332 395
#     4   9  22  43  68  96 132 171 220 275 331 401
#     4  12  25  42  69  96 136 178 227 277 338 402
#     4  10  20  43  65  95 134 166 219 282 326 406
#     4  11  23  43  70  98 133 176 225 274 336 398
#
# _framework density 22.743143
#
# number of rings (size 3 to 8) (size 9 to 14) (size 15 to 20)
#    0.000    1.500    3.750    1.875    0.000    7.000 
#    2.250    0.000    0.000    0.000    0.000    0.000 
#    0.000    0.000    0.000    0.000    0.000    0.000 
#
# Total GULP energy -89358.682376 kJ/mol
# GULP energy per Si atom -5584.917648 kJ/mol
# Density = 2.269138 g / cm^3
# Si number density = 22.743143 Si / 1000 Ang^3
#
#
#
# Elastic Constant Matrix: (Units=GPa)
#
#
# Indices 1 2 3 4 5 6 
#
# 1 60.3949 13.3343 8.0314 -1.6118 -12.8245 20.5216
# 2 13.3343 115.6090 23.6057 7.0468 -12.6951 23.5784
# 3 8.0314 23.6057 124.8329 10.5529 -15.7435 10.7595
# 4 -1.6118 7.0468 10.5529 30.8277 3.5560 -0.8990
# 5 -12.8245 -12.6951 -15.7435 3.5560 29.9748 0.7767
# 6 20.5216 23.5784 10.7595 -0.8990 0.7767 41.5302
#
#
#
# Elastic Compliance Matrix: (Units=1/GPa)
#
#
# Indices 1 2 3 4 5 6 
#
# 1 0.022690 0.000961 0.000881 -0.000961 0.011008 -0.012212
# 2 0.000961 0.010758 -0.000626 -0.002982 0.005163 -0.006582
# 3 0.000881 -0.000626 0.009312 -0.003713 0.005512 -0.002676
# 4 -0.000961 -0.002982 -0.003713 0.035373 -0.007925 0.004044
# 5 0.011008 0.005163 0.005512 -0.007925 0.044373 -0.010800
# 6 -0.012212 -0.006582 -0.002676 0.004044 -0.010800 0.034833
#
#
# Mechanical properties :
#
#
# Convention : Reuss Voigt Hill
#
# Bulk Modulus (GPa) = 22.12786 43.41993 32.77390
# Shear Modulus (GPa) = 29.41697 37.52424 33.47060
#
# Velocity S-wave (km/s) = 3.60035 4.06632 3.84041
# Velocity P-wave (km/s) = 5.19942 6.41713 5.84010
#
# Compressibility (1/GPa) = 0.04519190
#
# Stress axis : x y z
#
# Youngs Moduli (GPa) = 44.07272 92.95591 107.38764
#
# Poissons Ratio (x) = -0.08935 -0.09456
# Poissons Ratio (y) = -0.04236 0.06718
# Poissons Ratio (z) = -0.03881 0.05815
#
# Static dielectric constant tensor:
#      x y z
#    x 1.817230 0.028200 0.021920 
#    y 0.028200 1.766580 -0.075130 
#    z 0.021920 -0.075130 1.788060 
# 
# From -- ./inp_files/347632.got.cif
#   From: 2010.05.17/outbox.cif.g08.bks.cpg/sg2_174_cif.got.tgz:347632.got - 2010.06.03 11:33:40.
