data_PCOD9111782
_publ_section_title
;
Structure prediction by ZEFSAII (Michael W. Deem and Ramdas Pophale) SiO2 
 PCOD9111782
Probable space group: P -1
;
_chemical_formula_sum "Si O2"
_cell_formula_units_Z 16
_cell_length_a 9.830281
_cell_length_b 10.910889
_cell_length_c 10.900443
_cell_angle_alpha 53.069466
_cell_angle_beta 114.349995
_cell_angle_gamma 127.442734
_cell_volume 739.979420
_symmetry_space_group_name_H-M "P -1"
_symmetry_group_IT_number 2
_symmetry_cell_setting 'triclinic'
loop_
_space_group_symop_operation_xyz
x,y,z
-x,-y,-z
loop_
_atom_site_type_symbol
_atom_site_label
_atom_site_fract_x
_atom_site_fract_y
_atom_site_fract_z
Si Si1 0.622587 0.954995 0.492126
Si Si2 0.683406 0.166695 0.940879
Si Si3 0.002922 0.173941 0.944680
Si Si4 0.181412 0.471433 0.327849
Si Si5 0.143863 0.773153 0.774875
Si Si6 0.823310 0.672980 0.322231
Si Si7 0.466137 0.418981 0.399370
Si Si8 0.052890 0.064156 0.270129
O O1 0.529510 0.759850 0.515414
O O2 0.785578 0.959440 0.620013
O O3 0.500000 0.000000 0.500000
O O4 0.701327 0.105781 0.328780
O O5 0.810169 0.123500 0.936475
O O6 0.687573 0.324633 0.771369
O O7 0.779925 0.246728 0.057438
O O8 0.500000 0.000000 0.000000
O O9 0.083260 0.314039 0.779747
O O10 0.099607 0.206421 0.091596
O O11 0.000000 0.000000 0.000000
O O12 0.157047 0.426114 0.490775
O O13 0.271319 0.378333 0.341041
O O14 0.996525 0.403697 0.237800
O O15 0.047701 0.886172 0.697522
O O16 0.618178 0.572537 0.284871
O O17 0.906054 0.872387 0.282056
O O18 0.500000 0.500000 0.500000
#
# Coordination Sequence:
#
# PCOD9111782 Si02
#       8
#     2   2   2   2   2   2   2   2
#     4  12  25  42  68 108 140 175 231 294 351 405
#     4  11  27  41  67 100 132 177 236 292 335 414
#     4   9  22  42  66  94 137 177 222 275 356 406
#     4  11  22  41  68  96 132 178 235 281 340 411
#     4  11  22  43  68  90 137 181 232 270 350 424
#     4  10  21  40  69  97 135 179 230 279 345 409
#     4  10  23  41  67 105 136 179 230 285 340 418
#     4  10  20  43  70  94 133 188 227 271 345 430
#
# _framework density 21.622223999999999
#
# number of rings (size 3 to 8) (size 9 to 14) (size 15 to 20)
#    0.000    1.500    2.500    2.250    8.750    3.500 
#    0.000    0.625    0.000    0.000    0.000    0.000 
#    0.000    0.000    0.000    0.000    0.000    0.000 
#
# Total GULP energy -89211.811035 kJ/mol
# GULP energy per Si atom -5575.738190 kJ/mol
# Density = 2.157301 g / cm^3
# Si number density = 21.622224 Si / 1000 Ang^3
#
#
#
# Elastic Constant Matrix: (Units=GPa)
#
#
# Indices 1 2 3 4 5 6 
#
# 1 127.4006 14.6653 59.6381 -2.7032 -31.7301 -7.2171
# 2 14.6653 78.5274 28.9151 -13.3917 -17.3794 9.1164
# 3 59.6381 28.9151 139.4866 -14.7950 -29.6624 12.0375
# 4 -2.7032 -13.3917 -14.7950 25.3985 5.5283 2.0378
# 5 -31.7301 -17.3794 -29.6624 5.5283 41.9016 -8.3224
# 6 -7.2171 9.1164 12.0375 2.0378 -8.3224 28.4676
#
#
#
# Elastic Compliance Matrix: (Units=1/GPa)
#
#
# Indices 1 2 3 4 5 6 
#
# 1 0.012426 -0.000433 -0.004612 -0.003978 0.008055 0.007879
# 2 -0.000433 0.015742 -0.001207 0.007097 0.003597 -0.004097
# 3 -0.004612 -0.001207 0.010796 0.005151 0.001948 -0.005147
# 4 -0.003978 0.007097 0.005151 0.047543 -0.004730 -0.010245
# 5 0.008055 0.003597 0.001948 -0.004730 0.035608 0.010815
# 6 0.007879 -0.004097 -0.005147 -0.010245 0.010815 0.044508
#
#
# Mechanical properties :
#
#
# Convention : Reuss Voigt Hill
#
# Bulk Modulus (GPa) = 37.79266 61.31683 49.55475
# Shear Modulus (GPa) = 26.60341 35.29995 30.95168
#
# Velocity S-wave (km/s) = 3.51147 4.04490 3.78759
# Velocity P-wave (km/s) = 5.82728 7.08765 6.48814
#
# Compressibility (1/GPa) = 0.02646016
#
# Stress axis : x y z
#
# Youngs Moduli (GPa) = 80.47587 63.52624 92.62782
#
# Poissons Ratio (x) = 0.02748 0.42720
# Poissons Ratio (y) = 0.03482 0.11180
# Poissons Ratio (z) = 0.37116 0.07668
#
# Static dielectric constant tensor:
#      x y z
#    x 1.832020 0.033450 0.058670 
#    y 0.033450 1.844930 0.085800 
#    z 0.058670 0.085800 2.129580 
# 
# From -- ./inp_files/392141.got.cif
#   From: 2010.05.17/outbox.cif.g08.bks.cpg/sg2_197_cif.got.tgz:392141.got - 2010.06.03 11:33:40.
