data_PCOD9111941
_publ_section_title
;
Structure prediction by ZEFSAII (Michael W. Deem and Ramdas Pophale) SiO2 
 PCOD9111941
Probable space group: P -1
;
_chemical_formula_sum "Si O2"
_cell_formula_units_Z 15
_cell_length_a 17.775844
_cell_length_b 9.015269
_cell_length_c 5.279771
_cell_angle_alpha 96.521072
_cell_angle_beta 114.442159
_cell_angle_gamma 51.523494
_cell_volume 590.605138
_symmetry_space_group_name_H-M "P -1"
_symmetry_group_IT_number 2
_symmetry_cell_setting 'triclinic'
loop_
_space_group_symop_operation_xyz
x,y,z
-x,-y,-z
loop_
_atom_site_type_symbol
_atom_site_label
_atom_site_fract_x
_atom_site_fract_y
_atom_site_fract_z
Si Si1 0.500000 0.500000 0.500000
Si Si2 0.461406 0.863132 0.731294
Si Si3 0.404976 0.229377 0.601977
Si Si4 0.231486 0.688543 0.410626
Si Si5 0.040539 0.797458 0.425941
Si Si6 0.034455 0.587629 0.758738
Si Si7 0.138116 0.201128 0.056100
Si Si8 0.291484 0.798500 0.013128
O O1 0.444541 0.709751 0.613720
O O2 0.417673 0.625396 0.175171
O O3 0.548460 0.810813 0.625814
O O4 0.373312 0.095287 0.605678
O O5 0.507755 0.830011 0.071337
O O6 0.317506 0.459388 0.531418
O O7 0.117265 0.742072 0.290339
O O8 0.247793 0.745903 0.174261
O O9 0.247842 0.787617 0.682827
O O10 0.095591 0.644178 0.700353
O O11 0.000000 0.000000 0.500000
O O12 0.940481 0.812231 0.221513
O O13 0.000000 0.500000 0.500000
O O14 0.920052 0.768914 0.752318
O O15 0.111463 0.406709 0.020625
O O16 0.251142 0.010072 0.078496
#
# Coordination Sequence:
#
# PCOD9111941 Si02
#       8
#     1   2   2   2   2   2   2   2
#     4  12  24  48  68 104 130 184 236 286 346 410
#     4  10  22  39  70  88 131 170 226 271 347 392
#     4  10  20  44  63  94 128 176 210 287 335 402
#     4  12  24  43  67 102 137 174 230 283 345 409
#     4  11  22  38  71  99 134 178 225 273 345 414
#     4   9  21  42  66  95 141 179 223 281 339 411
#     4  10  22  44  65  97 140 178 225 282 344 405
#     4  12  27  42  71  99 138 181 227 295 342 410
#
# _framework density 25.397679
#
# number of rings (size 3 to 8) (size 9 to 14) (size 15 to 20)
#    0.000    1.333    4.000    0.800    3.733    3.200 
#    7.200    2.667    0.000    0.000    0.000    0.000 
#    0.000    0.000    0.000    0.000    0.000    0.000 
#
# Total GULP energy -83530.262907 kJ/mol
# GULP energy per Si atom -5568.684194 kJ/mol
# Density = 2.533987 g / cm^3
# Si number density = 25.397679 Si / 1000 Ang^3
#
#
#
# Elastic Constant Matrix: (Units=GPa)
#
#
# Indices 1 2 3 4 5 6 
#
# 1 52.7608 15.6969 18.7143 -2.7530 -25.5747 15.1488
# 2 15.6969 137.1083 11.4947 11.6873 -12.4948 3.9965
# 3 18.7143 11.4947 85.8401 17.0961 -14.8408 5.2157
# 4 -2.7530 11.6873 17.0961 41.5779 -2.1589 3.5865
# 5 -25.5747 -12.4948 -14.8408 -2.1589 33.4540 -0.5278
# 6 15.1488 3.9965 5.2157 3.5865 -0.5278 37.9664
#
#
#
# Elastic Compliance Matrix: (Units=1/GPa)
#
#
# Indices 1 2 3 4 5 6 
#
# 1 0.039083 -0.001813 -0.004075 0.007517 0.027639 -0.015170
# 2 -0.001813 0.007816 0.000036 -0.002270 0.001405 0.000130
# 3 -0.004075 0.000036 0.014197 -0.005995 0.002814 0.000277
# 4 0.007517 -0.002270 -0.005995 0.028252 0.003990 -0.004550
# 5 0.027639 0.001405 0.002814 0.003990 0.052875 -0.011205
# 6 -0.015170 0.000130 0.000277 -0.004550 -0.011205 0.032614
#
#
# Mechanical properties :
#
#
# Convention : Reuss Voigt Hill
#
# Bulk Modulus (GPa) = 20.24597 40.83568 30.54083
# Shear Modulus (GPa) = 24.62999 37.91986 31.27492
#
# Velocity S-wave (km/s) = 3.11750 3.86818 3.51295
# Velocity P-wave (km/s) = 4.57682 6.00532 5.33906
#
# Compressibility (1/GPa) = 0.04939254
#
# Stress axis : x y z
#
# Youngs Moduli (GPa) = 25.58629 127.94650 70.43868
#
# Poissons Ratio (x) = 0.23192 0.28702
# Poissons Ratio (y) = 0.04638 -0.00251
# Poissons Ratio (z) = 0.10426 -0.00456
#
# Static dielectric constant tensor:
#      x y z
#    x 2.135710 -0.046400 -0.056970 
#    y -0.046400 2.128110 -0.039050 
#    z -0.056970 -0.039050 2.212470 
# 
# From -- ./inp_files/104950.got.cif
#   From: 2010.05.17/outbox.cif.g08.bks.cpg/sg2_53_cif.got.tgz:104950.got - 2010.06.03 11:33:40.
