data_PCOD9111685
_publ_section_title
;
Structure prediction by ZEFSAII (Michael W. Deem and Ramdas Pophale) SiO2 
 PCOD9111685
Probable space group: P -1
;
_chemical_formula_sum "Si O2"
_cell_formula_units_Z 16
_cell_length_a 10.986556
_cell_length_b 23.517823
_cell_length_c 17.712495
_cell_angle_alpha 20.624397
_cell_angle_beta 140.683316
_cell_angle_gamma 151.928474
_cell_volume 720.056385
_symmetry_space_group_name_H-M "P -1"
_symmetry_group_IT_number 2
_symmetry_cell_setting 'triclinic'
loop_
_space_group_symop_operation_xyz
x,y,z
-x,-y,-z
loop_
_atom_site_type_symbol
_atom_site_label
_atom_site_fract_x
_atom_site_fract_y
_atom_site_fract_z
Si Si1 0.919763 0.167406 0.535992
Si Si2 0.403746 0.271860 0.559134
Si Si3 0.843280 0.781771 0.637450
Si Si4 0.980085 0.250122 0.004893
Si Si5 0.995159 0.541768 0.532449
Si Si6 0.383907 0.921674 0.356023
Si Si7 0.938961 0.381637 0.983554
Si Si8 0.664032 0.843983 0.690756
O O1 0.825226 0.115216 0.642325
O O2 0.198393 0.243377 0.552356
O O3 0.670218 0.928990 0.669714
O O4 0.969474 0.380339 0.268061
O O5 0.409388 0.327274 0.402749
O O6 0.700777 0.447745 0.518558
O O7 0.268917 0.015474 0.805582
O O8 0.829669 0.602917 0.893429
O O9 0.000000 0.000000 0.500000
O O10 0.067383 0.910295 0.520160
O O11 0.903556 0.297549 0.985729
O O12 0.241941 0.286528 0.098501
O O13 0.017830 0.395736 0.775055
O O14 0.000000 0.500000 0.500000
O O15 0.238021 0.796710 0.362837
O O16 0.446698 0.788892 0.596713
O O17 0.664346 0.181469 0.148271
#
# Coordination Sequence:
#
# PCOD9111685 Si02
#       8
#     2   2   2   2   2   2   2   2
#     4  10  22  45  63 100 131 173 218 263 334 384
#     4  10  23  42  67  91 133 175 215 270 319 392
#     4   9  16  33  64  94 122 158 214 263 321 373
#     4  10  20  43  68  95 124 176 214 274 336 371
#     4  12  26  42  63  99 132 171 226 267 321 393
#     4  11  24  40  66  98 137 169 216 272 316 396
#     4  11  20  39  73  96 129 170 216 270 338 375
#     4   9  21  38  70  99 129 166 216 279 327 381
#
# _framework density 22.220482000000001
#
# number of rings (size 3 to 8) (size 9 to 14) (size 15 to 20)
#    0.000    2.000    3.750    1.500    1.750    5.500 
#    6.750    0.625    0.000    0.000    0.000    0.000 
#    0.000    0.000    0.000    0.000    0.000    0.000 
#
# Total GULP energy -89200.269903 kJ/mol
# GULP energy per Si atom -5575.016869 kJ/mol
# Density = 2.216991 g / cm^3
# Si number density = 22.220482 Si / 1000 Ang^3
#
#
#
# Elastic Constant Matrix: (Units=GPa)
#
#
# Indices 1 2 3 4 5 6 
#
# 1 120.3273 32.0647 32.2005 8.8117 0.1875 -4.2754
# 2 32.0647 104.4397 18.8050 -0.7472 -0.2634 5.5487
# 3 32.2005 18.8050 90.9957 -0.5779 -1.0497 -2.8249
# 4 8.8117 -0.7472 -0.5779 19.3150 -6.7313 -7.6162
# 5 0.1875 -0.2634 -1.0497 -6.7313 28.7428 0.5543
# 6 -4.2754 5.5487 -2.8249 -7.6162 0.5543 35.9292
#
#
#
# Elastic Compliance Matrix: (Units=1/GPa)
#
#
# Indices 1 2 3 4 5 6 
#
# 1 0.010247 -0.002641 -0.003122 -0.005259 -0.001442 0.000289
# 2 -0.002641 0.010733 -0.001332 0.000953 0.000326 -0.001880
# 3 -0.003122 -0.001332 0.012441 0.002648 0.001057 0.001357
# 4 -0.005259 0.000953 0.002648 0.064610 0.015022 0.012900
# 5 -0.001442 0.000326 0.001057 0.015022 0.038313 0.002454
# 6 0.000289 -0.001880 0.001357 0.012900 0.002454 0.030960
#
#
# Mechanical properties :
#
#
# Convention : Reuss Voigt Hill
#
# Bulk Modulus (GPa) = 51.99618 53.54480 52.77049
# Shear Modulus (GPa) = 26.60930 32.31025 29.45977
#
# Velocity S-wave (km/s) = 3.46426 3.81737 3.64509
# Velocity P-wave (km/s) = 6.28111 6.60145 6.44327
#
# Compressibility (1/GPa) = 0.01923218
#
# Stress axis : x y z
#
# Youngs Moduli (GPa) = 97.58620 93.17066 80.38196
#
# Poissons Ratio (x) = 0.24603 0.25092
# Poissons Ratio (y) = 0.25769 0.10708
# Poissons Ratio (z) = 0.30462 0.12412
#
# Static dielectric constant tensor:
#      x y z
#    x 1.896280 0.016910 0.016490 
#    y 0.016910 1.943960 0.017650 
#    z 0.016490 0.017650 1.818890 
# 
# From -- ./inp_files/571021.got.cif
#   From: 2010.05.17/outbox.cif.g08.bks.cpg/sg2_286_cif.got.tgz:571021.got - 2010.06.03 11:33:40.
