data_PCOD9111664
_publ_section_title
;
Structure prediction by ZEFSAII (Michael W. Deem and Ramdas Pophale) SiO2 
 PCOD9111664
Probable space group: P -1
;
_chemical_formula_sum "Si O2"
_cell_formula_units_Z 16
_cell_length_a 15.970954
_cell_length_b 8.954760
_cell_length_c 9.471913
_cell_angle_alpha 65.520275
_cell_angle_beta 136.103465
_cell_angle_gamma 121.787052
_cell_volume 796.979590
_symmetry_space_group_name_H-M "P -1"
_symmetry_group_IT_number 2
_symmetry_cell_setting 'triclinic'
loop_
_space_group_symop_operation_xyz
x,y,z
-x,-y,-z
loop_
_atom_site_type_symbol
_atom_site_label
_atom_site_fract_x
_atom_site_fract_y
_atom_site_fract_z
Si Si1 0.818326 0.133921 0.572998
Si Si2 0.815479 0.017951 0.918110
Si Si3 0.520125 0.976340 0.199402
Si Si4 0.055764 0.471753 0.429924
Si Si5 0.404055 0.607670 0.370863
Si Si6 0.871026 0.395227 0.974373
Si Si7 0.526617 0.840358 0.672760
Si Si8 0.969150 0.875593 0.377782
O O1 0.859084 0.059202 0.793669
O O2 0.843175 0.337333 0.562117
O O3 0.902950 0.127874 0.543353
O O4 0.670740 0.026827 0.399080
O O5 0.813688 0.197803 0.918183
O O6 0.673236 0.870756 0.802078
O O7 0.900631 0.946608 0.147443
O O8 0.446922 0.780087 0.251205
O O9 0.482361 0.118715 0.190076
O O10 0.500000 0.000000 0.000000
O O11 0.110716 0.318564 0.583918
O O12 0.000000 0.500000 0.500000
O O13 0.935232 0.402891 0.202822
O O14 0.500000 0.500000 0.500000
O O15 0.246449 0.529788 0.195818
O O16 0.432866 0.670822 0.544403
O O17 0.000000 0.500000 0.000000
O O18 0.500000 0.000000 0.500000
O O19 0.000000 0.000000 0.500000
#
# Coordination Sequence:
#
# PCOD9111664 Si02
#       8
#     2   2   2   2   2   2   2   2
#     4  11  23  43  66  94 129 175 227 266 331 403
#     4  12  21  42  70  93 126 177 223 271 325 401
#     4  11  24  43  72  94 128 180 226 271 332 407
#     4  10  24  41  60  93 134 172 212 274 333 398
#     4  11  25  45  69 101 135 173 225 284 335 400
#     4  12  23  40  71  98 132 180 222 269 340 401
#     4  10  20  43  68  89 127 175 221 260 330 401
#     4  11  25  39  62  99 136 170 217 278 336 389
#
# _framework density 20.075796
#
# number of rings (size 3 to 8) (size 9 to 14) (size 15 to 20)
#    0.000    1.000    7.500    0.375    5.250    3.000 
#    0.000    0.625    0.000    0.000    0.000    0.000 
#    0.000    0.000    0.000    0.000    0.000    0.000 
#
# Total GULP energy -89213.027016 kJ/mol
# GULP energy per Si atom -5575.814188 kJ/mol
# Density = 2.003010 g / cm^3
# Si number density = 20.075796 Si / 1000 Ang^3
#
#
#
# Elastic Constant Matrix: (Units=GPa)
#
#
# Indices 1 2 3 4 5 6 
#
# 1 98.5274 32.4925 52.4362 -1.5551 -13.2375 -3.8470
# 2 32.4925 55.4130 51.1006 -5.6071 -3.6566 -5.2954
# 3 52.4362 51.1006 98.0913 0.2102 -23.8477 8.4010
# 4 -1.5551 -5.6071 0.2102 28.2163 -7.4842 0.0780
# 5 -13.2375 -3.6566 -23.8477 -7.4842 49.1726 9.9348
# 6 -3.8470 -5.2954 8.4010 0.0780 9.9348 31.6230
#
#
#
# Elastic Compliance Matrix: (Units=1/GPa)
#
#
# Indices 1 2 3 4 5 6 
#
# 1 0.014729 -0.001066 -0.007798 0.000487 -0.000605 0.003874
# 2 -0.001066 0.046987 -0.029024 0.005725 -0.014005 0.019835
# 3 -0.007798 -0.029024 0.035292 -0.001979 0.016683 -0.020421
# 4 0.000487 0.005725 -0.001979 0.038064 0.005443 -0.000260
# 5 -0.000605 -0.014005 0.016683 0.005443 0.031434 -0.016740
# 6 0.003874 0.019835 -0.020421 -0.000260 -0.016740 0.046100
#
#
# Mechanical properties :
#
#
# Convention : Reuss Voigt Hill
#
# Bulk Modulus (GPa) = 47.09756 58.23226 52.66491
# Shear Modulus (GPa) = 16.92275 29.53587 23.22931
#
# Velocity S-wave (km/s) = 2.90650 3.83981 3.40528
# Velocity P-wave (km/s) = 5.89699 6.98054 6.46152
#
# Compressibility (1/GPa) = 0.02123252
#
# Stress axis : x y z
#
# Youngs Moduli (GPa) = 67.89438 21.28239 28.33464
#
# Poissons Ratio (x) = 0.02268 0.22096
# Poissons Ratio (y) = 0.07236 0.82239
# Poissons Ratio (z) = 0.52945 0.61770
#
# Static dielectric constant tensor:
#      x y z
#    x 1.725110 -0.022770 0.024390 
#    y -0.022770 1.734330 0.016780 
#    z 0.024390 0.016780 1.679330 
# 
# From -- ./inp_files/298063.got.cif
#   From: 2010.05.17/outbox.cif.g08.bks.cpg/sg2_150_cif.got.tgz:298063.got - 2010.06.03 11:33:40.
