data_PCOD9111325
_publ_section_title
;
Structure prediction by ZEFSAII (Michael W. Deem and Ramdas Pophale) SiO2 
 PCOD9111325
Probable space group: P -1
;
_chemical_formula_sum "Si O2"
_cell_formula_units_Z 16
_cell_length_a 9.616128
_cell_length_b 12.074921
_cell_length_c 28.155284
_cell_angle_alpha 150.282520
_cell_angle_beta 28.065637
_cell_angle_gamma 144.954496
_cell_volume 743.029986
_symmetry_space_group_name_H-M "P -1"
_symmetry_group_IT_number 2
_symmetry_cell_setting 'triclinic'
loop_
_space_group_symop_operation_xyz
x,y,z
-x,-y,-z
loop_
_atom_site_type_symbol
_atom_site_label
_atom_site_fract_x
_atom_site_fract_y
_atom_site_fract_z
Si Si1 0.348913 0.686423 0.090239
Si Si2 0.651938 0.537930 0.276447
Si Si3 0.847623 0.234776 0.459596
Si Si4 0.669127 0.295012 0.367569
Si Si5 0.273364 0.056157 0.708566
Si Si6 0.754750 0.275114 0.973850
Si Si7 0.528379 0.825260 0.722449
Si Si8 0.374608 0.418330 0.219315
O O1 0.361261 0.684319 0.028677
O O2 0.995963 0.629707 0.190995
O O3 0.500666 0.939014 0.156941
O O4 0.500000 0.500000 0.000000
O O5 0.472236 0.740827 0.413232
O O6 0.617297 0.386113 0.277881
O O7 0.482114 0.381943 0.226619
O O8 0.000000 0.500000 0.500000
O O9 0.108824 0.164924 0.386535
O O10 0.799047 0.085319 0.370891
O O11 0.500000 0.500000 0.500000
O O12 0.622469 0.206604 0.295133
O O13 0.019025 0.389000 0.310449
O O14 0.561931 0.086212 0.358661
O O15 0.465968 0.313313 0.738303
O O16 0.953671 0.084852 0.838177
O O17 0.496467 0.261296 0.085759
O O18 0.000000 0.500000 0.000000
#
# Coordination Sequence:
#
# PCOD9111325 Si02
#       8
#     2   2   2   2   2   2   2   2
#     4  12  27  45  68 100 142 177 223 287 340 405
#     4  11  23  44  72 100 133 175 231 276 342 401
#     4  10  20  42  72  98 134 172 228 282 325 411
#     4  12  27  44  66 105 143 178 224 282 339 405
#     4  11  23  46  73  98 134 183 230 278 335 401
#     4  10  22  47  69 100 131 175 240 273 328 410
#     4  11  25  43  66 103 140 175 219 283 351 392
#     4  11  25  44  73  99 133 182 233 279 329 411
#
# _framework density 21.533449999999998
#
# number of rings (size 3 to 8) (size 9 to 14) (size 15 to 20)
#    0.000    1.000    3.750    3.750    5.250    4.500 
#    0.000    0.000    0.000    0.000    0.000    0.000 
#    0.000    0.000    0.000    0.000    0.000    0.000 
#
# Total GULP energy -89525.216271 kJ/mol
# GULP energy per Si atom -5595.326017 kJ/mol
# Density = 2.148444 g / cm^3
# Si number density = 21.533450 Si / 1000 Ang^3
#
#
#
# Elastic Constant Matrix: (Units=GPa)
#
#
# Indices 1 2 3 4 5 6 
#
# 1 113.4496 15.6840 5.9040 11.6872 13.1055 -1.6981
# 2 15.6840 59.8869 8.4796 9.3684 7.9454 2.9472
# 3 5.9040 8.4796 112.8611 7.1632 9.7400 -0.5148
# 4 11.6872 9.3684 7.1632 42.8430 -1.6443 -2.3534
# 5 13.1055 7.9454 9.7400 -1.6443 41.2916 8.0959
# 6 -1.6981 2.9472 -0.5148 -2.3534 8.0959 30.3172
#
#
#
# Elastic Compliance Matrix: (Units=1/GPa)
#
#
# Indices 1 2 3 4 5 6 
#
# 1 0.009680 -0.001841 0.000050 -0.002290 -0.003089 0.001369
# 2 -0.001841 0.018267 -0.000836 -0.003533 -0.002584 -0.001477
# 3 0.000050 -0.000836 0.009206 -0.001416 -0.002225 0.000725
# 4 -0.002290 -0.003533 -0.001416 0.025151 0.002450 0.001489
# 5 -0.003089 -0.002584 -0.002225 0.002450 0.027725 -0.007173
# 6 0.001369 -0.001477 0.000725 0.001489 -0.007173 0.035248
#
#
# Mechanical properties :
#
#
# Convention : Reuss Voigt Hill
#
# Bulk Modulus (GPa) = 31.34933 38.48142 34.91537
# Shear Modulus (GPa) = 35.42011 39.96568 37.69290
#
# Velocity S-wave (km/s) = 4.06012 4.31278 4.18836
# Velocity P-wave (km/s) = 6.04727 6.53525 6.29599
#
# Compressibility (1/GPa) = 0.03189861
#
# Stress axis : x y z
#
# Youngs Moduli (GPa) = 103.30903 54.74367 108.62722
#
# Poissons Ratio (x) = 0.10081 -0.00545
# Poissons Ratio (y) = 0.19024 0.09077
# Poissons Ratio (z) = -0.00518 0.04574
#
# Static dielectric constant tensor:
#      x y z
#    x 1.712940 -0.011000 -0.002770 
#    y -0.011000 1.832960 -0.010590 
#    z -0.002770 -0.010590 1.796960 
# 
# From -- ./inp_files/472401.got.cif
#   From: 2010.05.17/outbox.cif.g08.bks.cpg/sg2_237_cif.got.tgz:472401.got - 2010.06.03 11:33:40.
