data_PCOD9111487
_publ_section_title
;
Structure prediction by ZEFSAII (Michael W. Deem and Ramdas Pophale) SiO2 
 PCOD9111487
Probable space group: P -1
;
_chemical_formula_sum "Si O2"
_cell_formula_units_Z 16
_cell_length_a 11.426049
_cell_length_b 7.961899
_cell_length_c 9.127615
_cell_angle_alpha 69.656578
_cell_angle_beta 84.492897
_cell_angle_gamma 61.274805
_cell_volume 680.199906
_symmetry_space_group_name_H-M "P -1"
_symmetry_group_IT_number 2
_symmetry_cell_setting 'triclinic'
loop_
_space_group_symop_operation_xyz
x,y,z
-x,-y,-z
loop_
_atom_site_type_symbol
_atom_site_label
_atom_site_fract_x
_atom_site_fract_y
_atom_site_fract_z
Si Si1 0.644191 0.968929 0.725035
Si Si2 0.912744 0.654689 0.240000
Si Si3 0.169320 0.298828 0.448341
Si Si4 0.454890 0.806611 0.812783
Si Si5 0.138692 0.043758 0.090194
Si Si6 0.747574 0.123071 0.444134
Si Si7 0.861963 0.336373 0.180566
Si Si8 0.683442 0.363196 0.920736
O O1 0.699459 0.802100 0.636385
O O2 0.509972 0.965863 0.785822
O O3 0.753682 0.906145 0.857678
O O4 0.654865 0.155330 0.587751
O O5 0.822665 0.682633 0.385181
O O6 0.887922 0.520765 0.163758
O O7 0.061497 0.509903 0.328132
O O8 0.889231 0.858621 0.099144
O O9 0.132847 0.112575 0.488124
O O10 0.342725 0.876906 0.680996
O O11 0.572609 0.583781 0.817632
O O12 0.395308 0.757713 0.979628
O O13 0.000793 0.152209 0.162076
O O14 0.203041 0.799965 0.147772
O O15 0.804682 0.270917 0.347006
O O16 0.756130 0.394235 0.044218
#
# Coordination Sequence:
#
# PCOD9111487 Si02
#       8
#     2   2   2   2   2   2   2   2
#     4  10  22  41  64  90 122 164 207 248 303 366
#     4  11  21  38  63  92 129 161 199 245 311 375
#     4   9  22  39  60  94 121 164 199 245 308 369
#     4  10  20  43  65  83 122 167 207 257 299 353
#     4  12  24  40  62  98 123 161 205 252 310 370
#     4   9  21  42  61  88 125 164 201 252 304 357
#     4  11  21  39  63  92 130 161 195 257 310 366
#     4  10  24  39  63  93 123 159 208 256 308 355
#
# _framework density 23.522497000000001
#
# number of rings (size 3 to 8) (size 9 to 14) (size 15 to 20)
#    0.750    1.000    1.250    3.375    1.750    2.500 
#    4.500    4.375    0.000    0.000    0.000    0.000 
#    0.000    0.000    0.000    0.000    0.000    0.000 
#
# Total GULP energy -89276.114865 kJ/mol
# GULP energy per Si atom -5579.757179 kJ/mol
# Density = 2.346896 g / cm^3
# Si number density = 23.522497 Si / 1000 Ang^3
#
#
#
# Elastic Constant Matrix: (Units=GPa)
#
#
# Indices 1 2 3 4 5 6 
#
# 1 74.4353 5.4963 19.1988 -6.7299 -4.2516 9.7110
# 2 5.4963 75.5638 1.0910 -7.8935 -1.0592 -11.1592
# 3 19.1988 1.0910 76.3444 -13.2041 -1.7697 9.3038
# 4 -6.7299 -7.8935 -13.2041 29.3511 -3.1833 7.5522
# 5 -4.2516 -1.0592 -1.7697 -3.1833 15.2386 -6.0677
# 6 9.7110 -11.1592 9.3038 7.5522 -6.0677 17.8381
#
#
#
# Elastic Compliance Matrix: (Units=1/GPa)
#
#
# Indices 1 2 3 4 5 6 
#
# 1 0.016020 -0.002234 -0.001702 0.005272 0.000756 -0.011207
# 2 -0.002234 0.015486 -0.001075 0.000379 0.005677 0.013235
# 3 -0.001702 -0.001075 0.016911 0.010206 -0.001833 -0.013511
# 4 0.005272 0.000379 0.010206 0.047195 0.001639 -0.027380
# 5 0.000756 0.005677 -0.001833 0.001639 0.078320 0.030043
# 6 -0.011207 0.013235 -0.013511 -0.027380 0.030043 0.099299
#
#
# Mechanical properties :
#
#
# Convention : Reuss Voigt Hill
#
# Bulk Modulus (GPa) = 26.04541 30.87951 28.46246
# Shear Modulus (GPa) = 16.88893 25.85606 21.37250
#
# Velocity S-wave (km/s) = 2.68244 3.31902 3.01757
# Velocity P-wave (km/s) = 4.54869 5.27675 4.92619
#
# Compressibility (1/GPa) = 0.03839448
#
# Stress axis : x y z
#
# Youngs Moduli (GPa) = 62.42084 64.57595 59.13289
#
# Poissons Ratio (x) = 0.14428 0.10063
# Poissons Ratio (y) = 0.13947 0.06358
# Poissons Ratio (z) = 0.10622 0.06944
#
# Static dielectric constant tensor:
#      x y z
#    x 1.881850 -0.015350 -0.037360 
#    y -0.015350 1.883230 -0.001980 
#    z -0.037360 -0.001980 1.924490 
# 
# From -- ./inp_files/243018.got.cif
#   From: 2010.05.17/outbox.cif.g08.bks.cpg/sg2_122_cif.got.tgz:243018.got - 2010.06.03 11:33:40.
