data_PCOD9111053
_publ_section_title
;
Structure prediction by ZEFSAII (Michael W. Deem and Ramdas Pophale) SiO2 
 PCOD9111053
Probable space group: P -1
;
_chemical_formula_sum "Si O2"
_cell_formula_units_Z 16
_cell_length_a 7.870760
_cell_length_b 20.044045
_cell_length_c 5.271458
_cell_angle_alpha 71.590953
_cell_angle_beta 118.076535
_cell_angle_gamma 123.210033
_cell_volume 612.021456
_symmetry_space_group_name_H-M "P -1"
_symmetry_group_IT_number 2
_symmetry_cell_setting 'triclinic'
loop_
_space_group_symop_operation_xyz
x,y,z
-x,-y,-z
loop_
_atom_site_type_symbol
_atom_site_label
_atom_site_fract_x
_atom_site_fract_y
_atom_site_fract_z
Si Si1 0.541812 0.072340 0.124265
Si Si2 0.977648 0.778472 0.238363
Si Si3 0.660755 0.486131 0.445860
Si Si4 0.154021 0.939801 0.282258
Si Si5 0.310086 0.158688 0.908029
Si Si6 0.197125 0.632630 0.106059
Si Si7 0.774989 0.621803 0.992065
Si Si8 0.643351 0.266526 0.387735
O O1 0.766488 0.096193 0.391474
O O2 0.492627 0.142855 0.914812
O O3 0.351776 0.025589 0.260905
O O4 0.500000 0.000000 0.000000
O O5 0.849312 0.710902 0.024158
O O6 0.099007 0.870561 0.114717
O O7 0.165103 0.758175 0.484667
O O8 0.793696 0.781799 0.290697
O O9 0.500000 0.500000 0.500000
O O10 0.794105 0.447668 0.718740
O O11 0.799362 0.568235 0.297094
O O12 0.478299 0.421279 0.207800
O O13 0.913437 0.925776 0.186462
O O14 0.417501 0.190482 0.224991
O O15 0.317135 0.693522 0.354543
O O16 0.953169 0.622282 0.921959
O O17 0.316826 0.669311 0.883143
#
# Coordination Sequence:
#
# PCOD9111053 Si02
#       8
#     2   2   2   2   2   2   2   2
#     4  11  22  40  65  98 135 177 224 281 341 418
#     4   9  21  42  68  93 132 177 229 284 344 404
#     4  11  26  42  70 102 138 184 230 291 345 418
#     4   9  22  42  63  91 136 171 225 275 343 403
#     4  10  20  42  68  95 135 178 227 282 345 410
#     4  11  27  44  75  97 143 186 231 286 354 409
#     4  10  24  45  67 100 137 179 234 289 344 415
#     4  11  24  46  69 107 136 182 236 290 345 411
#
# _framework density 26.142873000000002
#
# number of rings (size 3 to 8) (size 9 to 14) (size 15 to 20)
#    0.750    1.000    1.250    1.500    8.750    3.000 
#    2.250    0.000    0.000    0.000    0.000    0.000 
#    0.000    0.000    0.000    0.000    0.000    0.000 
#
# Total GULP energy -89251.079575 kJ/mol
# GULP energy per Si atom -5578.192473 kJ/mol
# Density = 2.608337 g / cm^3
# Si number density = 26.142873 Si / 1000 Ang^3
#
#
#
# Elastic Constant Matrix: (Units=GPa)
#
#
# Indices 1 2 3 4 5 6 
#
# 1 96.3400 10.4864 42.1314 -2.1486 31.9315 -20.2072
# 2 10.4864 79.1550 20.6394 6.1611 1.7666 -10.5956
# 3 42.1314 20.6394 84.7460 8.3412 20.5427 -3.1505
# 4 -2.1486 6.1611 8.3412 41.0276 2.8038 8.4918
# 5 31.9315 1.7666 20.5427 2.8038 50.9187 -9.8240
# 6 -20.2072 -10.5956 -3.1505 8.4918 -9.8240 51.8631
#
#
#
# Elastic Compliance Matrix: (Units=1/GPa)
#
#
# Indices 1 2 3 4 5 6 
#
# 1 0.016512 0.000142 -0.006564 0.001728 -0.006945 0.004465
# 2 0.000142 0.014134 -0.003566 -0.002205 0.001636 0.003397
# 3 -0.006564 -0.003566 0.016784 -0.002530 -0.002853 -0.002393
# 4 0.001728 -0.002205 -0.002530 0.026445 -0.002351 -0.004706
# 5 -0.006945 0.001636 -0.002853 -0.002351 0.025742 0.002716
# 6 0.004465 0.003397 -0.002393 -0.004706 0.002716 0.022855
#
#
# Mechanical properties :
#
#
# Convention : Reuss Voigt Hill
#
# Bulk Modulus (GPa) = 36.42502 45.19504 40.81003
# Shear Modulus (GPa) = 32.98152 41.22747 37.10449
#
# Velocity S-wave (km/s) = 3.55574 3.97546 3.77144
# Velocity P-wave (km/s) = 5.55167 6.19658 5.88297
#
# Compressibility (1/GPa) = 0.02745366
#
# Stress axis : x y z
#
# Youngs Moduli (GPa) = 60.56130 70.74941 59.58174
#
# Poissons Ratio (x) = -0.01007 0.39111
# Poissons Ratio (y) = -0.00862 0.21249
# Poissons Ratio (z) = 0.39754 0.25232
#
# Static dielectric constant tensor:
#      x y z
#    x 2.152030 0.087660 -0.049470 
#    y 0.087660 2.246650 0.016950 
#    z -0.049470 0.016950 2.096150 
# 
# From -- ./inp_files/51217.got.cif
#   From: 2010.05.17/outbox.cif.g08.bks.cpg/sg2_26_cif.got.tgz:51217.got - 2010.06.03 11:33:40.
