data_PCOD9111686
_publ_section_title
;
Structure prediction by ZEFSAII (Michael W. Deem and Ramdas Pophale) SiO2 
 PCOD9111686
Probable space group: P -1
;
_chemical_formula_sum "Si O2"
_cell_formula_units_Z 16
_cell_length_a 21.487299
_cell_length_b 16.361675
_cell_length_c 13.871588
_cell_angle_alpha 34.879901
_cell_angle_beta 22.510907
_cell_angle_gamma 23.645540
_cell_volume 738.139025
_symmetry_space_group_name_H-M "P -1"
_symmetry_group_IT_number 2
_symmetry_cell_setting 'triclinic'
loop_
_space_group_symop_operation_xyz
x,y,z
-x,-y,-z
loop_
_atom_site_type_symbol
_atom_site_label
_atom_site_fract_x
_atom_site_fract_y
_atom_site_fract_z
Si Si1 0.288630 0.065612 0.044310
Si Si2 0.662663 0.621227 0.328180
Si Si3 0.323101 0.293593 0.471283
Si Si4 0.760592 0.735980 0.599389
Si Si5 0.044063 0.227984 0.042753
Si Si6 0.807561 0.133061 0.916898
Si Si7 0.862124 0.340515 0.507511
Si Si8 0.133572 0.017953 0.720067
O O1 0.282631 0.243579 0.873791
O O2 0.552390 0.841228 0.872978
O O3 0.155162 0.099409 0.107146
O O4 0.128026 0.129253 0.302956
O O5 0.744782 0.486943 0.438349
O O6 0.811777 0.459603 0.183634
O O7 0.383566 0.792904 0.550060
O O8 0.323235 0.249920 0.401763
O O9 0.144581 0.532189 0.525736
O O10 0.233054 0.215812 0.736467
O O11 0.576106 0.202273 0.222562
O O12 0.814684 0.868043 0.409442
O O13 0.000000 0.500000 0.500000
O O14 0.021651 0.105362 0.126108
O O15 0.735425 0.280699 0.788071
O O16 0.952807 0.143110 0.769522
O O17 0.000000 0.000000 0.000000
#
# Coordination Sequence:
#
# PCOD9111686 Si02
#       8
#     2   2   2   2   2   2   2   2
#     4  10  20  43  68  95 129 176 223 264 332 398
#     4  10  21  42  71  94 131 182 223 263 333 403
#     4  12  22  42  72  95 125 178 232 266 311 408
#     4  11  25  44  65  97 131 175 224 269 331 395
#     4  11  21  41  69  98 126 173 234 266 316 402
#     4  12  26  39  65 107 137 166 222 284 335 378
#     4  11  22  41  68 102 134 169 218 287 329 383
#     4  11  25  46  64  95 141 180 211 271 348 393
#
# _framework density 21.676134000000001
#
# number of rings (size 3 to 8) (size 9 to 14) (size 15 to 20)
#    0.000    1.000    3.750    3.750    1.750    3.500 
#    4.500    1.875    0.000    0.000    0.000    0.000 
#    0.000    0.000    0.000    0.000    0.000    0.000 
#
# Total GULP energy -89383.172648 kJ/mol
# GULP energy per Si atom -5586.448291 kJ/mol
# Density = 2.162680 g / cm^3
# Si number density = 21.676134 Si / 1000 Ang^3
#
#
#
# Elastic Constant Matrix: (Units=GPa)
#
#
# Indices 1 2 3 4 5 6 
#
# 1 67.6190 13.9182 24.7143 9.0780 -1.3519 16.0565
# 2 13.9182 86.4231 29.4897 21.5765 14.5541 6.3436
# 3 24.7143 29.4897 96.0732 15.3068 7.2249 2.6202
# 4 9.0780 21.5765 15.3068 42.6951 1.6998 0.7288
# 5 -1.3519 14.5541 7.2249 1.6998 27.0119 7.6616
# 6 16.0565 6.3436 2.6202 0.7288 7.6616 30.0426
#
#
#
# Elastic Compliance Matrix: (Units=1/GPa)
#
#
# Indices 1 2 3 4 5 6 
#
# 1 0.019847 -0.001386 -0.004532 -0.001951 0.006333 -0.011487
# 2 -0.001386 0.015574 -0.002877 -0.006252 -0.007211 -0.000306
# 3 -0.004532 -0.002877 0.012936 -0.002156 -0.002754 0.002656
# 4 -0.001951 -0.006252 -0.002156 0.027677 0.001695 0.001447
# 5 0.006333 -0.007211 -0.002754 0.001695 0.045625 -0.013299
# 6 -0.011487 -0.000306 0.002656 0.001447 -0.013299 0.042615
#
#
# Mechanical properties :
#
#
# Convention : Reuss Voigt Hill
#
# Bulk Modulus (GPa) = 32.50415 42.92885 37.71650
# Shear Modulus (GPa) = 26.02560 32.08279 29.05419
#
# Velocity S-wave (km/s) = 3.46881 3.85138 3.66509
# Velocity P-wave (km/s) = 5.57418 6.29485 5.94544
#
# Compressibility (1/GPa) = 0.03076531
#
# Stress axis : x y z
#
# Youngs Moduli (GPa) = 50.38618 64.21150 77.30441
#
# Poissons Ratio (x) = 0.08901 0.35036
# Poissons Ratio (y) = 0.06984 0.22241
# Poissons Ratio (z) = 0.22836 0.18474
#
# Static dielectric constant tensor:
#      x y z
#    x 1.906140 -0.026100 -0.004480 
#    y -0.026100 1.830170 0.020420 
#    z -0.004480 0.020420 1.798220 
# 
# From -- ./inp_files/543140.got.cif
#   From: 2010.05.17/outbox.cif.g08.bks.cpg/sg2_272_cif.got.tgz:543140.got - 2010.06.03 11:33:40.
