data_PCOD9111511
_publ_section_title
;
Structure prediction by ZEFSAII (Michael W. Deem and Ramdas Pophale) SiO2 
 PCOD9111511
Probable space group: P -1
;
_chemical_formula_sum "Si O2"
_cell_formula_units_Z 16
_cell_length_a 7.018484
_cell_length_b 8.242409
_cell_length_c 13.060388
_cell_angle_alpha 84.358887
_cell_angle_beta 59.368164
_cell_angle_gamma 102.469437
_cell_volume 614.949392
_symmetry_space_group_name_H-M "P -1"
_symmetry_group_IT_number 2
_symmetry_cell_setting 'triclinic'
loop_
_space_group_symop_operation_xyz
x,y,z
-x,-y,-z
loop_
_atom_site_type_symbol
_atom_site_label
_atom_site_fract_x
_atom_site_fract_y
_atom_site_fract_z
Si Si1 0.743557 0.552844 0.521132
Si Si2 0.046880 0.030023 0.240189
Si Si3 0.090717 0.745036 0.867885
Si Si4 0.322511 0.251539 0.752027
Si Si5 0.437815 0.876050 0.124129
Si Si6 0.362937 0.722871 0.589956
Si Si7 0.869093 0.357751 0.926537
Si Si8 0.057569 0.838908 0.542330
O O1 0.553904 0.401439 0.644789
O O2 0.610155 0.695202 0.535518
O O3 0.777270 0.464997 0.410531
O O4 0.029900 0.331981 0.490063
O O5 0.060623 0.129079 0.122469
O O6 0.064769 0.172671 0.312666
O O7 0.233920 0.939258 0.225172
O O8 0.803455 0.881864 0.294602
O O9 0.268813 0.756760 0.724142
O O10 0.913819 0.554204 0.927284
O O11 0.216998 0.758406 0.941260
O O12 0.392593 0.150340 0.833326
O O13 0.117063 0.328096 0.836899
O O14 0.304542 0.696523 0.116854
O O15 0.500000 0.000000 0.000000
O O16 0.315721 0.853068 0.510522
O O17 0.000000 0.000000 0.500000
#
# Coordination Sequence:
#
# PCOD9111511 Si02
#       8
#     2   2   2   2   2   2   2   2
#     4  11  25  43  71  98 129 178 225 267 331 409
#     4  10  25  43  64  93 141 168 217 276 333 384
#     4  10  20  43  65  94 131 176 210 280 330 385
#     4  11  24  43  69  99 132 180 220 266 336 402
#     4  11  24  41  67  98 132 181 225 266 327 403
#     4  10  24  45  69  91 136 173 222 268 334 393
#     4  10  22  41  68  94 136 172 220 273 337 385
#     4  11  27  43  67 100 134 171 220 279 330 386
#
# _framework density 26.018398999999999
#
# number of rings (size 3 to 8) (size 9 to 14) (size 15 to 20)
#    0.000    1.500    1.250    1.875    8.750    5.500 
#    0.000    3.125    0.000    0.000    0.000    0.000 
#    0.000    0.000    0.000    0.000    0.000    0.000 
#
# Total GULP energy -89405.536660 kJ/mol
# GULP energy per Si atom -5587.846041 kJ/mol
# Density = 2.595918 g / cm^3
# Si number density = 26.018399 Si / 1000 Ang^3
#
#
#
# Elastic Constant Matrix: (Units=GPa)
#
#
# Indices 1 2 3 4 5 6 
#
# 1 108.1072 8.4051 23.4371 -5.8935 8.5426 -5.6463
# 2 8.4051 85.8279 19.4206 -8.3070 2.3850 7.2544
# 3 23.4371 19.4206 105.8920 -5.8515 11.5910 -2.2985
# 4 -5.8935 -8.3070 -5.8515 48.5333 -0.9426 17.3838
# 5 8.5426 2.3850 11.5910 -0.9426 20.2658 -6.8054
# 6 -5.6463 7.2544 -2.2985 17.3838 -6.8054 49.2987
#
#
#
# Elastic Compliance Matrix: (Units=1/GPa)
#
#
# Indices 1 2 3 4 5 6 
#
# 1 0.009961 -0.000472 -0.001747 0.000690 -0.002952 0.000478
# 2 -0.000472 0.012751 -0.002018 0.003022 -0.001096 -0.003241
# 3 -0.001747 -0.002018 0.010817 0.000791 -0.005314 -0.000411
# 4 0.000690 0.003022 0.000791 0.024622 -0.003124 -0.009442
# 5 -0.002952 -0.001096 -0.005314 -0.003124 0.056456 0.008470
# 6 0.000478 -0.003241 -0.000411 -0.009442 0.008470 0.025296
#
#
# Mechanical properties :
#
#
# Convention : Reuss Voigt Hill
#
# Bulk Modulus (GPa) = 39.90961 44.70586 42.30774
# Shear Modulus (GPa) = 31.90260 40.19051 36.04656
#
# Velocity S-wave (km/s) = 3.50545 3.93453 3.72617
# Velocity P-wave (km/s) = 5.63529 6.15308 5.89987
#
# Compressibility (1/GPa) = 0.02505662
#
# Stress axis : x y z
#
# Youngs Moduli (GPa) = 100.38906 78.42654 92.45021
#
# Poissons Ratio (x) = 0.03701 0.16147
# Poissons Ratio (y) = 0.04738 0.18652
# Poissons Ratio (z) = 0.17534 0.15823
#
# Static dielectric constant tensor:
#      x y z
#    x 2.079430 -0.022460 -0.001040 
#    y -0.022460 2.069510 -0.006070 
#    z -0.001040 -0.006070 2.150500 
# 
# From -- ./inp_files/480391.got.cif
#   From: 2010.05.17/outbox.cif.g08.bks.cpg/sg2_241_cif.got.tgz:480391.got - 2010.06.03 11:33:40.
