data_PCOD9111893
_publ_section_title
;
Structure prediction by ZEFSAII (Michael W. Deem and Ramdas Pophale) SiO2 
 PCOD9111893
Probable space group: P -1
;
_chemical_formula_sum "Si O2"
_cell_formula_units_Z 12
_cell_length_a 7.744046
_cell_length_b 25.819880
_cell_length_c 13.674147
_cell_angle_alpha 20.356040
_cell_angle_beta 139.552329
_cell_angle_gamma 147.630398
_cell_volume 502.146570
_symmetry_space_group_name_H-M "P -1"
_symmetry_group_IT_number 2
_symmetry_cell_setting 'triclinic'
loop_
_space_group_symop_operation_xyz
x,y,z
-x,-y,-z
loop_
_atom_site_type_symbol
_atom_site_label
_atom_site_fract_x
_atom_site_fract_y
_atom_site_fract_z
Si Si1 0.310514 0.551660 0.898287
Si Si2 0.714358 0.295351 0.774877
Si Si3 0.110058 0.221761 0.523077
Si Si4 0.395086 0.051852 0.602865
Si Si5 0.212519 0.024633 0.356341
Si Si6 0.366639 0.613250 0.207431
O O1 0.520942 0.763457 0.639702
O O2 0.978210 0.498411 0.798155
O O3 0.500000 0.500000 0.000000
O O4 0.214133 0.421503 0.181455
O O5 0.386683 0.241036 0.675388
O O6 0.679318 0.305177 0.858842
O O7 0.000000 0.500000 0.500000
O O8 0.751139 0.128816 0.074045
O O9 0.760175 0.113917 0.616542
O O10 0.067947 0.115134 0.592567
O O11 0.191384 0.007862 0.493050
O O12 0.635165 0.771096 0.973086
O O13 0.500000 0.000000 0.500000
O O14 0.500000 0.500000 0.500000
#
# Coordination Sequence:
#
# PCOD9111893 Si02
#       6
#     2   2   2   2   2   2
#     4  12  26  46  71 111 151 190 236 307 373 429
#     4  12  26  46  68 111 152 185 237 312 370 420
#     4  11  22  44  76 102 145 187 250 294 354 441
#     4  11  23  46  76 103 141 196 250 287 357 444
#     4  10  20  43  74 104 135 184 251 296 341 424
#     4  12  25  45  72 107 147 189 248 298 351 437
#
# _framework density 23.897406
#
# number of rings (size 3 to 8) (size 9 to 14) (size 15 to 20)
#    0.000    0.667    6.667    3.000    4.667    0.000 
#    3.000    5.833    0.000    0.000    0.000    0.000 
#    0.000    0.000    0.000    0.000    0.000    0.000 
#
# Total GULP energy -67251.636520 kJ/mol
# GULP energy per Si atom -5604.303043 kJ/mol
# Density = 2.384301 g / cm^3
# Si number density = 23.897406 Si / 1000 Ang^3
#
#
#
# Elastic Constant Matrix: (Units=GPa)
#
#
# Indices 1 2 3 4 5 6 
#
# 1 96.3212 35.6632 43.7733 -15.4661 -13.7696 -7.6115
# 2 35.6632 196.3397 82.8327 -5.8876 -2.7685 -9.5139
# 3 43.7733 82.8327 232.1628 -3.1878 -7.1518 10.3324
# 4 -15.4661 -5.8876 -3.1878 49.9602 -3.7243 2.8038
# 5 -13.7696 -2.7685 -7.1518 -3.7243 39.4226 -5.9213
# 6 -7.6115 -9.5139 10.3324 2.8038 -5.9213 33.2417
#
#
#
# Elastic Compliance Matrix: (Units=1/GPa)
#
#
# Indices 1 2 3 4 5 6 
#
# 1 0.013481 -0.001182 -0.002080 0.004068 0.005231 0.003984
# 2 -0.001182 0.006314 -0.002126 0.000119 -0.000016 0.002184
# 3 -0.002080 -0.002126 0.005569 -0.000404 -0.000330 -0.002840
# 4 0.004068 0.000119 -0.000404 0.021521 0.003370 -0.000124
# 5 0.005231 -0.000016 -0.000330 0.003370 0.028361 0.006064
# 6 0.003984 0.002184 -0.002840 -0.000124 0.006064 0.033593
#
#
# Mechanical properties :
#
#
# Convention : Reuss Voigt Hill
#
# Bulk Modulus (GPa) = 68.55593 94.37358 81.46475
# Shear Modulus (GPa) = 40.16752 48.69520 44.43136
#
# Velocity S-wave (km/s) = 4.10424 4.51896 4.31659
# Velocity P-wave (km/s) = 7.15609 8.17343 7.68162
#
# Compressibility (1/GPa) = 0.01458663
#
# Stress axis : x y z
#
# Youngs Moduli (GPa) = 74.18009 158.37725 179.57433
#
# Poissons Ratio (x) = 0.18724 0.37355
# Poissons Ratio (y) = 0.08770 0.38176
# Poissons Ratio (z) = 0.15431 0.33670
#
# Static dielectric constant tensor:
#      x y z
#    x 2.130930 0.009690 0.031350 
#    y 0.009690 1.837950 -0.024700 
#    z 0.031350 -0.024700 1.889700 
# 
# From -- ./inp_files/508794.got.cif
#   From: 2010.05.17/outbox.cif.g08.bks.cpg/sg2_255_cif.got.tgz:508794.got - 2010.06.03 11:33:40.
