data_PCOD9111359
_publ_section_title
;
Structure prediction by ZEFSAII (Michael W. Deem and Ramdas Pophale) SiO2 
 PCOD9111359
Probable space group: P -1
;
_chemical_formula_sum "Si O2"
_cell_formula_units_Z 11
_cell_length_a 5.252028
_cell_length_b 17.599137
_cell_length_c 9.091911
_cell_angle_alpha 31.667386
_cell_angle_beta 76.092327
_cell_angle_gamma 66.857803
_cell_volume 397.896572
_symmetry_space_group_name_H-M "P -1"
_symmetry_group_IT_number 2
_symmetry_cell_setting 'triclinic'
loop_
_space_group_symop_operation_xyz
x,y,z
-x,-y,-z
loop_
_atom_site_type_symbol
_atom_site_label
_atom_site_fract_x
_atom_site_fract_y
_atom_site_fract_z
Si Si1 0.500000 0.500000 0.000000
Si Si2 0.131609 0.265684 0.344400
Si Si3 0.167732 0.958919 0.699947
Si Si4 0.755673 0.564538 0.578535
Si Si5 0.392595 0.371868 0.892896
Si Si6 0.781061 0.863403 0.133597
O O1 0.421884 0.398487 0.307738
O O2 0.827478 0.365669 0.159659
O O3 0.094215 0.229134 0.579734
O O4 0.245033 0.101833 0.513259
O O5 0.328256 0.362005 0.097054
O O6 0.430951 0.800523 0.899372
O O7 0.000000 0.000000 0.500000
O O8 0.975905 0.930167 0.903712
O O9 0.594012 0.466842 0.685566
O O10 0.914306 0.539852 0.277742
O O11 0.729204 0.734553 0.250807
O O12 0.500000 0.000000 0.000000
#
# Coordination Sequence:
#
# PCOD9111359 Si02
#       6
#     1   2   2   2   2   2
#     4  10  20  42  74 108 144 190 244 308 374 442
#     4  11  24  47  79 113 152 199 257 315 380 456
#     4  12  26  48  75 109 155 204 254 314 386 457
#     4  11  24  45  74 109 150 195 251 310 380 452
#     4  11  25  46  75 108 150 200 247 308 382 459
#     4  12  27  45  75 113 153 199 257 319 378 454
#
# _framework density 27.645377
#
# number of rings (size 3 to 8) (size 9 to 14) (size 15 to 20)
#    0.000    0.727    0.000    7.636    0.000    7.273 
#    0.000    0.000    0.000    1.091    0.000    0.000 
#    0.000    0.000    0.000    0.000    0.000    0.000 
#
# Total GULP energy -61557.393724 kJ/mol
# GULP energy per Si atom -5596.126702 kJ/mol
# Density = 2.758245 g / cm^3
# Si number density = 27.645377 Si / 1000 Ang^3
#
#
#
# Elastic Constant Matrix: (Units=GPa)
#
#
# Indices 1 2 3 4 5 6 
#
# 1 165.9289 44.9143 94.1887 5.3405 -6.4427 -40.4482
# 2 44.9143 150.9810 46.7681 -10.8148 -3.0568 -20.6527
# 3 94.1887 46.7681 117.7941 -9.4215 -14.5737 3.1554
# 4 5.3405 -10.8148 -9.4215 86.7973 -2.9954 10.3342
# 5 -6.4427 -3.0568 -14.5737 -2.9954 66.5204 5.0582
# 6 -40.4482 -20.6527 3.1554 10.3342 5.0582 60.1906
#
#
#
# Elastic Compliance Matrix: (Units=1/GPa)
#
#
# Indices 1 2 3 4 5 6 
#
# 1 0.018966 0.001238 -0.016833 -0.004751 -0.003159 0.015134
# 2 0.001238 0.008146 -0.004429 -0.000037 -0.000777 0.003931
# 3 -0.016833 -0.004429 0.025171 0.005235 0.005093 -0.015478
# 4 -0.004751 -0.000037 0.005235 0.013137 0.001724 -0.005880
# 5 -0.003159 -0.000777 0.005093 0.001724 0.016213 -0.004315
# 6 0.015134 0.003931 -0.015478 -0.005880 -0.004315 0.030316
#
#
# Mechanical properties :
#
#
# Convention : Reuss Voigt Hill
#
# Bulk Modulus (GPa) = 81.72587 89.60516 85.66552
# Shear Modulus (GPa) = 32.03588 59.29052 45.66320
#
# Velocity S-wave (km/s) = 3.40783 4.63609 4.06858
# Velocity P-wave (km/s) = 6.71646 7.81924 7.28874
#
# Compressibility (1/GPa) = 0.01223603
#
# Stress axis : x y z
#
# Youngs Moduli (GPa) = 52.72540 122.75665 39.72819
#
# Poissons Ratio (x) = -0.15198 0.66875
# Poissons Ratio (y) = -0.06528 0.17594
# Poissons Ratio (z) = 0.88754 0.54364
#
# Static dielectric constant tensor:
#      x y z
#    x 2.182580 0.026920 -0.124150 
#    y 0.026920 1.979290 -0.004810 
#    z -0.124150 -0.004810 2.113700 
# 
# From -- ./inp_files/88791.got.cif
#   From: 2010.05.17/outbox.cif.g08.bks.cpg/sg2_45_cif.got.tgz:88791.got - 2010.06.03 11:33:40.
