data_PCOD9111538
_publ_section_title
;
Structure prediction by ZEFSAII (Michael W. Deem and Ramdas Pophale) SiO2 
 PCOD9111538
Probable space group: P -1
;
_chemical_formula_sum "Si O2"
_cell_formula_units_Z 15
_cell_length_a 15.994366
_cell_length_b 9.721106
_cell_length_c 7.383784
_cell_angle_alpha 69.357594
_cell_angle_beta 75.569618
_cell_angle_gamma 34.960935
_cell_volume 613.928772
_symmetry_space_group_name_H-M "P -1"
_symmetry_group_IT_number 2
_symmetry_cell_setting 'triclinic'
loop_
_space_group_symop_operation_xyz
x,y,z
-x,-y,-z
loop_
_atom_site_type_symbol
_atom_site_label
_atom_site_fract_x
_atom_site_fract_y
_atom_site_fract_z
Si Si1 0.201867 0.408213 0.753255
Si Si2 0.486551 0.664683 0.699119
Si Si3 0.896163 0.866795 0.845678
Si Si4 0.500000 0.000000 0.000000
Si Si5 0.786191 0.807201 0.510987
Si Si6 0.987692 0.292930 0.748669
Si Si7 0.814026 0.299024 0.611203
Si Si8 0.426745 0.777979 0.106104
O O1 0.227181 0.276899 0.621380
O O2 0.191596 0.591815 0.612398
O O3 0.042091 0.588016 0.828724
O O4 0.337369 0.199714 0.906424
O O5 0.647552 0.513076 0.671988
O O6 0.500608 0.472308 0.743659
O O7 0.373038 0.903206 0.518102
O O8 0.432468 0.756082 0.893231
O O9 0.872807 0.054264 0.670926
O O10 0.743782 0.992239 0.853213
O O11 0.926352 0.857903 0.044919
O O12 0.513713 0.801726 0.104259
O O13 0.858373 0.591703 0.709063
O O14 0.900493 0.779862 0.415994
O O15 0.913803 0.251877 0.721110
#
# Coordination Sequence:
#
# PCOD9111538 Si02
#       8
#     2   2   2   1   2   2   2   2
#     4  11  25  41  61  94 136 170 210 268 328 378
#     4  10  20  43  66  87 132 168 212 268 315 378
#     4  11  22  43  66  92 132 171 211 265 324 390
#     4  12  24  42  64 102 128 166 218 260 328 394
#     4  10  21  41  61  94 134 164 212 271 322 379
#     4  10  21  36  64  98 120 167 223 259 320 378
#     4  10  24  41  64  94 128 171 216 269 319 375
#     4  10  23  41  68  95 125 170 215 265 326 372
#
# _framework density 24.4328
#
# number of rings (size 3 to 8) (size 9 to 14) (size 15 to 20)
#    0.000    1.600    2.667    0.800    1.867    6.400 
#    0.000    6.667    0.000    0.000    0.000    0.000 
#    0.000    0.000    0.000    0.000    0.000    0.000 
#
# Total GULP energy -83788.679829 kJ/mol
# GULP energy per Si atom -5585.911989 kJ/mol
# Density = 2.437719 g / cm^3
# Si number density = 24.432800 Si / 1000 Ang^3
#
#
#
# Elastic Constant Matrix: (Units=GPa)
#
#
# Indices 1 2 3 4 5 6 
#
# 1 170.4185 46.6338 18.5328 -13.8999 -5.3353 9.4547
# 2 46.6338 102.7650 20.9212 -16.7463 7.3583 -15.3696
# 3 18.5328 20.9212 54.2726 -11.0862 0.1781 -4.9753
# 4 -13.8999 -16.7463 -11.0862 27.0171 -5.3048 2.5577
# 5 -5.3353 7.3583 0.1781 -5.3048 33.6784 -15.7926
# 6 9.4547 -15.3696 -4.9753 2.5577 -15.7926 23.8191
#
#
#
# Elastic Compliance Matrix: (Units=1/GPa)
#
#
# Indices 1 2 3 4 5 6 
#
# 1 0.007499 -0.003789 -0.001395 0.001394 -0.000735 -0.006350
# 2 -0.003789 0.014280 -0.002063 0.005467 0.002468 0.011337
# 3 -0.001395 -0.002063 0.021643 0.007113 0.003821 0.005513
# 4 0.001394 0.005467 0.007113 0.045224 0.008600 0.005306
# 5 -0.000735 0.002468 0.003821 0.008600 0.045271 0.031775
# 6 -0.006350 0.011337 0.005513 0.005306 0.031775 0.073468
#
#
# Mechanical properties :
#
#
# Convention : Reuss Voigt Hill
#
# Bulk Modulus (GPa) = 34.56877 55.51464 45.04171
# Shear Modulus (GPa) = 21.59609 32.99414 27.29511
#
# Velocity S-wave (km/s) = 2.97627 3.67877 3.34601
# Velocity P-wave (km/s) = 5.09805 6.38867 5.77950
#
# Compressibility (1/GPa) = 0.02892785
#
# Stress axis : x y z
#
# Youngs Moduli (GPa) = 133.34225 70.02769 46.20454
#
# Poissons Ratio (x) = 0.26534 0.06447
# Poissons Ratio (y) = 0.50525 0.09532
# Poissons Ratio (z) = 0.18604 0.14447
#
# Static dielectric constant tensor:
#      x y z
#    x 1.841800 -0.000610 -0.017740 
#    y -0.000610 1.976370 0.032470 
#    z -0.017740 0.032470 1.956200 
# 
# From -- ./inp_files/297857.got.cif
#   From: 2010.05.17/outbox.cif.g08.bks.cpg/sg2_149_cif.got.tgz:297857.got - 2010.06.03 11:33:40.
