data_PCOD9111111
_publ_section_title
;
Structure prediction by ZEFSAII (Michael W. Deem and Ramdas Pophale) SiO2 
 PCOD9111111
Probable space group: P -1
;
_chemical_formula_sum "Si O2"
_cell_formula_units_Z 15
_cell_length_a 7.842057
_cell_length_b 8.003864
_cell_length_c 13.309996
_cell_angle_alpha 123.010215
_cell_angle_beta 102.479099
_cell_angle_gamma 70.156316
_cell_volume 658.453336
_symmetry_space_group_name_H-M "P -1"
_symmetry_group_IT_number 2
_symmetry_cell_setting 'triclinic'
loop_
_space_group_symop_operation_xyz
x,y,z
-x,-y,-z
loop_
_atom_site_type_symbol
_atom_site_label
_atom_site_fract_x
_atom_site_fract_y
_atom_site_fract_z
Si Si1 0.218884 0.311889 0.039412
Si Si2 0.849610 0.375963 0.240982
Si Si3 0.505876 0.210118 0.523654
Si Si4 0.466523 0.404346 0.257360
Si Si5 0.000000 0.000000 0.000000
Si Si6 0.808607 0.584800 0.592324
Si Si7 0.107531 0.305357 0.806251
Si Si8 0.124629 0.890291 0.572592
O O1 0.401535 0.307399 0.120266
O O2 0.081355 0.530884 0.130998
O O3 0.132401 0.131461 0.005059
O O4 0.233998 0.305048 0.918818
O O5 0.683065 0.338737 0.270654
O O6 0.827943 0.598419 0.255356
O O7 0.033712 0.327806 0.313212
O O8 0.879525 0.215705 0.101868
O O9 0.565712 0.347996 0.661778
O O10 0.310315 0.316381 0.485666
O O11 0.662136 0.164391 0.445127
O O12 0.500000 0.000000 0.500000
O O13 0.343591 0.376283 0.326109
O O14 0.898356 0.341921 0.501744
O O15 0.087249 0.075228 0.709677
O O16 0.000000 0.000000 0.500000
#
# Coordination Sequence:
#
# PCOD9111111 Si02
#       8
#     2   2   2   2   1   2   2   2
#     4  10  22  42  67  99 144 188 233 298 340 421
#     4  11  23  44  69 102 141 185 236 287 352 429
#     4  11  26  46  66 105 142 183 240 291 353 429
#     4  11  22  45  71  98 140 187 234 291 352 417
#     4  10  22  44  62  94 140 180 238 278 344 412
#     4  11  24  48  69 100 149 184 231 301 350 422
#     4  10  20  42  69 102 141 185 236 285 359 411
#     4  11  20  41  74  98 138 187 227 294 357 415
#
# _framework density 22.780657000000001
#
# number of rings (size 3 to 8) (size 9 to 14) (size 15 to 20)
#    0.000    1.333    4.000    3.200    0.000    3.733 
#   14.400    0.000    0.000    0.000    0.000    0.000 
#    0.000    0.000    0.000    0.000    0.000    0.000 
#
# Total GULP energy -83502.905074 kJ/mol
# GULP energy per Si atom -5566.860338 kJ/mol
# Density = 2.272881 g / cm^3
# Si number density = 22.780657 Si / 1000 Ang^3
#
#
#
# Elastic Constant Matrix: (Units=GPa)
#
#
# Indices 1 2 3 4 5 6 
#
# 1 119.7777 16.1418 21.0261 -15.9701 8.7346 -10.9939
# 2 16.1418 98.7547 31.0340 -1.0888 24.5745 -11.6605
# 3 21.0261 31.0340 85.8808 -8.2545 16.2363 -5.1529
# 4 -15.9701 -1.0888 -8.2545 44.7791 -3.3071 2.0428
# 5 8.7346 24.5745 16.2363 -3.3071 33.8083 -2.8757
# 6 -10.9939 -11.6605 -5.1529 2.0428 -2.8757 22.4518
#
#
#
# Elastic Compliance Matrix: (Units=1/GPa)
#
#
# Indices 1 2 3 4 5 6 
#
# 1 0.009449 -0.000390 -0.001518 0.002850 -0.000834 0.003710
# 2 -0.000390 0.013813 -0.003165 -0.001227 -0.008086 0.005332
# 3 -0.001518 -0.003165 0.014066 0.001679 -0.003882 0.000191
# 4 0.002850 -0.001227 0.001679 0.023784 0.001607 -0.000815
# 5 -0.000834 -0.008086 -0.003882 0.001607 0.037622 -0.000826
# 6 0.003710 0.005332 0.000191 -0.000815 -0.000826 0.049138
#
#
# Mechanical properties :
#
#
# Convention : Reuss Voigt Hill
#
# Bulk Modulus (GPa) = 36.79089 48.97966 42.88527
# Shear Modulus (GPa) = 29.92582 35.95528 32.94055
#
# Velocity S-wave (km/s) = 3.62836 3.97712 3.80674
# Velocity P-wave (km/s) = 5.80848 6.52972 6.17963
#
# Compressibility (1/GPa) = 0.02718064
#
# Stress axis : x y z
#
# Youngs Moduli (GPa) = 105.82902 72.39702 71.09210
#
# Poissons Ratio (x) = 0.02827 0.10793
# Poissons Ratio (y) = 0.04132 0.22502
# Poissons Ratio (z) = 0.16067 0.22915
#
# Static dielectric constant tensor:
#      x y z
#    x 1.936680 0.069910 -0.022890 
#    y 0.069910 1.946790 -0.007630 
#    z -0.022890 -0.007630 1.869020 
# 
# From -- ./inp_files/491643.got.cif
#   From: 2010.05.17/outbox.cif.g08.bks.cpg/sg2_246_cif.got.tgz:491643.got - 2010.06.03 11:33:40.
