data_PCOD9111376
_publ_section_title
;
Structure prediction by ZEFSAII (Michael W. Deem and Ramdas Pophale) SiO2 
 PCOD9111376
Probable space group: P -1
;
_chemical_formula_sum "Si O2"
_cell_formula_units_Z 15
_cell_length_a 7.491930
_cell_length_b 13.202300
_cell_length_c 8.549706
_cell_angle_alpha 54.722848
_cell_angle_beta 127.390061
_cell_angle_gamma 116.169951
_cell_volume 543.165070
_symmetry_space_group_name_H-M "P -1"
_symmetry_group_IT_number 2
_symmetry_cell_setting 'triclinic'
loop_
_space_group_symop_operation_xyz
x,y,z
-x,-y,-z
loop_
_atom_site_type_symbol
_atom_site_label
_atom_site_fract_x
_atom_site_fract_y
_atom_site_fract_z
Si Si1 0.619119 0.499216 0.360768
Si Si2 0.654725 0.745874 0.454284
Si Si3 0.391469 0.123314 0.016884
Si Si4 0.500000 0.500000 0.000000
Si Si5 0.923941 0.135167 0.298154
Si Si6 0.883404 0.729796 0.019601
Si Si7 0.086636 0.661386 0.488488
Si Si8 0.614561 0.097675 0.602469
O O1 0.488273 0.392199 0.493644
O O2 0.464822 0.569162 0.103843
O O3 0.716067 0.429035 0.312955
O O4 0.839742 0.587816 0.463362
O O5 0.558658 0.820682 0.480951
O O6 0.920776 0.756368 0.619745
O O7 0.000000 0.000000 0.500000
O O8 0.658538 0.130916 0.182285
O O9 0.299043 0.979812 0.139365
O O10 0.252597 0.195757 0.998065
O O11 0.368116 0.175694 0.784779
O O12 0.706275 0.618974 0.955565
O O13 0.989177 0.177023 0.120013
O O14 0.062729 0.670621 0.277436
O O15 0.190366 0.802006 0.457604
O O16 0.500000 0.000000 0.500000
#
# Coordination Sequence:
#
# PCOD9111376 Si02
#       8
#     2   2   2   1   2   2   2   2
#     4   9  18  40  72 101 138 188 245 299 367 436
#     4  11  23  46  70 104 154 192 241 317 365 433
#     4  12  28  44  72 112 151 192 252 304 369 453
#     4  10  20  42  76 102 140 190 240 316 356 440
#     4  12  25  44  75 105 152 199 237 304 380 431
#     4  11  25  48  73 107 144 195 253 301 375 447
#     4   9  21  39  70 104 135 191 242 297 369 431
#     4  11  23  41  73 107 147 192 248 300 365 449
#
# _framework density 27.615914
#
# number of rings (size 3 to 8) (size 9 to 14) (size 15 to 20)
#    0.000    1.333    2.667    2.800    3.733    1.600 
#    0.000    3.333    2.933    0.000    0.000    0.000 
#    0.000    0.000    0.000    0.000    0.000    0.000 
#
# Total GULP energy -83865.948712 kJ/mol
# GULP energy per Si atom -5591.063247 kJ/mol
# Density = 2.755306 g / cm^3
# Si number density = 27.615914 Si / 1000 Ang^3
#
#
#
# Elastic Constant Matrix: (Units=GPa)
#
#
# Indices 1 2 3 4 5 6 
#
# 1 153.8531 59.9739 47.2167 -5.5226 -24.3189 41.0854
# 2 59.9739 230.4275 51.7079 3.3656 -15.7648 20.0476
# 3 47.2167 51.7079 141.2126 -10.9974 -22.0262 20.2394
# 4 -5.5226 3.3656 -10.9974 67.2520 15.9331 -9.0041
# 5 -24.3189 -15.7648 -22.0262 15.9331 52.8273 -7.3766
# 6 41.0854 20.0476 20.2394 -9.0041 -7.3766 43.6797
#
#
#
# Elastic Compliance Matrix: (Units=1/GPa)
#
#
# Indices 1 2 3 4 5 6 
#
# 1 0.009960 -0.001402 -0.001333 -0.001052 0.002833 -0.007846
# 2 -0.001402 0.005085 -0.001307 -0.000764 0.000490 -0.000485
# 3 -0.001333 -0.001307 0.008630 0.000631 0.002174 -0.001648
# 4 -0.001052 -0.000764 0.000631 0.016582 -0.004943 0.003631
# 5 0.002833 0.000490 0.002174 -0.004943 0.022624 -0.001095
# 6 -0.007846 -0.000485 -0.001648 0.003631 -0.001095 0.031824
#
#
# Mechanical properties :
#
#
# Convention : Reuss Voigt Hill
#
# Bulk Modulus (GPa) = 64.13058 93.69889 78.91474
# Shear Modulus (GPa) = 46.30265 57.19145 51.74705
#
# Velocity S-wave (km/s) = 4.09915 4.55572 4.33345
# Velocity P-wave (km/s) = 6.75846 7.85339 7.32641
#
# Compressibility (1/GPa) = 0.01559318
#
# Stress axis : x y z
#
# Youngs Moduli (GPa) = 100.39772 196.67013 115.87233
#
# Poissons Ratio (x) = 0.27564 0.15442
# Poissons Ratio (y) = 0.14071 0.15143
# Poissons Ratio (z) = 0.13379 0.25702
#
# Static dielectric constant tensor:
#      x y z
#    x 2.334890 -0.142410 0.091730 
#    y -0.142410 2.252160 0.052480 
#    z 0.091730 0.052480 2.718310 
# 
# From -- ./inp_files/167544.got.cif
#   From: 2010.05.17/outbox.cif.g08.bks.cpg/sg2_84_cif.got.tgz:167544.got - 2010.06.03 11:33:40.
