data_PCOD9111889
_publ_section_title
;
Structure prediction by ZEFSAII (Michael W. Deem and Ramdas Pophale) SiO2 
 PCOD9111889
Probable space group: P -1
;
_chemical_formula_sum "Si O2"
_cell_formula_units_Z 14
_cell_length_a 7.582758
_cell_length_b 11.147077
_cell_length_c 15.480281
_cell_angle_alpha 132.603677
_cell_angle_beta 35.827604
_cell_angle_gamma 122.481176
_cell_volume 563.543659
_symmetry_space_group_name_H-M "P -1"
_symmetry_group_IT_number 2
_symmetry_cell_setting 'triclinic'
loop_
_space_group_symop_operation_xyz
x,y,z
-x,-y,-z
loop_
_atom_site_type_symbol
_atom_site_label
_atom_site_fract_x
_atom_site_fract_y
_atom_site_fract_z
Si Si1 0.800110 0.343016 0.501888
Si Si2 0.305495 0.668883 0.660470
Si Si3 0.814767 0.093345 0.925657
Si Si4 0.819986 0.020612 0.429265
Si Si5 0.567472 0.989065 0.254440
Si Si6 0.683431 0.439180 0.125836
Si Si7 0.634516 0.648853 0.966702
O O1 0.776133 0.291936 0.388149
O O2 0.909890 0.203533 0.455881
O O3 0.474284 0.409051 0.691408
O O4 0.000000 0.500000 0.500000
O O5 0.500000 0.500000 0.500000
O O6 0.994651 0.637785 0.816255
O O7 0.442783 0.843794 0.715520
O O8 0.099985 0.032142 0.841353
O O9 0.731827 0.274489 0.079104
O O10 0.950942 0.092859 0.772886
O O11 0.500000 0.000000 0.000000
O O12 0.710242 0.001322 0.561779
O O13 0.500000 0.000000 0.500000
O O14 0.541096 0.824147 0.129077
O O15 0.479100 0.381800 0.099811
O O16 0.000000 0.500000 0.000000
O O17 0.500000 0.500000 0.000000
#
# Coordination Sequence:
#
# PCOD9111889 Si02
#       7
#     2   2   2   2   2   2   2
#     4  12  23  46  72 104 144 187 246 299 355 427
#     4  12  28  48  74 106 149 196 240 301 369 436
#     4  11  22  41  72 106 137 180 241 294 351 424
#     4  10  20  43  73  98 138 189 238 293 356 420
#     4  11  25  50  74 105 150 193 241 304 366 436
#     4  12  26  43  75 105 137 188 240 298 357 433
#     4  12  27  51  70 109 154 192 239 304 373 436
#
# _framework density 24.842794000000001
#
# number of rings (size 3 to 8) (size 9 to 14) (size 15 to 20)
#    0.000    0.571    4.286    5.571    4.000    0.000 
#    2.571    1.429    0.000    0.000    0.000    0.000 
#    0.000    0.000    0.000    0.000    0.000    0.000 
#
# Total GULP energy -78339.412702 kJ/mol
# GULP energy per Si atom -5595.672336 kJ/mol
# Density = 2.478625 g / cm^3
# Si number density = 24.842794 Si / 1000 Ang^3
#
#
#
# Elastic Constant Matrix: (Units=GPa)
#
#
# Indices 1 2 3 4 5 6 
#
# 1 98.1825 35.4346 29.5257 -2.7496 -9.0439 5.4468
# 2 35.4346 176.2696 32.4389 8.5076 -0.4796 -3.4648
# 3 29.5257 32.4389 106.3429 -10.9702 15.2149 -0.7295
# 4 -2.7496 8.5076 -10.9702 60.3568 0.5688 -3.5511
# 5 -9.0439 -0.4796 15.2149 0.5688 27.9115 7.1258
# 6 5.4468 -3.4648 -0.7295 -3.5511 7.1258 34.7667
#
#
#
# Elastic Compliance Matrix: (Units=1/GPa)
#
#
# Indices 1 2 3 4 5 6 
#
# 1 0.013009 -0.001899 -0.004141 -0.000189 0.007428 -0.003856
# 2 -0.001899 0.006421 -0.001582 -0.001237 0.000194 0.000738
# 3 -0.004141 -0.001582 0.012614 0.002581 -0.009030 0.002870
# 4 -0.000189 -0.001237 0.002581 0.017357 -0.002412 0.002228
# 5 0.007428 0.000194 -0.009030 -0.002412 0.046021 -0.011013
# 6 -0.003856 0.000738 0.002870 0.002228 -0.011013 0.031986
#
#
# Mechanical properties :
#
#
# Convention : Reuss Voigt Hill
#
# Bulk Modulus (GPa) = 59.52753 63.95482 61.74117
# Shear Modulus (GPa) = 33.72660 43.50004 38.61332
#
# Velocity S-wave (km/s) = 3.68856 4.18905 3.94675
# Velocity P-wave (km/s) = 6.49264 7.01407 6.75839
#
# Compressibility (1/GPa) = 0.01679895
#
# Stress axis : x y z
#
# Youngs Moduli (GPa) = 76.87071 155.74447 79.27894
#
# Poissons Ratio (x) = 0.29583 0.32831
# Poissons Ratio (y) = 0.14601 0.12538
# Poissons Ratio (z) = 0.31834 0.24631
#
# Static dielectric constant tensor:
#      x y z
#    x 2.088900 -0.086120 0.039330 
#    y -0.086120 2.190550 0.023120 
#    z 0.039330 0.023120 2.073660 
# 
# From -- ./inp_files/158155.got.cif
#   From: 2010.05.17/outbox.cif.g08.bks.cpg/sg2_80_cif.got.tgz:158155.got - 2010.06.03 11:33:40.
