data_PCOD9111995
_publ_section_title
;
Structure prediction by ZEFSAII (Michael W. Deem and Ramdas Pophale) SiO2 
 PCOD9111995
Probable space group: P -1
;
_chemical_formula_sum "Si O2"
_cell_formula_units_Z 10
_cell_length_a 7.096571
_cell_length_b 18.362687
_cell_length_c 11.953005
_cell_angle_alpha 157.301911
_cell_angle_beta 39.617890
_cell_angle_gamma 141.009965
_cell_volume 368.959974
_symmetry_space_group_name_H-M "P -1"
_symmetry_group_IT_number 2
_symmetry_cell_setting 'triclinic'
loop_
_space_group_symop_operation_xyz
x,y,z
-x,-y,-z
loop_
_atom_site_type_symbol
_atom_site_label
_atom_site_fract_x
_atom_site_fract_y
_atom_site_fract_z
Si Si1 0.721377 0.312524 0.377024
Si Si2 0.213477 0.689171 0.106159
Si Si3 0.542026 0.744279 0.814873
Si Si4 0.863891 0.966697 0.257259
Si Si5 0.761824 0.182818 0.387174
O O1 0.499345 0.317754 0.382740
O O2 0.621103 0.316602 0.558901
O O3 0.000000 0.500000 0.500000
O O4 0.856520 0.125862 0.023169
O O5 0.559500 0.781728 0.130281
O O6 0.092485 0.885621 0.448925
O O7 0.276948 0.647054 0.887189
O O8 0.000000 0.500000 0.000000
O O9 0.876655 0.742593 0.704649
O O10 0.569102 0.972500 0.133195
O O11 0.806135 0.117153 0.400648
#
# Coordination Sequence:
#
# PCOD9111995 Si02
#       5
#     2   2   2   2   2
#     4  12  24  37  65 104 129 162 218 270 320 382
#     4  10  22  42  69  89 127 180 213 258 326 387
#     4  10  21  41  67  93 126 170 216 264 325 375
#     4  10  22  44  65  94 132 168 215 266 324 382
#     4  10  20  44  66  92 128 170 213 269 322 377
#
# _framework density 27.103214000000001
#
# number of rings (size 3 to 8) (size 9 to 14) (size 15 to 20)
#    0.000    1.600    6.000    0.600    2.800    3.200 
#    0.000    1.000    0.000    0.000    0.000    0.000 
#    0.000    0.000    0.000    0.000    0.000    0.000 
#
# Total GULP energy -55692.216977 kJ/mol
# GULP energy per Si atom -5569.221698 kJ/mol
# Density = 2.704153 g / cm^3
# Si number density = 27.103214 Si / 1000 Ang^3
#
#
#
# Elastic Constant Matrix: (Units=GPa)
#
#
# Indices 1 2 3 4 5 6 
#
# 1 144.9938 47.4776 14.5790 3.1691 3.8708 -9.9487
# 2 47.4776 177.1032 34.2232 20.4571 1.5200 -6.0058
# 3 14.5790 34.2232 78.1174 14.2037 -4.3224 -7.3556
# 4 3.1691 20.4571 14.2037 40.6568 8.4543 2.4529
# 5 3.8708 1.5200 -4.3224 8.4543 24.1753 8.2566
# 6 -9.9487 -6.0058 -7.3556 2.4529 8.2566 40.4194
#
#
#
# Elastic Compliance Matrix: (Units=1/GPa)
#
#
# Indices 1 2 3 4 5 6 
#
# 1 0.007785 -0.001981 -0.000711 0.000990 -0.002241 0.001890
# 2 -0.001981 0.006901 -0.002128 -0.002662 0.000352 0.000241
# 3 -0.000711 -0.002128 0.015198 -0.005157 0.004176 0.001734
# 4 0.000990 -0.002662 -0.005157 0.030027 -0.011200 -0.000625
# 5 -0.002241 0.000352 0.004176 -0.011200 0.049497 -0.009171
# 6 0.001890 0.000241 0.001734 -0.000625 -0.009171 0.027468
#
#
# Mechanical properties :
#
#
# Convention : Reuss Voigt Hill
#
# Bulk Modulus (GPa) = 49.39425 65.86376 57.62900
# Shear Modulus (GPa) = 32.62368 41.31262 36.96815
#
# Velocity S-wave (km/s) = 3.47318 3.90843 3.69721
# Velocity P-wave (km/s) = 5.86072 6.68742 6.28767
#
# Compressibility (1/GPa) = 0.02024527
#
# Stress axis : x y z
#
# Youngs Moduli (GPa) = 128.45647 144.90314 65.79790
#
# Poissons Ratio (x) = 0.28698 0.04680
# Poissons Ratio (y) = 0.25441 0.13999
# Poissons Ratio (z) = 0.09136 0.30829
#
# Static dielectric constant tensor:
#      x y z
#    x 2.150530 -0.090100 0.048070 
#    y -0.090100 2.224880 -0.082910 
#    z 0.048070 -0.082910 2.171820 
# 
# From -- ./inp_files/507561.got.cif
#   From: 2010.05.17/outbox.cif.g08.bks.cpg/sg2_254_cif.got.tgz:507561.got - 2010.06.03 11:33:40.
