data_PCOD9111767
_publ_section_title
;
Structure prediction by ZEFSAII (Michael W. Deem and Ramdas Pophale) SiO2 
 PCOD9111767
Probable space group: P -1
;
_chemical_formula_sum "Si O2"
_cell_formula_units_Z 13
_cell_length_a 9.403198
_cell_length_b 6.405457
_cell_length_c 17.454901
_cell_angle_alpha 77.911851
_cell_angle_beta 142.292139
_cell_angle_gamma 119.014094
_cell_volume 531.638427
_symmetry_space_group_name_H-M "P -1"
_symmetry_group_IT_number 2
_symmetry_cell_setting 'triclinic'
loop_
_space_group_symop_operation_xyz
x,y,z
-x,-y,-z
loop_
_atom_site_type_symbol
_atom_site_label
_atom_site_fract_x
_atom_site_fract_y
_atom_site_fract_z
Si Si1 0.845952 0.314997 0.765360
Si Si2 0.615804 0.225324 0.440964
Si Si3 0.533763 0.613441 0.306159
Si Si4 0.692145 0.554695 0.150316
Si Si5 0.195561 0.293830 0.050489
Si Si6 0.026508 0.031762 0.644579
Si Si7 0.500000 0.500000 0.500000
O O1 0.624029 0.392647 0.681801
O O2 0.052428 0.447602 0.773546
O O3 0.660094 0.018102 0.692320
O O4 0.039298 0.366026 0.917067
O O5 0.674578 0.458233 0.395135
O O6 0.850348 0.162612 0.546243
O O7 0.541049 0.289767 0.486094
O O8 0.286859 0.458839 0.152924
O O9 0.755276 0.877225 0.340276
O O10 0.487002 0.349250 0.138664
O O11 0.797382 0.822592 0.215514
O O12 0.500000 0.500000 0.000000
O O13 0.000000 0.000000 0.000000
O O14 0.816859 0.738307 0.590158
#
# Coordination Sequence:
#
# PCOD9111767 Si02
#       7
#     2   2   2   2   2   2   1
#     4  11  22  43  70 100 135 183 230 281 341 408
#     4  12  25  42  69  98 143 181 227 287 337 416
#     4  11  25  43  71 102 140 183 229 283 347 411
#     4   9  21  42  72  92 137 178 226 285 340 403
#     4  10  20  43  70 101 136 179 228 288 343 401
#     4  11  25  46  68 103 138 183 228 285 345 407
#     4  12  26  44  70  98 140 178 236 278 342 408
#
# _framework density 24.45271
#
# number of rings (size 3 to 8) (size 9 to 14) (size 15 to 20)
#    0.000    1.231    3.077    2.308    2.154    3.692 
#    0.000    0.769    0.000    0.000    0.000    0.000 
#    0.000    0.000    0.000    0.000    0.000    0.000 
#
# Total GULP energy -72498.798677 kJ/mol
# GULP energy per Si atom -5576.830667 kJ/mol
# Density = 2.439705 g / cm^3
# Si number density = 24.452710 Si / 1000 Ang^3
#
#
#
# Elastic Constant Matrix: (Units=GPa)
#
#
# Indices 1 2 3 4 5 6 
#
# 1 152.6883 41.3948 13.4582 29.0090 33.0933 1.8023
# 2 41.3948 93.9881 19.1171 25.7866 26.1317 11.5797
# 3 13.4582 19.1171 122.5316 30.8938 -9.1675 -5.4331
# 4 29.0090 25.7866 30.8938 49.3919 0.2471 14.2091
# 5 33.0933 26.1317 -9.1675 0.2471 33.2133 14.4425
# 6 1.8023 11.5797 -5.4331 14.2091 14.4425 33.9303
#
#
#
# Elastic Compliance Matrix: (Units=1/GPa)
#
#
# Indices 1 2 3 4 5 6 
#
# 1 0.011916 0.001130 0.000473 -0.010972 -0.017349 0.011036
# 2 0.001130 0.017499 -0.001258 -0.010564 -0.017640 0.005699
# 3 0.000473 -0.001258 0.010521 -0.007538 0.001470 0.004620
# 4 -0.010972 -0.010564 -0.007538 0.044887 0.029092 -0.028200
# 5 -0.017349 -0.017640 0.001470 0.029092 0.078094 -0.038246
# 6 0.011036 0.005699 0.004620 -0.028200 -0.038246 0.055770
#
#
# Mechanical properties :
#
#
# Convention : Reuss Voigt Hill
#
# Bulk Modulus (GPa) = 24.61554 57.46092 41.03823
# Shear Modulus (GPa) = 21.59475 42.98962 32.29219
#
# Velocity S-wave (km/s) = 2.97496 4.19749 3.63794
# Velocity P-wave (km/s) = 4.67857 6.85869 5.87072
#
# Compressibility (1/GPa) = 0.04062474
#
# Stress axis : x y z
#
# Youngs Moduli (GPa) = 83.92283 57.14761 95.04947
#
# Poissons Ratio (x) = -0.06457 -0.04493
# Poissons Ratio (y) = -0.09483 0.11956
# Poissons Ratio (z) = -0.03967 0.07188
#
# Static dielectric constant tensor:
#      x y z
#    x 2.049410 -0.001890 -0.047470 
#    y -0.001890 1.761610 0.052710 
#    z -0.047470 0.052710 1.937980 
# 
# From -- ./inp_files/27353.got.cif
#   From: 2010.05.17/outbox.cif.g08.bks.cpg/sg2_14_cif.got.tgz:27353.got - 2010.06.03 11:33:40.
