data_PCOD9111646
_publ_section_title
;
Structure prediction by ZEFSAII (Michael W. Deem and Ramdas Pophale) SiO2 
 PCOD9111646
Probable space group: P -1
;
_chemical_formula_sum "Si O2"
_cell_formula_units_Z 14
_cell_length_a 12.081398
_cell_length_b 5.332611
_cell_length_c 9.171376
_cell_angle_alpha 96.714890
_cell_angle_beta 74.330430
_cell_angle_gamma 98.137093
_cell_volume 561.259337
_symmetry_space_group_name_H-M "P -1"
_symmetry_group_IT_number 2
_symmetry_cell_setting 'triclinic'
loop_
_space_group_symop_operation_xyz
x,y,z
-x,-y,-z
loop_
_atom_site_type_symbol
_atom_site_label
_atom_site_fract_x
_atom_site_fract_y
_atom_site_fract_z
Si Si1 0.909618 0.207238 0.666248
Si Si2 0.732967 0.469654 0.928804
Si Si3 0.516827 0.109795 0.662135
Si Si4 0.293551 0.812363 0.824801
Si Si5 0.848006 0.443220 0.418274
Si Si6 0.895933 0.917209 0.927650
Si Si7 0.348067 0.339248 0.312023
O O1 0.791938 0.294166 0.781463
O O2 0.882679 0.227284 0.505080
O O3 0.921424 0.966276 0.750716
O O4 0.030261 0.393004 0.657230
O O5 0.673154 0.649556 0.852580
O O6 0.846920 0.632293 0.961734
O O7 0.656025 0.370739 0.086077
O O8 0.566439 0.403986 0.665035
O O9 0.500000 0.000000 0.500000
O O10 0.390237 0.040092 0.769242
O O11 0.601627 0.921943 0.688858
O O12 0.229509 0.677822 0.697535
O O13 0.199092 0.914992 0.967796
O O14 0.766989 0.621115 0.549397
O O15 0.000000 0.000000 0.000000
#
# Coordination Sequence:
#
# PCOD9111646 Si02
#       7
#     2   2   2   2   2   2   2
#     4   9  21  41  64  98 136 173 229 279 348 413
#     4  10  24  43  67  98 137 180 227 283 349 412
#     4  12  27  47  72 105 138 180 235 290 345 404
#     4  11  25  41  69  96 139 173 234 281 353 402
#     4  10  20  43  67  99 133 182 222 288 344 414
#     4  11  23  41  67 100 136 181 225 285 343 420
#     4  11  27  47  74  99 142 182 233 289 340 412
#
# _framework density 24.943904
#
# number of rings (size 3 to 8) (size 9 to 14) (size 15 to 20)
#    0.000    1.429    1.429    2.143    8.000    4.571 
#    2.571    4.286    0.000    0.000    0.000    0.000 
#    0.000    0.000    0.000    0.000    0.000    0.000 
#
# Total GULP energy -78215.211320 kJ/mol
# GULP energy per Si atom -5586.800809 kJ/mol
# Density = 2.488713 g / cm^3
# Si number density = 24.943904 Si / 1000 Ang^3
#
#
#
# Elastic Constant Matrix: (Units=GPa)
#
#
# Indices 1 2 3 4 5 6 
#
# 1 71.4858 10.7045 14.2452 1.0978 4.5821 11.0388
# 2 10.7045 75.8890 7.2089 -5.3291 -6.6754 28.8657
# 3 14.2452 7.2089 96.9535 -6.7874 7.1123 0.9642
# 4 1.0978 -5.3291 -6.7874 36.7243 11.1122 -3.7966
# 5 4.5821 -6.6754 7.1123 11.1122 26.5658 5.2966
# 6 11.0388 28.8657 0.9642 -3.7966 5.2966 46.5900
#
#
#
# Elastic Compliance Matrix: (Units=1/GPa)
#
#
# Indices 1 2 3 4 5 6 
#
# 1 0.015093 -0.001054 -0.002068 -0.000850 -0.001403 -0.002790
# 2 -0.001054 0.018911 -0.001853 -0.001441 0.008528 -0.012516
# 3 -0.002068 -0.001853 0.011369 0.003690 -0.005153 0.002289
# 4 -0.000850 -0.001441 0.003690 0.033206 -0.016203 0.005566
# 5 -0.001403 0.008528 -0.005153 -0.016203 0.050559 -0.011913
# 6 -0.002790 -0.012516 0.002289 0.005566 -0.011913 0.031640
#
#
# Mechanical properties :
#
#
# Convention : Reuss Voigt Hill
#
# Bulk Modulus (GPa) = 28.23098 34.29394 31.26246
# Shear Modulus (GPa) = 27.39163 36.12070 31.75616
#
# Velocity S-wave (km/s) = 3.31740 3.80949 3.57193
# Velocity P-wave (km/s) = 5.10057 5.75568 5.43800
#
# Compressibility (1/GPa) = 0.03542208
#
# Stress axis : x y z
#
# Youngs Moduli (GPa) = 66.25796 52.87805 87.95519
#
# Poissons Ratio (x) = 0.05575 0.18189
# Poissons Ratio (y) = 0.06986 0.16300
# Poissons Ratio (z) = 0.13702 0.09800
#
# Static dielectric constant tensor:
#      x y z
#    x 2.145100 -0.156580 0.033560 
#    y -0.156580 2.292780 -0.072350 
#    z 0.033560 -0.072350 1.987440 
# 
# From -- ./inp_files/27109.got.cif
#   From: 2010.05.17/outbox.cif.g08.bks.cpg/sg2_14_cif.got.tgz:27109.got - 2010.06.03 11:33:40.
