data_PCOD9111473
_publ_section_title
;
Structure prediction by ZEFSAII (Michael W. Deem and Ramdas Pophale) SiO2 
 PCOD9111473
Probable space group: P -1
;
_chemical_formula_sum "Si O2"
_cell_formula_units_Z 16
_cell_length_a 12.007463
_cell_length_b 13.042156
_cell_length_c 10.543561
_cell_angle_alpha 129.429417
_cell_angle_beta 108.983324
_cell_angle_gamma 33.244744
_cell_volume 610.966645
_symmetry_space_group_name_H-M "P -1"
_symmetry_group_IT_number 2
_symmetry_cell_setting 'triclinic'
loop_
_space_group_symop_operation_xyz
x,y,z
-x,-y,-z
loop_
_atom_site_type_symbol
_atom_site_label
_atom_site_fract_x
_atom_site_fract_y
_atom_site_fract_z
Si Si1 0.918523 0.796974 0.632251
Si Si2 0.676270 0.208569 0.257491
Si Si3 0.290949 0.486021 0.731849
Si Si4 0.243997 0.626636 0.281716
Si Si5 0.184536 0.816767 0.144034
Si Si6 0.852155 0.789551 0.858864
Si Si7 0.749610 0.997240 0.376787
Si Si8 0.888234 0.513534 0.802206
O O1 0.142979 0.632401 0.662579
O O2 0.812071 0.802229 0.704404
O O3 0.007080 0.642971 0.416787
O O4 0.766070 0.076186 0.770745
O O5 0.432046 0.506073 0.353184
O O6 0.656128 0.135966 0.316722
O O7 0.904399 0.075755 0.253943
O O8 0.759343 0.026596 0.035466
O O9 0.132958 0.532400 0.785081
O O10 0.545351 0.197274 0.558728
O O11 0.269469 0.644939 0.923055
O O12 0.275779 0.656043 0.178356
O O13 0.962519 0.893146 0.409918
O O14 0.284389 0.428303 0.157988
O O15 0.774917 0.758755 0.908616
O O16 0.885516 0.724791 0.211405
#
# Coordination Sequence:
#
# PCOD9111473 Si02
#       8
#     2   2   2   2   2   2   2   2
#     4  10  21  39  67  90 131 163 205 265 313 370
#     4  10  20  43  64  97 123 169 208 256 324 360
#     4   9  20  39  65  92 123 169 204 260 319 361
#     4   9  22  40  65  92 127 165 207 257 314 377
#     4  10  21  43  65  95 125 160 215 259 312 376
#     4   9  22  37  70  90 124 169 210 259 310 373
#     4   9  21  40  63  92 131 160 209 257 311 378
#     4  10  21  40  60  98 127 162 215 253 311 376
#
# _framework density 26.188008
#
# number of rings (size 3 to 8) (size 9 to 14) (size 15 to 20)
#    1.500    1.000    0.000    1.500    0.000    3.000 
#    2.250    4.375    0.000    0.000    0.000    0.000 
#    0.000    0.000    0.000    0.000    0.000    0.000 
#
# Total GULP energy -89326.163152 kJ/mol
# GULP energy per Si atom -5582.885197 kJ/mol
# Density = 2.612840 g / cm^3
# Si number density = 26.188008 Si / 1000 Ang^3
#
#
#
# Elastic Constant Matrix: (Units=GPa)
#
#
# Indices 1 2 3 4 5 6 
#
# 1 69.5057 22.1540 -0.8069 18.3818 -5.6960 15.8204
# 2 22.1540 145.8481 13.2714 2.3149 -13.8124 -0.8769
# 3 -0.8069 13.2714 73.4418 18.8754 -8.1461 -12.1776
# 4 18.3818 2.3149 18.8754 32.4004 -10.1971 -7.8600
# 5 -5.6960 -13.8124 -8.1461 -10.1971 34.8052 18.2082
# 6 15.8204 -0.8769 -12.1776 -7.8600 18.2082 38.0283
#
#
#
# Elastic Compliance Matrix: (Units=1/GPa)
#
#
# Indices 1 2 3 4 5 6 
#
# 1 0.024101 -0.003154 0.003364 -0.017121 0.006718 -0.015777
# 2 -0.003154 0.007746 -0.001940 0.003345 0.003025 0.000112
# 3 0.003364 -0.001940 0.017224 -0.011512 -0.000595 0.001977
# 4 -0.017121 0.003345 -0.011512 0.051400 0.004663 0.011905
# 5 0.006718 0.003025 -0.000595 0.004663 0.044401 -0.023211
# 6 -0.015777 0.000112 0.001977 0.011905 -0.023211 0.047069
#
#
# Mechanical properties :
#
#
# Convention : Reuss Voigt Hill
#
# Bulk Modulus (GPa) = 21.92418 39.78138 30.85278
# Shear Modulus (GPa) = 23.74109 37.99190 30.86650
#
# Velocity S-wave (km/s) = 3.01419 3.81299 3.43687
# Velocity P-wave (km/s) = 4.52811 5.88293 5.24941
#
# Compressibility (1/GPa) = 0.04561174
#
# Stress axis : x y z
#
# Youngs Moduli (GPa) = 41.49191 129.09673 58.05755
#
# Poissons Ratio (x) = 0.40716 -0.19531
# Poissons Ratio (y) = 0.13086 0.11264
# Poissons Ratio (z) = -0.13958 0.25046
#
# Static dielectric constant tensor:
#      x y z
#    x 2.105400 -0.001780 0.028490 
#    y -0.001780 2.096320 0.005060 
#    z 0.028490 0.005060 2.098020 
# 
# From -- ./inp_files/453989.got.cif
#   From: 2010.05.17/outbox.cif.g08.bks.cpg/sg2_227_cif.got.tgz:453989.got - 2010.06.03 11:33:40.
