data_PCOD9111770
_publ_section_title
;
Structure prediction by ZEFSAII (Michael W. Deem and Ramdas Pophale) SiO2 
 PCOD9111770
Probable space group: P -1
;
_chemical_formula_sum "Si O2"
_cell_formula_units_Z 16
_cell_length_a 12.746280
_cell_length_b 10.176673
_cell_length_c 15.728573
_cell_angle_alpha 146.689130
_cell_angle_beta 134.826983
_cell_angle_gamma 42.829187
_cell_volume 738.172884
_symmetry_space_group_name_H-M "P -1"
_symmetry_group_IT_number 2
_symmetry_cell_setting 'triclinic'
loop_
_space_group_symop_operation_xyz
x,y,z
-x,-y,-z
loop_
_atom_site_type_symbol
_atom_site_label
_atom_site_fract_x
_atom_site_fract_y
_atom_site_fract_z
Si Si1 0.838315 0.105051 0.123186
Si Si2 0.328239 0.066671 0.727337
Si Si3 0.782419 0.041564 0.731864
Si Si4 0.402418 0.135594 0.101088
Si Si5 0.314749 0.604991 0.973005
Si Si6 0.148132 0.516151 0.538970
Si Si7 0.943112 0.001160 0.371956
Si Si8 0.719017 0.262812 0.634551
O O1 0.788210 0.192231 0.045796
O O2 0.764989 0.361625 0.278801
O O3 0.028767 0.005978 0.187224
O O4 0.763600 0.906589 0.008413
O O5 0.264780 0.356761 0.813378
O O6 0.217901 0.047593 0.732699
O O7 0.499308 0.995827 0.829509
O O8 0.328028 0.872739 0.546480
O O9 0.709547 0.124166 0.641870
O O10 0.764567 0.772276 0.599465
O O11 0.706506 0.260158 0.875326
O O12 0.376966 0.434858 0.250984
O O13 0.500000 0.000000 0.000000
O O14 0.500000 0.500000 0.000000
O O15 0.000000 0.500000 0.500000
O O16 0.090048 0.726608 0.545296
O O17 0.092430 0.791616 0.297938
O O18 0.000000 0.000000 0.500000
#
# Coordination Sequence:
#
# PCOD9111770 Si02
#       8
#     2   2   2   2   2   2   2   2
#     4  11  24  44  72 100 139 186 229 291 351 422
#     4  11  25  47  69 100 147 183 232 291 350 420
#     4  11  25  44  75 102 135 185 235 293 347 420
#     4  12  26  44  68 102 148 185 230 289 355 418
#     4  12  26  47  67 104 143 180 234 289 361 416
#     4  10  20  43  70 102 142 172 234 284 345 407
#     4  10  22  40  73 106 132 179 231 294 339 405
#     4  11  24  45  73 103 133 187 239 284 347 420
#
# _framework density 21.675139999999999
#
# number of rings (size 3 to 8) (size 9 to 14) (size 15 to 20)
#    0.000    1.000    3.750    3.000    7.000    2.500 
#    4.500    1.250    0.000    0.000    0.000    0.000 
#    0.000    0.000    0.000    0.000    0.000    0.000 
#
# Total GULP energy -89431.701993 kJ/mol
# GULP energy per Si atom -5589.481375 kJ/mol
# Density = 2.162581 g / cm^3
# Si number density = 21.675140 Si / 1000 Ang^3
#
#
#
# Elastic Constant Matrix: (Units=GPa)
#
#
# Indices 1 2 3 4 5 6 
#
# 1 79.3065 28.2580 38.1175 10.6258 -14.8065 13.4141
# 2 28.2580 59.0335 6.1529 5.4165 -14.5528 23.7324
# 3 38.1175 6.1529 98.5513 13.9313 -22.4114 -1.5454
# 4 10.6258 5.4165 13.9313 45.4790 0.1075 -2.1800
# 5 -14.8065 -14.5528 -22.4114 0.1075 36.4869 5.0910
# 6 13.4141 23.7324 -1.5454 -2.1800 5.0910 36.5793
#
#
#
# Elastic Compliance Matrix: (Units=1/GPa)
#
#
# Indices 1 2 3 4 5 6 
#
# 1 0.019168 -0.006537 -0.006398 -0.001908 0.001723 -0.003412
# 2 -0.006537 0.032378 0.004474 -0.004740 0.015943 -0.020922
# 3 -0.006398 0.004474 0.014757 -0.003642 0.008449 -0.001326
# 4 -0.001908 -0.004740 -0.003642 0.024410 -0.005795 0.005882
# 5 0.001723 0.015943 0.008449 -0.005795 0.042017 -0.016812
# 6 -0.003412 -0.020922 -0.001326 0.005882 -0.016812 0.044797
#
#
# Mechanical properties :
#
#
# Convention : Reuss Voigt Hill
#
# Bulk Modulus (GPa) = 20.24973 42.43868 31.34421
# Shear Modulus (GPa) = 23.70685 34.66657 29.18671
#
# Velocity S-wave (km/s) = 3.31075 4.00355 3.67352
# Velocity P-wave (km/s) = 4.89668 6.40259 5.69959
#
# Compressibility (1/GPa) = 0.04938338
#
# Stress axis : x y z
#
# Youngs Moduli (GPa) = 52.17088 30.88482 67.76234
#
# Poissons Ratio (x) = 0.20189 0.43351
# Poissons Ratio (y) = 0.34104 -0.30319
# Poissons Ratio (z) = 0.33376 -0.13819
#
# Static dielectric constant tensor:
#      x y z
#    x 1.832120 -0.015850 0.016730 
#    y -0.015850 1.786240 -0.030260 
#    z 0.016730 -0.030260 1.881100 
# 
# From -- ./inp_files/401633.got.cif
#   From: 2010.05.17/outbox.cif.g08.bks.cpg/sg2_201_cif.got.tgz:401633.got - 2010.06.03 11:33:40.
