data_PCOD9111828
_publ_section_title
;
Structure prediction by ZEFSAII (Michael W. Deem and Ramdas Pophale) SiO2 
 PCOD9111828
Probable space group: P -1
;
_chemical_formula_sum "Si O2"
_cell_formula_units_Z 14
_cell_length_a 5.499754
_cell_length_b 12.488937
_cell_length_c 12.431303
_cell_angle_alpha 43.584764
_cell_angle_beta 88.486884
_cell_angle_gamma 77.998738
_cell_volume 565.953831
_symmetry_space_group_name_H-M "P -1"
_symmetry_group_IT_number 2
_symmetry_cell_setting 'triclinic'
loop_
_space_group_symop_operation_xyz
x,y,z
-x,-y,-z
loop_
_atom_site_type_symbol
_atom_site_label
_atom_site_fract_x
_atom_site_fract_y
_atom_site_fract_z
Si Si1 0.035390 0.586528 0.664092
Si Si2 0.588685 0.569530 0.059421
Si Si3 0.868795 0.283022 0.873710
Si Si4 0.211265 0.603388 0.433480
Si Si5 0.783799 0.103509 0.351252
Si Si6 0.532849 0.842869 0.478796
Si Si7 0.158240 0.134234 0.163706
O O1 0.180463 0.572426 0.786192
O O2 0.176728 0.657185 0.518922
O O3 0.052343 0.400176 0.784073
O O4 0.741158 0.674867 0.581857
O O5 0.372371 0.627750 0.113039
O O6 0.500000 0.500000 0.000000
O O7 0.685622 0.731101 0.921790
O O8 0.814153 0.272792 0.755726
O O9 0.035810 0.134224 0.047646
O O10 0.500000 0.500000 0.500000
O O11 0.000000 0.500000 0.500000
O O12 0.560616 0.174873 0.385571
O O13 0.918221 0.194265 0.201990
O O14 0.703875 0.967104 0.385666
O O15 0.000000 0.000000 0.500000
O O16 0.310466 0.954189 0.327948
#
# Coordination Sequence:
#
# PCOD9111828 Si02
#       7
#     2   2   2   2   2   2   2
#     4  10  23  40  64  98 122 164 226 277 321 398
#     4  11  24  39  61  92 132 169 215 268 330 394
#     4  10  22  39  64  93 124 170 214 271 335 390
#     4  10  20  43  71  95 129 175 222 277 338 396
#     4   9  20  37  58  83 124 179 211 250 322 397
#     4  10  21  38  63  88 125 172 217 262 323 395
#     4  10  22  40  59  89 130 172 216 264 331 392
#
# _framework density 24.737002
#
# number of rings (size 3 to 8) (size 9 to 14) (size 15 to 20)
#    0.000    2.000    1.429    0.857    0.000   13.714 
#    0.000    2.857    0.000    3.429    0.000    0.000 
#    0.000    0.000    0.000    0.000    0.000    0.000 
#
# Total GULP energy -78004.452003 kJ/mol
# GULP energy per Si atom -5571.746572 kJ/mol
# Density = 2.468070 g / cm^3
# Si number density = 24.737002 Si / 1000 Ang^3
#
#
#
# Elastic Constant Matrix: (Units=GPa)
#
#
# Indices 1 2 3 4 5 6 
#
# 1 104.1717 16.2134 55.3229 -0.5710 -8.1087 -5.8263
# 2 16.2134 35.6789 48.3259 1.0650 1.5465 -7.8481
# 3 55.3229 48.3259 199.0319 24.1659 26.0973 -1.2584
# 4 -0.5710 1.0650 24.1659 36.0308 -2.6020 -5.1060
# 5 -8.1087 1.5465 26.0973 -2.6020 68.1038 -5.6407
# 6 -5.8263 -7.8481 -1.2584 -5.1060 -5.6407 31.0421
#
#
#
# Elastic Compliance Matrix: (Units=1/GPa)
#
#
# Indices 1 2 3 4 5 6 
#
# 1 0.012449 0.001356 -0.004764 0.004170 0.003756 0.003855
# 2 0.001356 0.049831 -0.014526 0.010897 0.006271 0.015196
# 3 -0.004764 -0.014526 0.011630 -0.008777 -0.005572 -0.006551
# 4 0.004170 0.010897 -0.008777 0.035224 0.005789 0.010028
# 5 0.003756 0.006271 -0.005572 0.005789 0.017863 0.006263
# 6 0.003855 0.015196 -0.006551 0.010028 0.006263 0.039302
#
#
# Mechanical properties :
#
#
# Convention : Reuss Voigt Hill
#
# Bulk Modulus (GPa) = 26.28529 64.28967 45.28748
# Shear Modulus (GPa) = 23.27220 41.63668 32.45444
#
# Velocity S-wave (km/s) = 3.07055 4.10710 3.62606
# Velocity P-wave (km/s) = 4.81871 6.96683 5.98986
#
# Compressibility (1/GPa) = 0.03804410
#
# Stress axis : x y z
#
# Youngs Moduli (GPa) = 80.32572 20.06765 85.98189
#
# Poissons Ratio (x) = -0.02721 0.40962
# Poissons Ratio (y) = -0.10893 1.24894
# Poissons Ratio (z) = 0.38268 0.29149
#
# Static dielectric constant tensor:
#      x y z
#    x 2.040500 0.040250 0.059490 
#    y 0.040250 2.032970 0.087290 
#    z 0.059490 0.087290 2.014320 
# 
# From -- ./inp_files/367387.got.cif
#   From: 2010.05.17/outbox.cif.g08.bks.cpg/sg2_184_cif.got.tgz:367387.got - 2010.06.03 11:33:40.
