data_PCOD9111204
_publ_section_title
;
Structure prediction by ZEFSAII (Michael W. Deem and Ramdas Pophale) SiO2 
 PCOD9111204
Probable space group: P -1
;
_chemical_formula_sum "Si O2"
_cell_formula_units_Z 14
_cell_length_a 9.678668
_cell_length_b 17.737125
_cell_length_c 7.113784
_cell_angle_alpha 47.789143
_cell_angle_beta 129.789183
_cell_angle_gamma 141.955447
_cell_volume 540.757279
_symmetry_space_group_name_H-M "P -1"
_symmetry_group_IT_number 2
_symmetry_cell_setting 'triclinic'
loop_
_space_group_symop_operation_xyz
x,y,z
-x,-y,-z
loop_
_atom_site_type_symbol
_atom_site_label
_atom_site_fract_x
_atom_site_fract_y
_atom_site_fract_z
Si Si1 0.655224 0.626447 0.726865
Si Si2 0.500000 0.000000 0.500000
Si Si3 0.559135 0.854953 0.476955
Si Si4 0.289620 0.582851 0.907457
Si Si5 0.962605 0.853830 0.884564
Si Si6 0.982373 0.752327 0.445454
Si Si7 0.806877 0.466808 0.660144
Si Si8 0.500000 0.000000 0.000000
O O1 0.810325 0.713305 0.889038
O O2 0.813208 0.707647 0.547603
O O3 0.418018 0.604451 0.543450
O O4 0.597957 0.487239 0.902695
O O5 0.463383 0.040966 0.615103
O O6 0.746094 0.145733 0.445508
O O7 0.419457 0.722157 0.693542
O O8 0.818420 0.904544 0.627832
O O9 0.444378 0.852708 0.189836
O O10 0.028076 0.480069 0.775035
O O11 0.270731 0.593530 0.097014
O O12 0.952611 0.831717 0.135759
O O13 0.223437 0.932683 0.913867
O O14 0.911315 0.618071 0.523948
#
# Coordination Sequence:
#
# PCOD9111204 Si02
#       8
#     2   1   2   2   2   2   2   1
#     4  11  25  44  76 115 150 193 244 308 391 450
#     4  12  24  48  76 100 144 206 260 296 378 432
#     4  12  26  48  74 106 147 199 258 315 372 446
#     4  10  21  42  75 109 148 195 245 306 382 453
#     4  12  27  49  76 111 153 197 253 316 377 454
#     4  11  23  47  73 107 151 195 250 316 364 456
#     4  10  20  42  70 113 152 185 247 311 367 456
#     4  12  26  52  70 102 158 190 258 322 352 452
#
# _framework density 25.889621999999999
#
# number of rings (size 3 to 8) (size 9 to 14) (size 15 to 20)
#    0.000    0.857    2.857    4.714    0.000    4.000 
#    5.143    2.143    0.000    0.000    0.000    0.000 
#    0.000    0.000    0.000    0.000    0.000    0.000 
#
# Total GULP energy -77976.468325 kJ/mol
# GULP energy per Si atom -5569.747738 kJ/mol
# Density = 2.583070 g / cm^3
# Si number density = 25.889622 Si / 1000 Ang^3
#
#
#
# Elastic Constant Matrix: (Units=GPa)
#
#
# Indices 1 2 3 4 5 6 
#
# 1 108.6966 40.3319 51.9150 15.6885 17.5262 37.0994
# 2 40.3319 116.1784 41.9387 0.9360 -2.9015 42.0273
# 3 51.9150 41.9387 178.9196 -25.0552 23.5544 36.2539
# 4 15.6885 0.9360 -25.0552 27.0358 3.4160 -1.6783
# 5 17.5262 -2.9015 23.5544 3.4160 43.7427 5.1751
# 6 37.0994 42.0273 36.2539 -1.6783 5.1751 51.9218
#
#
#
# Elastic Compliance Matrix: (Units=1/GPa)
#
#
# Indices 1 2 3 4 5 6 
#
# 1 0.017224 -0.001214 -0.004793 -0.014616 -0.002287 -0.008222
# 2 -0.001214 0.012940 -0.001657 -0.002267 0.003464 -0.008868
# 3 -0.004793 -0.001657 0.009979 0.012556 -0.004383 -0.001359
# 4 -0.014616 -0.002267 0.012556 0.058358 -0.006326 0.006029
# 5 -0.002287 0.003464 -0.004383 -0.006326 0.026980 -0.001003
# 6 -0.008222 -0.008868 -0.001359 0.006029 -0.001003 0.033556
#
#
# Mechanical properties :
#
#
# Convention : Reuss Voigt Hill
#
# Bulk Modulus (GPa) = 40.30010 74.68507 57.49258
# Shear Modulus (GPa) = 27.37673 42.51400 34.94537
#
# Velocity S-wave (km/s) = 3.25536 4.05671 3.67792
# Velocity P-wave (km/s) = 5.45250 7.13110 6.34753
#
# Compressibility (1/GPa) = 0.02481384
#
# Stress axis : x y z
#
# Youngs Moduli (GPa) = 58.05753 77.28021 100.21162
#
# Poissons Ratio (x) = 0.09384 0.48030
# Poissons Ratio (y) = 0.07050 0.16610
# Poissons Ratio (z) = 0.27826 0.12809
#
# Static dielectric constant tensor:
#      x y z
#    x 1.984910 0.034980 0.110130 
#    y 0.034980 1.977690 -0.035590 
#    z 0.110130 -0.035590 2.057430 
# 
# From -- ./inp_files/281561.got.cif
#   From: 2010.05.17/outbox.cif.g08.bks.cpg/sg2_141_cif.got.tgz:281561.got - 2010.06.03 11:33:40.
