data_PCOD9111287
_publ_section_title
;
Structure prediction by ZEFSAII (Michael W. Deem and Ramdas Pophale) SiO2 
 PCOD9111287
Probable space group: P -1
;
_chemical_formula_sum "Si O2"
_cell_formula_units_Z 14
_cell_length_a 14.286621
_cell_length_b 13.077481
_cell_length_c 10.341007
_cell_angle_alpha 44.116618
_cell_angle_beta 145.561563
_cell_angle_gamma 148.867971
_cell_volume 564.418232
_symmetry_space_group_name_H-M "P -1"
_symmetry_group_IT_number 2
_symmetry_cell_setting 'triclinic'
loop_
_space_group_symop_operation_xyz
x,y,z
-x,-y,-z
loop_
_atom_site_type_symbol
_atom_site_label
_atom_site_fract_x
_atom_site_fract_y
_atom_site_fract_z
Si Si1 0.985527 0.822849 0.682312
Si Si2 0.078746 0.494568 0.239432
Si Si3 0.175039 0.238624 0.963197
Si Si4 0.525032 0.907821 0.990224
Si Si5 0.451404 0.746178 0.630955
Si Si6 0.221692 0.810979 0.497652
Si Si7 0.739000 0.529948 0.891789
O O1 0.973240 0.709157 0.647226
O O2 0.791817 0.657578 0.709127
O O3 0.000000 0.000000 0.500000
O O4 0.224310 0.931178 0.923031
O O5 0.326185 0.648879 0.439467
O O6 0.000000 0.500000 0.000000
O O7 0.936868 0.526136 0.131716
O O8 0.025853 0.272691 0.691280
O O9 0.399896 0.300752 0.106843
O O10 0.248527 0.356362 0.075287
O O11 0.000000 0.000000 0.000000
O O12 0.350064 0.859755 0.731259
O O13 0.470746 0.704875 0.144086
O O14 0.500000 0.000000 0.000000
O O15 0.270937 0.696177 0.573122
O O16 0.636911 0.980796 0.605395
#
# Coordination Sequence:
#
# PCOD9111287 Si02
#       7
#     2   2   2   2   2   2   2
#     4  11  27  46  71 109 151 192 250 316 374 450
#     4  10  20  42  72 101 144 197 238 302 378 440
#     4  10  23  42  72 108 143 202 251 308 378 448
#     4  12  27  46  74 110 143 202 251 300 390 458
#     4  10  21  40  74 105 143 200 244 307 380 435
#     4  10  22  43  70 102 151 191 248 311 368 452
#     4  11  24  48  73 102 156 193 251 311 375 451
#
# _framework density 24.804300000000001
#
# number of rings (size 3 to 8) (size 9 to 14) (size 15 to 20)
#    0.000    1.429    2.857    1.714    8.000    3.429 
#    0.000    0.714    0.000    0.000    0.000    0.000 
#    0.000    0.000    0.000    0.000    0.000    0.000 
#
# Total GULP energy -78231.159481 kJ/mol
# GULP energy per Si atom -5587.939963 kJ/mol
# Density = 2.474784 g / cm^3
# Si number density = 24.804300 Si / 1000 Ang^3
#
#
#
# Elastic Constant Matrix: (Units=GPa)
#
#
# Indices 1 2 3 4 5 6 
#
# 1 69.0755 27.2902 48.5318 -3.2175 -3.7439 -24.7026
# 2 27.2902 162.5118 28.7027 -25.4752 7.8387 -15.5897
# 3 48.5318 28.7027 170.2808 7.3761 27.7690 -15.5957
# 4 -3.2175 -25.4752 7.3761 45.9590 -0.8906 0.2642
# 5 -3.7439 7.8387 27.7690 -0.8906 29.6749 -0.0317
# 6 -24.7026 -15.5897 -15.5957 0.2642 -0.0317 41.0350
#
#
#
# Elastic Compliance Matrix: (Units=1/GPa)
#
#
# Indices 1 2 3 4 5 6 
#
# 1 0.025642 -0.002017 -0.007804 0.002078 0.011146 0.011699
# 2 -0.002017 0.007413 -0.000446 0.003999 -0.001674 0.001405
# 3 -0.007804 -0.000446 0.009836 -0.002562 -0.010149 -0.001121
# 4 0.002078 0.003999 -0.002562 0.024568 0.002343 0.001640
# 5 0.011146 -0.001674 -0.010149 0.002343 0.045116 0.002237
# 6 0.011699 0.001405 -0.001121 0.001640 0.002237 0.031511
#
#
# Mechanical properties :
#
#
# Convention : Reuss Voigt Hill
#
# Bulk Modulus (GPa) = 44.73236 67.87974 56.30605
# Shear Modulus (GPa) = 29.05734 43.15666 36.10700
#
# Velocity S-wave (km/s) = 3.42638 4.17572 3.81947
# Velocity P-wave (km/s) = 5.80747 7.11859 6.49619
#
# Compressibility (1/GPa) = 0.02235518
#
# Stress axis : x y z
#
# Youngs Moduli (GPa) = 38.99894 134.89052 101.67190
#
# Poissons Ratio (x) = 0.27209 0.79348
# Poissons Ratio (y) = 0.07867 0.04537
# Poissons Ratio (z) = 0.30436 0.06020
#
# Static dielectric constant tensor:
#      x y z
#    x 1.946880 0.088550 0.025640 
#    y 0.088550 1.956100 -0.021560 
#    z 0.025640 -0.021560 1.979160 
# 
# From -- ./inp_files/451175.got.cif
#   From: 2010.05.17/outbox.cif.g08.bks.cpg/sg2_226_cif.got.tgz:451175.got - 2010.06.03 11:33:40.
