data_PCOD9111089
_publ_section_title
;
Structure prediction by ZEFSAII (Michael W. Deem and Ramdas Pophale) SiO2 
 PCOD9111089
Probable space group: P -1
;
_chemical_formula_sum "Si O2"
_cell_formula_units_Z 15
_cell_length_a 14.617220
_cell_length_b 15.996178
_cell_length_c 7.243668
_cell_angle_alpha 73.414444
_cell_angle_beta 88.687729
_cell_angle_gamma 26.675598
_cell_volume 613.544937
_symmetry_space_group_name_H-M "P -1"
_symmetry_group_IT_number 2
_symmetry_cell_setting 'triclinic'
loop_
_space_group_symop_operation_xyz
x,y,z
-x,-y,-z
loop_
_atom_site_type_symbol
_atom_site_label
_atom_site_fract_x
_atom_site_fract_y
_atom_site_fract_z
Si Si1 0.628879 0.215383 0.190947
Si Si2 0.000000 0.000000 0.500000
Si Si3 0.579346 0.873033 0.753635
Si Si4 0.137716 0.161876 0.518156
Si Si5 0.877727 0.303023 0.976575
Si Si6 0.964180 0.655703 0.978908
Si Si7 0.199914 0.890191 0.130465
Si Si8 0.743180 0.379266 0.525986
O O1 0.344331 0.481232 0.017333
O O2 0.696623 0.069143 0.393886
O O3 0.740147 0.102659 0.053789
O O4 0.741690 0.200410 0.289830
O O5 0.132405 0.808927 0.474641
O O6 0.728408 0.803861 0.929614
O O7 0.500000 0.000000 0.500000
O O8 0.326869 0.049208 0.707246
O O9 0.789097 0.618232 0.847508
O O10 0.069437 0.279845 0.270199
O O11 0.889228 0.338528 0.488894
O O12 0.768332 0.360841 0.757948
O O13 0.010338 0.277226 0.953151
O O14 0.063479 0.064612 0.187936
O O15 0.459862 0.628528 0.340058
O O16 0.000000 0.000000 0.000000
#
# Coordination Sequence:
#
# PCOD9111089 Si02
#       8
#     2   1   2   2   2   2   2   2
#     4  11  24  43  67  97 136 179 230 287 347 404
#     4  10  22  44  66  88 134 174 228 286 342 400
#     4   9  19  38  69 106 139 180 227 278 344 419
#     4  10  20  42  68  98 138 181 227 280 339 414
#     4  12  25  44  68 103 141 177 234 290 345 415
#     4  10  21  37  70 106 138 182 229 278 349 415
#     4  12  28  46  68 101 136 187 238 287 349 413
#     4  11  26  43  68  98 136 182 234 289 350 414
#
# _framework density 24.448086
#
# number of rings (size 3 to 8) (size 9 to 14) (size 15 to 20)
#    0.000    1.333    4.000    1.600    3.733    4.267 
#    0.000    0.667    0.000    8.000    0.000    0.000 
#    0.000    0.000    0.000    0.000    0.000    0.000 
#
# Total GULP energy -83593.561148 kJ/mol
# GULP energy per Si atom -5572.904077 kJ/mol
# Density = 2.439244 g / cm^3
# Si number density = 24.448086 Si / 1000 Ang^3
#
#
#
# Elastic Constant Matrix: (Units=GPa)
#
#
# Indices 1 2 3 4 5 6 
#
# 1 145.3558 38.7061 40.5085 -25.6901 40.8041 -4.6456
# 2 38.7061 100.8939 37.6676 -36.2913 14.6602 -12.3603
# 3 40.5085 37.6676 119.4251 -33.6756 21.4018 -0.3825
# 4 -25.6901 -36.2913 -33.6756 42.2493 2.1469 2.3835
# 5 40.8041 14.6602 21.4018 2.1469 54.4528 -3.9035
# 6 -4.6456 -12.3603 -0.3825 2.3835 -3.9035 43.3413
#
#
#
# Elastic Compliance Matrix: (Units=1/GPa)
#
#
# Indices 1 2 3 4 5 6 
#
# 1 0.010328 -0.000621 -0.000248 0.005946 -0.007716 -0.000094
# 2 -0.000621 0.015983 -0.000450 0.013000 -0.003928 0.003419
# 3 -0.000248 -0.000450 0.012139 0.009445 -0.004909 -0.001009
# 4 0.005946 0.013000 0.009445 0.046626 -0.013459 0.000652
# 5 -0.007716 -0.003928 -0.004909 -0.013459 0.027753 0.001249
# 6 -0.000094 0.003419 -0.001009 0.000652 0.001249 0.024105
#
#
# Mechanical properties :
#
#
# Convention : Reuss Voigt Hill
#
# Bulk Modulus (GPa) = 27.92369 66.60437 47.26403
# Shear Modulus (GPa) = 33.00075 44.59486 38.79780
#
# Velocity S-wave (km/s) = 3.67799 4.27554 3.98797
# Velocity P-wave (km/s) = 5.42985 7.18860 6.37021
#
# Compressibility (1/GPa) = 0.03581188
#
# Stress axis : x y z
#
# Youngs Moduli (GPa) = 96.82333 62.56542 82.37737
#
# Poissons Ratio (x) = 0.03886 0.02045
# Poissons Ratio (y) = 0.06014 0.03707
# Poissons Ratio (z) = 0.02404 0.02815
#
# Static dielectric constant tensor:
#      x y z
#    x 2.022720 0.021390 -0.036740 
#    y 0.021390 1.903100 -0.030870 
#    z -0.036740 -0.030870 1.959670 
# 
# From -- ./inp_files/315106.got.cif
#   From: 2010.05.17/outbox.cif.g08.bks.cpg/sg2_158_cif.got.tgz:315106.got - 2010.06.03 11:33:40.
