data_PCOD9111704
_publ_section_title
;
Structure prediction by ZEFSAII (Michael W. Deem and Ramdas Pophale) SiO2 
 PCOD9111704
Probable space group: P -1
;
_chemical_formula_sum "Si O2"
_cell_formula_units_Z 14
_cell_length_a 26.027467
_cell_length_b 14.158646
_cell_length_c 17.661235
_cell_angle_alpha 23.378646
_cell_angle_beta 15.869541
_cell_angle_gamma 21.817665
_cell_volume 641.252344
_symmetry_space_group_name_H-M "P -1"
_symmetry_group_IT_number 2
_symmetry_cell_setting 'triclinic'
loop_
_space_group_symop_operation_xyz
x,y,z
-x,-y,-z
loop_
_atom_site_type_symbol
_atom_site_label
_atom_site_fract_x
_atom_site_fract_y
_atom_site_fract_z
Si Si1 0.502418 0.936375 0.310921
Si Si2 0.407036 0.570100 0.163186
Si Si3 0.285371 0.576629 0.703436
Si Si4 0.339504 0.906129 0.258339
Si Si5 0.612198 0.379406 0.167078
Si Si6 0.049316 0.222254 0.724298
Si Si7 0.002565 0.546232 0.700165
O O1 0.664326 0.679679 0.229921
O O2 0.431216 0.838645 0.561536
O O3 0.285760 0.077159 0.467730
O O4 0.602909 0.140715 0.024394
O O5 0.544281 0.392834 0.166976
O O6 0.194081 0.540617 0.480171
O O7 0.500000 0.500000 0.000000
O O8 0.500000 0.500000 0.500000
O O9 0.240578 0.811041 0.537104
O O10 0.103221 0.622313 0.985629
O O11 0.465076 0.656636 0.211061
O O12 0.167247 0.155699 0.279502
O O13 0.500000 0.000000 0.000000
O O14 0.849491 0.344315 0.863833
O O15 0.050705 0.432821 0.630057
O O16 0.000000 0.000000 0.000000
#
# Coordination Sequence:
#
# PCOD9111704 Si02
#       7
#     2   2   2   2   2   2   2
#     4  10  23  44  67  98 138 172 227 276 336 398
#     4  12  27  46  63  98 140 185 224 273 332 409
#     4  11  22  40  71 102 134 170 215 287 340 388
#     4  11  21  40  68 104 130 166 224 279 335 397
#     4  10  23  43  71  94 138 176 224 282 335 393
#     4  10  20  43  68  98 131 174 226 281 331 391
#     4  12  24  44  67  99 138 174 225 275 334 402
#
# _framework density 21.832279
#
# number of rings (size 3 to 8) (size 9 to 14) (size 15 to 20)
#    0.000    1.143    4.286    2.571    0.000    4.571 
#    7.714    2.857    0.000    0.000    0.000    0.000 
#    0.000    0.000    0.000    0.000    0.000    0.000 
#
# Total GULP energy -78287.568664 kJ/mol
# GULP energy per Si atom -5591.969190 kJ/mol
# Density = 2.178259 g / cm^3
# Si number density = 21.832279 Si / 1000 Ang^3
#
#
#
# Elastic Constant Matrix: (Units=GPa)
#
#
# Indices 1 2 3 4 5 6 
#
# 1 121.5878 15.6034 36.3300 4.8232 -11.5844 -28.5392
# 2 15.6034 52.4895 9.9633 -2.6094 -5.5251 -16.5608
# 3 36.3300 9.9633 94.7447 -2.5835 -16.6710 -8.2700
# 4 4.8232 -2.6094 -2.5835 32.8106 -3.0792 -3.8174
# 5 -11.5844 -5.5251 -16.6710 -3.0792 45.4137 1.7403
# 6 -28.5392 -16.5608 -8.2700 -3.8174 1.7403 25.2770
#
#
#
# Elastic Compliance Matrix: (Units=1/GPa)
#
#
# Indices 1 2 3 4 5 6 
#
# 1 0.012453 0.001435 -0.003465 -0.000248 0.001537 0.013723
# 2 0.001435 0.025007 -0.001030 0.004047 0.002611 0.018098
# 3 -0.003465 -0.001030 0.012664 0.001727 0.003774 -0.000442
# 4 -0.000248 0.004047 0.001727 0.032132 0.002951 0.007586
# 5 0.001537 0.002611 0.003774 0.002951 0.024182 0.003461
# 6 0.013723 0.018098 -0.000442 0.007586 0.003461 0.067676
#
#
# Mechanical properties :
#
#
# Convention : Reuss Voigt Hill
#
# Bulk Modulus (GPa) = 22.72530 43.62391 33.17461
# Shear Modulus (GPa) = 25.65396 34.49529 30.07463
#
# Velocity S-wave (km/s) = 3.43161 3.97925 3.71554
# Velocity P-wave (km/s) = 5.11204 6.41384 5.79958
#
# Compressibility (1/GPa) = 0.04400381
#
# Stress axis : x y z
#
# Youngs Moduli (GPa) = 80.30203 39.98948 78.96384
#
# Poissons Ratio (x) = -0.05739 0.27357
# Poissons Ratio (y) = -0.11523 0.08136
# Poissons Ratio (z) = 0.27821 0.04120
#
# Static dielectric constant tensor:
#      x y z
#    x 1.867030 0.007670 -0.057060 
#    y 0.007670 1.806040 -0.011670 
#    z -0.057060 -0.011670 1.935940 
# 
# From -- ./inp_files/258438.got.cif
#   From: 2010.05.17/outbox.cif.g08.bks.cpg/sg2_130_cif.got.tgz:258438.got - 2010.06.03 11:33:40.
