data_PCOD9111864
_publ_section_title
;
Structure prediction by ZEFSAII (Michael W. Deem and Ramdas Pophale) SiO2 
 PCOD9111864
Probable space group: P -1
;
_chemical_formula_sum "Si O2"
_cell_formula_units_Z 12
_cell_length_a 11.953320
_cell_length_b 10.910291
_cell_length_c 9.417795
_cell_angle_alpha 42.622500
_cell_angle_beta 115.424657
_cell_angle_gamma 142.945567
_cell_volume 462.109767
_symmetry_space_group_name_H-M "P -1"
_symmetry_group_IT_number 2
_symmetry_cell_setting 'triclinic'
loop_
_space_group_symop_operation_xyz
x,y,z
-x,-y,-z
loop_
_atom_site_type_symbol
_atom_site_label
_atom_site_fract_x
_atom_site_fract_y
_atom_site_fract_z
Si Si1 0.564945 0.653687 0.056087
Si Si2 0.768674 0.201734 0.082030
Si Si3 0.451322 0.941501 0.358927
Si Si4 0.920792 0.126667 0.018320
Si Si5 0.859722 0.881806 0.658335
Si Si6 0.103631 0.494056 0.370912
O O1 0.784253 0.859326 0.061499
O O2 0.374553 0.383663 0.279193
O O3 0.500000 0.500000 0.000000
O O4 0.572560 0.878754 0.855794
O O5 0.626358 0.059006 0.258268
O O6 0.933623 0.154111 0.535960
O O7 0.745106 0.322412 0.840261
O O8 0.000000 0.500000 0.000000
O O9 0.500000 0.000000 0.500000
O O10 0.242636 0.608763 0.481830
O O11 0.768572 0.011629 0.161720
O O12 0.097109 0.222231 0.110119
O O13 0.977522 0.392529 0.764569
O O14 0.000000 0.000000 0.500000
#
# Coordination Sequence:
#
# PCOD9111864 Si02
#       6
#     2   2   2   2   2   2
#     4  11  27  48  65 104 149 180 229 297 354 415
#     4  10  20  43  72  97 135 181 235 284 341 416
#     4  11  24  44  71  99 138 187 230 289 354 412
#     4   9  24  45  71 101 141 184 232 288 347 414
#     4  12  25  44  74 107 136 182 241 290 344 417
#     4   9  23  44  68 104 135 184 233 282 349 419
#
# _framework density 25.967856999999999
#
# number of rings (size 3 to 8) (size 9 to 14) (size 15 to 20)
#    1.000    0.667    0.000    3.500    4.667    4.000 
#    3.000    2.500    0.000    0.000    0.000    0.000 
#    0.000    0.000    0.000    0.000    0.000    0.000 
#
# Total GULP energy -67180.028590 kJ/mol
# GULP energy per Si atom -5598.335716 kJ/mol
# Density = 2.590875 g / cm^3
# Si number density = 25.967857 Si / 1000 Ang^3
#
#
#
# Elastic Constant Matrix: (Units=GPa)
#
#
# Indices 1 2 3 4 5 6 
#
# 1 81.6206 18.9876 27.0202 -3.5277 -12.0881 -4.3640
# 2 18.9876 138.6556 20.8823 11.2187 7.5235 -18.9528
# 3 27.0202 20.8823 67.9636 10.9089 -2.1572 4.8152
# 4 -3.5277 11.2187 10.9089 42.4363 -10.4127 -0.0668
# 5 -12.0881 7.5235 -2.1572 -10.4127 59.8868 -4.9081
# 6 -4.3640 -18.9528 4.8152 -0.0668 -4.9081 38.0080
#
#
#
# Elastic Compliance Matrix: (Units=1/GPa)
#
#
# Indices 1 2 3 4 5 6 
#
# 1 0.015664 -0.001395 -0.006543 0.004353 0.004060 0.002464
# 2 -0.001395 0.008540 -0.002058 -0.002199 -0.001470 0.004165
# 3 -0.006543 -0.002058 0.019061 -0.005314 -0.001662 -0.004416
# 4 0.004353 -0.002199 -0.005314 0.027294 0.005781 0.000871
# 5 0.004060 -0.001470 -0.001662 0.005781 0.018843 0.002387
# 6 0.002464 0.004165 -0.004416 0.000871 0.002387 0.029539
#
#
# Mechanical properties :
#
#
# Convention : Reuss Voigt Hill
#
# Bulk Modulus (GPa) = 42.97125 46.89110 44.93118
# Shear Modulus (GPa) = 34.08524 42.82285 38.45404
#
# Velocity S-wave (km/s) = 3.62690 4.06528 3.85233
# Velocity P-wave (km/s) = 5.84149 6.33498 6.09323
#
# Compressibility (1/GPa) = 0.02327137
#
# Stress axis : x y z
#
# Youngs Moduli (GPa) = 63.84215 117.09362 52.46420
#
# Poissons Ratio (x) = 0.16339 0.34328
# Poissons Ratio (y) = 0.08908 0.10798
# Poissons Ratio (z) = 0.41772 0.24099
#
# Static dielectric constant tensor:
#      x y z
#    x 2.058760 0.009060 -0.041330 
#    y 0.009060 2.083330 0.042470 
#    z -0.041330 0.042470 2.121070 
# 
# From -- ./inp_files/309127.got.cif
#   From: 2010.05.17/outbox.cif.g08.bks.cpg/sg2_155_cif.got.tgz:309127.got - 2010.06.03 11:33:40.
