data_PCOD9111821
_publ_section_title
;
Structure prediction by ZEFSAII (Michael W. Deem and Ramdas Pophale) SiO2 
 PCOD9111821
Probable space group: P -1
;
_chemical_formula_sum "Si O2"
_cell_formula_units_Z 11
_cell_length_a 8.866424
_cell_length_b 10.403239
_cell_length_c 7.345300
_cell_angle_alpha 118.014715
_cell_angle_beta 52.492758
_cell_angle_gamma 89.232846
_cell_volume 428.952013
_symmetry_space_group_name_H-M "P -1"
_symmetry_group_IT_number 2
_symmetry_cell_setting 'triclinic'
loop_
_space_group_symop_operation_xyz
x,y,z
-x,-y,-z
loop_
_atom_site_type_symbol
_atom_site_label
_atom_site_fract_x
_atom_site_fract_y
_atom_site_fract_z
Si Si1 0.806185 0.162575 0.959339
Si Si2 0.832480 0.179197 0.518906
Si Si3 0.183390 0.265050 0.346234
Si Si4 0.422084 0.171856 0.762458
Si Si5 0.954754 0.414173 0.152224
Si Si6 0.500000 0.000000 0.000000
O O1 0.807896 0.194937 0.764389
O O2 0.820123 0.314660 0.145627
O O3 0.614364 0.114951 0.095710
O O4 0.016584 0.006023 0.759995
O O5 0.602563 0.231553 0.642025
O O6 0.967452 0.276050 0.432349
O O7 0.162799 0.436035 0.527161
O O8 0.260684 0.126766 0.349712
O O9 0.390839 0.156795 0.996713
O O10 0.500000 0.000000 0.500000
O O11 0.189843 0.296512 0.965435
O O12 0.000000 0.500000 0.000000
#
# Coordination Sequence:
#
# PCOD9111821 Si02
#       6
#     2   2   2   2   2   1
#     4  10  20  43  71 107 141 187 240 296 349 430
#     4  10  21  44  73 101 143 188 241 296 350 436
#     4  11  25  44  73 106 148 186 238 302 361 426
#     4  12  26  47  74 105 142 196 245 292 362 434
#     4  12  26  46  72 112 148 184 237 310 364 422
#     4  10  22  42  76 100 140 196 240 280 362 426
#
# _framework density 25.643894
#
# number of rings (size 3 to 8) (size 9 to 14) (size 15 to 20)
#    0.000    1.091    5.455    0.545    2.545    2.182 
#    0.000    0.000    0.000    0.000    0.000    0.000 
#    0.000    0.000    0.000    0.000    0.000    0.000 
#
# Total GULP energy -61437.541111 kJ/mol
# GULP energy per Si atom -5585.231010 kJ/mol
# Density = 2.558553 g / cm^3
# Si number density = 25.643894 Si / 1000 Ang^3
#
#
#
# Elastic Constant Matrix: (Units=GPa)
#
#
# Indices 1 2 3 4 5 6 
#
# 1 163.2191 84.0079 73.3344 15.5003 -21.6675 42.4466
# 2 84.0079 137.1042 69.5441 26.4486 4.5204 40.9858
# 3 73.3344 69.5441 142.9282 32.6503 6.0823 29.3420
# 4 15.5003 26.4486 32.6503 55.1375 13.1342 5.7688
# 5 -21.6675 4.5204 6.0823 13.1342 44.7245 3.8238
# 6 42.4466 40.9858 29.3420 5.7688 3.8238 74.7309
#
#
#
# Elastic Compliance Matrix: (Units=1/GPa)
#
#
# Indices 1 2 3 4 5 6 
#
# 1 0.011898 -0.004819 -0.003319 -0.000430 0.007098 -0.003142
# 2 -0.004819 0.013029 -0.002562 -0.002506 -0.002303 -0.003092
# 3 -0.003319 -0.002562 0.011047 -0.003919 -0.001644 -0.000660
# 4 -0.000430 -0.002506 -0.003919 0.023116 -0.006356 0.001698
# 5 0.007098 -0.002303 -0.001644 -0.006356 0.028384 -0.003085
# 6 -0.003142 -0.003092 -0.000660 0.001698 -0.003085 0.017148
#
#
# Mechanical properties :
#
#
# Convention : Reuss Voigt Hill
#
# Bulk Modulus (GPa) = 68.61031 99.66938 84.13984
# Shear Modulus (GPa) = 38.20264 49.34291 43.77278
#
# Velocity S-wave (km/s) = 3.86390 4.39128 4.13600
# Velocity P-wave (km/s) = 6.83516 8.04128 7.46263
#
# Compressibility (1/GPa) = 0.01457507
#
# Stress axis : x y z
#
# Youngs Moduli (GPa) = 84.04552 76.74893 90.52393
#
# Poissons Ratio (x) = 0.36983 0.30045
# Poissons Ratio (y) = 0.40499 0.23193
# Poissons Ratio (z) = 0.27895 0.19664
#
# Static dielectric constant tensor:
#      x y z
#    x 2.162450 -0.164580 0.106950 
#    y -0.164580 2.094150 -0.073280 
#    z 0.106950 -0.073280 2.037570 
# 
# From -- ./inp_files/150253.got.cif
#   From: 2010.05.17/outbox.cif.g08.bks.cpg/sg2_76_cif.got.tgz:150253.got - 2010.06.03 11:33:40.
