data_PCOD9111416
_publ_section_title
;
Structure prediction by ZEFSAII (Michael W. Deem and Ramdas Pophale) SiO2 
 PCOD9111416
Probable space group: P -1
;
_chemical_formula_sum "Si O2"
_cell_formula_units_Z 16
_cell_length_a 9.216648
_cell_length_b 12.660235
_cell_length_c 7.350058
_cell_angle_alpha 97.061825
_cell_angle_beta 79.148219
_cell_angle_gamma 61.284620
_cell_volume 715.685069
_symmetry_space_group_name_H-M "P -1"
_symmetry_group_IT_number 2
_symmetry_cell_setting 'triclinic'
loop_
_space_group_symop_operation_xyz
x,y,z
-x,-y,-z
loop_
_atom_site_type_symbol
_atom_site_label
_atom_site_fract_x
_atom_site_fract_y
_atom_site_fract_z
Si Si1 0.709392 0.024703 0.946525
Si Si2 0.234393 0.365150 0.682169
Si Si3 0.668790 0.821447 0.083860
Si Si4 0.040523 0.635000 0.844976
Si Si5 0.000797 0.889285 0.577676
Si Si6 0.088745 0.638747 0.398070
Si Si7 0.434331 0.431030 0.364376
Si Si8 0.793873 0.211978 0.126059
O O1 0.512815 0.123755 0.962595
O O2 0.817864 0.937555 0.732610
O O3 0.804521 0.098080 0.992519
O O4 0.705968 0.934216 0.082094
O O5 0.338334 0.234662 0.733467
O O6 0.165849 0.492175 0.841997
O O7 0.347961 0.370947 0.494388
O O8 0.055644 0.380402 0.659819
O O9 0.836502 0.701235 0.933232
O O10 0.072293 0.632638 0.620537
O O11 0.096636 0.725109 0.942601
O O12 0.046553 0.777272 0.406797
O O13 0.142473 0.835778 0.693623
O O14 0.000000 0.000000 0.500000
O O15 0.284502 0.532992 0.292692
O O16 0.500000 0.500000 0.500000
O O17 0.597683 0.324049 0.200594
#
# Coordination Sequence:
#
# PCOD9111416 Si02
#       8
#     2   2   2   2   2   2   2   2
#     4  11  26  44  64  91 131 179 209 256 325 379
#     4  11  24  38  68  96 127 165 219 266 320 376
#     4  11  25  43  61  90 136 166 219 262 306 388
#     4  10  20  43  62  92 128 168 206 264 327 375
#     4  11  24  42  68  96 130 165 222 267 309 385
#     4  10  22  40  67  95 129 166 210 264 328 376
#     4  11  20  41  66  98 128 162 213 271 322 369
#     4  11  23  41  71  89 130 175 207 258 330 384
#
# _framework density 22.356200999999999
#
# number of rings (size 3 to 8) (size 9 to 14) (size 15 to 20)
#    0.000    1.250    6.250    2.250    7.000    0.000 
#    0.000    1.875    0.000    0.000    0.000    0.000 
#    0.000    0.000    0.000    0.000    0.000    0.000 
#
# Total GULP energy -89408.512177 kJ/mol
# GULP energy per Si atom -5588.032011 kJ/mol
# Density = 2.230532 g / cm^3
# Si number density = 22.356201 Si / 1000 Ang^3
#
#
#
# Elastic Constant Matrix: (Units=GPa)
#
#
# Indices 1 2 3 4 5 6 
#
# 1 108.5469 57.9320 6.2272 -0.6646 -0.1058 -3.9670
# 2 57.9320 148.7016 25.5529 -15.0389 -4.1387 7.0508
# 3 6.2272 25.5529 21.2133 1.1866 0.4007 2.3065
# 4 -0.6646 -15.0389 1.1866 24.3607 -0.7309 -15.1586
# 5 -0.1058 -4.1387 0.4007 -0.7309 24.1333 9.9364
# 6 -3.9670 7.0508 2.3065 -15.1586 9.9364 37.7991
#
#
#
# Elastic Compliance Matrix: (Units=1/GPa)
#
#
# Indices 1 2 3 4 5 6 
#
# 1 0.012068 -0.005612 0.003202 -0.002326 -0.001706 0.001634
# 2 -0.005612 0.012136 -0.013585 0.008592 0.002194 0.000845
# 3 0.003202 -0.013585 0.064256 -0.015941 -0.000897 -0.007208
# 4 -0.002326 0.008592 -0.015941 0.063279 -0.007226 0.026402
# 5 -0.001706 0.002194 -0.000897 -0.007226 0.048235 -0.016111
# 6 0.001634 0.000845 -0.007208 0.026402 -0.016111 0.041733
#
#
# Mechanical properties :
#
#
# Convention : Reuss Voigt Hill
#
# Bulk Modulus (GPa) = 17.70830 50.87623 34.29227
# Shear Modulus (GPa) = 17.09290 29.84194 23.46742
#
# Velocity S-wave (km/s) = 2.76809 3.65751 3.24343
# Velocity P-wave (km/s) = 4.26082 6.37519 5.42207
#
# Compressibility (1/GPa) = 0.05647069
#
# Stress axis : x y z
#
# Youngs Moduli (GPa) = 82.86540 82.40279 15.56266
#
# Poissons Ratio (x) = 0.46243 -0.04983
# Poissons Ratio (y) = 0.46503 0.21141
# Poissons Ratio (z) = -0.26534 1.11942
#
# Static dielectric constant tensor:
#      x y z
#    x 1.818760 0.029780 -0.008060 
#    y 0.029780 1.858370 -0.006810 
#    z -0.008060 -0.006810 1.843490 
# 
# From -- ./inp_files/178925.got.cif
#   From: 2010.05.17/outbox.cif.g08.bks.cpg/sg2_90_cif.got.tgz:178925.got - 2010.06.03 11:33:40.
