data_PCOD9111029
_publ_section_title
;
Structure prediction by ZEFSAII (Michael W. Deem and Ramdas Pophale) SiO2 
 PCOD9111029
Probable space group: P -1
;
_chemical_formula_sum "Si O2"
_cell_formula_units_Z 16
_cell_length_a 18.705565
_cell_length_b 9.474894
_cell_length_c 20.997582
_cell_angle_alpha 129.180096
_cell_angle_beta 18.701354
_cell_angle_gamma 137.632745
_cell_volume 763.150071
_symmetry_space_group_name_H-M "P -1"
_symmetry_group_IT_number 2
_symmetry_cell_setting 'triclinic'
loop_
_space_group_symop_operation_xyz
x,y,z
-x,-y,-z
loop_
_atom_site_type_symbol
_atom_site_label
_atom_site_fract_x
_atom_site_fract_y
_atom_site_fract_z
Si Si1 0.331547 0.547224 0.108157
Si Si2 0.268335 0.625949 0.896967
Si Si3 0.773535 0.162228 0.408691
Si Si4 0.551051 0.448696 0.687998
Si Si5 0.268778 0.761951 0.795461
Si Si6 0.692284 0.054985 0.727153
Si Si7 0.049117 0.043340 0.046268
Si Si8 0.760662 0.825320 0.715319
O O1 0.270765 0.712907 0.239768
O O2 0.055194 0.322856 0.254634
O O3 0.500000 0.500000 0.000000
O O4 0.531315 0.686511 0.920716
O O5 0.410146 0.510928 0.772492
O O6 0.322254 0.681783 0.792795
O O7 0.406718 0.856023 0.883313
O O8 0.944923 0.451972 0.127149
O O9 0.679152 0.323566 0.517663
O O10 0.830227 0.062694 0.271779
O O11 0.538367 0.955951 0.588917
O O12 0.744220 0.663896 0.627870
O O13 0.328104 0.281859 0.879707
O O14 0.100514 0.869921 0.983317
O O15 0.932489 0.061288 0.487909
O O16 0.709305 0.986102 0.765376
O O17 0.000000 0.000000 0.000000
#
# Coordination Sequence:
#
# PCOD9111029 Si02
#       8
#     2   2   2   2   2   2   2   2
#     4  12  26  40  65 102 136 171 215 269 336 393
#     4  10  22  45  67  94 136 173 220 277 326 384
#     4  11  25  42  68  98 134 170 223 269 327 397
#     4  10  20  42  68  93 129 170 219 271 325 383
#     4  10  24  44  67  95 136 173 217 275 330 383
#     4  10  23  42  69  92 127 177 221 265 330 385
#     4  11  22  43  67  94 130 172 222 267 323 383
#     4  10  21  43  65  93 130 171 220 272 319 391
#
# _framework density 20.965731999999999
#
# number of rings (size 3 to 8) (size 9 to 14) (size 15 to 20)
#    0.000    1.500    3.750    0.375    3.500    2.500 
#    0.000    5.000    0.000    0.000    0.000    0.000 
#    0.000    0.000    0.000    0.000    0.000    0.000 
#
# Total GULP energy -89326.190779 kJ/mol
# GULP energy per Si atom -5582.886924 kJ/mol
# Density = 2.091801 g / cm^3
# Si number density = 20.965732 Si / 1000 Ang^3
#
#
#
# Elastic Constant Matrix: (Units=GPa)
#
#
# Indices 1 2 3 4 5 6 
#
# 1 61.6879 24.2074 25.8284 -2.3741 -19.4997 -5.4937
# 2 24.2074 75.6618 26.3057 -9.7732 -8.1029 1.4654
# 3 25.8284 26.3057 88.9821 -10.4823 -2.2223 6.1002
# 4 -2.3741 -9.7732 -10.4823 44.2804 6.9156 -6.0936
# 5 -19.4997 -8.1029 -2.2223 6.9156 26.2019 0.8848
# 6 -5.4937 1.4654 6.1002 -6.0936 0.8848 26.3962
#
#
#
# Elastic Compliance Matrix: (Units=1/GPa)
#
#
# Indices 1 2 3 4 5 6 
#
# 1 0.027429 -0.004912 -0.006852 -0.003355 0.018990 0.006154
# 2 -0.004912 0.016219 -0.003024 0.002431 0.000485 -0.000679
# 3 -0.006852 -0.003024 0.014570 0.002731 -0.005391 -0.003814
# 4 -0.003355 0.002431 0.002731 0.025550 -0.008416 0.004716
# 5 0.018990 0.000485 -0.005391 -0.008416 0.054164 0.001413
# 6 0.006154 -0.000679 -0.003814 0.004716 0.001413 0.041126
#
#
# Mechanical properties :
#
#
# Convention : Reuss Voigt Hill
#
# Bulk Modulus (GPa) = 34.91501 42.11274 38.51388
# Shear Modulus (GPa) = 22.91678 29.37504 26.14591
#
# Velocity S-wave (km/s) = 3.30973 3.74719 3.53523
# Velocity P-wave (km/s) = 5.59422 6.23313 5.92230
#
# Compressibility (1/GPa) = 0.02864098
#
# Stress axis : x y z
#
# Youngs Moduli (GPa) = 36.45771 61.65710 68.63533
#
# Poissons Ratio (x) = 0.30286 0.47031
# Poissons Ratio (y) = 0.17908 0.20754
# Poissons Ratio (z) = 0.24982 0.18644
#
# Static dielectric constant tensor:
#      x y z
#    x 1.755890 0.042940 -0.041000 
#    y 0.042940 1.787540 -0.038430 
#    z -0.041000 -0.038430 1.794980 
# 
# From -- ./inp_files/599511.got.cif
#   From: 2010.05.17/outbox.cif.g08.bks.cpg/sg2_300_cif.got.tgz:599511.got - 2010.06.03 11:33:40.
