data_PCOD9111408
_publ_section_title
;
Structure prediction by ZEFSAII (Michael W. Deem and Ramdas Pophale) SiO2 
 PCOD9111408
Probable space group: P -1
;
_chemical_formula_sum "Si O2"
_cell_formula_units_Z 16
_cell_length_a 21.303662
_cell_length_b 21.417155
_cell_length_c 9.346199
_cell_angle_alpha 47.478171
_cell_angle_beta 141.797927
_cell_angle_gamma 161.103233
_cell_volume 803.968306
_symmetry_space_group_name_H-M "P -1"
_symmetry_group_IT_number 2
_symmetry_cell_setting 'triclinic'
loop_
_space_group_symop_operation_xyz
x,y,z
-x,-y,-z
loop_
_atom_site_type_symbol
_atom_site_label
_atom_site_fract_x
_atom_site_fract_y
_atom_site_fract_z
Si Si1 0.485103 0.156288 0.783799
Si Si2 0.367088 0.135540 0.916621
Si Si3 0.921871 0.216423 0.576341
Si Si4 0.180819 0.277158 0.421208
Si Si5 0.074452 0.380270 0.150960
Si Si6 0.360336 0.486964 0.114644
Si Si7 0.869393 0.320113 0.118119
Si Si8 0.707410 0.089417 0.696284
O O1 0.412018 0.124409 0.862871
O O2 0.685919 0.381602 0.759363
O O3 0.255878 0.973343 0.550207
O O4 0.633193 0.181346 0.984909
O O5 0.555034 0.353865 0.940377
O O6 0.093733 0.967589 0.689127
O O7 0.371486 0.063573 0.151914
O O8 0.999159 0.360917 0.407151
O O9 0.773481 0.132268 0.582274
O O10 0.153508 0.339015 0.853863
O O11 0.153924 0.343433 0.360162
O O12 0.247988 0.357025 0.255858
O O13 0.398574 0.382503 0.698718
O O14 0.862654 0.249523 0.083277
O O15 0.950880 0.297914 0.901471
O O16 0.000000 0.500000 0.000000
O O17 0.500000 0.000000 0.500000
#
# Coordination Sequence:
#
# PCOD9111408 Si02
#       8
#     2   2   2   2   2   2   2   2
#     4  11  22  38  62  90 129 172 204 249 321 392
#     4  11  21  41  66  93 124 175 209 247 331 388
#     4  12  22  39  59  97 124 160 217 267 304 367
#     4  10  21  43  67  89 126 166 218 259 333 363
#     4  10  20  43  62  89 126 178 206 250 324 387
#     4  11  23  41  67  94 124 165 216 279 305 367
#     4  10  23  40  62  87 130 175 201 247 325 387
#     4  11  22  37  62  96 130 160 216 268 303 373
#
# _framework density 19.901281000000001
#
# number of rings (size 3 to 8) (size 9 to 14) (size 15 to 20)
#    0.000    1.250    3.750    3.750    0.000    4.000 
#    0.000    7.500    0.000    0.000    0.000    0.000 
#    0.000    0.000    0.000    0.000    0.000    0.000 
#
# Total GULP energy -89281.788779 kJ/mol
# GULP energy per Si atom -5580.111799 kJ/mol
# Density = 1.985598 g / cm^3
# Si number density = 19.901281 Si / 1000 Ang^3
#
#
#
# Elastic Constant Matrix: (Units=GPa)
#
#
# Indices 1 2 3 4 5 6 
#
# 1 91.3623 22.1573 18.1267 -5.1365 2.7054 -2.1717
# 2 22.1573 78.3790 38.6705 8.3446 -7.8691 -0.2719
# 3 18.1267 38.6705 110.8218 1.2735 8.9757 -10.1506
# 4 -5.1365 8.3446 1.2735 22.4641 7.9957 -5.7124
# 5 2.7054 -7.8691 8.9757 7.9957 39.4441 2.2247
# 6 -2.1717 -0.2719 -10.1506 -5.7124 2.2247 35.7020
#
#
#
# Elastic Compliance Matrix: (Units=1/GPa)
#
#
# Indices 1 2 3 4 5 6 
#
# 1 0.012519 -0.004397 -0.000169 0.006050 -0.003027 0.001836
# 2 -0.004397 0.019643 -0.007111 -0.012116 0.008555 -0.004611
# 3 -0.000169 -0.007111 0.012340 0.005025 -0.005493 0.004590
# 4 0.006050 -0.012116 0.005025 0.059146 -0.016654 0.012206
# 5 -0.003027 0.008555 -0.005493 -0.016654 0.032251 -0.006355
# 6 0.001836 -0.004611 0.004590 0.012206 -0.006355 0.031740
#
#
# Mechanical properties :
#
#
# Convention : Reuss Voigt Hill
#
# Bulk Modulus (GPa) = 47.28869 48.71914 48.00392
# Shear Modulus (GPa) = 25.24708 32.96262 29.10485
#
# Velocity S-wave (km/s) = 3.56563 4.07419 3.82836
# Velocity P-wave (km/s) = 6.38473 6.83122 6.61175
#
# Compressibility (1/GPa) = 0.02114670
#
# Stress axis : x y z
#
# Youngs Moduli (GPa) = 79.87933 50.90919 81.03656
#
# Poissons Ratio (x) = 0.22385 0.01373
# Poissons Ratio (y) = 0.35124 0.57625
# Poissons Ratio (z) = 0.01354 0.36202
#
# Static dielectric constant tensor:
#      x y z
#    x 1.713970 0.055720 -0.003800 
#    y 0.055720 1.935810 -0.051970 
#    z -0.003800 -0.051970 1.704980 
# 
# From -- ./inp_files/349417.got.cif
#   From: 2010.05.17/outbox.cif.g08.bks.cpg/sg2_175_cif.got.tgz:349417.got - 2010.06.03 11:33:40.
