data_PCOD9111002
_publ_section_title
;
Structure prediction by ZEFSAII (Michael W. Deem and Ramdas Pophale) SiO2 
 PCOD9111002
Probable space group: P -1
;
_chemical_formula_sum "Si O2"
_cell_formula_units_Z 15
_cell_length_a 9.463150
_cell_length_b 12.749243
_cell_length_c 8.386880
_cell_angle_alpha 111.844189
_cell_angle_beta 48.220787
_cell_angle_gamma 98.354847
_cell_volume 692.646644
_symmetry_space_group_name_H-M "P -1"
_symmetry_group_IT_number 2
_symmetry_cell_setting 'triclinic'
loop_
_space_group_symop_operation_xyz
x,y,z
-x,-y,-z
loop_
_atom_site_type_symbol
_atom_site_label
_atom_site_fract_x
_atom_site_fract_y
_atom_site_fract_z
Si Si1 0.574028 0.968655 0.690094
Si Si2 0.607263 0.376975 0.034854
Si Si3 0.500000 0.500000 0.500000
Si Si4 0.778910 0.487179 0.664089
Si Si5 0.663652 0.831022 0.217708
Si Si6 0.722881 0.118852 0.897402
Si Si7 0.597169 0.304829 0.511490
Si Si8 0.940292 0.125746 0.045519
O O1 0.642967 0.892105 0.442481
O O2 0.431615 0.076866 0.786124
O O3 0.733741 0.023483 0.698539
O O4 0.455337 0.904593 0.869285
O O5 0.628353 0.451190 0.219492
O O6 0.378225 0.401321 0.184155
O O7 0.719259 0.428944 0.837479
O O8 0.681183 0.244562 0.927094
O O9 0.480874 0.364872 0.484867
O O10 0.722311 0.404027 0.518782
O O11 0.000000 0.500000 0.500000
O O12 0.545008 0.726768 0.264510
O O13 0.888633 0.803298 0.004800
O O14 0.898876 0.113851 0.883384
O O15 0.745183 0.191572 0.302950
O O16 0.000000 0.000000 0.000000
#
# Coordination Sequence:
#
# PCOD9111002 Si02
#       8
#     2   2   1   2   2   2   2   2
#     4  10  21  38  66  88 135 174 214 262 337 391
#     4  10  21  42  68  91 134 165 216 274 336 391
#     4  10  20  42  68  88 124 172 210 274 330 382
#     4  10  24  45  67  96 127 171 224 275 334 402
#     4  11  21  41  65  92 126 182 214 264 334 397
#     4  11  21  41  61  99 131 172 215 277 324 396
#     4  11  23  43  65  90 130 171 216 273 332 392
#     4  12  23  40  65  98 135 170 226 269 325 397
#
# _framework density 21.656065000000002
#
# number of rings (size 3 to 8) (size 9 to 14) (size 15 to 20)
#    0.000    1.333    4.000    1.600    0.000    4.800 
#    7.200    3.333    0.000    0.000    0.000    0.000 
#    0.000    0.000    0.000    0.000    0.000    0.000 
#
# Total GULP energy -83526.919845 kJ/mol
# GULP energy per Si atom -5568.461323 kJ/mol
# Density = 2.160677 g / cm^3
# Si number density = 21.656065 Si / 1000 Ang^3
#
#
#
# Elastic Constant Matrix: (Units=GPa)
#
#
# Indices 1 2 3 4 5 6 
#
# 1 61.1993 13.0506 -1.2882 -6.1614 -18.3129 9.7492
# 2 13.0506 100.5192 3.1555 -2.6861 -26.3302 -23.4841
# 3 -1.2882 3.1555 45.2738 -4.7464 -11.1017 1.5926
# 4 -6.1614 -2.6861 -4.7464 32.8524 7.6769 1.1692
# 5 -18.3129 -26.3302 -11.1017 7.6769 38.0318 -5.5741
# 6 9.7492 -23.4841 1.5926 1.1692 -5.5741 41.2576
#
#
#
# Elastic Compliance Matrix: (Units=1/GPa)
#
#
# Indices 1 2 3 4 5 6 
#
# 1 0.020249 -0.001561 0.003162 0.002325 0.008431 -0.004722
# 2 -0.001561 0.016040 0.001361 -0.002185 0.012839 0.011243
# 3 0.003162 0.001361 0.024561 0.002081 0.009254 0.000271
# 4 0.002325 -0.002185 0.002081 0.032753 -0.006945 -0.003740
# 5 0.008431 0.012839 0.009254 -0.006945 0.044992 0.011234
# 6 -0.004722 0.011243 0.000271 -0.003740 0.011234 0.033367
#
#
# Mechanical properties :
#
#
# Convention : Reuss Voigt Hill
#
# Bulk Modulus (GPa) = 14.97571 26.31423 20.64497
# Shear Modulus (GPa) = 26.55426 35.23331 30.89379
#
# Velocity S-wave (km/s) = 3.50549 4.03792 3.78109
# Velocity P-wave (km/s) = 4.82854 5.82384 5.34939
#
# Compressibility (1/GPa) = 0.06677480
#
# Stress axis : x y z
#
# Youngs Moduli (GPa) = 49.38605 62.34568 40.71524
#
# Poissons Ratio (x) = 0.09731 -0.12875
# Poissons Ratio (y) = 0.07708 -0.05543
# Poissons Ratio (z) = -0.15617 -0.08488
#
# Static dielectric constant tensor:
#      x y z
#    x 1.993870 -0.039430 0.077690 
#    y -0.039430 1.837570 -0.006100 
#    z 0.077690 -0.006100 1.778140 
# 
# From -- ./inp_files/181048.got.cif
#   From: 2010.05.17/outbox.cif.g08.bks.cpg/sg2_91_cif.got.tgz:181048.got - 2010.06.03 11:33:40.
