data_PCOD9111497
_publ_section_title
;
Structure prediction by ZEFSAII (Michael W. Deem and Ramdas Pophale) SiO2 
 PCOD9111497
Probable space group: P -1
;
_chemical_formula_sum "Si O2"
_cell_formula_units_Z 14
_cell_length_a 9.596243
_cell_length_b 7.866813
_cell_length_c 7.896304
_cell_angle_alpha 71.783053
_cell_angle_beta 87.821173
_cell_angle_gamma 68.562179
_cell_volume 525.091711
_symmetry_space_group_name_H-M "P -1"
_symmetry_group_IT_number 2
_symmetry_cell_setting 'triclinic'
loop_
_space_group_symop_operation_xyz
x,y,z
-x,-y,-z
loop_
_atom_site_type_symbol
_atom_site_label
_atom_site_fract_x
_atom_site_fract_y
_atom_site_fract_z
Si Si1 0.281197 0.613646 0.923589
Si Si2 0.004759 0.934463 0.715991
Si Si3 0.098780 0.261903 0.748562
Si Si4 0.431975 0.134023 0.801434
Si Si5 0.712857 0.220606 0.748784
Si Si6 0.817042 0.544228 0.616321
Si Si7 0.529702 0.740494 0.766375
O O1 0.396817 0.661053 0.779743
O O2 0.116868 0.716853 0.817108
O O3 0.284005 0.720597 0.071839
O O4 0.368287 0.390474 0.042458
O O5 0.072590 0.064808 0.787302
O O6 0.832404 0.006679 0.767326
O O7 0.000000 0.000000 0.500000
O O8 0.258125 0.247472 0.811681
O O9 0.111536 0.335531 0.535672
O O10 0.948802 0.424540 0.778667
O O11 0.544597 0.238362 0.715064
O O12 0.448532 0.967061 0.717668
O O13 0.500000 0.000000 0.000000
O O14 0.772987 0.368012 0.600947
O O15 0.658120 0.689159 0.638499
#
# Coordination Sequence:
#
# PCOD9111497 Si02
#       7
#     2   2   2   2   2   2   2
#     4  10  20  43  65  90 126 168 208 263 312 370
#     4  11  23  40  65  97 127 167 212 259 314 378
#     4  10  22  44  64  86 134 168 204 260 317 379
#     4  12  23  40  64  98 125 163 212 260 314 374
#     4  10  22  41  66  92 129 166 212 254 320 378
#     4   9  22  43  65  89 123 175 206 253 322 367
#     4  10  21  38  67  90 124 161 214 258 310 368
#
# _framework density 26.662008
#
# number of rings (size 3 to 8) (size 9 to 14) (size 15 to 20)
#    0.000    1.714    2.857    0.429    2.000    4.571 
#    7.714    1.429    0.000    0.000    0.000    0.000 
#    0.000    0.000    0.000    0.000    0.000    0.000 
#
# Total GULP energy -78193.364305 kJ/mol
# GULP energy per Si atom -5585.240307 kJ/mol
# Density = 2.660132 g / cm^3
# Si number density = 26.662008 Si / 1000 Ang^3
#
#
#
# Elastic Constant Matrix: (Units=GPa)
#
#
# Indices 1 2 3 4 5 6 
#
# 1 140.2218 22.0157 21.1734 -9.7318 6.9908 -16.9134
# 2 22.0157 58.9210 23.8869 -11.9084 6.7537 -12.7849
# 3 21.1734 23.8869 54.3245 -17.6715 10.1270 -9.5241
# 4 -9.7318 -11.9084 -17.6715 32.8799 -5.2625 -6.9271
# 5 6.9908 6.7537 10.1270 -5.2625 46.6665 -8.1212
# 6 -16.9134 -12.7849 -9.5241 -6.9271 -8.1212 47.9670
#
#
#
# Elastic Compliance Matrix: (Units=1/GPa)
#
#
# Indices 1 2 3 4 5 6 
#
# 1 0.007990 -0.001564 -0.001543 0.001440 -0.000075 0.002289
# 2 -0.001564 0.022344 -0.006728 0.004994 -0.000147 0.004764
# 3 -0.001543 -0.006728 0.027197 0.012242 -0.002551 0.004399
# 4 0.001440 0.004994 0.012242 0.041998 0.003029 0.010847
# 5 -0.000075 -0.000147 -0.002551 0.003029 0.023011 0.003761
# 6 0.002289 0.004764 0.004399 0.010847 0.003761 0.026001
#
#
# Mechanical properties :
#
#
# Convention : Reuss Voigt Hill
#
# Bulk Modulus (GPa) = 26.41249 43.06881 34.74065
# Shear Modulus (GPa) = 27.65029 37.92877 32.78953
#
# Velocity S-wave (km/s) = 3.22385 3.77580 3.51069
# Velocity P-wave (km/s) = 4.87704 5.93275 5.43061
#
# Compressibility (1/GPa) = 0.03786088
#
# Stress axis : x y z
#
# Youngs Moduli (GPa) = 125.15925 44.75539 36.76924
#
# Poissons Ratio (x) = 0.06998 0.05673
# Poissons Ratio (y) = 0.19569 0.24739
# Poissons Ratio (z) = 0.19311 0.30112
#
# Static dielectric constant tensor:
#      x y z
#    x 2.073770 -0.038490 0.012660 
#    y -0.038490 2.189130 0.082450 
#    z 0.012660 0.082450 2.212840 
# 
# From -- ./inp_files/157401.got.cif
#   From: 2010.05.17/outbox.cif.g08.bks.cpg/sg2_79_cif.got.tgz:157401.got - 2010.06.03 11:33:40.
