data_PCOD9111949
_publ_section_title
;
Structure prediction by ZEFSAII (Michael W. Deem and Ramdas Pophale) SiO2 
 PCOD9111949
Probable space group: P -1
;
_chemical_formula_sum "Si O2"
_cell_formula_units_Z 12
_cell_length_a 13.769212
_cell_length_b 13.664901
_cell_length_c 10.791014
_cell_angle_alpha 140.795843
_cell_angle_beta 149.604728
_cell_angle_gamma 32.872499
_cell_volume 548.096170
_symmetry_space_group_name_H-M "P -1"
_symmetry_group_IT_number 2
_symmetry_cell_setting 'triclinic'
loop_
_space_group_symop_operation_xyz
x,y,z
-x,-y,-z
loop_
_atom_site_type_symbol
_atom_site_label
_atom_site_fract_x
_atom_site_fract_y
_atom_site_fract_z
Si Si1 0.530598 0.161450 0.533256
Si Si2 0.180564 0.551989 0.218184
Si Si3 0.581000 0.300848 0.234204
Si Si4 0.183885 0.101765 0.984882
Si Si5 0.831201 0.819394 0.682913
Si Si6 0.653066 0.447389 0.996110
O O1 0.380073 0.150216 0.248272
O O2 0.353163 0.227343 0.519715
O O3 0.619566 0.294074 0.742776
O O4 0.732310 0.959002 0.597491
O O5 0.398461 0.385166 0.226607
O O6 0.259687 0.619522 0.487998
O O7 0.000000 0.500000 0.000000
O O8 0.049251 0.726418 0.152592
O O9 0.440421 0.384143 0.035044
O O10 0.729403 0.082955 0.174898
O O11 0.162685 0.075591 0.082986
O O12 0.082666 0.647974 0.774371
O O13 0.500000 0.500000 0.000000
#
# Coordination Sequence:
#
# PCOD9111949 Si02
#       6
#     2   2   2   2   2   2
#     4   9  20  39  60  89 128 169 206 252 313 372
#     4  11  24  45  66  90 126 164 214 262 311 372
#     4  11  24  42  65  95 125 164 211 261 310 377
#     4  10  20  44  64  89 129 163 204 265 317 359
#     4   9  20  40  61  89 134 164 205 260 305 373
#     4  12  23  38  64  98 129 168 209 254 321 378
#
# _framework density 21.893967
#
# number of rings (size 3 to 8) (size 9 to 14) (size 15 to 20)
#    1.000    0.667    1.667    3.000    0.000    1.333 
#    9.000    0.000    0.000    0.000    0.000    0.000 
#    0.000    0.000    0.000    0.000    0.000    0.000 
#
# Total GULP energy -67019.162638 kJ/mol
# GULP energy per Si atom -5584.930220 kJ/mol
# Density = 2.184414 g / cm^3
# Si number density = 21.893967 Si / 1000 Ang^3
#
#
#
# Elastic Constant Matrix: (Units=GPa)
#
#
# Indices 1 2 3 4 5 6 
#
# 1 30.0803 13.6595 6.7030 3.7733 6.4491 -10.2805
# 2 13.6595 81.3184 22.4763 -4.5491 2.0096 -15.9125
# 3 6.7030 22.4763 74.6469 -7.8463 11.3710 -12.2541
# 4 3.7733 -4.5491 -7.8463 41.6306 5.5787 -4.7193
# 5 6.4491 2.0096 11.3710 5.5787 33.9238 -1.9517
# 6 -10.2805 -15.9125 -12.2541 -4.7193 -1.9517 28.2715
#
#
#
# Elastic Compliance Matrix: (Units=1/GPa)
#
#
# Indices 1 2 3 4 5 6 
#
# 1 0.040918 -0.004658 0.000460 -0.001913 -0.006671 0.011677
# 2 -0.004658 0.015189 -0.003132 0.002021 0.001043 0.005907
# 3 0.000460 -0.003132 0.016592 0.004190 -0.005813 0.005894
# 4 -0.001913 0.002021 0.004190 0.026617 -0.005173 0.006344
# 5 -0.006671 0.001043 -0.005813 -0.005173 0.033315 -0.002922
# 6 0.011677 0.005907 0.005894 0.006344 -0.002922 0.046355
#
#
# Mechanical properties :
#
#
# Convention : Reuss Voigt Hill
#
# Bulk Modulus (GPa) = 17.22955 30.19146 23.71051
# Shear Modulus (GPa) = 23.47525 30.31229 26.89377
#
# Velocity S-wave (km/s) = 3.27804 3.72493 3.50861
# Velocity P-wave (km/s) = 4.71317 5.68506 5.22178
#
# Compressibility (1/GPa) = 0.05803983
#
# Stress axis : x y z
#
# Youngs Moduli (GPa) = 24.43917 65.83911 60.27110
#
# Poissons Ratio (x) = 0.30665 -0.02773
# Poissons Ratio (y) = 0.11383 0.18875
# Poissons Ratio (z) = -0.01125 0.20619
#
# Static dielectric constant tensor:
#      x y z
#    x 1.788190 0.011790 -0.008260 
#    y 0.011790 1.780480 0.007810 
#    z -0.008260 0.007810 1.819330 
# 
# From -- ./inp_files/454125.got.cif
#   From: 2010.05.17/outbox.cif.g08.bks.cpg/sg2_228_cif.got.tgz:454125.got - 2010.06.03 11:33:40.
