data_PCOD9111980
_publ_section_title
;
Structure prediction by ZEFSAII (Michael W. Deem and Ramdas Pophale) SiO2 
 PCOD9111980
Probable space group: P -1
;
_chemical_formula_sum "Si O2"
_cell_formula_units_Z 16
_cell_length_a 15.958902
_cell_length_b 9.255342
_cell_length_c 9.055371
_cell_angle_alpha 64.222069
_cell_angle_beta 75.359292
_cell_angle_gamma 37.974441
_cell_volume 731.238826
_symmetry_space_group_name_H-M "P -1"
_symmetry_group_IT_number 2
_symmetry_cell_setting 'triclinic'
loop_
_space_group_symop_operation_xyz
x,y,z
-x,-y,-z
loop_
_atom_site_type_symbol
_atom_site_label
_atom_site_fract_x
_atom_site_fract_y
_atom_site_fract_z
Si Si1 0.361921 0.867035 0.839427
Si Si2 0.399258 0.461172 0.909565
Si Si3 0.067512 0.624393 0.786172
Si Si4 0.085961 0.901862 0.857160
Si Si5 0.640918 0.890013 0.526387
Si Si6 0.544150 0.267787 0.654843
Si Si7 0.795224 0.869889 0.936894
Si Si8 0.941128 0.403358 0.550298
O O1 0.415697 0.630730 0.839630
O O2 0.321585 0.050461 0.654014
O O3 0.484077 0.767466 0.928941
O O4 0.237811 0.004155 0.945273
O O5 0.245350 0.648842 0.940192
O O6 0.422931 0.378725 0.766226
O O7 0.058698 0.809566 0.783257
O O8 0.073482 0.614476 0.610457
O O9 0.929406 0.732800 0.852351
O O10 0.188073 0.341702 0.932945
O O11 0.049194 0.125994 0.701372
O O12 0.000000 0.000000 0.000000
O O13 0.790818 0.591110 0.612340
O O14 0.500000 0.000000 0.500000
O O15 0.596850 0.065947 0.602431
O O16 0.500000 0.500000 0.500000
O O17 0.669168 0.103139 0.787150
O O18 0.000000 0.500000 0.500000
#
# Coordination Sequence:
#
# PCOD9111980 Si02
#       8
#     2   2   2   2   2   2   2   2
#     4  10  20  44  66 100 134 183 228 287 348 431
#     4  10  23  41  70  97 135 179 233 281 350 421
#     4  11  25  45  72 101 143 185 241 298 358 421
#     4  12  29  45  72 109 145 182 238 301 365 417
#     4  12  27  42  69 102 141 178 234 292 359 405
#     4  11  24  42  69 100 135 183 234 286 344 425
#     4  10  23  42  73 101 140 187 239 285 358 430
#     4  12  28  50  76 102 146 194 243 294 359 442
#
# _framework density 21.880676999999999
#
# number of rings (size 3 to 8) (size 9 to 14) (size 15 to 20)
#    0.000    1.000    2.500    2.625   10.500    1.000 
#    0.000    2.500    0.000    0.000    0.000    0.000 
#    0.000    0.000    0.000    0.000    0.000    0.000 
#
# Total GULP energy -89370.960385 kJ/mol
# GULP energy per Si atom -5585.685024 kJ/mol
# Density = 2.183088 g / cm^3
# Si number density = 21.880677 Si / 1000 Ang^3
#
#
#
# Elastic Constant Matrix: (Units=GPa)
#
#
# Indices 1 2 3 4 5 6 
#
# 1 54.0460 19.4152 12.6293 16.4678 3.8088 8.1365
# 2 19.4152 124.4438 37.5201 30.5624 2.7706 -3.5329
# 3 12.6293 37.5201 97.8761 16.2273 6.4765 12.2526
# 4 16.4678 30.5624 16.2273 51.5358 6.4356 -1.0970
# 5 3.8088 2.7706 6.4765 6.4356 18.9371 4.0683
# 6 8.1365 -3.5329 12.2526 -1.0970 4.0683 45.9104
#
#
#
# Elastic Compliance Matrix: (Units=1/GPa)
#
#
# Indices 1 2 3 4 5 6 
#
# 1 0.021684 -0.001933 -0.000578 -0.005537 -0.001169 -0.003866
# 2 -0.001933 0.010510 -0.003309 -0.004682 0.001184 0.001818
# 3 -0.000578 -0.003309 0.012382 -0.001520 -0.002413 -0.003279
# 4 -0.005537 -0.004682 -0.001520 0.025321 -0.006766 0.002231
# 5 -0.001169 0.001184 -0.002413 -0.006766 0.056909 -0.004262
# 6 -0.003866 0.001818 -0.003279 0.002231 -0.004262 0.023913
#
#
# Mechanical properties :
#
#
# Convention : Reuss Voigt Hill
#
# Bulk Modulus (GPa) = 30.36090 46.16611 38.26350
# Shear Modulus (GPa) = 28.84554 37.06343 32.95449
#
# Velocity S-wave (km/s) = 3.63479 4.12015 3.88506
# Velocity P-wave (km/s) = 5.61440 6.61657 6.13598
#
# Compressibility (1/GPa) = 0.03293710
#
# Stress axis : x y z
#
# Youngs Moduli (GPa) = 46.11779 95.14525 80.76006
#
# Poissons Ratio (x) = 0.18389 0.04665
# Poissons Ratio (y) = 0.08913 0.26725
# Poissons Ratio (z) = 0.02664 0.31485
#
# Static dielectric constant tensor:
#      x y z
#    x 1.824980 -0.010580 0.017250 
#    y -0.010580 1.873360 0.006320 
#    z 0.017250 0.006320 1.771880 
# 
# From -- ./inp_files/297863.got.cif
#   From: 2010.05.17/outbox.cif.g08.bks.cpg/sg2_149_cif.got.tgz:297863.got - 2010.06.03 11:33:40.
