data_PCOD9111125
_publ_section_title
;
Structure prediction by ZEFSAII (Michael W. Deem and Ramdas Pophale) SiO2 
 PCOD9111125
Probable space group: P -1
;
_chemical_formula_sum "Si O2"
_cell_formula_units_Z 16
_cell_length_a 15.387310
_cell_length_b 16.785524
_cell_length_c 8.863352
_cell_angle_alpha 33.813303
_cell_angle_beta 137.341938
_cell_angle_gamma 150.449651
_cell_volume 627.630573
_symmetry_space_group_name_H-M "P -1"
_symmetry_group_IT_number 2
_symmetry_cell_setting 'triclinic'
loop_
_space_group_symop_operation_xyz
x,y,z
-x,-y,-z
loop_
_atom_site_type_symbol
_atom_site_label
_atom_site_fract_x
_atom_site_fract_y
_atom_site_fract_z
Si Si1 0.356237 0.769894 0.582654
Si Si2 0.682900 0.978912 0.049603
Si Si3 0.168367 0.671918 0.788825
Si Si4 0.345853 0.223936 0.963004
Si Si5 0.859238 0.572258 0.354089
Si Si6 0.048162 0.761394 0.756849
Si Si7 0.141768 0.108226 0.180944
Si Si8 0.488790 0.639856 0.560062
O O1 0.363489 0.903251 0.263577
O O2 0.319337 0.799177 0.657371
O O3 0.513322 0.778218 0.781400
O O4 0.182881 0.549902 0.655676
O O5 0.703539 0.881962 0.092952
O O6 0.856139 0.133269 0.129946
O O7 0.531815 0.797441 0.248995
O O8 0.180686 0.773328 0.797205
O O9 0.997827 0.606100 0.588627
O O10 0.120540 0.470413 0.079909
O O11 0.191113 0.116023 0.058259
O O12 0.436044 0.449076 0.715734
O O13 0.673769 0.445103 0.406117
O O14 0.917029 0.774328 0.063403
O O15 0.019869 0.891129 0.435420
O O16 0.330547 0.243043 0.298752
#
# Coordination Sequence:
#
# PCOD9111125 Si02
#       8
#     2   2   2   2   2   2   2   2
#     4  12  23  41  62  95 124 163 201 250 307 370
#     4  11  24  38  65  96 126 156 203 260 308 359
#     4  11  25  44  63  84 127 169 207 245 303 363
#     4  11  21  41  65  96 125 157 197 255 318 359
#     4  11  21  40  69  88 123 166 203 247 304 366
#     4  10  24  44  63  89 122 165 211 254 296 362
#     4  10  20  42  69  91 120 157 209 256 302 363
#     4  10  21  41  66  93 125 157 200 258 308 361
#
# _framework density 25.492702999999999
#
# number of rings (size 3 to 8) (size 9 to 14) (size 15 to 20)
#    0.000    1.250    3.750    2.625    0.000    4.000 
#    0.000    1.875    0.000    0.000    0.000    0.000 
#    0.000    0.000    0.000    0.000    0.000    0.000 
#
# Total GULP energy -89804.508797 kJ/mol
# GULP energy per Si atom -5612.781800 kJ/mol
# Density = 2.543468 g / cm^3
# Si number density = 25.492703 Si / 1000 Ang^3
#
#
#
# Elastic Constant Matrix: (Units=GPa)
#
#
# Indices 1 2 3 4 5 6 
#
# 1 50.0889 25.6654 22.3045 6.2769 0.3472 -13.6319
# 2 25.6654 119.4436 29.6009 0.1721 7.7928 -33.2350
# 3 22.3045 29.6009 189.0795 -26.5701 -10.9012 -2.5220
# 4 6.2769 0.1721 -26.5701 30.7181 -10.5703 -2.4927
# 5 0.3472 7.7928 -10.9012 -10.5703 27.5998 -1.7576
# 6 -13.6319 -33.2350 -2.5220 -2.4927 -1.7576 49.6623
#
#
#
# Elastic Compliance Matrix: (Units=1/GPa)
#
#
# Indices 1 2 3 4 5 6 
#
# 1 0.025851 -0.003013 -0.004239 -0.010247 -0.004807 0.004180
# 2 -0.003013 0.011618 -0.001921 -0.002083 -0.004379 0.006591
# 3 -0.004239 -0.001921 0.007953 0.010264 0.007587 -0.001261
# 4 -0.010247 -0.002083 0.010264 0.052014 0.024679 -0.000201
# 5 -0.004807 -0.004379 0.007587 0.024679 0.049923 -0.000859
# 6 0.004180 0.006591 -0.001261 -0.000201 -0.000859 0.025590
#
#
# Mechanical properties :
#
#
# Convention : Reuss Voigt Hill
#
# Bulk Modulus (GPa) = 36.93245 57.08374 47.00809
# Shear Modulus (GPa) = 24.96028 40.33212 32.64620
#
# Velocity S-wave (km/s) = 3.13248 3.98188 3.58244
# Velocity P-wave (km/s) = 5.25377 6.60161 5.96588
#
# Compressibility (1/GPa) = 0.02707646
#
# Stress axis : x y z
#
# Youngs Moduli (GPa) = 38.68328 86.07220 125.74626
#
# Poissons Ratio (x) = 0.25930 0.53307
# Poissons Ratio (y) = 0.11654 0.24152
# Poissons Ratio (z) = 0.16399 0.16532
#
# Static dielectric constant tensor:
#      x y z
#    x 1.976180 0.031520 -0.010520 
#    y 0.031520 2.036870 -0.008400 
#    z -0.010520 -0.008400 1.964720 
# 
# From -- ./inp_files/312418.got.cif
#   From: 2010.05.17/outbox.cif.g08.bks.cpg/sg2_157_cif.got.tgz:312418.got - 2010.06.03 11:33:40.
