data_PCOD9111850
_publ_section_title
;
Structure prediction by ZEFSAII (Michael W. Deem and Ramdas Pophale) SiO2 
 PCOD9111850
Probable space group: P -1
;
_chemical_formula_sum "Si O2"
_cell_formula_units_Z 14
_cell_length_a 16.324221
_cell_length_b 7.945451
_cell_length_c 9.206900
_cell_angle_alpha 96.045274
_cell_angle_beta 62.798347
_cell_angle_gamma 143.893632
_cell_volume 540.674365
_symmetry_space_group_name_H-M "P -1"
_symmetry_group_IT_number 2
_symmetry_cell_setting 'triclinic'
loop_
_space_group_symop_operation_xyz
x,y,z
-x,-y,-z
loop_
_atom_site_type_symbol
_atom_site_label
_atom_site_fract_x
_atom_site_fract_y
_atom_site_fract_z
Si Si1 0.180864 0.715999 0.299127
Si Si2 0.350170 0.672206 0.783113
Si Si3 0.906013 0.736053 0.292008
Si Si4 0.273923 0.487258 0.157010
Si Si5 0.442914 0.661404 0.317916
Si Si6 0.045585 0.575623 0.799884
Si Si7 0.609748 0.780847 0.583165
O O1 0.216985 0.575602 0.283771
O O2 0.000000 0.500000 0.500000
O O3 0.136513 0.664577 0.160434
O O4 0.325595 0.056940 0.294826
O O5 0.158031 0.347233 0.831495
O O6 0.478973 0.723516 0.631249
O O7 0.428847 0.980759 0.711429
O O8 0.350481 0.656999 0.954129
O O9 0.755183 0.601318 0.487667
O O10 0.899164 0.525147 0.303157
O O11 0.098195 0.102344 0.223578
O O12 0.411387 0.612378 0.165005
O O13 0.487846 0.550506 0.338059
O O14 0.211428 0.950664 0.638980
O O15 0.000000 0.500000 0.000000
#
# Coordination Sequence:
#
# PCOD9111850 Si02
#       7
#     2   2   2   2   2   2   2
#     4  10  20  43  72 106 142 184 243 299 350 429
#     4  12  27  50  70 111 154 186 242 310 363 432
#     4  12  25  47  72 105 149 195 240 300 369 433
#     4  12  25  47  77 107 146 195 248 301 358 435
#     4  12  25  48  79 104 143 198 244 296 370 433
#     4  11  23  44  72 108 145 188 244 303 357 434
#     4  11  25  47  75 105 146 194 242 298 367 434
#
# _framework density 25.89359
#
# number of rings (size 3 to 8) (size 9 to 14) (size 15 to 20)
#    0.000    0.571    2.857    6.000    0.000    2.286 
#    7.714    0.000    0.000    0.000    0.000    0.000 
#    0.000    0.000    0.000    0.000    0.000    0.000 
#
# Total GULP energy -78487.310853 kJ/mol
# GULP energy per Si atom -5606.236490 kJ/mol
# Density = 2.583466 g / cm^3
# Si number density = 25.893590 Si / 1000 Ang^3
#
#
#
# Elastic Constant Matrix: (Units=GPa)
#
#
# Indices 1 2 3 4 5 6 
#
# 1 78.0279 29.2687 34.7200 22.0119 23.4707 13.0255
# 2 29.2687 139.6497 19.7601 31.9995 24.9819 17.6039
# 3 34.7200 19.7601 102.4496 20.2928 27.0880 -3.2195
# 4 22.0119 31.9995 20.2928 23.3481 3.1295 -5.0824
# 5 23.4707 24.9819 27.0880 3.1295 40.1963 -2.5731
# 6 13.0255 17.6039 -3.2195 -5.0824 -2.5731 38.8975
#
#
#
# Elastic Compliance Matrix: (Units=1/GPa)
#
#
# Indices 1 2 3 4 5 6 
#
# 1 0.035739 0.014000 0.003538 -0.058034 -0.029197 -0.027525
# 2 0.014000 0.021996 0.006672 -0.050808 -0.023813 -0.022305
# 3 0.003538 0.006672 0.016382 -0.026208 -0.015680 -0.007310
# 4 -0.058034 -0.050808 -0.026208 0.195619 0.072414 0.070609
# 5 -0.029197 -0.023813 -0.015680 0.072414 0.063763 0.032936
# 6 -0.027525 -0.022305 -0.007310 0.070609 0.032936 0.055820
#
#
# Mechanical properties :
#
#
# Convention : Reuss Voigt Hill
#
# Bulk Modulus (GPa) = 8.16081 54.18054 31.17068
# Shear Modulus (GPa) = 13.09772 36.24692 24.67232
#
# Velocity S-wave (km/s) = 2.25150 3.74550 3.09015
# Velocity P-wave (km/s) = 3.14921 6.29879 4.97958
#
# Compressibility (1/GPa) = 0.12253681
#
# Stress axis : x y z
#
# Youngs Moduli (GPa) = 27.98051 45.46213 61.04143
#
# Poissons Ratio (x) = -0.63645 -0.21594
# Poissons Ratio (y) = -0.39172 -0.40728
# Poissons Ratio (z) = -0.09899 -0.30333
#
# Static dielectric constant tensor:
#      x y z
#    x 2.027010 0.040570 0.051440 
#    y 0.040570 2.007890 0.020760 
#    z 0.051440 0.020760 2.089800 
# 
# From -- ./inp_files/329287.got.cif
#   From: 2010.05.17/outbox.cif.g08.bks.cpg/sg2_165_cif.got.tgz:329287.got - 2010.06.03 11:33:40.
