data_PCOD9111936
_publ_section_title
;
Structure prediction by ZEFSAII (Michael W. Deem and Ramdas Pophale) SiO2 
 PCOD9111936
Probable space group: P -1
;
_chemical_formula_sum "Si O2"
_cell_formula_units_Z 16
_cell_length_a 5.851253
_cell_length_b 5.546676
_cell_length_c 25.050456
_cell_angle_alpha 100.627459
_cell_angle_beta 55.818775
_cell_angle_gamma 105.747195
_cell_volume 646.812508
_symmetry_space_group_name_H-M "P -1"
_symmetry_group_IT_number 2
_symmetry_cell_setting 'triclinic'
loop_
_space_group_symop_operation_xyz
x,y,z
-x,-y,-z
loop_
_atom_site_type_symbol
_atom_site_label
_atom_site_fract_x
_atom_site_fract_y
_atom_site_fract_z
Si Si1 0.765884 0.489172 0.708587
Si Si2 0.284261 0.631914 0.999139
Si Si3 0.958310 0.917549 0.562981
Si Si4 0.791424 0.962528 0.889051
Si Si5 0.277143 0.727708 0.786933
Si Si6 0.412710 0.041677 0.675585
Si Si7 0.203145 0.482020 0.570399
Si Si8 0.912973 0.207420 0.770883
O O1 0.597953 0.704364 0.753960
O O2 0.607504 0.315350 0.674472
O O3 0.718480 0.319617 0.760700
O O4 0.084737 0.567694 0.647032
O O5 0.498350 0.776961 0.932826
O O6 0.500000 0.500000 0.000000
O O7 0.188600 0.814959 0.062433
O O8 0.000000 0.500000 0.000000
O O9 0.057213 0.667443 0.558902
O O10 0.121131 0.178778 0.578141
O O11 0.000000 0.000000 0.500000
O O12 0.624677 0.893934 0.614245
O O13 0.784724 0.050341 0.832283
O O14 0.065891 0.839889 0.856459
O O15 0.109720 0.450720 0.782745
O O16 0.312190 0.898811 0.737243
O O17 0.117278 0.097799 0.698668
O O18 0.500000 0.500000 0.500000
#
# Coordination Sequence:
#
# PCOD9111936 Si02
#       8
#     2   2   2   2   2   2   2   2
#     4  10  22  41  66  93 146 182 237 312 379 445
#     4  11  26  55  81 115 158 207 251 318 383 466
#     4  11  23  41  65  93 132 189 241 313 385 457
#     4  10  24  48  75 115 148 192 261 305 379 473
#     4  10  20  44  63 102 137 183 238 300 366 453
#     4   9  21  40  60  90 137 175 242 294 374 448
#     4  11  24  42  63 101 135 186 254 311 387 464
#     4  10  22  42  65 106 133 190 236 303 379 447
#
# _framework density 24.736688999999998
#
# number of rings (size 3 to 8) (size 9 to 14) (size 15 to 20)
#    0.000    1.750    1.250    1.500    1.750    5.000 
#   29.250    0.000    0.000    0.000    0.000    0.000 
#    0.000    0.000    0.000    0.000    0.000    0.000 
#
# Total GULP energy -89149.927001 kJ/mol
# GULP energy per Si atom -5571.870438 kJ/mol
# Density = 2.468039 g / cm^3
# Si number density = 24.736689 Si / 1000 Ang^3
#
#
#
# Elastic Constant Matrix: (Units=GPa)
#
#
# Indices 1 2 3 4 5 6 
#
# 1 104.3466 56.8567 71.1620 -6.2704 -19.2406 -10.5621
# 2 56.8567 84.3015 37.5550 38.6020 41.0101 -9.5246
# 3 71.1620 37.5550 171.2234 69.6809 40.6598 -9.0843
# 4 -6.2704 38.6020 69.6809 -62.4358 -144.5631 -11.8244
# 5 -19.2406 41.0101 40.6598 -144.5631 -106.2539 -3.9753
# 6 -10.5621 -9.5246 -9.0843 -11.8244 -3.9753 50.4946
#
#
#
# Elastic Compliance Matrix: (Units=1/GPa)
#
#
# Indices 1 2 3 4 5 6 
#
# 1 0.014205 -0.005800 -0.002975 -0.002505 -0.002562 0.000554
# 2 -0.005800 0.014876 -0.002385 0.003117 0.001563 0.002017
# 3 -0.002975 -0.002385 0.007115 -0.000610 0.003159 0.000314
# 4 -0.002505 0.003117 -0.000610 0.008338 -0.009964 0.001122
# 5 -0.002562 0.001563 0.003159 -0.009964 0.006477 -0.001496
# 6 0.000554 0.002017 0.000314 0.001122 -0.001496 0.020502
#
#
# Mechanical properties :
#
#
# Convention : Reuss Voigt Hill
#
# Bulk Modulus (GPa) = 72.05958 76.77990 74.41974
# Shear Modulus (GPa) = 50.78269 -10.68584 20.04843
#
# Velocity S-wave (km/s) = 4.53584 -2.08068 2.84997
# Velocity P-wave (km/s) = 7.52501 5.03329 6.40155
#
# Compressibility (1/GPa) = 0.01387740
#
# Stress axis : x y z
#
# Youngs Moduli (GPa) = 70.39576 67.22021 140.55589
#
# Poissons Ratio (x) = 0.38985 0.41812
# Poissons Ratio (y) = 0.40827 0.33525
# Poissons Ratio (z) = 0.20941 0.16033
#
# Static dielectric constant tensor:
#      x y z
#    x 2.239730 0.096090 -0.143380 
#    y 0.096090 2.047960 0.034830 
#    z -0.143380 0.034830 2.057190 
# 
# From -- ./inp_files/10998.got.cif
#   From: 2010.05.17/outbox.cif.g08.bks.cpg/sg2_6_cif.got.tgz:10998.got - 2010.06.03 11:33:40.
