data_PCOD9111832
_publ_section_title
;
Structure prediction by ZEFSAII (Michael W. Deem and Ramdas Pophale) SiO2 
 PCOD9111832
Probable space group: P -1
;
_chemical_formula_sum "Si O2"
_cell_formula_units_Z 16
_cell_length_a 15.152672
_cell_length_b 14.337469
_cell_length_c 7.879247
_cell_angle_alpha 46.767089
_cell_angle_beta 127.651094
_cell_angle_gamma 147.611824
_cell_volume 665.730498
_symmetry_space_group_name_H-M "P -1"
_symmetry_group_IT_number 2
_symmetry_cell_setting 'triclinic'
loop_
_space_group_symop_operation_xyz
x,y,z
-x,-y,-z
loop_
_atom_site_type_symbol
_atom_site_label
_atom_site_fract_x
_atom_site_fract_y
_atom_site_fract_z
Si Si1 0.329162 0.582641 0.626386
Si Si2 0.655263 0.008540 0.540196
Si Si3 0.618475 0.625137 0.222272
Si Si4 0.438682 0.035942 0.117173
Si Si5 0.899442 0.579654 0.137039
Si Si6 0.132234 0.612477 0.168381
Si Si7 0.628301 0.447090 0.773161
Si Si8 0.097347 0.961145 0.088123
O O1 0.512718 0.792230 0.579649
O O2 0.348177 0.447729 0.796213
O O3 0.242714 0.566493 0.711207
O O4 0.215692 0.547142 0.389666
O O5 0.606002 0.093462 0.272365
O O6 0.826549 0.076914 0.640467
O O7 0.629989 0.011710 0.709451
O O8 0.641114 0.558825 0.499281
O O9 0.441925 0.539252 0.158982
O O10 0.749866 0.847996 0.071732
O O11 0.294014 0.844766 0.076126
O O12 0.498008 0.220517 0.878423
O O13 0.021887 0.569385 0.250707
O O14 0.804156 0.538278 0.908008
O O15 0.990718 0.781847 0.064175
O O16 0.000000 0.500000 0.000000
O O17 0.000000 0.000000 0.000000
#
# Coordination Sequence:
#
# PCOD9111832 Si02
#       8
#     2   2   2   2   2   2   2   2
#     4  11  23  41  68  99 136 182 233 280 340 415
#     4  10  21  40  71 100 131 174 234 287 331 409
#     4  11  24  44  64  99 143 182 233 277 349 423
#     4  10  20  43  71  96 131 181 234 280 341 406
#     4  12  23  40  69  98 134 180 234 289 346 398
#     4  11  24  43  67 101 143 178 223 292 352 406
#     4  11  24  43  70  97 140 190 227 284 344 418
#     4  12  24  41  67 104 141 175 229 292 349 404
#
# _framework density 24.033750000000001
#
# number of rings (size 3 to 8) (size 9 to 14) (size 15 to 20)
#    0.000    1.000    5.000    1.125    1.750    2.500 
#    0.000    9.375    0.000    0.000    0.000    0.000 
#    0.000    0.000    0.000    0.000    0.000    0.000 
#
# Total GULP energy -89445.275371 kJ/mol
# GULP energy per Si atom -5590.329711 kJ/mol
# Density = 2.397905 g / cm^3
# Si number density = 24.033750 Si / 1000 Ang^3
#
#
#
# Elastic Constant Matrix: (Units=GPa)
#
#
# Indices 1 2 3 4 5 6 
#
# 1 121.8372 21.1005 18.5697 16.1155 21.8153 8.4920
# 2 21.1005 96.2265 39.6434 21.7960 10.1323 -21.4190
# 3 18.5697 39.6434 85.7181 26.5968 11.2108 3.1793
# 4 16.1155 21.7960 26.5968 34.0184 0.1091 6.6721
# 5 21.8153 10.1323 11.2108 0.1091 45.2991 4.6573
# 6 8.4920 -21.4190 3.1793 6.6721 4.6573 23.0028
#
#
#
# Elastic Compliance Matrix: (Units=1/GPa)
#
#
# Indices 1 2 3 4 5 6 
#
# 1 0.009891 -0.002244 0.000412 -0.002731 -0.003924 -0.004212
# 2 -0.002244 0.024231 -0.006294 -0.015387 -0.005819 0.029903
# 3 0.000412 -0.006294 0.017841 -0.009060 -0.002638 -0.005317
# 4 -0.002731 -0.015387 -0.009060 0.053399 0.009910 -0.029562
# 5 -0.003924 -0.005819 -0.002638 0.009910 0.027126 -0.011972
# 6 -0.004212 0.029903 -0.005317 -0.029562 -0.011972 0.084605
#
#
# Mechanical properties :
#
#
# Convention : Reuss Voigt Hill
#
# Bulk Modulus (GPa) = 28.00277 51.37879 39.69078
# Shear Modulus (GPa) = 20.38738 35.42860 27.90799
#
# Velocity S-wave (km/s) = 2.91569 3.84359 3.41134
# Velocity P-wave (km/s) = 4.79705 6.41263 5.66275
#
# Compressibility (1/GPa) = 0.03571076
#
# Stress axis : x y z
#
# Youngs Moduli (GPa) = 101.10299 41.26875 56.05017
#
# Poissons Ratio (x) = 0.09262 -0.02309
# Poissons Ratio (y) = 0.22690 0.35279
# Poissons Ratio (z) = -0.04166 0.25975
#
# Static dielectric constant tensor:
#      x y z
#    x 1.991960 0.003560 -0.028710 
#    y 0.003560 1.909600 0.018110 
#    z -0.028710 0.018110 1.947430 
# 
# From -- ./inp_files/314746.got.cif
#   From: 2010.05.17/outbox.cif.g08.bks.cpg/sg2_158_cif.got.tgz:314746.got - 2010.06.03 11:33:40.
