data_PCOD9111334
_publ_section_title
;
Structure prediction by ZEFSAII (Michael W. Deem and Ramdas Pophale) SiO2 
 PCOD9111334
Probable space group: P -1
;
_chemical_formula_sum "Si O2"
_cell_formula_units_Z 16
_cell_length_a 26.249890
_cell_length_b 5.611755
_cell_length_c 7.261562
_cell_angle_alpha 61.957076
_cell_angle_beta 135.888549
_cell_angle_gamma 101.764294
_cell_volume 641.404106
_symmetry_space_group_name_H-M "P -1"
_symmetry_group_IT_number 2
_symmetry_cell_setting 'triclinic'
loop_
_space_group_symop_operation_xyz
x,y,z
-x,-y,-z
loop_
_atom_site_type_symbol
_atom_site_label
_atom_site_fract_x
_atom_site_fract_y
_atom_site_fract_z
Si Si1 0.832419 0.151355 0.335992
Si Si2 0.992599 0.829442 0.851694
Si Si3 0.578388 0.609572 0.814617
Si Si4 0.233471 0.264643 0.129584
Si Si5 0.846490 0.209413 0.793009
Si Si6 0.731507 0.743020 0.202356
Si Si7 0.618059 0.020427 0.212285
Si Si8 0.524778 0.130620 0.248310
O O1 0.844971 0.174196 0.579036
O O2 0.758332 0.027989 0.181235
O O3 0.820621 0.438104 0.091494
O O4 0.907313 0.951613 0.525454
O O5 0.065410 0.845922 0.913552
O O6 0.000000 0.500000 0.000000
O O7 0.000000 0.000000 0.000000
O O8 0.504506 0.668934 0.730867
O O9 0.552165 0.818699 0.505240
O O10 0.647874 0.720025 0.045458
O O11 0.609874 0.289609 0.965072
O O12 0.190718 0.015539 0.123252
O O13 0.302017 0.174062 0.480582
O O14 0.264043 0.304980 0.989673
O O15 0.793427 0.516158 0.555116
O O16 0.593433 0.176769 0.288152
O O17 0.551952 0.863987 0.062130
#
# Coordination Sequence:
#
# PCOD9111334 Si02
#       8
#     2   2   2   2   2   2   2   2
#     4  10  24  41  65  95 131 169 219 266 330 393
#     4  10  20  42  73 101 138 183 229 281 338 408
#     4  11  22  40  63  89 120 164 213 266 327 392
#     4  11  24  40  61  96 129 168 219 269 324 400
#     4  10  22  42  67  91 129 175 218 259 336 392
#     4  11  22  40  62  91 130 166 211 273 320 395
#     4  11  22  42  61  85 126 164 208 268 326 392
#     4  10  24  40  59  91 119 160 214 264 331 391
#
# _framework density 24.945271000000002
#
# number of rings (size 3 to 8) (size 9 to 14) (size 15 to 20)
#    0.000    1.500    3.750    0.750    1.750    2.500 
#    9.000    0.625    0.000    0.000    0.000    0.000 
#    0.000    0.000    0.000    0.000    0.000    0.000 
#
# Total GULP energy -89402.754990 kJ/mol
# GULP energy per Si atom -5587.672187 kJ/mol
# Density = 2.488849 g / cm^3
# Si number density = 24.945271 Si / 1000 Ang^3
#
#
#
# Elastic Constant Matrix: (Units=GPa)
#
#
# Indices 1 2 3 4 5 6 
#
# 1 95.8130 8.5190 38.2859 -6.2591 24.3271 8.7475
# 2 8.5190 73.9773 25.2405 -18.7142 -2.6447 13.3333
# 3 38.2859 25.2405 114.9848 -31.5965 9.8142 -3.1804
# 4 -6.2591 -18.7142 -31.5965 50.6436 8.8718 2.4552
# 5 24.3271 -2.6447 9.8142 8.8718 31.1846 3.9110
# 6 8.7475 13.3333 -3.1804 2.4552 3.9110 31.6161
#
#
#
# Elastic Compliance Matrix: (Units=1/GPa)
#
#
# Indices 1 2 3 4 5 6 
#
# 1 0.015033 0.000215 -0.003821 0.001564 -0.010518 -0.003454
# 2 0.000215 0.017224 -0.002988 0.004582 0.001961 -0.008222
# 3 -0.003821 -0.002988 0.012973 0.007011 -0.003795 0.003547
# 4 0.001564 0.004582 0.007011 0.028000 -0.010688 -0.002512
# 5 -0.010518 0.001961 -0.003795 -0.010688 0.045055 -0.003042
# 6 -0.003454 -0.008222 0.003547 -0.002512 -0.003042 0.036981
#
#
# Mechanical properties :
#
#
# Convention : Reuss Voigt Hill
#
# Bulk Modulus (GPa) = 31.20962 47.65176 39.43069
# Shear Modulus (GPa) = 27.91202 36.87082 32.39142
#
# Velocity S-wave (km/s) = 3.34867 3.84874 3.60738
# Velocity P-wave (km/s) = 5.24308 6.23653 5.76126
#
# Compressibility (1/GPa) = 0.03204141
#
# Stress axis : x y z
#
# Youngs Moduli (GPa) = 66.52183 58.06013 77.08149
#
# Poissons Ratio (x) = -0.01246 0.29450
# Poissons Ratio (y) = -0.01427 0.23032
# Poissons Ratio (z) = 0.25415 0.17348
#
# Static dielectric constant tensor:
#      x y z
#    x 2.063370 -0.090780 -0.022870 
#    y -0.090780 2.002030 0.007730 
#    z -0.022870 0.007730 1.946310 
# 
# From -- ./inp_files/13705.got.cif
#   From: 2010.05.17/outbox.cif.g08.bks.cpg/sg2_7_cif.got.tgz:13705.got - 2010.06.03 11:33:40.
