data_PCOD9111944
_publ_section_title
;
Structure prediction by ZEFSAII (Michael W. Deem and Ramdas Pophale) SiO2 
 PCOD9111944
Probable space group: P -1
;
_chemical_formula_sum "Si O2"
_cell_formula_units_Z 13
_cell_length_a 17.224947
_cell_length_b 9.253049
_cell_length_c 7.634212
_cell_angle_alpha 127.531038
_cell_angle_beta 121.216791
_cell_angle_gamma 33.598287
_cell_volume 533.793113
_symmetry_space_group_name_H-M "P -1"
_symmetry_group_IT_number 2
_symmetry_cell_setting 'triclinic'
loop_
_space_group_symop_operation_xyz
x,y,z
-x,-y,-z
loop_
_atom_site_type_symbol
_atom_site_label
_atom_site_fract_x
_atom_site_fract_y
_atom_site_fract_z
Si Si1 0.421227 0.949471 0.950022
Si Si2 0.000000 0.500000 0.500000
Si Si3 0.802973 0.972540 0.956165
Si Si4 0.879135 0.485633 0.069164
Si Si5 0.837235 0.129268 0.772926
Si Si6 0.356900 0.668133 0.616952
Si Si7 0.451678 0.869078 0.312860
O O1 0.489745 0.784189 0.090559
O O2 0.259089 0.260801 0.015820
O O3 0.500000 0.000000 0.000000
O O4 0.417426 0.770428 0.703407
O O5 0.862191 0.618010 0.329181
O O6 0.939948 0.801706 0.612433
O O7 0.785093 0.159706 0.929841
O O8 0.710117 0.949988 0.751295
O O9 0.753629 0.109256 0.190642
O O10 0.967881 0.669937 0.921371
O O11 0.896925 0.242015 0.923831
O O12 0.721187 0.304754 0.614888
O O13 0.467110 0.379014 0.638286
O O14 0.500000 0.000000 0.500000
#
# Coordination Sequence:
#
# PCOD9111944 Si02
#       7
#     2   1   2   2   2   2   2
#     4  11  25  44  75 104 145 193 246 303 367 441
#     4  10  20  44  64 102 150 176 242 294 352 432
#     4  10  24  45  71 103 147 188 244 309 349 449
#     4  11  24  44  73 111 142 196 247 292 383 431
#     4  11  24  45  73 109 145 197 241 300 374 443
#     4  11  25  48  71 106 148 195 245 306 374 424
#     4  11  26  46  68 109 144 196 247 300 371 436
#
# _framework density 24.354004
#
# number of rings (size 3 to 8) (size 9 to 14) (size 15 to 20)
#    0.000    1.231    1.538    4.615    6.462    3.692 
#    5.538    0.000    0.000    0.000    0.000    0.000 
#    0.000    0.000    0.000    0.000    0.000    0.000 
#
# Total GULP energy -72412.050736 kJ/mol
# GULP energy per Si atom -5570.157749 kJ/mol
# Density = 2.429857 g / cm^3
# Si number density = 24.354004 Si / 1000 Ang^3
#
#
#
# Elastic Constant Matrix: (Units=GPa)
#
#
# Indices 1 2 3 4 5 6 
#
# 1 119.8815 62.1527 36.0650 -13.0675 21.9513 6.1816
# 2 62.1527 171.6839 34.5456 -10.2922 17.9692 12.6663
# 3 36.0650 34.5456 116.1762 -11.1523 43.8278 9.8812
# 4 -13.0675 -10.2922 -11.1523 47.4135 13.2716 3.7670
# 5 21.9513 17.9692 43.8278 13.2716 64.6935 -0.2706
# 6 6.1816 12.6663 9.8812 3.7670 -0.2706 48.4459
#
#
#
# Elastic Compliance Matrix: (Units=1/GPa)
#
#
# Indices 1 2 3 4 5 6 
#
# 1 0.011267 -0.003346 -0.001151 0.002913 -0.002714 -0.000570
# 2 -0.003346 0.007399 -0.000746 0.000784 -0.000581 -0.001419
# 3 -0.001151 -0.000746 0.013722 0.005752 -0.009891 -0.002959
# 4 0.002913 0.000784 0.005752 0.026691 -0.010595 -0.003884
# 5 -0.002714 -0.000581 -0.009891 -0.010595 0.025428 0.003481
# 6 -0.000570 -0.001419 -0.002959 -0.003884 0.003481 0.022010
#
#
# Mechanical properties :
#
#
# Convention : Reuss Voigt Hill
#
# Bulk Modulus (GPa) = 45.66025 74.80759 60.23392
# Shear Modulus (GPa) = 40.22397 50.44246 45.33321
#
# Velocity S-wave (km/s) = 4.06844 4.55600 4.31911
# Velocity P-wave (km/s) = 6.39210 7.64589 7.04693
#
# Compressibility (1/GPa) = 0.02190089
#
# Stress axis : x y z
#
# Youngs Moduli (GPa) = 88.75866 135.15772 72.87608
#
# Poissons Ratio (x) = 0.45230 0.08385
# Poissons Ratio (y) = 0.29703 0.05438
# Poissons Ratio (z) = 0.10212 0.10085
#
# Static dielectric constant tensor:
#      x y z
#    x 1.883240 0.117210 0.060250 
#    y 0.117210 1.773900 -0.190840 
#    z 0.060250 -0.190840 1.779340 
# 
# From -- ./inp_files/296998.got.cif
#   From: 2010.05.17/outbox.cif.g08.bks.cpg/sg2_149_cif.got.tgz:296998.got - 2010.06.03 11:33:40.
