data_PCOD9111187
_publ_section_title
;
Structure prediction by ZEFSAII (Michael W. Deem and Ramdas Pophale) SiO2 
 PCOD9111187
Probable space group: P -1
;
_chemical_formula_sum "Si O2"
_cell_formula_units_Z 13
_cell_length_a 16.304356
_cell_length_b 21.570269
_cell_length_c 11.938326
_cell_angle_alpha 21.014366
_cell_angle_beta 24.432954
_cell_angle_gamma 24.745120
_cell_volume 572.670022
_symmetry_space_group_name_H-M "P -1"
_symmetry_group_IT_number 2
_symmetry_cell_setting 'triclinic'
loop_
_space_group_symop_operation_xyz
x,y,z
-x,-y,-z
loop_
_atom_site_type_symbol
_atom_site_label
_atom_site_fract_x
_atom_site_fract_y
_atom_site_fract_z
Si Si1 0.262526 0.192437 0.180381
Si Si2 0.260246 0.462949 0.526670
Si Si3 0.144551 0.813084 0.202992
Si Si4 0.307327 0.818523 0.624590
Si Si5 0.000000 0.000000 0.500000
Si Si6 0.310065 0.961738 0.959204
Si Si7 0.030028 0.361532 0.592592
O O1 0.027908 0.264742 0.404112
O O2 0.298369 0.994297 0.411632
O O3 0.270074 0.332985 0.838736
O O4 0.447840 0.148302 0.116111
O O5 0.293518 0.647208 0.217618
O O6 0.451915 0.335200 0.423732
O O7 0.035532 0.524129 0.634244
O O8 0.257015 0.866761 0.076437
O O9 0.000000 0.000000 0.000000
O O10 0.216006 0.894358 0.486798
O O11 0.151029 0.725680 0.024459
O O12 0.848352 0.031630 0.751032
O O13 0.252188 0.180360 0.630173
O O14 0.000000 0.500000 0.500000
#
# Coordination Sequence:
#
# PCOD9111187 Si02
#       7
#     2   2   2   2   1   2   2
#     4  12  25  45  75 102 140 188 244 291 362 411
#     4  12  25  43  70 109 137 190 237 297 350 426
#     4  12  26  51  68  99 156 189 235 293 358 427
#     4  11  23  43  72 102 145 186 233 300 354 415
#     4  10  20  42  70 104 134 182 232 290 344 406
#     4  11  24  45  72 102 138 195 228 290 361 416
#     4  11  24  42  69 104 143 181 244 290 351 419
#
# _framework density 22.700680999999999
#
# number of rings (size 3 to 8) (size 9 to 14) (size 15 to 20)
#    0.000    0.615    6.154    2.308    4.308    2.462 
#    2.769    0.000    0.000    0.000    0.000    0.000 
#    0.000    0.000    0.000    0.000    0.000    0.000 
#
# Total GULP energy -72519.788894 kJ/mol
# GULP energy per Si atom -5578.445300 kJ/mol
# Density = 2.264901 g / cm^3
# Si number density = 22.700681 Si / 1000 Ang^3
#
#
#
# Elastic Constant Matrix: (Units=GPa)
#
#
# Indices 1 2 3 4 5 6 
#
# 1 181.7253 27.0038 31.8560 -20.8797 -8.8071 -23.1916
# 2 27.0038 63.5554 14.1260 -25.3525 -10.0576 5.9936
# 3 31.8560 14.1260 59.4786 -15.8293 -10.9113 -8.0607
# 4 -20.8797 -25.3525 -15.8293 23.6177 8.5998 -3.9963
# 5 -8.8071 -10.0576 -10.9113 8.5998 28.1617 -10.9658
# 6 -23.1916 5.9936 -8.0607 -3.9963 -10.9658 37.3799
#
#
#
# Elastic Compliance Matrix: (Units=1/GPa)
#
#
# Indices 1 2 3 4 5 6 
#
# 1 0.007213 -0.001221 -0.001278 0.004363 0.002128 0.005486
# 2 -0.001221 0.027900 0.001830 0.029601 0.000679 -0.001472
# 3 -0.001278 0.001830 0.023609 0.015135 0.007867 0.007931
# 4 0.004363 0.029601 0.015135 0.092129 -0.006798 0.009080
# 5 0.002128 0.000679 0.007867 -0.006798 0.047858 0.016221
# 6 0.005486 -0.001472 0.007931 0.009080 0.016221 0.037832
#
#
# Mechanical properties :
#
#
# Convention : Reuss Voigt Hill
#
# Bulk Modulus (GPa) = 17.42610 50.08120 33.75365
# Shear Modulus (GPa) = 19.45480 33.28342 26.36911
#
# Velocity S-wave (km/s) = 2.93066 3.83324 3.41192
# Velocity P-wave (km/s) = 4.37548 6.45763 5.51570
#
# Compressibility (1/GPa) = 0.05738517
#
# Stress axis : x y z
#
# Youngs Moduli (GPa) = 138.64226 35.84178 42.35719
#
# Poissons Ratio (x) = 0.04375 0.05414
# Poissons Ratio (y) = 0.16924 -0.07753
# Poissons Ratio (z) = 0.17720 -0.06561
#
# Static dielectric constant tensor:
#      x y z
#    x 1.836190 -0.019550 0.037010 
#    y -0.019550 1.876050 -0.013010 
#    z 0.037010 -0.013010 1.875420 
# 
# From -- ./inp_files/324933.got.cif
#   From: 2010.05.17/outbox.cif.g08.bks.cpg/sg2_163_cif.got.tgz:324933.got - 2010.06.03 11:33:40.
