data_PCOD9111447
_publ_section_title
;
Structure prediction by ZEFSAII (Michael W. Deem and Ramdas Pophale) SiO2 
 PCOD9111447
Probable space group: P -1
;
_chemical_formula_sum "Si O2"
_cell_formula_units_Z 12
_cell_length_a 7.919968
_cell_length_b 16.149261
_cell_length_c 5.429517
_cell_angle_alpha 109.352822
_cell_angle_beta 121.792376
_cell_angle_gamma 52.328846
_cell_volume 467.156892
_symmetry_space_group_name_H-M "P -1"
_symmetry_group_IT_number 2
_symmetry_cell_setting 'triclinic'
loop_
_space_group_symop_operation_xyz
x,y,z
-x,-y,-z
loop_
_atom_site_type_symbol
_atom_site_label
_atom_site_fract_x
_atom_site_fract_y
_atom_site_fract_z
Si Si1 0.329015 0.781514 0.269680
Si Si2 0.271364 0.960426 0.163605
Si Si3 0.354076 0.511901 0.154084
Si Si4 0.572770 0.081631 0.261601
Si Si5 0.046019 0.273288 0.142060
Si Si6 0.197323 0.390653 0.660557
O O1 0.279670 0.860771 0.531949
O O2 0.564969 0.670012 0.383730
O O3 0.401916 0.834599 0.167237
O O4 0.116795 0.773213 0.007955
O O5 0.337719 0.990432 0.497940
O O6 0.343321 0.983048 0.985195
O O7 0.000000 0.000000 0.000000
O O8 0.500000 0.500000 0.500000
O O9 0.500000 0.500000 0.000000
O O10 0.110406 0.626359 0.057055
O O11 0.286041 0.424476 0.998412
O O12 0.303560 0.180095 0.159345
O O13 0.087393 0.319971 0.469662
O O14 0.000000 0.500000 0.500000
#
# Coordination Sequence:
#
# PCOD9111447 Si02
#       6
#     2   2   2   2   2   2
#     4   9  20  38  65  91 130 164 212 259 321 365
#     4  10  21  43  68  90 128 166 207 263 326 383
#     4  11  23  40  63  90 129 173 213 258 314 370
#     4   9  22  40  64  94 123 165 212 257 322 382
#     4  10  20  43  63  97 128 173 213 269 312 383
#     4   9  19  39  62  92 129 170 217 260 311 376
#
# _framework density 25.687303
#
# number of rings (size 3 to 8) (size 9 to 14) (size 15 to 20)
#    1.000    1.333    1.667    0.500    0.000    2.667 
#    3.000    5.833    0.000    0.000    0.000    0.000 
#    0.000    0.000    0.000    0.000    0.000    0.000 
#
# Total GULP energy -66938.439580 kJ/mol
# GULP energy per Si atom -5578.203298 kJ/mol
# Density = 2.562884 g / cm^3
# Si number density = 25.687303 Si / 1000 Ang^3
#
#
#
# Elastic Constant Matrix: (Units=GPa)
#
#
# Indices 1 2 3 4 5 6 
#
# 1 93.7448 7.2734 56.0043 -17.6183 -5.0999 -12.7785
# 2 7.2734 83.9352 38.1818 -0.0736 2.2230 -14.8234
# 3 56.0043 38.1818 232.4633 1.6744 9.4481 -6.5618
# 4 -17.6183 -0.0736 1.6744 49.3754 9.9118 22.8901
# 5 -5.0999 2.2230 9.4481 9.9118 54.8472 4.7381
# 6 -12.7785 -14.8234 -6.5618 22.8901 4.7381 35.4529
#
#
#
# Elastic Compliance Matrix: (Units=1/GPa)
#
#
# Indices 1 2 3 4 5 6 
#
# 1 0.013717 0.000693 -0.003431 0.003920 0.000963 0.001939
# 2 0.000693 0.014291 -0.002256 -0.003307 -0.000217 0.007971
# 3 -0.003431 -0.002256 0.005536 -0.001065 -0.000959 -0.000339
# 4 0.003920 -0.003307 -0.001065 0.031710 -0.003304 -0.020199
# 5 0.000963 -0.000217 -0.000959 -0.003304 0.019123 -0.000344
# 6 0.001939 0.007971 -0.000339 -0.020199 -0.000344 0.045263
#
#
# Mechanical properties :
#
#
# Convention : Reuss Voigt Hill
#
# Bulk Modulus (GPa) = 42.45586 68.11804 55.28695
# Shear Modulus (GPa) = 33.90269 48.51401 41.20835
#
# Velocity S-wave (km/s) = 3.63688 4.35056 4.00963
# Velocity P-wave (km/s) = 5.84805 7.19807 6.55789
#
# Compressibility (1/GPa) = 0.02355388
#
# Stress axis : x y z
#
# Youngs Moduli (GPa) = 72.90483 69.97382 180.63508
#
# Poissons Ratio (x) = -0.04846 0.61974
# Poissons Ratio (y) = -0.05049 0.40760
# Poissons Ratio (z) = 0.25013 0.15789
#
# Static dielectric constant tensor:
#      x y z
#    x 2.146270 0.117120 -0.011920 
#    y 0.117120 2.102880 0.007490 
#    z -0.011920 0.007490 2.067090 
# 
# From -- ./inp_files/48756.got.cif
#   From: 2010.05.17/outbox.cif.g08.bks.cpg/sg2_25_cif.got.tgz:48756.got - 2010.06.03 11:33:40.
