data_PCOD9111482
_publ_section_title
;
Structure prediction by ZEFSAII (Michael W. Deem and Ramdas Pophale) SiO2 
 PCOD9111482
Probable space group: P -1
;
_chemical_formula_sum "Si O2"
_cell_formula_units_Z 15
_cell_length_a 6.555132
_cell_length_b 11.201146
_cell_length_c 12.604828
_cell_angle_alpha 58.202065
_cell_angle_beta 106.842735
_cell_angle_gamma 73.218932
_cell_volume 632.388970
_symmetry_space_group_name_H-M "P -1"
_symmetry_group_IT_number 2
_symmetry_cell_setting 'triclinic'
loop_
_space_group_symop_operation_xyz
x,y,z
-x,-y,-z
loop_
_atom_site_type_symbol
_atom_site_label
_atom_site_fract_x
_atom_site_fract_y
_atom_site_fract_z
Si Si1 0.005956 0.833648 0.542885
Si Si2 0.464704 0.410855 0.176423
Si Si3 0.700889 0.801092 0.128496
Si Si4 0.500000 0.000000 0.500000
Si Si5 0.401259 0.739209 0.941732
Si Si6 0.256928 0.537043 0.304127
Si Si7 0.423078 0.325246 0.632222
Si Si8 0.145064 0.939945 0.321175
O O1 0.237250 0.677295 0.711016
O O2 0.092077 0.820094 0.440658
O O3 0.000000 0.000000 0.500000
O O4 0.730683 0.877423 0.508218
O O5 0.469835 0.292449 0.140502
O O6 0.320853 0.430879 0.254764
O O7 0.354943 0.591883 0.026789
O O8 0.704632 0.734704 0.277534
O O9 0.991310 0.714961 0.176462
O O10 0.583917 0.730490 0.062961
O O11 0.500000 0.000000 0.000000
O O12 0.288798 0.003830 0.385134
O O13 0.131666 0.909848 0.823399
O O14 0.264084 0.433333 0.455871
O O15 0.478573 0.571844 0.339017
O O16 0.675530 0.162782 0.700140
#
# Coordination Sequence:
#
# PCOD9111482 Si02
#       8
#     2   2   2   1   2   2   2   2
#     4  10  20  43  64  99 138 175 236 280 349 409
#     4  11  22  46  72 101 144 187 222 300 362 417
#     4  12  28  48  70 108 145 189 247 290 355 442
#     4  10  22  38  68  98 134 172 230 286 338 414
#     4  11  25  44  70 104 147 183 227 295 365 426
#     4  11  25  47  75 101 138 194 240 297 356 419
#     4  11  25  48  72 100 141 194 238 304 347 417
#     4  11  23  43  69 100 138 182 233 288 349 421
#
# _framework density 23.719580000000001
#
# number of rings (size 3 to 8) (size 9 to 14) (size 15 to 20)
#    0.000    1.067    5.333    1.200    1.867    4.800 
#    0.000    0.000    0.000    0.000    0.000    0.000 
#    0.000    0.000    0.000    0.000    0.000    0.000 
#
# Total GULP energy -83659.822527 kJ/mol
# GULP energy per Si atom -5577.321502 kJ/mol
# Density = 2.366559 g / cm^3
# Si number density = 23.719580 Si / 1000 Ang^3
#
#
#
# Elastic Constant Matrix: (Units=GPa)
#
#
# Indices 1 2 3 4 5 6 
#
# 1 54.0983 20.8041 19.9404 7.0680 -0.0088 -27.6972
# 2 20.8041 98.8937 24.0848 3.9088 1.9455 -27.9793
# 3 19.9404 24.0848 98.2060 -7.3048 -0.6611 -14.6528
# 4 7.0680 3.9088 -7.3048 47.0747 -6.5859 1.8250
# 5 -0.0088 1.9455 -0.6611 -6.5859 25.6225 2.1985
# 6 -27.6972 -27.9793 -14.6528 1.8250 2.1985 41.6940
#
#
#
# Elastic Compliance Matrix: (Units=1/GPa)
#
#
# Indices 1 2 3 4 5 6 
#
# 1 0.030754 0.000409 -0.003898 -0.006513 -0.003494 0.019803
# 2 0.000409 0.013099 -0.002202 -0.002147 -0.002333 0.008505
# 3 -0.003898 -0.002202 0.011707 0.002756 0.001188 -0.000136
# 4 -0.006513 -0.002147 0.002756 0.024039 0.006944 -0.006217
# 5 -0.003494 -0.002333 0.001188 0.006944 0.041531 -0.005963
# 6 0.019803 0.008505 -0.000136 -0.006217 -0.005963 0.043386
#
#
# Mechanical properties :
#
#
# Convention : Reuss Voigt Hill
#
# Bulk Modulus (GPa) = 22.63596 42.31738 32.47667
# Shear Modulus (GPa) = 26.22965 35.30281 30.76623
#
# Velocity S-wave (km/s) = 3.32900 3.86209 3.60541
# Velocity P-wave (km/s) = 4.93358 6.14549 5.57258
#
# Compressibility (1/GPa) = 0.04417749
#
# Stress axis : x y z
#
# Youngs Moduli (GPa) = 32.51638 76.34080 85.42004
#
# Poissons Ratio (x) = -0.03120 0.33296
# Poissons Ratio (y) = -0.01329 0.18809
# Poissons Ratio (z) = 0.12674 0.16810
#
# Static dielectric constant tensor:
#      x y z
#    x 1.892000 0.002160 -0.044040 
#    y 0.002160 1.991460 0.015640 
#    z -0.044040 0.015640 1.953150 
# 
# From -- ./inp_files/363917.got.cif
#   From: 2010.05.17/outbox.cif.g08.bks.cpg/sg2_182_cif.got.tgz:363917.got - 2010.06.03 11:33:40.
