data_PCOD9111558
_publ_section_title
;
Structure prediction by ZEFSAII (Michael W. Deem and Ramdas Pophale) SiO2 
 PCOD9111558
Probable space group: P -1
;
_chemical_formula_sum "Si O2"
_cell_formula_units_Z 16
_cell_length_a 9.430581
_cell_length_b 19.279700
_cell_length_c 5.278513
_cell_angle_alpha 88.104286
_cell_angle_beta 72.235060
_cell_angle_gamma 132.623368
_cell_volume 631.949324
_symmetry_space_group_name_H-M "P -1"
_symmetry_group_IT_number 2
_symmetry_cell_setting 'triclinic'
loop_
_space_group_symop_operation_xyz
x,y,z
-x,-y,-z
loop_
_atom_site_type_symbol
_atom_site_label
_atom_site_fract_x
_atom_site_fract_y
_atom_site_fract_z
Si Si1 0.051766 0.455535 0.792623
Si Si2 0.610204 0.265675 0.910312
Si Si3 0.819005 0.846463 0.087801
Si Si4 0.366578 0.109932 0.457846
Si Si5 0.145584 0.359853 0.108165
Si Si6 0.914787 0.088685 0.584826
Si Si7 0.703371 0.155649 0.593807
Si Si8 0.557386 0.458895 0.674277
O O1 0.842710 0.378575 0.741049
O O2 0.289136 0.543980 0.541828
O O3 0.000000 0.500000 0.000000
O O4 0.063708 0.384979 0.935311
O O5 0.426272 0.244284 0.863454
O O6 0.641965 0.197127 0.810350
O O7 0.515503 0.221692 0.250343
O O8 0.783691 0.910498 0.235531
O O9 0.926729 0.845601 0.272937
O O10 0.961084 0.877018 0.757382
O O11 0.521988 0.103264 0.485102
O O12 0.218544 0.028220 0.328214
O O13 0.284701 0.454208 0.212821
O O14 0.939334 0.255425 0.350647
O O15 0.322681 0.363463 0.921448
O O16 0.741541 0.092183 0.683522
O O17 0.500000 0.500000 0.500000
#
# Coordination Sequence:
#
# PCOD9111558 Si02
#       8
#     2   2   2   2   2   2   2   2
#     4  11  23  43  69 102 134 178 241 291 356 431
#     4  11  24  46  71 101 145 197 230 298 371 426
#     4  11  26  48  70 105 150 194 238 297 366 421
#     4  11  24  46  75 103 151 192 239 290 369 425
#     4  10  20  43  66  92 133 181 224 287 360 414
#     4  12  27  45  73 112 143 193 246 300 346 431
#     4  11  25  43  71 103 142 190 244 296 354 431
#     4   9  20  41  65  91 128 175 220 280 356 416
#
# _framework density 25.318484000000002
#
# number of rings (size 3 to 8) (size 9 to 14) (size 15 to 20)
#    0.000    1.250    3.750    1.125    5.250    1.000 
#    9.000    0.000    0.000    0.000    0.000    0.000 
#    0.000    0.000    0.000    0.000    0.000    0.000 
#
# Total GULP energy -89428.885852 kJ/mol
# GULP energy per Si atom -5589.305366 kJ/mol
# Density = 2.526086 g / cm^3
# Si number density = 25.318484 Si / 1000 Ang^3
#
#
#
# Elastic Constant Matrix: (Units=GPa)
#
#
# Indices 1 2 3 4 5 6 
#
# 1 164.9526 29.6254 43.1689 16.1162 -15.2687 25.7626
# 2 29.6254 39.0382 20.1527 -0.2751 -17.2957 12.5776
# 3 43.1689 20.1527 149.0588 -5.9665 -34.9199 6.5312
# 4 16.1162 -0.2751 -5.9665 31.5284 6.7506 0.6095
# 5 -15.2687 -17.2957 -34.9199 6.7506 51.2698 6.1493
# 6 25.7626 12.5776 6.5312 0.6095 6.1493 40.8183
#
#
#
# Elastic Compliance Matrix: (Units=1/GPa)
#
#
# Indices 1 2 3 4 5 6 
#
# 1 0.008366 -0.003700 -0.001652 -0.004807 0.001229 -0.003989
# 2 -0.003700 0.037949 -0.000618 -0.000392 0.012670 -0.011163
# 3 -0.001652 -0.000618 0.008550 0.001394 0.005049 -0.000916
# 4 -0.004807 -0.000392 0.001394 0.035591 -0.005691 0.003258
# 5 0.001229 0.012670 0.005049 -0.005691 0.029515 -0.009849
# 6 -0.003989 -0.011163 -0.000916 0.003258 -0.009849 0.032038
#
#
# Mechanical properties :
#
#
# Convention : Reuss Voigt Hill
#
# Bulk Modulus (GPa) = 23.29603 59.88262 41.58933
# Shear Modulus (GPa) = 28.04959 42.06347 35.05653
#
# Velocity S-wave (km/s) = 3.33208 4.08042 3.72509
# Velocity P-wave (km/s) = 4.90151 6.77516 5.91302
#
# Compressibility (1/GPa) = 0.04292576
#
# Stress axis : x y z
#
# Youngs Moduli (GPa) = 119.53570 26.35083 116.96511
#
# Poissons Ratio (x) = 0.09749 0.19325
# Poissons Ratio (y) = 0.44223 0.07225
# Poissons Ratio (z) = 0.19750 0.01628
#
# Static dielectric constant tensor:
#      x y z
#    x 1.956660 0.058350 -0.088680 
#    y 0.058350 1.957710 0.059600 
#    z -0.088680 0.059600 1.944090 
# 
# From -- ./inp_files/53225.got.cif
#   From: 2010.05.17/outbox.cif.g08.bks.cpg/sg2_27_cif.got.tgz:53225.got - 2010.06.03 11:33:40.
