data_PCOD9111719
_publ_section_title
;
Structure prediction by ZEFSAII (Michael W. Deem and Ramdas Pophale) SiO2 
 PCOD9111719
Probable space group: P -1
;
_chemical_formula_sum "Si O2"
_cell_formula_units_Z 16
_cell_length_a 15.851826
_cell_length_b 10.230356
_cell_length_c 9.720814
_cell_angle_alpha 56.081011
_cell_angle_beta 58.322380
_cell_angle_gamma 30.612328
_cell_volume 662.379983
_symmetry_space_group_name_H-M "P -1"
_symmetry_group_IT_number 2
_symmetry_cell_setting 'triclinic'
loop_
_space_group_symop_operation_xyz
x,y,z
-x,-y,-z
loop_
_atom_site_type_symbol
_atom_site_label
_atom_site_fract_x
_atom_site_fract_y
_atom_site_fract_z
Si Si1 0.492499 0.691352 0.348180
Si Si2 0.207549 0.644311 0.917794
Si Si3 0.699468 0.273866 0.944825
Si Si4 0.305024 0.183900 0.076924
Si Si5 0.532515 0.981511 0.641417
Si Si6 0.947519 0.093712 0.649154
Si Si7 0.886806 0.527195 0.498928
Si Si8 0.240299 0.161797 0.858022
O O1 0.500000 0.500000 0.500000
O O2 0.625400 0.530659 0.207506
O O3 0.532855 0.769108 0.387751
O O4 0.328185 0.988552 0.251830
O O5 0.221774 0.727930 0.995012
O O6 0.066733 0.861046 0.797531
O O7 0.211554 0.454151 0.058426
O O8 0.776092 0.001847 0.041438
O O9 0.500000 0.500000 0.000000
O O10 0.761631 0.274395 0.748419
O O11 0.202211 0.278428 0.971443
O O12 0.500000 0.000000 0.000000
O O13 0.437209 0.958681 0.804771
O O14 0.500000 0.000000 0.500000
O O15 0.272020 0.278061 0.379440
O O16 0.000000 0.000000 0.500000
O O17 0.959968 0.262531 0.568360
O O18 0.840008 0.653217 0.313634
O O19 0.000000 0.500000 0.500000
#
# Coordination Sequence:
#
# PCOD9111719 Si02
#       8
#     2   2   2   2   2   2   2   2
#     4  11  25  41  74 117 145 195 260 321 381 458
#     4  11  25  47  75 105 159 194 254 316 391 450
#     4  12  27  48  77 114 152 201 262 316 379 463
#     4  10  20  43  69 101 146 192 241 311 378 448
#     4  10  23  43  76 104 151 197 258 315 382 451
#     4  12  29  51  76 115 158 204 254 324 388 455
#     4  11  26  47  72 105 154 207 253 310 390 456
#     4  11  22  47  70 108 143 197 257 309 372 453
#
# _framework density 24.155318000000001
#
# number of rings (size 3 to 8) (size 9 to 14) (size 15 to 20)
#    0.000    1.000    2.500    4.125    8.750    2.000 
#    0.000    1.250    0.000    0.000    0.000    0.000 
#    0.000    0.000    0.000    0.000    0.000    0.000 
#
# Total GULP energy -89383.107530 kJ/mol
# GULP energy per Si atom -5586.444221 kJ/mol
# Density = 2.410034 g / cm^3
# Si number density = 24.155318 Si / 1000 Ang^3
#
#
#
# Elastic Constant Matrix: (Units=GPa)
#
#
# Indices 1 2 3 4 5 6 
#
# 1 116.4959 69.9195 70.8498 -3.3606 5.1656 20.4207
# 2 69.9195 139.3640 71.4680 7.4379 -12.7830 50.1415
# 3 70.8498 71.4680 182.6333 -6.2608 1.9388 30.8085
# 4 -3.3606 7.4379 -6.2608 47.8308 11.7274 -5.1730
# 5 5.1656 -12.7830 1.9388 11.7274 40.8731 -5.3887
# 6 20.4207 50.1415 30.8085 -5.1730 -5.3887 47.7672
#
#
#
# Elastic Compliance Matrix: (Units=1/GPa)
#
#
# Indices 1 2 3 4 5 6 
#
# 1 0.014810 -0.007722 -0.003178 0.003353 -0.004615 0.003667
# 2 -0.007722 0.018355 -0.002029 -0.006930 0.006872 -0.014633
# 3 -0.003178 -0.002029 0.007819 0.001233 -0.001162 -0.001552
# 4 0.003353 -0.006930 0.001233 0.025326 -0.009024 0.006770
# 5 -0.004615 0.006872 -0.001162 -0.009024 0.029561 -0.002133
# 6 0.003667 -0.014633 -0.001552 0.006770 -0.002133 0.036221
#
#
# Mechanical properties :
#
#
# Convention : Reuss Voigt Hill
#
# Bulk Modulus (GPa) = 66.11484 95.88533 81.00008
# Shear Modulus (GPa) = 30.67621 42.37796 36.52709
#
# Velocity S-wave (km/s) = 3.56751 4.19309 3.89289
# Velocity P-wave (km/s) = 6.66331 7.95137 7.33566
#
# Compressibility (1/GPa) = 0.01512520
#
# Stress axis : x y z
#
# Youngs Moduli (GPa) = 67.52121 54.48100 127.89662
#
# Poissons Ratio (x) = 0.42070 0.40648
# Poissons Ratio (y) = 0.52140 0.25952
# Poissons Ratio (z) = 0.21460 0.11055
#
# Static dielectric constant tensor:
#      x y z
#    x 2.114390 -0.122970 -0.033130 
#    y -0.122970 2.044400 0.087850 
#    z -0.033130 0.087850 2.045820 
# 
# From -- ./inp_files/460360.got.cif
#   From: 2010.05.17/outbox.cif.g08.bks.cpg/sg2_231_cif.got.tgz:460360.got - 2010.06.03 11:33:40.
