data_PCOD9111795
_publ_section_title
;
Structure prediction by ZEFSAII (Michael W. Deem and Ramdas Pophale) SiO2 
 PCOD9111795
Probable space group: P -1
;
_chemical_formula_sum "Si O2"
_cell_formula_units_Z 14
_cell_length_a 9.813969
_cell_length_b 16.749691
_cell_length_c 5.510744
_cell_angle_alpha 128.577073
_cell_angle_beta 121.568139
_cell_angle_gamma 55.555733
_cell_volume 563.143008
_symmetry_space_group_name_H-M "P -1"
_symmetry_group_IT_number 2
_symmetry_cell_setting 'triclinic'
loop_
_space_group_symop_operation_xyz
x,y,z
-x,-y,-z
loop_
_atom_site_type_symbol
_atom_site_label
_atom_site_fract_x
_atom_site_fract_y
_atom_site_fract_z
Si Si1 0.349840 0.054284 0.149917
Si Si2 0.630342 0.105633 0.756418
Si Si3 0.802309 0.257715 0.362032
Si Si4 0.493968 0.437055 0.629404
Si Si5 0.838300 0.612279 0.619676
Si Si6 0.943865 0.630114 0.248925
Si Si7 0.080863 0.080796 0.610384
O O1 0.437178 0.117066 0.529394
O O2 0.336026 0.943759 0.037527
O O3 0.169921 0.123893 0.992853
O O4 0.500000 0.000000 0.000000
O O5 0.759251 0.001215 0.541005
O O6 0.695465 0.206196 0.989714
O O7 0.663673 0.330008 0.561392
O O8 0.895956 0.333223 0.470085
O O9 0.949555 0.162412 0.459309
O O10 0.500000 0.500000 0.500000
O O11 0.324598 0.408608 0.459734
O O12 0.500000 0.500000 0.000000
O O13 0.814658 0.658529 0.410277
O O14 0.000000 0.500000 0.500000
O O15 0.883722 0.676070 0.008485
O O16 0.000000 0.500000 0.000000
O O17 0.000000 0.000000 0.500000
#
# Coordination Sequence:
#
# PCOD9111795 Si02
#       7
#     2   2   2   2   2   2   2
#     4   9  20  44  73  99 158 188 236 319 389 450
#     4  10  22  45  71 109 151 192 248 314 383 474
#     4  12  26  45  77 114 146 212 264 317 409 468
#     4  12  26  49  76 109 154 205 269 340 390 465
#     4  10  20  43  70  97 141 190 243 321 392 439
#     4  10  22  44  70 101 143 192 257 319 373 452
#     4  11  23  43  72 112 155 196 251 319 386 480
#
# _framework density 24.860469999999999
#
# number of rings (size 3 to 8) (size 9 to 14) (size 15 to 20)
#    0.000    1.429    1.429    4.714    0.000    2.286 
#    7.714    0.000    0.000    0.000    0.000    0.000 
#    0.000    0.000    0.000    0.000    0.000    0.000 
#
# Total GULP energy -78151.876018 kJ/mol
# GULP energy per Si atom -5582.276858 kJ/mol
# Density = 2.480389 g / cm^3
# Si number density = 24.860470 Si / 1000 Ang^3
#
#
#
# Elastic Constant Matrix: (Units=GPa)
#
#
# Indices 1 2 3 4 5 6 
#
# 1 165.6773 22.8590 38.5044 -0.5983 5.8945 14.4374
# 2 22.8590 72.0452 19.2855 4.8426 -1.9432 1.5965
# 3 38.5044 19.2855 135.7016 -4.2242 18.8450 8.9332
# 4 -0.5983 4.8426 -4.2242 33.9150 8.3675 -1.7865
# 5 5.8945 -1.9432 18.8450 8.3675 61.3399 0.1085
# 6 14.4374 1.5965 8.9332 -1.7865 0.1085 40.1962
#
#
#
# Elastic Compliance Matrix: (Units=1/GPa)
#
#
# Indices 1 2 3 4 5 6 
#
# 1 0.006813 -0.001728 -0.001513 0.000135 -0.000259 -0.002035
# 2 -0.001728 0.015194 -0.002009 -0.002840 0.001651 0.000333
# 3 -0.001513 -0.002009 0.008617 0.001969 -0.002832 -0.001197
# 4 0.000135 -0.002840 0.001969 0.031426 -0.004997 0.001037
# 5 -0.000259 0.001651 -0.002832 -0.004997 0.017931 0.000387
# 6 -0.002035 0.000333 -0.001197 0.001037 0.000387 0.025907
#
#
# Mechanical properties :
#
#
# Convention : Reuss Voigt Hill
#
# Bulk Modulus (GPa) = 49.68950 59.41355 54.55153
# Shear Modulus (GPa) = 40.61875 46.60859 43.61367
#
# Velocity S-wave (km/s) = 4.04650 4.33460 4.19303
# Velocity P-wave (km/s) = 6.47016 7.00017 6.74038
#
# Compressibility (1/GPa) = 0.02012498
#
# Stress axis : x y z
#
# Youngs Moduli (GPa) = 146.77847 65.81512 116.04443
#
# Poissons Ratio (x) = 0.11370 0.17562
# Poissons Ratio (y) = 0.25356 0.23311
# Poissons Ratio (z) = 0.22214 0.13221
#
# Static dielectric constant tensor:
#      x y z
#    x 1.801200 0.033440 0.108260 
#    y 0.033440 2.092950 -0.067960 
#    z 0.108260 -0.067960 2.043020 
# 
# From -- ./inp_files/49449.got.cif
#   From: 2010.05.17/outbox.cif.g08.bks.cpg/sg2_25_cif.got.tgz:49449.got - 2010.06.03 11:33:40.
