data_PCOD9111584
_publ_section_title
;
Structure prediction by ZEFSAII (Michael W. Deem and Ramdas Pophale) SiO2 
 PCOD9111584
Probable space group: P -1
;
_chemical_formula_sum "Si O2"
_cell_formula_units_Z 16
_cell_length_a 8.277480
_cell_length_b 17.906738
_cell_length_c 9.834348
_cell_angle_alpha 126.313734
_cell_angle_beta 47.358250
_cell_angle_gamma 90.897760
_cell_volume 656.325522
_symmetry_space_group_name_H-M "P -1"
_symmetry_group_IT_number 2
_symmetry_cell_setting 'triclinic'
loop_
_space_group_symop_operation_xyz
x,y,z
-x,-y,-z
loop_
_atom_site_type_symbol
_atom_site_label
_atom_site_fract_x
_atom_site_fract_y
_atom_site_fract_z
Si Si1 0.890528 0.489528 0.777261
Si Si2 0.747192 0.342768 0.611870
Si Si3 0.231396 0.854545 0.711833
Si Si4 0.820069 0.063507 0.532365
Si Si5 0.722843 0.735705 0.070403
Si Si6 0.013828 0.177633 0.822987
Si Si7 0.446289 0.245852 0.294754
Si Si8 0.915409 0.821700 0.532398
O O1 0.869859 0.411098 0.595463
O O2 0.165339 0.387767 0.600823
O O3 0.594493 0.564458 0.114067
O O4 0.876912 0.594424 0.834219
O O5 0.890041 0.216001 0.320920
O O6 0.804181 0.305314 0.699565
O O7 0.469587 0.805349 0.405930
O O8 0.402457 0.802395 0.698342
O O9 0.000000 0.000000 0.000000
O O10 0.486259 0.187337 0.856135
O O11 0.019288 0.088576 0.376684
O O12 0.000000 0.000000 0.500000
O O13 0.819762 0.959119 0.363877
O O14 0.939842 0.753560 0.022150
O O15 0.110972 0.178236 0.615448
O O16 0.685699 0.231910 0.053934
O O17 0.339473 0.169251 0.244858
#
# Coordination Sequence:
#
# PCOD9111584 Si02
#       8
#     2   2   2   2   2   2   2   2
#     4   9  20  40  68  95 131 178 232 267 334 402
#     4   9  19  40  70  96 132 178 221 281 336 394
#     4  11  22  40  67 101 133 172 222 275 339 399
#     4  10  21  39  66  95 129 177 225 276 337 393
#     4  11  21  43  70  94 136 184 216 282 340 396
#     4  11  24  41  64  99 138 177 227 274 340 400
#     4  11  24  41  64 104 132 176 228 273 331 403
#     4  10  20  43  66  95 132 178 223 276 341 388
#
# _framework density 24.378146999999998
#
# number of rings (size 3 to 8) (size 9 to 14) (size 15 to 20)
#    0.000    1.750    3.750    1.125    0.000    3.000 
#    4.500    3.125    0.000    0.000    0.000    0.000 
#    0.000    0.000    0.000    0.000    0.000    0.000 
#
# Total GULP energy -89297.559637 kJ/mol
# GULP energy per Si atom -5581.097477 kJ/mol
# Density = 2.432266 g / cm^3
# Si number density = 24.378147 Si / 1000 Ang^3
#
#
#
# Elastic Constant Matrix: (Units=GPa)
#
#
# Indices 1 2 3 4 5 6 
#
# 1 131.9803 66.6768 39.4294 29.1094 -14.7039 26.2425
# 2 66.6768 154.0255 68.2643 33.2292 -0.3553 31.9848
# 3 39.4294 68.2643 103.9543 36.7961 -20.2398 0.5614
# 4 29.1094 33.2292 36.7961 61.2596 -3.8855 5.5914
# 5 -14.7039 -0.3553 -20.2398 -3.8855 32.6345 11.4616
# 6 26.2425 31.9848 0.5614 5.5914 11.4616 55.5219
#
#
#
# Elastic Compliance Matrix: (Units=1/GPa)
#
#
# Indices 1 2 3 4 5 6 
#
# 1 0.011551 -0.003554 0.000285 -0.002906 0.006569 -0.004478
# 2 -0.003554 0.012326 -0.007482 -0.000399 -0.004628 -0.004349
# 3 0.000285 -0.007482 0.018826 -0.006993 0.009966 0.002632
# 4 -0.002906 -0.000399 -0.006993 0.021918 -0.003077 0.000102
# 5 0.006569 -0.004628 0.009966 -0.003077 0.042531 -0.009010
# 6 -0.004478 -0.004349 0.002632 0.000102 -0.009010 0.024456
#
#
# Mechanical properties :
#
#
# Convention : Reuss Voigt Hill
#
# Bulk Modulus (GPa) = 47.17049 82.07791 64.62420
# Shear Modulus (GPa) = 31.21544 44.25583 37.73563
#
# Velocity S-wave (km/s) = 3.58225 4.26536 3.93864
# Velocity P-wave (km/s) = 6.04165 7.61574 6.87390
#
# Compressibility (1/GPa) = 0.02119970
#
# Stress axis : x y z
#
# Youngs Moduli (GPa) = 86.57412 81.12998 53.11703
#
# Poissons Ratio (x) = 0.28837 -0.01513
# Poissons Ratio (y) = 0.30772 0.39743
# Poissons Ratio (z) = -0.02466 0.60702
#
# Static dielectric constant tensor:
#      x y z
#    x 2.014660 -0.003880 0.048510 
#    y -0.003880 2.005760 -0.047820 
#    z 0.048510 -0.047820 1.998570 
# 
# From -- ./inp_files/403184.got.cif
#   From: 2010.05.17/outbox.cif.g08.bks.cpg/sg2_202_cif.got.tgz:403184.got - 2010.06.03 11:33:40.
