data_PCOD9111227
_publ_section_title
;
Structure prediction by ZEFSAII (Michael W. Deem and Ramdas Pophale) SiO2 
 PCOD9111227
Probable space group: P -1
;
_chemical_formula_sum "Si O2"
_cell_formula_units_Z 16
_cell_length_a 8.827455
_cell_length_b 9.773512
_cell_length_c 11.007407
_cell_angle_alpha 105.084474
_cell_angle_beta 78.566984
_cell_angle_gamma 62.756526
_cell_volume 757.472467
_symmetry_space_group_name_H-M "P -1"
_symmetry_group_IT_number 2
_symmetry_cell_setting 'triclinic'
loop_
_space_group_symop_operation_xyz
x,y,z
-x,-y,-z
loop_
_atom_site_type_symbol
_atom_site_label
_atom_site_fract_x
_atom_site_fract_y
_atom_site_fract_z
Si Si1 0.689849 0.696177 0.241573
Si Si2 0.929021 0.192373 0.534460
Si Si3 0.324268 0.986069 0.000239
Si Si4 0.463140 0.658159 0.465840
Si Si5 0.560060 0.061669 0.294328
Si Si6 0.854239 0.766858 0.705282
Si Si7 0.451661 0.362140 0.999803
Si Si8 0.068675 0.545426 0.241391
O O1 0.626423 0.627800 0.345845
O O2 0.909197 0.590797 0.181609
O O3 0.614207 0.892472 0.317226
O O4 0.599441 0.687876 0.129852
O O5 0.711565 0.288487 0.576897
O O6 0.971880 0.281857 0.654748
O O7 0.019198 0.212107 0.403451
O O8 0.000000 0.000000 0.500000
O O9 0.310638 0.991393 0.858392
O O10 0.383966 0.804241 0.000347
O O11 0.500000 0.000000 0.000000
O O12 0.168947 0.133412 0.142142
O O13 0.500000 0.500000 0.500000
O O14 0.421630 0.808911 0.597104
O O15 0.348998 0.151459 0.302356
O O16 0.931571 0.574754 0.682495
O O17 0.270882 0.441514 0.129500
O O18 0.500000 0.500000 0.000000
#
# Coordination Sequence:
#
# PCOD9111227 Si02
#       8
#     2   2   2   2   2   2   2   2
#     4  12  24  43  67  98 131 175 222 264 325 400
#     4  12  26  42  63  99 137 169 219 278 331 377
#     4  10  20  42  70  96 123 175 220 262 323 397
#     4  12  26  42  63  99 137 169 219 278 331 377
#     4  11  21  43  70  90 128 179 225 260 320 403
#     4  11  21  43  70  90 128 179 225 260 320 403
#     4  12  25  42  70 102 135 168 217 280 334 382
#     4  12  24  43  67  98 131 175 222 264 325 400
#
# _framework density 21.122881
#
# number of rings (size 3 to 8) (size 9 to 14) (size 15 to 20)
#    0.000    0.500    5.000    5.625    3.500    0.000 
#    0.000    0.625    0.000    0.000    0.000    0.000 
#    0.000    0.000    0.000    0.000    0.000    0.000 
#
# Total GULP energy -89541.872110 kJ/mol
# GULP energy per Si atom -5596.367007 kJ/mol
# Density = 2.107480 g / cm^3
# Si number density = 21.122881 Si / 1000 Ang^3
#
#
#
# Elastic Constant Matrix: (Units=GPa)
#
#
# Indices 1 2 3 4 5 6 
#
# 1 63.1314 19.3534 4.5271 1.8391 -2.9328 6.7993
# 2 19.3534 148.9880 -6.2308 7.7703 -0.6835 28.8716
# 3 4.5271 -6.2308 88.4683 -7.3469 9.9672 27.7106
# 4 1.8391 7.7703 -7.3469 22.2695 10.5237 -2.1306
# 5 -2.9328 -0.6835 9.9672 10.5237 -6.3260 6.3213
# 6 6.7993 28.8716 27.7106 -2.1306 6.3213 39.0972
#
#
#
# Elastic Compliance Matrix: (Units=1/GPa)
#
#
# Indices 1 2 3 4 5 6 
#
# 1 0.016267 -0.002211 -0.000247 0.001695 -0.004994 -0.000122
# 2 -0.002211 0.008739 0.003601 -0.000758 -0.003584 -0.008084
# 3 -0.000247 0.003601 0.015250 -0.001068 0.007321 -0.014667
# 4 0.001695 -0.000758 -0.001068 0.026417 0.037897 -0.003666
# 5 -0.004994 -0.003584 0.007321 0.037897 -0.069221 0.011583
# 6 -0.000122 -0.008084 -0.014667 -0.003666 0.011583 0.039891
#
#
# Mechanical properties :
#
#
# Convention : Reuss Voigt Hill
#
# Bulk Modulus (GPa) = 23.50497 37.32077 30.41287
# Shear Modulus (GPa) = 101.54683 29.87069 65.70876
#
# Velocity S-wave (km/s) = 6.94109 3.76458 5.58349
# Velocity P-wave (km/s) = 8.68275 6.05003 7.48308
#
# Compressibility (1/GPa) = 0.04254419
#
# Stress axis : x y z
#
# Youngs Moduli (GPa) = 61.47320 114.42474 65.57164
#
# Poissons Ratio (x) = 0.25301 0.01618
# Poissons Ratio (y) = 0.13593 -0.23615
# Poissons Ratio (z) = 0.01517 -0.41209
#
# Static dielectric constant tensor:
#      x y z
#    x 1.741510 -0.019010 -0.000830 
#    y -0.019010 1.752300 0.000940 
#    z -0.000830 0.000940 1.756110 
# 
# From -- ./inp_files/382535.got.cif
#   From: 2010.05.17/outbox.cif.g08.bks.cpg/sg2_192_cif.got.tgz:382535.got - 2010.06.03 11:33:40.
