data_PCOD9111313
_publ_section_title
;
Structure prediction by ZEFSAII (Michael W. Deem and Ramdas Pophale) SiO2 
 PCOD9111313
Probable space group: P -1
;
_chemical_formula_sum "Si O2"
_cell_formula_units_Z 16
_cell_length_a 11.345867
_cell_length_b 16.113747
_cell_length_c 18.392391
_cell_angle_alpha 29.521480
_cell_angle_beta 26.693982
_cell_angle_gamma 34.137719
_cell_volume 724.881971
_symmetry_space_group_name_H-M "P -1"
_symmetry_group_IT_number 2
_symmetry_cell_setting 'triclinic'
loop_
_space_group_symop_operation_xyz
x,y,z
-x,-y,-z
loop_
_atom_site_type_symbol
_atom_site_label
_atom_site_fract_x
_atom_site_fract_y
_atom_site_fract_z
Si Si1 0.050353 0.510667 0.767064
Si Si2 0.638077 0.326374 0.218203
Si Si3 0.765499 0.159235 0.978518
Si Si4 0.295867 0.605943 0.301978
Si Si5 0.896472 0.917731 0.791627
Si Si6 0.843849 0.848194 0.712225
Si Si7 0.153338 0.482745 0.286476
Si Si8 0.502577 0.245194 0.778537
O O1 0.012358 0.682410 0.704335
O O2 0.958607 0.542559 0.710969
O O3 0.344998 0.387367 0.702662
O O4 0.851545 0.409178 0.994623
O O5 0.501907 0.463096 0.250786
O O6 0.402420 0.328328 0.289247
O O7 0.796665 0.149402 0.301912
O O8 0.810241 0.230788 0.817979
O O9 0.761898 0.332234 0.896606
O O10 0.467177 0.118056 0.169968
O O11 0.000000 0.000000 0.000000
O O12 0.432655 0.668004 0.249312
O O13 0.066720 0.521203 0.527151
O O14 0.847288 0.822581 0.817020
O O15 0.772404 0.120019 0.695740
O O16 0.713962 0.866544 0.995316
O O17 0.000000 0.000000 0.500000
#
# Coordination Sequence:
#
# PCOD9111313 Si02
#       8
#     2   2   2   2   2   2   2   2
#     4  11  23  43  70 100 136 183 227 291 344 417
#     4  10  20  42  72  93 130 181 228 280 342 420
#     4  11  25  44  71 101 144 187 227 294 356 419
#     4  11  22  44  70 100 134 184 239 279 346 420
#     4  10  22  42  65  98 132 177 228 290 341 412
#     4  12  26  43  67 100 139 178 243 289 349 411
#     4  11  25  42  71 104 139 182 236 278 354 422
#     4  10  22  40  70  97 135 175 231 284 349 402
#
# _framework density 22.072558999999998
#
# number of rings (size 3 to 8) (size 9 to 14) (size 15 to 20)
#    0.000    1.250    3.750    2.625    3.500    6.500 
#    0.000    0.625    0.000    0.000    0.000    0.000 
#    0.000    0.000    0.000    0.000    0.000    0.000 
#
# Total GULP energy -89388.497887 kJ/mol
# GULP energy per Si atom -5586.781118 kJ/mol
# Density = 2.202232 g / cm^3
# Si number density = 22.072559 Si / 1000 Ang^3
#
#
#
# Elastic Constant Matrix: (Units=GPa)
#
#
# Indices 1 2 3 4 5 6 
#
# 1 142.7698 98.2259 13.4606 -13.8999 11.2620 -21.5911
# 2 98.2259 173.7595 29.3287 2.9683 14.9267 -46.3801
# 3 13.4606 29.3287 97.0152 15.6704 -7.3696 -4.5625
# 4 -13.8999 2.9683 15.6704 -6.3610 14.3784 -0.0565
# 5 11.2620 14.9267 -7.3696 14.3784 19.8957 7.2370
# 6 -21.5911 -46.3801 -4.5625 -0.0565 7.2370 39.5557
#
#
#
# Elastic Compliance Matrix: (Units=1/GPa)
#
#
# Indices 1 2 3 4 5 6 
#
# 1 0.010533 -0.008079 0.002218 -0.005814 0.006842 -0.004728
# 2 -0.008079 0.016056 -0.002878 -0.005514 -0.010364 0.015972
# 3 0.002218 -0.002878 0.009030 0.009938 -0.002710 -0.000613
# 4 -0.005814 -0.005514 0.009938 -0.032011 0.040012 -0.015859
# 5 0.006842 -0.010364 -0.002710 0.040012 0.029353 -0.014043
# 6 -0.004728 0.015972 -0.000613 -0.015859 -0.014043 0.043904
#
#
# Mechanical properties :
#
#
# Convention : Reuss Voigt Hill
#
# Bulk Modulus (GPa) = 55.12891 77.28610 66.20750
# Shear Modulus (GPa) = 49.80540 28.78671 39.29606
#
# Velocity S-wave (km/s) = 4.75535 3.61527 4.22395
# Velocity P-wave (km/s) = 7.42843 7.24689 7.33822
#
# Compressibility (1/GPa) = 0.01813930
#
# Stress axis : x y z
#
# Youngs Moduli (GPa) = 94.94344 62.28329 110.73837
#
# Poissons Ratio (x) = 0.50317 -0.24556
# Poissons Ratio (y) = 0.76702 0.31875
# Poissons Ratio (z) = -0.21054 0.17928
#
# Static dielectric constant tensor:
#      x y z
#    x 1.803210 -0.035730 -0.016180 
#    y -0.035730 1.824860 -0.006730 
#    z -0.016180 -0.006730 1.863370 
# 
# From -- ./inp_files/570324.got.cif
#   From: 2010.05.17/outbox.cif.g08.bks.cpg/sg2_286_cif.got.tgz:570324.got - 2010.06.03 11:33:40.
