data_PCOD9111798
_publ_section_title
;
Structure prediction by ZEFSAII (Michael W. Deem and Ramdas Pophale) SiO2 
 PCOD9111798
Probable space group: P -1
;
_chemical_formula_sum "Si O2"
_cell_formula_units_Z 14
_cell_length_a 5.367777
_cell_length_b 24.082198
_cell_length_c 6.108685
_cell_angle_alpha 46.208456
_cell_angle_beta 89.618764
_cell_angle_gamma 96.176273
_cell_volume 563.083969
_symmetry_space_group_name_H-M "P -1"
_symmetry_group_IT_number 2
_symmetry_cell_setting 'triclinic'
loop_
_space_group_symop_operation_xyz
x,y,z
-x,-y,-z
loop_
_atom_site_type_symbol
_atom_site_label
_atom_site_fract_x
_atom_site_fract_y
_atom_site_fract_z
Si Si1 0.859231 0.899242 0.425333
Si Si2 0.499311 0.206578 0.976484
Si Si3 0.176657 0.238028 0.506431
Si Si4 0.681671 0.478041 0.246569
Si Si5 0.065839 0.623850 0.800117
Si Si6 0.482654 0.655131 0.086256
Si Si7 0.621935 0.056406 0.536211
O O1 0.923875 0.845548 0.370194
O O2 0.600578 0.936330 0.305641
O O3 0.109097 0.956841 0.336097
O O4 0.759244 0.839411 0.786161
O O5 0.417570 0.226219 0.682126
O O6 0.592464 0.282373 0.910765
O O7 0.675652 0.141791 0.188201
O O8 0.011904 0.292621 0.487922
O O9 0.264391 0.296837 0.145944
O O10 0.856706 0.421085 0.290748
O O11 0.519985 0.425668 0.569952
O O12 0.500000 0.500000 0.000000
O O13 0.850994 0.559049 0.085806
O O14 0.289716 0.638533 0.932859
O O15 0.500000 0.000000 0.500000
#
# Coordination Sequence:
#
# PCOD9111798 Si02
#       7
#     2   2   2   2   2   2   2
#     4   9  22  40  66  97 136 174 220 268 329 393
#     4   9  22  38  64  94 129 171 217 272 326 395
#     4  11  23  42  63  95 125 173 220 274 322 398
#     4  11  25  43  59  91 125 165 219 272 340 396
#     4  11  24  38  64  87 127 168 216 274 334 399
#     4  11  22  41  63  88 126 164 218 266 337 383
#     4  10  20  43  70  98 137 177 216 270 332 393
#
# _framework density 24.863077000000001
#
# number of rings (size 3 to 8) (size 9 to 14) (size 15 to 20)
#    0.857    0.857    0.000    4.286    0.000    9.143 
#    0.000    1.429    0.000    0.000    0.000    0.000 
#    0.000    0.000    0.000    0.000    0.000    0.000 
#
# Total GULP energy -78193.509239 kJ/mol
# GULP energy per Si atom -5585.250660 kJ/mol
# Density = 2.480649 g / cm^3
# Si number density = 24.863077 Si / 1000 Ang^3
#
#
#
# Elastic Constant Matrix: (Units=GPa)
#
#
# Indices 1 2 3 4 5 6 
#
# 1 87.5445 9.7574 -3.5254 -7.5511 -0.3350 7.5410
# 2 9.7574 116.7938 -17.4172 -16.0748 -9.4785 3.9651
# 3 -3.5254 -17.4172 81.4282 -11.1395 -6.1658 -1.9110
# 4 -7.5511 -16.0748 -11.1395 23.4620 -2.2267 1.8705
# 5 -0.3350 -9.4785 -6.1658 -2.2267 30.4941 -4.5163
# 6 7.5410 3.9651 -1.9110 1.8705 -4.5163 45.3667
#
#
#
# Elastic Compliance Matrix: (Units=1/GPa)
#
#
# Indices 1 2 3 4 5 6 
#
# 1 0.012051 -0.000126 0.001087 0.004507 0.000331 -0.002099
# 2 -0.000126 0.010954 0.004042 0.009898 0.004841 -0.000692
# 3 0.001087 0.004042 0.015053 0.010739 0.005121 0.000167
# 4 0.004507 0.009898 0.010739 0.057022 0.009075 -0.002610
# 5 0.000331 0.004841 0.005121 0.009075 0.036443 0.002991
# 6 -0.002099 -0.000692 0.000167 -0.002610 0.002991 0.022864
#
#
# Mechanical properties :
#
#
# Convention : Reuss Voigt Hill
#
# Bulk Modulus (GPa) = 20.80527 29.26625 25.03576
# Shear Modulus (GPa) = 31.17125 39.66134 35.41629
#
# Velocity S-wave (km/s) = 3.54463 3.99832 3.77829
# Velocity P-wave (km/s) = 5.01384 5.75429 5.39678
#
# Compressibility (1/GPa) = 0.04806474
#
# Stress axis : x y z
#
# Youngs Moduli (GPa) = 82.97746 91.28971 66.43102
#
# Poissons Ratio (x) = 0.01152 -0.07222
# Poissons Ratio (y) = 0.01047 -0.26851
# Poissons Ratio (z) = -0.09021 -0.36899
#
# Static dielectric constant tensor:
#      x y z
#    x 2.050300 -0.072290 -0.066920 
#    y -0.072290 1.951870 0.003940 
#    z -0.066920 0.003940 2.011780 
# 
# From -- ./inp_files/10248.got.cif
#   From: 2010.05.17/outbox.cif.g08.bks.cpg/sg2_6_cif.got.tgz:10248.got - 2010.06.03 11:33:40.
