data_PCOD9111572
_publ_section_title
;
Structure prediction by ZEFSAII (Michael W. Deem and Ramdas Pophale) SiO2 
 PCOD9111572
Probable space group: P -1
;
_chemical_formula_sum "Si O2"
_cell_formula_units_Z 16
_cell_length_a 10.122906
_cell_length_b 8.720414
_cell_length_c 28.676306
_cell_angle_alpha 43.605969
_cell_angle_beta 24.816487
_cell_angle_gamma 45.906996
_cell_volume 726.241950
_symmetry_space_group_name_H-M "P -1"
_symmetry_group_IT_number 2
_symmetry_cell_setting 'triclinic'
loop_
_space_group_symop_operation_xyz
x,y,z
-x,-y,-z
loop_
_atom_site_type_symbol
_atom_site_label
_atom_site_fract_x
_atom_site_fract_y
_atom_site_fract_z
Si Si1 0.512601 0.347547 0.122917
Si Si2 0.646960 0.132464 0.965002
Si Si3 0.846590 0.482503 0.603967
Si Si4 0.312392 0.008219 0.427534
Si Si5 0.260479 0.832300 0.815222
Si Si6 0.841274 0.548895 0.144263
Si Si7 0.648722 0.862896 0.437422
Si Si8 0.151995 0.189540 0.191534
O O1 0.381204 0.608848 0.098309
O O2 0.518445 0.286911 0.188806
O O3 0.284868 0.211251 0.195765
O O4 0.877055 0.313503 0.993397
O O5 0.445166 0.124685 0.077822
O O6 0.984590 0.989253 0.895145
O O7 0.500000 0.000000 0.000000
O O8 0.722284 0.737710 0.599133
O O9 0.528763 0.363431 0.743676
O O10 0.000000 0.500000 0.500000
O O11 0.142075 0.368031 0.564825
O O12 0.591304 0.995333 0.303574
O O13 0.394212 0.851803 0.480428
O O14 0.000000 0.000000 0.500000
O O15 0.160786 0.637127 0.856083
O O16 0.979146 0.424278 0.174622
O O17 0.500000 0.000000 0.500000
O O18 0.903593 0.016627 0.303444
#
# Coordination Sequence:
#
# PCOD9111572 Si02
#       8
#     2   2   2   2   2   2   2   2
#     4  11  25  40  63 101 136 171 220 277 327 387
#     4  11  21  40  69  93 133 177 216 260 339 395
#     4  11  23  44  74  98 128 182 223 270 344 399
#     4  11  26  49  67 102 137 164 231 286 324 403
#     4  11  23  41  65  96 132 175 215 268 331 400
#     4  10  20  43  66  93 138 170 220 271 326 398
#     4  12  24  46  74  93 131 181 219 275 344 395
#     4  11  23  44  64  98 137 170 222 279 323 395
#
# _framework density 22.031227000000001
#
# number of rings (size 3 to 8) (size 9 to 14) (size 15 to 20)
#    0.000    1.000    6.250    1.875    3.500    4.000 
#    9.000    0.000    0.000    0.000    0.000    0.000 
#    0.000    0.000    0.000    0.000    0.000    0.000 
#
# Total GULP energy -89315.018493 kJ/mol
# GULP energy per Si atom -5582.188656 kJ/mol
# Density = 2.198108 g / cm^3
# Si number density = 22.031227 Si / 1000 Ang^3
#
#
#
# Elastic Constant Matrix: (Units=GPa)
#
#
# Indices 1 2 3 4 5 6 
#
# 1 142.0301 12.5797 19.2853 2.5600 2.9034 -26.8598
# 2 12.5797 59.4097 13.3361 19.5487 5.2168 -20.0402
# 3 19.2853 13.3361 33.5566 16.9341 6.3927 -12.3527
# 4 2.5600 19.5487 16.9341 28.0409 -5.3165 -1.9646
# 5 2.9034 5.2168 6.3927 -5.3165 29.4904 -5.6399
# 6 -26.8598 -20.0402 -12.3527 -1.9646 -5.6399 32.0280
#
#
#
# Elastic Compliance Matrix: (Units=1/GPa)
#
#
# Indices 1 2 3 4 5 6 
#
# 1 0.008709 0.000332 -0.004313 0.002329 0.001640 0.006279
# 2 0.000332 0.031902 0.011751 -0.029679 -0.009504 0.021278
# 3 -0.004313 0.011751 0.064177 -0.048844 -0.020176 0.021939
# 4 0.002329 -0.029679 -0.048844 0.088950 0.026810 -0.025278
# 5 0.001640 -0.009504 -0.020176 0.026810 0.044072 -0.002948
# 6 0.006279 0.021278 0.021939 -0.025278 -0.002948 0.056194
#
#
# Mechanical properties :
#
#
# Convention : Reuss Voigt Hill
#
# Bulk Modulus (GPa) = 8.31063 36.15541 22.23302
# Shear Modulus (GPa) = 15.69493 30.56486 23.12989
#
# Velocity S-wave (km/s) = 2.67197 3.72875 3.24368
# Velocity P-wave (km/s) = 3.64686 5.91478 4.91347
#
# Compressibility (1/GPa) = 0.12032782
#
# Stress axis : x y z
#
# Youngs Moduli (GPa) = 114.82283 31.34615 15.58179
#
# Poissons Ratio (x) = -0.01041 0.06721
# Poissons Ratio (y) = -0.03812 -0.18310
# Poissons Ratio (z) = 0.49526 -0.36835
#
# Static dielectric constant tensor:
#      x y z
#    x 1.721920 -0.168640 -0.059570 
#    y -0.168640 1.674230 0.005760 
#    z -0.059570 0.005760 1.865690 
# 
# From -- ./inp_files/606650.got.cif
#   From: 2010.05.17/outbox.cif.g08.bks.cpg/sg2_304_cif.got.tgz:606650.got - 2010.06.03 11:33:40.
