data_PCOD9111743
_publ_section_title
;
Structure prediction by ZEFSAII (Michael W. Deem and Ramdas Pophale) SiO2 
 PCOD9111743
Probable space group: P -1
;
_chemical_formula_sum "Si O2"
_cell_formula_units_Z 16
_cell_length_a 14.127546
_cell_length_b 11.303987
_cell_length_c 8.205592
_cell_angle_alpha 99.402574
_cell_angle_beta 121.247206
_cell_angle_gamma 46.653640
_cell_volume 774.600281
_symmetry_space_group_name_H-M "P -1"
_symmetry_group_IT_number 2
_symmetry_cell_setting 'triclinic'
loop_
_space_group_symop_operation_xyz
x,y,z
-x,-y,-z
loop_
_atom_site_type_symbol
_atom_site_label
_atom_site_fract_x
_atom_site_fract_y
_atom_site_fract_z
Si Si1 0.854060 0.520048 0.865793
Si Si2 0.740884 0.495801 0.418778
Si Si3 0.917641 0.052735 0.109898
Si Si4 0.382333 0.863878 0.198126
Si Si5 0.275106 0.993926 0.504153
Si Si6 0.841518 0.161052 0.490583
Si Si7 0.921259 0.331480 0.218975
Si Si8 0.558503 0.922935 0.719707
O O1 0.830068 0.477912 0.655989
O O2 0.695914 0.720270 0.792165
O O3 0.874371 0.418244 0.019177
O O4 0.000000 0.500000 0.000000
O O5 0.560970 0.680115 0.303245
O O6 0.739072 0.351701 0.387885
O O7 0.829788 0.459187 0.320360
O O8 0.893704 0.209353 0.174421
O O9 0.751474 0.116369 0.993015
O O10 0.058734 0.868149 0.274829
O O11 0.000000 0.000000 0.000000
O O12 0.330831 0.912032 0.353707
O O13 0.378605 0.998468 0.145930
O O14 0.248767 0.891558 0.557734
O O15 0.408980 0.978995 0.686419
O O16 0.110413 0.191708 0.382700
O O17 0.000000 0.000000 0.500000
O O18 0.500000 0.000000 0.500000
#
# Coordination Sequence:
#
# PCOD9111743 Si02
#       8
#     2   2   2   2   2   2   2   2
#     4  12  26  44  74 100 139 188 234 284 345 421
#     4  12  26  45  69 107 141 176 234 294 345 405
#     4  11  21  42  71  97 134 183 231 278 342 419
#     4  11  23  42  70  99 140 185 226 292 346 408
#     4  10  20  43  69  94 139 186 226 280 347 419
#     4  11  22  42  67 101 134 179 228 283 351 402
#     4  11  25  45  70 107 137 177 238 286 345 411
#     4  10  21  44  67  98 134 183 231 278 347 415
#
# _framework density 20.655815
#
# number of rings (size 3 to 8) (size 9 to 14) (size 15 to 20)
#    0.000    1.000    7.500    2.250    1.750    2.500 
#    2.250    0.625    0.000    0.000    0.000    0.000 
#    0.000    0.000    0.000    0.000    0.000    0.000 
#
# Total GULP energy -89139.501820 kJ/mol
# GULP energy per Si atom -5571.218864 kJ/mol
# Density = 2.060880 g / cm^3
# Si number density = 20.655815 Si / 1000 Ang^3
#
#
#
# Elastic Constant Matrix: (Units=GPa)
#
#
# Indices 1 2 3 4 5 6 
#
# 1 128.6882 52.8101 38.5285 6.3099 24.6214 0.2175
# 2 52.8101 85.4698 7.3637 -8.9739 -8.0355 -10.6182
# 3 38.5285 7.3637 42.7824 -2.1254 4.5672 -0.7488
# 4 6.3099 -8.9739 -2.1254 23.6593 -0.8820 -2.3605
# 5 24.6214 -8.0355 4.5672 -0.8820 41.6820 0.5694
# 6 0.2175 -10.6182 -0.7488 -2.3605 0.5694 42.2502
#
#
#
# Elastic Compliance Matrix: (Units=1/GPa)
#
#
# Indices 1 2 3 4 5 6 
#
# 1 0.023754 -0.016907 -0.017677 -0.015450 -0.015608 -0.005337
# 2 -0.016907 0.025182 0.010337 0.016239 0.013952 0.007318
# 3 -0.017677 0.010337 0.037300 0.012699 0.008562 0.003944
# 4 -0.015450 0.016239 0.012699 0.054860 0.011927 0.007290
# 5 -0.015608 0.013952 0.008562 0.011927 0.035161 0.003931
# 6 -0.005337 0.007318 0.003944 0.007290 0.003931 0.025959
#
#
# Mechanical properties :
#
#
# Convention : Reuss Voigt Hill
#
# Bulk Modulus (GPa) = 26.49567 50.48276 38.48921
# Shear Modulus (GPa) = 18.99054 32.06750 25.52902
#
# Velocity S-wave (km/s) = 3.03542 3.94441 3.51939
# Velocity P-wave (km/s) = 5.01399 6.72589 5.93202
#
# Compressibility (1/GPa) = 0.03774202
#
# Stress axis : x y z
#
# Youngs Moduli (GPa) = 42.09862 39.71141 26.80973
#
# Poissons Ratio (x) = 0.67139 0.47391
# Poissons Ratio (y) = 0.71175 -0.27712
# Poissons Ratio (z) = 0.74416 -0.41048
#
# Static dielectric constant tensor:
#      x y z
#    x 1.746600 0.001240 -0.012690 
#    y 0.001240 1.740300 0.120140 
#    z -0.012690 0.120140 1.818490 
# 
# From -- ./inp_files/305402.got.cif
#   From: 2010.05.17/outbox.cif.g08.bks.cpg/sg2_153_cif.got.tgz:305402.got - 2010.06.03 11:33:40.
