data_PCOD9111183
_publ_section_title
;
Structure prediction by ZEFSAII (Michael W. Deem and Ramdas Pophale) SiO2 
 PCOD9111183
Probable space group: P -1
;
_chemical_formula_sum "Si O2"
_cell_formula_units_Z 13
_cell_length_a 9.461709
_cell_length_b 8.423706
_cell_length_c 11.753338
_cell_angle_alpha 119.509055
_cell_angle_beta 49.693602
_cell_angle_gamma 89.621076
_cell_volume 541.935675
_symmetry_space_group_name_H-M "P -1"
_symmetry_group_IT_number 2
_symmetry_cell_setting 'triclinic'
loop_
_space_group_symop_operation_xyz
x,y,z
-x,-y,-z
loop_
_atom_site_type_symbol
_atom_site_label
_atom_site_fract_x
_atom_site_fract_y
_atom_site_fract_z
Si Si1 0.933256 0.766309 0.373118
Si Si2 0.334479 0.782405 0.593998
Si Si3 0.500000 0.000000 0.000000
Si Si4 0.647113 0.633180 0.189299
Si Si5 0.030140 0.233474 0.909122
Si Si6 0.350069 0.794302 0.205519
Si Si7 0.352717 0.353694 0.401508
O O1 0.914033 0.745922 0.242730
O O2 0.867998 0.620657 0.425351
O O3 0.163003 0.741580 0.262527
O O4 0.764526 0.995838 0.584105
O O5 0.482262 0.794248 0.422488
O O6 0.310054 0.588810 0.492766
O O7 0.467328 0.738299 0.625336
O O8 0.108088 0.991070 0.800515
O O9 0.564921 0.135483 0.922551
O O10 0.574359 0.806479 0.797792
O O11 0.811554 0.708588 0.086692
O O12 0.523575 0.625744 0.140423
O O13 0.785699 0.411747 0.105374
#
# Coordination Sequence:
#
# PCOD9111183 Si02
#       7
#     2   2   1   2   2   2   2
#     4  10  20  42  70 102 138 196 235 299 358 448
#     4  11  22  45  76 109 146 195 242 316 359 431
#     4  10  22  44  70 112 146 192 240 302 362 446
#     4  11  23  41  74 110 136 200 245 306 357 449
#     4  11  22  40  74 106 141 182 256 296 365 432
#     4  10  22  41  73 103 146 189 247 294 372 427
#     4  10  23  43  75 108 152 190 246 302 376 422
#
# _framework density 23.988084000000001
#
# number of rings (size 3 to 8) (size 9 to 14) (size 15 to 20)
#    0.000    1.538    3.077    2.308    2.154    0.615 
#    0.000    5.385    0.000    0.923    0.000    0.000 
#    0.000    0.000    0.000    0.000    0.000    0.000 
#
# Total GULP energy -72405.319230 kJ/mol
# GULP energy per Si atom -5569.639941 kJ/mol
# Density = 2.393349 g / cm^3
# Si number density = 23.988084 Si / 1000 Ang^3
#
#
#
# Elastic Constant Matrix: (Units=GPa)
#
#
# Indices 1 2 3 4 5 6 
#
# 1 82.2518 57.9214 24.2884 -15.6086 -1.6580 8.6731
# 2 57.9214 105.8967 41.2302 15.7425 -9.6552 23.2191
# 3 24.2884 41.2302 98.7406 4.4945 18.7597 -4.0609
# 4 -15.6086 15.7425 4.4945 43.6182 -3.5479 3.2526
# 5 -1.6580 -9.6552 18.7597 -3.5479 32.8898 2.7672
# 6 8.6731 23.2191 -4.0609 3.2526 2.7672 31.0299
#
#
#
# Elastic Compliance Matrix: (Units=1/GPa)
#
#
# Indices 1 2 3 4 5 6 
#
# 1 0.028482 -0.020617 0.001962 0.016590 -0.004483 0.006384
# 2 -0.020617 0.033848 -0.012257 -0.015467 0.015984 -0.020973
# 3 0.001962 -0.012257 0.017995 0.001172 -0.014660 0.012163
# 4 0.016590 -0.015467 0.001172 0.033972 -0.001013 0.003619
# 5 -0.004483 0.015984 -0.014660 -0.001013 0.044511 -0.016490
# 6 0.006384 -0.020973 0.012163 0.003619 -0.016490 0.048819
#
#
# Mechanical properties :
#
#
# Convention : Reuss Voigt Hill
#
# Bulk Modulus (GPa) = 54.05507 59.30768 56.68138
# Shear Modulus (GPa) = 18.14104 32.40419 25.27262
#
# Velocity S-wave (km/s) = 2.75299 3.67937 3.24936
# Velocity P-wave (km/s) = 5.71737 6.54430 6.14476
#
# Compressibility (1/GPa) = 0.01849965
#
# Stress axis : x y z
#
# Youngs Moduli (GPa) = 35.11039 29.54428 55.57006
#
# Poissons Ratio (x) = 0.60912 -0.10904
# Poissons Ratio (y) = 0.72387 0.68114
# Poissons Ratio (z) = -0.06889 0.36214
#
# Static dielectric constant tensor:
#      x y z
#    x 1.899580 0.017060 -0.018360 
#    y 0.017060 1.969470 0.029010 
#    z -0.018360 0.029010 1.926760 
# 
# From -- ./inp_files/380205.got.cif
#   From: 2010.05.17/outbox.cif.g08.bks.cpg/sg2_191_cif.got.tgz:380205.got - 2010.06.03 11:33:40.
