data_PCOD9111015
_publ_section_title
;
Structure prediction by ZEFSAII (Michael W. Deem and Ramdas Pophale) SiO2 
 PCOD9111015
Probable space group: P -1
;
_chemical_formula_sum "Si O2"
_cell_formula_units_Z 13
_cell_length_a 13.100575
_cell_length_b 14.928754
_cell_length_c 5.364446
_cell_angle_alpha 93.829713
_cell_angle_beta 78.343125
_cell_angle_gamma 151.437942
_cell_volume 477.347058
_symmetry_space_group_name_H-M "P -1"
_symmetry_group_IT_number 2
_symmetry_cell_setting 'triclinic'
loop_
_space_group_symop_operation_xyz
x,y,z
-x,-y,-z
loop_
_atom_site_type_symbol
_atom_site_label
_atom_site_fract_x
_atom_site_fract_y
_atom_site_fract_z
Si Si1 0.225305 0.218331 0.533737
Si Si2 0.000000 0.500000 0.000000
Si Si3 0.710613 0.959344 0.108751
Si Si4 0.402656 0.801300 0.592957
Si Si5 0.548621 0.342835 0.174012
Si Si6 0.737307 0.147118 0.804835
Si Si7 0.828904 0.716020 0.907782
O O1 0.432470 0.306773 0.451245
O O2 0.281015 0.328434 0.295983
O O3 0.194497 0.242048 0.820402
O O4 0.000000 0.000000 0.500000
O O5 0.090232 0.642454 0.196208
O O6 0.824748 0.321839 0.258630
O O7 0.469691 0.806469 0.305018
O O8 0.653288 0.830163 0.947794
O O9 0.904380 0.087046 0.231791
O O10 0.805693 0.109927 0.912433
O O11 0.368998 0.693036 0.788977
O O12 0.633257 0.029898 0.577446
O O13 0.728874 0.542828 0.992742
O O14 0.500000 0.000000 0.000000
#
# Coordination Sequence:
#
# PCOD9111015 Si02
#       7
#     2   1   2   2   2   2   2
#     4  12  25  46  70 100 144 186 234 284 344 401
#     4  10  20  42  68  90 132 168 224 274 350 406
#     4  11  24  42  67  98 136 179 227 282 348 405
#     4  10  23  41  67  94 135 173 223 284 341 413
#     4  11  25  43  67 100 137 178 230 283 341 405
#     4   9  21  41  62  95 128 172 219 279 340 412
#     4  12  27  43  71 103 139 188 234 285 339 408
#
# _framework density 27.233855999999999
#
# number of rings (size 3 to 8) (size 9 to 14) (size 15 to 20)
#    0.000    1.231    1.538    3.231    6.462    3.692 
#    0.000    7.692    0.000    0.000    0.000    0.000 
#    0.000    0.000    0.000    0.000    0.000    0.000 
#
# Total GULP energy -72505.552975 kJ/mol
# GULP energy per Si atom -5577.350229 kJ/mol
# Density = 2.717187 g / cm^3
# Si number density = 27.233856 Si / 1000 Ang^3
#
#
#
# Elastic Constant Matrix: (Units=GPa)
#
#
# Indices 1 2 3 4 5 6 
#
# 1 38.4916 19.5488 13.7309 4.0399 23.9508 -5.3435
# 2 19.5488 190.0592 20.1688 -9.6301 10.6534 -20.0945
# 3 13.7309 20.1688 127.2453 6.0426 -5.4397 -16.1083
# 4 4.0399 -9.6301 6.0426 43.2034 -10.9171 0.3758
# 5 23.9508 10.6534 -5.4397 -10.9171 44.2623 -11.2025
# 6 -5.3435 -20.0945 -16.1083 0.3758 -11.2025 40.4863
#
#
#
# Elastic Compliance Matrix: (Units=1/GPa)
#
#
# Indices 1 2 3 4 5 6 
#
# 1 0.050761 -0.004091 -0.006437 -0.012817 -0.032121 -0.006661
# 2 -0.004091 0.006007 -0.000160 0.002234 0.002039 0.002921
# 3 -0.006437 -0.000160 0.009362 0.000728 0.005976 0.004443
# 4 -0.012817 0.002234 0.000728 0.028335 0.014339 0.003411
# 5 -0.032121 0.002039 0.005976 0.014339 0.046781 0.011961
# 6 -0.006661 0.002921 0.004443 0.003411 0.011961 0.030316
#
#
# Mechanical properties :
#
#
# Convention : Reuss Voigt Hill
#
# Bulk Modulus (GPa) = 22.34418 51.41035 36.87726
# Shear Modulus (GPa) = 24.05520 45.74692 34.90106
#
# Velocity S-wave (km/s) = 2.97523 4.10296 3.58373
# Velocity P-wave (km/s) = 4.47494 6.43149 5.54027
#
# Compressibility (1/GPa) = 0.04475439
#
# Stress axis : x y z
#
# Youngs Moduli (GPa) = 19.70027 166.47132 106.81404
#
# Poissons Ratio (x) = 0.68107 0.68754
# Poissons Ratio (y) = 0.08060 0.01707
# Poissons Ratio (z) = 0.12681 0.02660
#
# Static dielectric constant tensor:
#      x y z
#    x 3.344350 0.696110 -0.907740 
#    y 0.696110 2.710740 -0.478100 
#    z -0.907740 -0.478100 3.062020 
# 
# From -- ./inp_files/31563.got.cif
#   From: 2010.05.17/outbox.cif.g08.bks.cpg/sg2_16_cif.got.tgz:31563.got - 2010.06.03 11:33:40.
