data_PCOD9111699
_publ_section_title
;
Structure prediction by ZEFSAII (Michael W. Deem and Ramdas Pophale) SiO2 
 PCOD9111699
Probable space group: P -1
;
_chemical_formula_sum "Si O2"
_cell_formula_units_Z 16
_cell_length_a 14.576303
_cell_length_b 8.748588
_cell_length_c 16.534622
_cell_angle_alpha 134.670212
_cell_angle_beta 146.330655
_cell_angle_gamma 41.095673
_cell_volume 751.563946
_symmetry_space_group_name_H-M "P -1"
_symmetry_group_IT_number 2
_symmetry_cell_setting 'triclinic'
loop_
_space_group_symop_operation_xyz
x,y,z
-x,-y,-z
loop_
_atom_site_type_symbol
_atom_site_label
_atom_site_fract_x
_atom_site_fract_y
_atom_site_fract_z
Si Si1 0.302782 0.612294 0.935149
Si Si2 0.942830 0.291320 0.366284
Si Si3 0.169991 0.754321 0.555925
Si Si4 0.573792 0.631520 0.759808
Si Si5 0.829703 0.216224 0.710682
Si Si6 0.165448 0.157565 0.057642
Si Si7 0.076873 0.540797 0.266957
Si Si8 0.327080 0.255006 0.960061
O O1 0.173594 0.651013 0.778610
O O2 0.304929 0.414482 0.924946
O O3 0.500000 0.500000 0.000000
O O4 0.248898 0.875382 0.028864
O O5 0.835768 0.274564 0.362369
O O6 0.000000 0.500000 0.500000
O O7 0.114069 0.045410 0.377918
O O8 0.135909 0.549127 0.405367
O O9 0.356188 0.757157 0.659359
O O10 0.000000 0.000000 0.500000
O O11 0.643062 0.367362 0.676513
O O12 0.679159 0.769776 0.841420
O O13 0.653350 0.600688 0.896298
O O14 0.500000 0.000000 0.000000
O O15 0.806317 0.367983 0.669258
O O16 0.996337 0.218730 0.891547
O O17 0.096520 0.304252 0.145684
O O18 0.870420 0.744594 0.179177
#
# Coordination Sequence:
#
# PCOD9111699 Si02
#       8
#     2   2   2   2   2   2   2   2
#     4  11  25  43  65 100 134 172 222 279 344 397
#     4  11  25  48  65  92 141 182 218 279 342 395
#     4  12  25  42  66 102 136 179 234 271 324 406
#     4  11  22  41  69  98 135 176 224 280 330 399
#     4  10  20  43  68  97 136 174 226 277 335 396
#     4  10  21  42  69 100 137 170 220 281 344 389
#     4  11  21  41  67  99 134 174 225 275 330 398
#     4  12  23  39  72  99 128 174 229 279 328 397
#
# _framework density 21.28894
#
# number of rings (size 3 to 8) (size 9 to 14) (size 15 to 20)
#    0.000    1.000    3.750    3.750    1.750    3.500 
#    4.500    0.625    0.000    0.000    0.000    0.000 
#    0.000    0.000    0.000    0.000    0.000    0.000 
#
# Total GULP energy -89263.799154 kJ/mol
# GULP energy per Si atom -5578.987447 kJ/mol
# Density = 2.124049 g / cm^3
# Si number density = 21.288940 Si / 1000 Ang^3
#
#
#
# Elastic Constant Matrix: (Units=GPa)
#
#
# Indices 1 2 3 4 5 6 
#
# 1 96.9792 51.1924 30.8323 0.6954 -17.0277 -14.8771
# 2 51.1924 128.8556 42.8032 21.3507 -11.4773 -12.1154
# 3 30.8323 42.8032 91.7112 23.4352 -15.3695 -7.2430
# 4 0.6954 21.3507 23.4352 39.4234 -8.2849 -3.8692
# 5 -17.0277 -11.4773 -15.3695 -8.2849 36.6513 -11.0977
# 6 -14.8771 -12.1154 -7.2430 -3.8692 -11.0977 34.9554
#
#
#
# Elastic Compliance Matrix: (Units=1/GPa)
#
#
# Indices 1 2 3 4 5 6 
#
# 1 0.016846 -0.005325 -0.002766 0.006975 0.009125 0.008420
# 2 -0.005325 0.011439 -0.002440 -0.004799 -0.000885 0.000381
# 3 -0.002766 -0.002440 0.015415 -0.006963 0.003277 0.001441
# 4 0.006975 -0.004799 -0.006963 0.034398 0.008524 0.006376
# 5 0.009125 -0.000885 0.003277 0.008524 0.039964 0.017887
# 6 0.008420 0.000381 0.001441 0.006376 0.017887 0.039006
#
#
# Mechanical properties :
#
#
# Convention : Reuss Voigt Hill
#
# Bulk Modulus (GPa) = 44.17702 63.02240 53.59971
# Shear Modulus (GPa) = 26.92861 35.05389 30.99125
#
# Velocity S-wave (km/s) = 3.56042 4.06221 3.81956
# Velocity P-wave (km/s) = 6.13989 7.18816 6.68461
#
# Compressibility (1/GPa) = 0.02263620
#
# Stress axis : x y z
#
# Youngs Moduli (GPa) = 59.36272 87.42050 64.87191
#
# Poissons Ratio (x) = 0.46551 0.17945
# Poissons Ratio (y) = 0.31610 0.15832
# Poissons Ratio (z) = 0.16421 0.21335
#
# Static dielectric constant tensor:
#      x y z
#    x 4.476030 -0.571980 1.238740 
#    y -0.571980 1.887550 -0.170420 
#    z 1.238740 -0.170420 2.382070 
# 
# From -- ./inp_files/516295.got.cif
#   From: 2010.05.17/outbox.cif.g08.bks.cpg/sg2_259_cif.got.tgz:516295.got - 2010.06.03 11:33:40.
