data_PCOD9111789
_publ_section_title
;
Structure prediction by ZEFSAII (Michael W. Deem and Ramdas Pophale) SiO2 
 PCOD9111789
Probable space group: P -1
;
_chemical_formula_sum "Si O2"
_cell_formula_units_Z 16
_cell_length_a 7.074554
_cell_length_b 19.878316
_cell_length_c 11.293931
_cell_angle_alpha 43.889167
_cell_angle_beta 61.991770
_cell_angle_gamma 43.374471
_cell_volume 751.264447
_symmetry_space_group_name_H-M "P -1"
_symmetry_group_IT_number 2
_symmetry_cell_setting 'triclinic'
loop_
_space_group_symop_operation_xyz
x,y,z
-x,-y,-z
loop_
_atom_site_type_symbol
_atom_site_label
_atom_site_fract_x
_atom_site_fract_y
_atom_site_fract_z
Si Si1 0.847660 0.596344 0.533901
Si Si2 0.187264 0.203187 0.833515
Si Si3 0.129449 0.492200 0.101170
Si Si4 0.328250 0.142676 0.336978
Si Si5 0.146946 0.991653 0.086551
Si Si6 0.948136 0.742019 0.944069
Si Si7 0.208162 0.807828 0.482973
Si Si8 0.354509 0.779295 0.728886
O O1 0.877419 0.704353 0.370564
O O2 0.951521 0.536782 0.711580
O O3 0.509758 0.678881 0.519019
O O4 0.000000 0.500000 0.500000
O O5 0.516931 0.104706 0.885445
O O6 0.069949 0.285746 0.881979
O O7 0.075773 0.126080 0.952135
O O8 0.447272 0.370815 0.151967
O O9 0.082287 0.618125 0.983776
O O10 0.000000 0.500000 0.000000
O O11 0.472722 0.192883 0.287417
O O12 0.326885 0.158844 0.175790
O O13 0.020144 0.207765 0.396320
O O14 0.500000 0.000000 0.500000
O O15 0.083710 0.925711 0.284862
O O16 0.000000 0.000000 0.000000
O O17 0.085595 0.808496 0.825042
O O18 0.276571 0.840705 0.545421
#
# Coordination Sequence:
#
# PCOD9111789 Si02
#       8
#     2   2   2   2   2   2   2   2
#     4  10  20  43  70  96 135 174 216 279 336 401
#     4  10  23  41  65  98 128 173 217 271 332 402
#     4  11  21  42  69  96 130 173 223 278 336 395
#     4  11  25  39  64  99 132 176 222 279 329 397
#     4  10  23  41  65  90 129 173 218 270 331 399
#     4  11  23  40  66  98 131 169 229 270 335 402
#     4   9  23  40  64  93 132 171 221 267 339 392
#     4  10  23  41  63  92 133 173 215 275 339 393
#
# _framework density 21.297426999999999
#
# number of rings (size 3 to 8) (size 9 to 14) (size 15 to 20)
#    0.000    1.750    2.500    0.375    5.250    4.000 
#    0.000    0.000    0.000    5.250    0.000    0.000 
#    0.000    0.000    0.000    0.000    0.000    0.000 
#
# Total GULP energy -89114.579470 kJ/mol
# GULP energy per Si atom -5569.661217 kJ/mol
# Density = 2.124895 g / cm^3
# Si number density = 21.297427 Si / 1000 Ang^3
#
#
#
# Elastic Constant Matrix: (Units=GPa)
#
#
# Indices 1 2 3 4 5 6 
#
# 1 124.4864 25.1448 69.3082 11.0757 -0.5183 16.7499
# 2 25.1448 54.4043 21.6443 -0.6074 -6.1749 14.6047
# 3 69.3082 21.6443 162.0399 -0.9746 21.2062 13.3592
# 4 11.0757 -0.6074 -0.9746 31.0291 7.2932 2.4782
# 5 -0.5183 -6.1749 21.2062 7.2932 32.8994 -6.4786
# 6 16.7499 14.6047 13.3592 2.4782 -6.4786 14.2859
#
#
#
# Elastic Compliance Matrix: (Units=1/GPa)
#
#
# Indices 1 2 3 4 5 6 
#
# 1 0.012428 -0.001934 -0.005015 -0.004890 0.003030 -0.005682
# 2 -0.001934 0.026102 -0.000571 0.003222 -0.000319 -0.024586
# 3 -0.005015 -0.000571 0.010394 0.005063 -0.009688 -0.008528
# 4 -0.004890 0.003222 0.005063 0.038825 -0.014408 -0.015564
# 5 0.003030 -0.000319 -0.009688 -0.014408 0.045528 0.028979
# 6 -0.005682 -0.024586 -0.008528 -0.015564 0.028979 0.125612
#
#
# Mechanical properties :
#
#
# Convention : Reuss Voigt Hill
#
# Bulk Modulus (GPa) = 29.51299 63.68058 46.59678
# Shear Modulus (GPa) = 17.53008 30.63177 24.08092
#
# Velocity S-wave (km/s) = 2.87210 3.79659 3.36623
# Velocity P-wave (km/s) = 4.98861 7.01315 6.08566
#
# Compressibility (1/GPa) = 0.03388339
#
# Stress axis : x y z
#
# Youngs Moduli (GPa) = 80.46357 38.31128 96.20990
#
# Poissons Ratio (x) = 0.07410 0.48249
# Poissons Ratio (y) = 0.15563 0.05495
# Poissons Ratio (z) = 0.40352 0.02188
#
# Static dielectric constant tensor:
#      x y z
#    x 1.799760 -0.041740 -0.047520 
#    y -0.041740 1.861040 0.077230 
#    z -0.047520 0.077230 1.893650 
# 
# From -- ./inp_files/81596.got.cif
#   From: 2010.05.17/outbox.cif.g08.bks.cpg/sg2_41_cif.got.tgz:81596.got - 2010.06.03 11:33:40.
