data_PCOD9111394
_publ_section_title
;
Structure prediction by ZEFSAII (Michael W. Deem and Ramdas Pophale) SiO2 
 PCOD9111394
Probable space group: P -1
;
_chemical_formula_sum "Si O2"
_cell_formula_units_Z 12
_cell_length_a 7.073161
_cell_length_b 13.113222
_cell_length_c 10.361537
_cell_angle_alpha 36.944693
_cell_angle_beta 132.068706
_cell_angle_gamma 114.846695
_cell_volume 414.237649
_symmetry_space_group_name_H-M "P -1"
_symmetry_group_IT_number 2
_symmetry_cell_setting 'triclinic'
loop_
_space_group_symop_operation_xyz
x,y,z
-x,-y,-z
loop_
_atom_site_type_symbol
_atom_site_label
_atom_site_fract_x
_atom_site_fract_y
_atom_site_fract_z
Si Si1 0.164892 0.604440 0.360804
Si Si2 0.773131 0.791222 0.267613
Si Si3 0.216622 0.798331 0.938887
Si Si4 0.506115 0.303844 0.343952
Si Si5 0.867440 0.357239 0.211705
Si Si6 0.153104 0.035158 0.201896
O O1 0.136397 0.407787 0.548178
O O2 0.263791 0.642055 0.225122
O O3 0.360589 0.638259 0.526678
O O4 0.901357 0.768012 0.074641
O O5 0.471915 0.867680 0.014827
O O6 0.936816 0.931163 0.162764
O O7 0.846451 0.737484 0.505723
O O8 0.204646 0.732667 0.857127
O O9 0.946398 0.930029 0.730792
O O10 0.676650 0.335228 0.265247
O O11 0.570119 0.094025 0.576301
O O12 0.216378 0.432335 0.065311
#
# Coordination Sequence:
#
# PCOD9111394 Si02
#       6
#     2   2   2   2   2   2
#     4  10  22  40  67  93 126 163 207 263 305 368
#     4  11  21  41  68  92 123 169 209 248 321 366
#     4  10  22  43  63  95 127 160 211 263 300 370
#     4  10  20  43  60  92 134 159 204 266 307 362
#     4  10  23  38  69  92 124 170 206 255 312 372
#     4   9  23  38  69  92 123 167 208 257 309 369
#
# _framework density 28.968879000000001
#
# number of rings (size 3 to 8) (size 9 to 14) (size 15 to 20)
#    1.000    1.000    1.667    1.500    0.000    6.000 
#    0.000    0.833    7.333    0.000    0.000    0.000 
#    0.000    0.000    0.000    0.000    0.000    0.000 
#
# Total GULP energy -67191.439157 kJ/mol
# GULP energy per Si atom -5599.286596 kJ/mol
# Density = 2.890294 g / cm^3
# Si number density = 28.968879 Si / 1000 Ang^3
#
#
#
# Elastic Constant Matrix: (Units=GPa)
#
#
# Indices 1 2 3 4 5 6 
#
# 1 91.8391 67.7425 63.5819 17.5157 -1.5702 9.6067
# 2 67.7425 192.0573 83.5808 27.6309 9.7847 -25.1609
# 3 63.5819 83.5808 202.4976 -10.6330 4.5571 -6.1618
# 4 17.5157 27.6309 -10.6330 67.3604 1.4087 -7.7285
# 5 -1.5702 9.7847 4.5571 1.4087 53.2848 2.5965
# 6 9.6067 -25.1609 -6.1618 -7.7285 2.5965 54.1424
#
#
#
# Elastic Compliance Matrix: (Units=1/GPa)
#
#
# Indices 1 2 3 4 5 6 
#
# 1 0.019601 -0.005420 -0.004426 -0.004455 0.002423 -0.007252
# 2 -0.005420 0.008944 -0.001910 -0.001983 -0.001816 0.004705
# 3 -0.004426 -0.001910 0.007336 0.003244 -0.000553 0.001222
# 4 -0.004455 -0.001983 0.003244 0.017663 -0.000648 0.002791
# 5 0.002423 -0.001816 -0.000553 -0.000648 0.019351 -0.002357
# 6 -0.007252 0.004705 0.001222 0.002791 -0.002357 0.022593
#
#
# Mechanical properties :
#
#
# Convention : Reuss Voigt Hill
#
# Bulk Modulus (GPa) = 80.85036 101.80049 91.32542
# Shear Modulus (GPa) = 40.60954 53.05677 46.83315
#
# Velocity S-wave (km/s) = 3.74817 4.28426 4.02515
# Velocity P-wave (km/s) = 6.83386 7.72598 7.29357
#
# Compressibility (1/GPa) = 0.01236853
#
# Stress axis : x y z
#
# Youngs Moduli (GPa) = 51.01880 111.80993 136.30487
#
# Poissons Ratio (x) = 0.60599 0.60335
# Poissons Ratio (y) = 0.27651 0.26033
# Poissons Ratio (z) = 0.22583 0.21355
#
# Static dielectric constant tensor:
#      x y z
#    x 2.370920 -0.075340 -0.002600 
#    y -0.075340 2.237290 -0.017510 
#    z -0.002600 -0.017510 2.295420 
# 
# From -- ./inp_files/411710.got.cif
#   From: 2010.05.17/outbox.cif.g08.bks.cpg/sg2_206_cif.got.tgz:411710.got - 2010.06.03 11:33:40.
