data_PCOD9111897
_publ_section_title
;
Structure prediction by ZEFSAII (Michael W. Deem and Ramdas Pophale) SiO2 
 PCOD9111897
Probable space group: P -1
;
_chemical_formula_sum "Si O2"
_cell_formula_units_Z 12
_cell_length_a 7.686218
_cell_length_b 10.359559
_cell_length_c 6.017919
_cell_angle_alpha 73.151557
_cell_angle_beta 65.907583
_cell_angle_gamma 84.367829
_cell_volume 418.550599
_symmetry_space_group_name_H-M "P -1"
_symmetry_group_IT_number 2
_symmetry_cell_setting 'triclinic'
loop_
_space_group_symop_operation_xyz
x,y,z
-x,-y,-z
loop_
_atom_site_type_symbol
_atom_site_label
_atom_site_fract_x
_atom_site_fract_y
_atom_site_fract_z
Si Si1 0.329817 0.640462 0.017916
Si Si2 0.340788 0.889081 0.378006
Si Si3 0.659996 0.718689 0.156294
Si Si4 0.208678 0.933464 0.919293
Si Si5 0.047238 0.164869 0.394537
Si Si6 0.287924 0.381748 0.404674
O O1 0.490772 0.671934 0.107001
O O2 0.227022 0.502728 0.216552
O O3 0.202018 0.769458 0.998142
O O4 0.482742 0.626566 0.747419
O O5 0.549665 0.830084 0.300805
O O6 0.165237 0.781236 0.519659
O O7 0.310553 0.948998 0.107147
O O8 0.169305 0.210878 0.098234
O O9 0.735022 0.601888 0.330605
O O10 0.304828 0.957730 0.608509
O O11 0.000000 0.000000 0.000000
O O12 0.170838 0.244282 0.474943
O O13 0.000000 0.000000 0.500000
#
# Coordination Sequence:
#
# PCOD9111897 Si02
#       6
#     2   2   2   2   2   2
#     4   9  20  40  75 112 150 203 261 323 398 484
#     4  11  25  47  76 111 157 207 264 332 400 478
#     4  10  22  44  76 108 155 204 261 328 404 477
#     4  11  22  43  73 110 157 204 253 327 397 475
#     4  11  26  45  69 109 156 205 269 330 395 478
#     4  10  20  43  74 108 153 204 263 323 401 479
#
# _framework density 28.670368
#
# number of rings (size 3 to 8) (size 9 to 14) (size 15 to 20)
#    0.000    1.667    1.667    2.000    2.333    1.333 
#    0.000    6.667    0.000    0.000    0.000    0.000 
#    0.000    2.833    0.000    0.000    0.000    0.000 
#
# Total GULP energy -66875.535831 kJ/mol
# GULP energy per Si atom -5572.961319 kJ/mol
# Density = 2.860511 g / cm^3
# Si number density = 28.670368 Si / 1000 Ang^3
#
#
#
# Elastic Constant Matrix: (Units=GPa)
#
#
# Indices 1 2 3 4 5 6 
#
# 1 169.4577 41.5218 79.5514 -0.4336 -8.7936 -2.0101
# 2 41.5218 105.2421 50.7493 -20.5937 -2.3896 -3.1257
# 3 79.5514 50.7493 159.3464 5.8254 17.1284 20.6329
# 4 -0.4336 -20.5937 5.8254 53.7182 0.4032 2.9542
# 5 -8.7936 -2.3896 17.1284 0.4032 60.8449 7.1318
# 6 -2.0101 -3.1257 20.6329 2.9542 7.1318 54.7756
#
#
#
# Elastic Compliance Matrix: (Units=1/GPa)
#
#
# Indices 1 2 3 4 5 6 
#
# 1 0.008285 -0.001153 -0.004199 -0.000021 0.002154 0.001541
# 2 -0.001153 0.013094 -0.004162 0.005352 0.001271 0.001819
# 3 -0.004199 -0.004162 0.010642 -0.002548 -0.003300 -0.003833
# 4 -0.000021 0.005352 -0.002548 0.020936 0.000782 0.000034
# 5 0.002154 0.001271 -0.003300 0.000782 0.017834 -0.000970
# 6 0.001541 0.001819 -0.003833 0.000034 -0.000970 0.019985
#
#
# Mechanical properties :
#
#
# Convention : Reuss Voigt Hill
#
# Bulk Modulus (GPa) = 76.97225 86.41013 81.69119
# Shear Modulus (GPa) = 43.80752 51.34934 47.57843
#
# Velocity S-wave (km/s) = 3.91317 4.23664 4.07811
# Velocity P-wave (km/s) = 6.87916 7.35777 7.12248
#
# Compressibility (1/GPa) = 0.01299170
#
# Stress axis : x y z
#
# Youngs Moduli (GPa) = 120.70005 76.36945 93.96913
#
# Poissons Ratio (x) = 0.08807 0.39459
# Poissons Ratio (y) = 0.13920 0.39113
# Poissons Ratio (z) = 0.50683 0.31787
#
# Static dielectric constant tensor:
#      x y z
#    x 2.289540 -0.043820 0.068230 
#    y -0.043820 2.443700 0.056100 
#    z 0.068230 0.056100 2.397180 
# 
# From -- ./inp_files/167440.got.cif
#   From: 2010.05.17/outbox.cif.g08.bks.cpg/sg2_84_cif.got.tgz:167440.got - 2010.06.03 11:33:40.
