data_PCOD9111238
_publ_section_title
;
Structure prediction by ZEFSAII (Michael W. Deem and Ramdas Pophale) SiO2 
 PCOD9111238
Probable space group: P -1
;
_chemical_formula_sum "Si O2"
_cell_formula_units_Z 16
_cell_length_a 25.477129
_cell_length_b 5.525268
_cell_length_c 9.412977
_cell_angle_alpha 134.311231
_cell_angle_beta 133.233496
_cell_angle_gamma 51.000506
_cell_volume 661.248379
_symmetry_space_group_name_H-M "P -1"
_symmetry_group_IT_number 2
_symmetry_cell_setting 'triclinic'
loop_
_space_group_symop_operation_xyz
x,y,z
-x,-y,-z
loop_
_atom_site_type_symbol
_atom_site_label
_atom_site_fract_x
_atom_site_fract_y
_atom_site_fract_z
Si Si1 0.467961 0.679721 0.868616
Si Si2 0.032229 0.597143 0.955879
Si Si3 0.441853 0.704857 0.356314
Si Si4 0.701962 0.757723 0.766312
Si Si5 0.334392 0.217223 0.955347
Si Si6 0.801220 0.286519 0.234454
Si Si7 0.825234 0.256267 0.610055
Si Si8 0.060355 0.530061 0.506173
O O1 0.500254 0.352029 0.689204
O O2 0.500000 0.500000 0.000000
O O3 0.500000 0.000000 0.000000
O O4 0.381353 0.855959 0.820269
O O5 0.995308 0.381715 0.692407
O O6 0.118436 0.544151 0.133304
O O7 0.000000 0.500000 0.000000
O O8 0.000000 0.000000 0.000000
O O9 0.500000 0.500000 0.500000
O O10 0.386208 0.468600 0.122301
O O11 0.375010 0.069971 0.395862
O O12 0.675657 0.751575 0.879639
O O13 0.751505 0.407968 0.633824
O O14 0.758483 0.001992 0.992245
O O15 0.255226 0.359674 0.790462
O O16 0.808505 0.312095 0.431086
O O17 0.882034 0.233663 0.287700
O O18 0.877945 0.853757 0.553290
O O19 0.000000 0.500000 0.500000
#
# Coordination Sequence:
#
# PCOD9111238 Si02
#       8
#     2   2   2   2   2   2   2   2
#     4  10  20  42  70  96 140 185 240 297 361 432
#     4  10  22  45  70 101 141 183 242 301 364 436
#     4  10  23  43  66 105 139 191 243 302 365 438
#     4  11  25  46  70 101 147 190 244 304 371 449
#     4  10  23  44  66 100 139 190 238 301 371 439
#     4  11  25  46  70 100 144 188 247 299 378 444
#     4  11  26  45  69 104 141 191 242 305 376 440
#     4  11  26  47  72 105 141 195 248 308 373 446
#
# _framework density 24.196653999999999
#
# number of rings (size 3 to 8) (size 9 to 14) (size 15 to 20)
#    0.000    1.500    2.500    0.750    5.250    5.000 
#    2.250    0.000    0.000    0.000    0.000    0.000 
#    0.000    0.000    0.000    0.000    0.000    0.000 
#
# Total GULP energy -89104.177062 kJ/mol
# GULP energy per Si atom -5569.011066 kJ/mol
# Density = 2.414158 g / cm^3
# Si number density = 24.196654 Si / 1000 Ang^3
#
#
#
# Elastic Constant Matrix: (Units=GPa)
#
#
# Indices 1 2 3 4 5 6 
#
# 1 143.8890 55.6644 37.8599 -4.7102 -4.1279 -33.7348
# 2 55.6644 146.2605 38.9225 -19.4310 -5.9337 -46.2506
# 3 37.8599 38.9225 123.9931 -32.5425 14.9025 -12.3527
# 4 -4.7102 -19.4310 -32.5425 53.0596 8.6590 2.5417
# 5 -4.1279 -5.9337 14.9025 8.6590 59.1396 -3.8867
# 6 -33.7348 -46.2506 -12.3527 2.5417 -3.8867 49.1006
#
#
#
# Elastic Compliance Matrix: (Units=1/GPa)
#
#
# Indices 1 2 3 4 5 6 
#
# 1 0.009280 -0.001623 -0.002567 -0.001833 0.001691 0.004431
# 2 -0.001623 0.011093 -0.001741 0.002144 0.001711 0.008921
# 3 -0.002567 -0.001741 0.011660 0.007061 -0.004404 -0.001185
# 4 -0.001833 0.002144 0.007061 0.024615 -0.005240 0.000848
# 5 0.001691 0.001711 -0.004404 -0.005240 0.019304 0.003465
# 6 0.004431 0.008921 -0.001185 0.000848 0.003465 0.031746
#
#
# Mechanical properties :
#
#
# Convention : Reuss Voigt Hill
#
# Bulk Modulus (GPa) = 49.57480 75.44846 62.51163
# Shear Modulus (GPa) = 39.59361 51.03969 45.31665
#
# Velocity S-wave (km/s) = 4.04954 4.59777 4.33234
# Velocity P-wave (km/s) = 6.51136 7.70941 7.13557
#
# Compressibility (1/GPa) = 0.02017154
#
# Stress axis : x y z
#
# Youngs Moduli (GPa) = 107.75529 90.14538 85.76421
#
# Poissons Ratio (x) = 0.14627 0.22019
# Poissons Ratio (y) = 0.17485 0.14931
# Poissons Ratio (z) = 0.27664 0.15694
#
# Static dielectric constant tensor:
#      x y z
#    x 1.967470 0.026230 0.036170 
#    y 0.026230 2.088660 0.068420 
#    z 0.036170 0.068420 1.933400 
# 
# From -- ./inp_files/351085.got.cif
#   From: 2010.05.17/outbox.cif.g08.bks.cpg/sg2_176_cif.got.tgz:351085.got - 2010.06.03 11:33:40.
