data_PCOD9111783
_publ_section_title
;
Structure prediction by ZEFSAII (Michael W. Deem and Ramdas Pophale) SiO2 
 PCOD9111783
Probable space group: P -1
;
_chemical_formula_sum "Si O2"
_cell_formula_units_Z 10
_cell_length_a 13.079463
_cell_length_b 25.257662
_cell_length_c 9.527595
_cell_angle_alpha 151.686242
_cell_angle_beta 146.340030
_cell_angle_gamma 16.557598
_cell_volume 423.886855
_symmetry_space_group_name_H-M "P -1"
_symmetry_group_IT_number 2
_symmetry_cell_setting 'triclinic'
loop_
_space_group_symop_operation_xyz
x,y,z
-x,-y,-z
loop_
_atom_site_type_symbol
_atom_site_label
_atom_site_fract_x
_atom_site_fract_y
_atom_site_fract_z
Si Si1 0.072772 0.508866 0.258909
Si Si2 0.780801 0.086058 0.249386
Si Si3 0.689985 0.736449 0.626237
Si Si4 0.152970 0.689636 0.146726
Si Si5 0.370809 0.594823 0.728051
O O1 0.419353 0.268471 0.165269
O O2 0.181977 0.581549 0.539365
O O3 0.740412 0.683142 0.395230
O O4 0.000000 0.500000 0.000000
O O5 0.655982 0.118168 0.339493
O O6 0.908361 0.147441 0.525417
O O7 0.088172 0.841421 0.984300
O O8 0.000000 0.500000 0.500000
O O9 0.826154 0.790594 0.944375
O O10 0.284154 0.566876 0.155465
O O11 0.500000 0.500000 0.000000
O O12 0.500000 0.500000 0.500000
#
# Coordination Sequence:
#
# PCOD9111783 Si02
#       5
#     2   2   2   2   2
#     4  10  23  43  65 100 134 167 221 273 326 399
#     4  10  24  45  69  97 131 180 221 269 337 385
#     4  10  20  43  70  95 134 170 219 276 323 397
#     4  11  21  45  66 100 134 168 224 275 321 401
#     4  11  26  44  66  96 136 177 221 275 333 387
#
# _framework density 23.591201999999999
#
# number of rings (size 3 to 8) (size 9 to 14) (size 15 to 20)
#    0.000    1.600    6.000    0.000    5.600    5.600 
#    3.600    0.000    0.000    0.000    0.000    0.000 
#    0.000    0.000    0.000    0.000    0.000    0.000 
#
# Total GULP energy -56016.112086 kJ/mol
# GULP energy per Si atom -5601.611209 kJ/mol
# Density = 2.353751 g / cm^3
# Si number density = 23.591202 Si / 1000 Ang^3
#
#
#
# Elastic Constant Matrix: (Units=GPa)
#
#
# Indices 1 2 3 4 5 6 
#
# 1 134.4159 63.2901 77.7272 6.5052 -27.6962 4.4502
# 2 63.2901 153.5473 90.4715 8.2005 -8.3216 16.6679
# 3 77.7272 90.4715 182.4660 18.1671 -13.7221 5.6542
# 4 6.5052 8.2005 18.1671 52.5407 -0.4890 -3.3385
# 5 -27.6962 -8.3216 -13.7221 -0.4890 58.7100 -12.1532
# 6 4.4502 16.6679 5.6542 -3.3385 -12.1532 43.2584
#
#
#
# Elastic Compliance Matrix: (Units=1/GPa)
#
#
# Indices 1 2 3 4 5 6 
#
# 1 0.011512 -0.002762 -0.003266 0.000281 0.004615 0.001625
# 2 -0.002762 0.010266 -0.003900 -0.000154 -0.001505 -0.003597
# 3 -0.003266 -0.003900 0.009002 -0.002065 0.000104 0.000532
# 4 0.000281 -0.000154 -0.002065 0.019858 0.000184 0.001885
# 5 0.004615 -0.001505 0.000104 0.000184 0.020220 0.005787
# 6 0.001625 -0.003597 0.000532 0.001885 0.005787 0.026037
#
#
# Mechanical properties :
#
#
# Convention : Reuss Voigt Hill
#
# Bulk Modulus (GPa) = 91.53573 103.71188 97.62380
# Shear Modulus (GPa) = 41.53081 46.83117 44.18099
#
# Velocity S-wave (km/s) = 4.20031 4.46029 4.33225
# Velocity P-wave (km/s) = 7.89990 8.40138 8.15450
#
# Compressibility (1/GPa) = 0.01092470
#
# Stress axis : x y z
#
# Youngs Moduli (GPa) = 86.86557 97.40698 111.08443
#
# Poissons Ratio (x) = 0.26907 0.36276
# Poissons Ratio (y) = 0.23995 0.43322
# Poissons Ratio (z) = 0.28367 0.37988
#
# Static dielectric constant tensor:
#      x y z
#    x 1.961930 0.001450 0.037740 
#    y 0.001450 1.972360 -0.035070 
#    z 0.037740 -0.035070 1.912100 
# 
# From -- ./inp_files/151097.got.cif
#   From: 2010.05.17/outbox.cif.g08.bks.cpg/sg2_76_cif.got.tgz:151097.got - 2010.06.03 11:33:40.
