data_PCOD9111228
_publ_section_title
;
Structure prediction by ZEFSAII (Michael W. Deem and Ramdas Pophale) SiO2 
 PCOD9111228
Probable space group: P -1
;
_chemical_formula_sum "Si O2"
_cell_formula_units_Z 13
_cell_length_a 8.719464
_cell_length_b 12.934115
_cell_length_c 16.176926
_cell_angle_alpha 23.978686
_cell_angle_beta 74.647200
_cell_angle_gamma 88.695041
_cell_volume 592.749225
_symmetry_space_group_name_H-M "P -1"
_symmetry_group_IT_number 2
_symmetry_cell_setting 'triclinic'
loop_
_space_group_symop_operation_xyz
x,y,z
-x,-y,-z
loop_
_atom_site_type_symbol
_atom_site_label
_atom_site_fract_x
_atom_site_fract_y
_atom_site_fract_z
Si Si1 0.010385 0.924459 0.417530
Si Si2 0.791606 0.123258 0.720774
Si Si3 0.568051 0.835991 0.275957
Si Si4 0.953349 0.352032 0.228109
Si Si5 0.715671 0.947573 0.358140
Si Si6 0.107041 0.848225 0.130433
Si Si7 0.500000 0.000000 0.500000
O O1 0.801664 0.771728 0.517014
O O2 0.166056 0.040990 0.237513
O O3 0.027588 0.702117 0.638786
O O4 0.034876 0.187143 0.283159
O O5 0.598001 0.103205 0.747563
O O6 0.806810 0.026873 0.881515
O O7 0.960303 0.483656 0.425213
O O8 0.500000 0.500000 0.500000
O O9 0.640449 0.855573 0.343945
O O10 0.730496 0.068250 0.019685
O O11 0.731782 0.189511 0.354889
O O12 0.093561 0.707805 0.927918
O O13 0.558376 0.933545 0.449467
O O14 0.000000 0.000000 0.000000
#
# Coordination Sequence:
#
# PCOD9111228 Si02
#       7
#     2   2   2   2   2   2   1
#     4  10  21  41  68  96 130 174 211 273 336 394
#     4  11  24  42  66  97 131 171 228 277 334 399
#     4  12  25  45  67  98 134 181 231 276 332 399
#     4  10  22  44  66  97 136 170 219 268 339 399
#     4  11  24  44  66  95 139 174 219 275 332 393
#     4  11  23  44  66  90 133 175 220 281 333 389
#     4  10  20  42  70  96 124 170 220 268 324 400
#
# _framework density 21.931702999999999
#
# number of rings (size 3 to 8) (size 9 to 14) (size 15 to 20)
#    0.000    1.231    1.538    5.077    2.154    0.000 
#    8.308   22.308    0.000    0.000    0.000    0.000 
#    0.000    0.000    0.000    0.000    0.000    0.000 
#
# Total GULP energy -72469.297231 kJ/mol
# GULP energy per Si atom -5574.561325 kJ/mol
# Density = 2.188179 g / cm^3
# Si number density = 21.931703 Si / 1000 Ang^3
#
#
#
# Elastic Constant Matrix: (Units=GPa)
#
#
# Indices 1 2 3 4 5 6 
#
# 1 116.1501 71.3698 34.5219 12.2048 -12.7814 -2.2481
# 2 71.3698 173.1305 38.2261 40.5442 -8.7481 9.3141
# 3 34.5219 38.2261 55.1170 11.1909 -8.3784 -2.2390
# 4 12.2048 40.5442 11.1909 33.7727 -3.4482 1.4932
# 5 -12.7814 -8.7481 -8.3784 -3.4482 34.3041 18.8930
# 6 -2.2481 9.3141 -2.2390 1.4932 18.8930 48.8205
#
#
#
# Elastic Compliance Matrix: (Units=1/GPa)
#
#
# Indices 1 2 3 4 5 6 
#
# 1 0.013063 -0.004869 -0.005020 0.003044 0.002593 0.000204
# 2 -0.004869 0.010897 -0.002405 -0.010359 0.000624 -0.002338
# 3 -0.005020 -0.002405 0.024015 -0.002970 0.002924 0.000288
# 4 0.003044 -0.010359 -0.002970 0.042145 0.002062 -0.000107
# 5 0.002593 0.000624 0.002924 0.002062 0.039598 -0.015253
# 6 0.000204 -0.002338 0.000288 -0.000107 -0.015253 0.026858
#
#
# Mechanical properties :
#
#
# Convention : Reuss Voigt Hill
#
# Bulk Modulus (GPa) = 42.76061 70.29259 56.52660
# Shear Modulus (GPa) = 26.46044 36.73145 31.59595
#
# Velocity S-wave (km/s) = 3.47723 4.09688 3.79971
# Velocity P-wave (km/s) = 5.97168 7.38238 6.71418
#
# Compressibility (1/GPa) = 0.02338601
#
# Stress axis : x y z
#
# Youngs Moduli (GPa) = 76.55086 91.76454 41.64073
#
# Poissons Ratio (x) = 0.44684 0.20906
# Poissons Ratio (y) = 0.37276 0.10014
# Poissons Ratio (z) = 0.38432 0.22068
#
# Static dielectric constant tensor:
#      x y z
#    x 1.801250 -0.003110 0.039010 
#    y -0.003110 1.823080 -0.024560 
#    z 0.039010 -0.024560 1.924550 
# 
# From -- ./inp_files/498693.got.cif
#   From: 2010.05.17/outbox.cif.g08.bks.cpg/sg2_250_cif.got.tgz:498693.got - 2010.06.03 11:33:40.
