data_PCOD9111713
_publ_section_title
;
Structure prediction by ZEFSAII (Michael W. Deem and Ramdas Pophale) SiO2 
 PCOD9111713
Probable space group: P -1
;
_chemical_formula_sum "Si O2"
_cell_formula_units_Z 14
_cell_length_a 5.595796
_cell_length_b 16.858095
_cell_length_c 9.441443
_cell_angle_alpha 61.696517
_cell_angle_beta 130.045102
_cell_angle_gamma 121.193963
_cell_volume 569.587740
_symmetry_space_group_name_H-M "P -1"
_symmetry_group_IT_number 2
_symmetry_cell_setting 'triclinic'
loop_
_space_group_symop_operation_xyz
x,y,z
-x,-y,-z
loop_
_atom_site_type_symbol
_atom_site_label
_atom_site_fract_x
_atom_site_fract_y
_atom_site_fract_z
Si Si1 0.372265 0.506128 0.602887
Si Si2 0.374946 0.278340 0.477617
Si Si3 0.535511 0.737579 0.770651
Si Si4 0.671045 0.131734 0.251055
Si Si5 0.315198 0.966147 0.108478
Si Si6 0.336248 0.556284 0.001431
Si Si7 0.756401 0.222591 0.903206
O O1 0.500000 0.500000 0.500000
O O2 0.590863 0.613013 0.637745
O O3 0.422294 0.423637 0.789574
O O4 0.000000 0.500000 0.500000
O O5 0.571390 0.258961 0.433104
O O6 0.538065 0.275643 0.693759
O O7 0.025340 0.195356 0.393120
O O8 0.575193 0.840213 0.762192
O O9 0.293667 0.648128 0.833178
O O10 0.880739 0.719535 0.952468
O O11 0.582698 0.020064 0.284170
O O12 0.615259 0.172476 0.040620
O O13 0.221900 0.854068 0.143211
O O14 0.500000 0.000000 0.000000
O O15 0.000000 0.000000 0.000000
O O16 0.500000 0.500000 0.000000
O O17 0.000000 0.500000 0.000000
#
# Coordination Sequence:
#
# PCOD9111713 Si02
#       7
#     2   2   2   2   2   2   2
#     4  12  27  45  66  97 135 175 226 283 335 399
#     4  11  25  43  65 101 135 173 231 284 332 404
#     4  11  23  42  67  95 131 177 223 279 335 400
#     4  10  23  41  70  94 135 179 220 279 336 402
#     4  10  20  43  69 100 137 177 225 272 337 405
#     4  12  25  44  68  93 131 178 220 276 339 395
#     4  10  23  42  68  98 134 178 221 277 340 400
#
# _framework density 24.579180999999998
#
# number of rings (size 3 to 8) (size 9 to 14) (size 15 to 20)
#    0.000    1.143    2.857    2.571    6.000    1.714 
#    0.000    0.714    0.000    0.000    0.000    0.000 
#    0.000    0.000    0.000    0.000    0.000    0.000 
#
# Total GULP energy -78009.868296 kJ/mol
# GULP energy per Si atom -5572.133450 kJ/mol
# Density = 2.452324 g / cm^3
# Si number density = 24.579181 Si / 1000 Ang^3
#
#
#
# Elastic Constant Matrix: (Units=GPa)
#
#
# Indices 1 2 3 4 5 6 
#
# 1 113.0138 12.1677 25.4469 12.2616 -6.9334 -1.7812
# 2 12.1677 69.5485 -12.2439 25.5048 -1.0851 -8.2838
# 3 25.4469 -12.2439 101.2778 4.3481 -9.7618 8.9194
# 4 12.2616 25.5048 4.3481 30.7760 -1.4160 -3.1544
# 5 -6.9334 -1.0851 -9.7618 -1.4160 39.4674 19.0607
# 6 -1.7812 -8.2838 8.9194 -3.1544 19.0607 44.6193
#
#
#
# Elastic Compliance Matrix: (Units=1/GPa)
#
#
# Indices 1 2 3 4 5 6 
#
# 1 0.009860 -0.001197 -0.002423 -0.002543 0.000981 0.000057
# 2 -0.001197 0.022122 0.003505 -0.018139 -0.000490 0.002285
# 3 -0.002423 0.003505 0.011839 -0.003816 0.004369 -0.003949
# 4 -0.002543 -0.018139 -0.003816 0.049155 -0.000626 0.001036
# 5 0.000981 -0.000490 0.004369 -0.000626 0.034047 -0.015514
# 6 0.000057 0.002285 -0.003949 0.001036 -0.015514 0.030328
#
#
# Mechanical properties :
#
#
# Convention : Reuss Voigt Hill
#
# Bulk Modulus (GPa) = 22.94047 37.17570 30.05809
# Shear Modulus (GPa) = 29.05100 40.20383 34.62742
#
# Velocity S-wave (km/s) = 3.44166 4.04875 3.75748
# Velocity P-wave (km/s) = 5.01467 6.08393 5.57499
#
# Compressibility (1/GPa) = 0.04359109
#
# Stress axis : x y z
#
# Youngs Moduli (GPa) = 101.41970 45.20454 84.46495
#
# Poissons Ratio (x) = 0.05411 0.20469
# Poissons Ratio (y) = 0.12140 -0.29609
# Poissons Ratio (z) = 0.24578 -0.15846
#
# Static dielectric constant tensor:
#      x y z
#    x 2.192050 0.022180 0.101300 
#    y 0.022180 2.050880 0.021110 
#    z 0.101300 0.021110 1.999500 
# 
# From -- ./inp_files/44824.got.cif
#   From: 2010.05.17/outbox.cif.g08.bks.cpg/sg2_23_cif.got.tgz:44824.got - 2010.06.03 11:33:40.
