data_PCOD9111216
_publ_section_title
;
Structure prediction by ZEFSAII (Michael W. Deem and Ramdas Pophale) SiO2 
 PCOD9111216
Probable space group: P -1
;
_chemical_formula_sum "Si O2"
_cell_formula_units_Z 16
_cell_length_a 11.590491
_cell_length_b 9.629452
_cell_length_c 11.509428
_cell_angle_alpha 40.769192
_cell_angle_beta 94.641296
_cell_angle_gamma 119.400902
_cell_volume 628.058275
_symmetry_space_group_name_H-M "P -1"
_symmetry_group_IT_number 2
_symmetry_cell_setting 'triclinic'
loop_
_space_group_symop_operation_xyz
x,y,z
-x,-y,-z
loop_
_atom_site_type_symbol
_atom_site_label
_atom_site_fract_x
_atom_site_fract_y
_atom_site_fract_z
Si Si1 0.670462 0.915292 0.368445
Si Si2 0.203654 0.784110 0.439968
Si Si3 0.817802 0.661609 0.117630
Si Si4 0.264787 0.764996 0.204216
Si Si5 0.854652 0.953200 0.562190
Si Si6 0.143424 0.947039 0.927481
Si Si7 0.573084 0.410964 0.790335
Si Si8 0.456539 0.819642 0.729182
O O1 0.800582 0.052512 0.392726
O O2 0.540589 0.598080 0.608167
O O3 0.738852 0.908507 0.260176
O O4 0.609097 0.079105 0.254366
O O5 0.188268 0.554649 0.662921
O O6 0.178780 0.690126 0.365412
O O7 0.114599 0.874080 0.430085
O O8 0.383241 0.072243 0.281362
O O9 0.674052 0.496637 0.124597
O O10 0.824996 0.867925 0.074655
O O11 0.974088 0.815968 0.960226
O O12 0.328104 0.609260 0.280108
O O13 0.420251 0.098780 0.004663
O O14 0.158519 0.726321 0.117444
O O15 0.699477 0.619040 0.767595
O O16 0.000000 0.000000 0.500000
O O17 0.500000 0.000000 0.500000
#
# Coordination Sequence:
#
# PCOD9111216 Si02
#       8
#     2   2   2   2   2   2   2   2
#     4  10  22  43  66  96 124 172 216 260 323 369
#     4  11  24  44  68  95 128 173 212 268 325 376
#     4  10  23  44  64  96 129 168 220 263 319 379
#     4  11  25  41  63  98 133 169 213 259 324 383
#     4  10  23  44  69  94 127 170 218 264 326 381
#     4  11  26  40  65  98 131 171 216 262 318 384
#     4   9  23  43  60  98 127 167 215 254 326 375
#     4  10  20  42  70  94 125 168 223 262 317 381
#
# _framework density 25.475344
#
# number of rings (size 3 to 8) (size 9 to 14) (size 15 to 20)
#    0.750    1.000    2.500    0.750   10.500    4.000 
#    2.250    0.000    0.000    0.000    0.000    0.000 
#    0.000    0.000    0.000    0.000    0.000    0.000 
#
# Total GULP energy -89562.617297 kJ/mol
# GULP energy per Si atom -5597.663581 kJ/mol
# Density = 2.541736 g / cm^3
# Si number density = 25.475344 Si / 1000 Ang^3
#
#
#
# Elastic Constant Matrix: (Units=GPa)
#
#
# Indices 1 2 3 4 5 6 
#
# 1 116.2322 14.2138 18.9512 0.3351 -12.9823 -25.7394
# 2 14.2138 68.3381 17.3015 0.2211 -8.0064 -18.4496
# 3 18.9512 17.3015 48.2785 0.5771 0.7529 -5.8504
# 4 0.3351 0.2211 0.5771 37.0165 1.6361 -8.9344
# 5 -12.9823 -8.0064 0.7529 1.6361 34.9072 0.3216
# 6 -25.7394 -18.4496 -5.8504 -8.9344 0.3216 48.4027
#
#
#
# Elastic Compliance Matrix: (Units=1/GPa)
#
#
# Indices 1 2 3 4 5 6 
#
# 1 0.010903 0.000788 -0.003938 0.001174 0.004212 0.005811
# 2 0.000788 0.018426 -0.006160 0.001453 0.004520 0.006936
# 3 -0.003938 -0.006160 0.024334 -0.000539 -0.003362 -0.001578
# 4 0.001174 0.001453 -0.000539 0.028574 -0.000616 0.006392
# 5 0.004212 0.004520 -0.003362 -0.000616 0.031322 0.003234
# 6 0.005811 0.006936 -0.001578 0.006392 0.003234 0.027362
#
#
# Mechanical properties :
#
#
# Convention : Reuss Voigt Hill
#
# Bulk Modulus (GPa) = 28.53599 37.08686 32.81142
# Shear Modulus (GPa) = 29.20179 36.22410 32.71294
#
# Velocity S-wave (km/s) = 3.38934 3.77494 3.58732
# Velocity P-wave (km/s) = 5.15195 5.79567 5.48326
#
# Compressibility (1/GPa) = 0.03504347
#
# Stress axis : x y z
#
# Youngs Moduli (GPa) = 91.71707 54.27037 41.09466
#
# Poissons Ratio (x) = -0.04275 0.16182
# Poissons Ratio (y) = -0.07225 0.25314
# Poissons Ratio (z) = 0.36116 0.33430
#
# Static dielectric constant tensor:
#      x y z
#    x 1.971550 0.028290 -0.006640 
#    y 0.028290 2.012720 -0.023150 
#    z -0.006640 -0.023150 2.042550 
# 
# From -- ./inp_files/418923.got.cif
#   From: 2010.05.17/outbox.cif.g08.bks.cpg/sg2_210_cif.got.tgz:418923.got - 2010.06.03 11:33:40.
