data_PCOD9111000
_publ_section_title
;
Structure prediction by ZEFSAII (Michael W. Deem and Ramdas Pophale) SiO2 
 PCOD9111000
Probable space group: P -1
;
_chemical_formula_sum "Si O2"
_cell_formula_units_Z 13
_cell_length_a 10.976843
_cell_length_b 5.127846
_cell_length_c 9.622118
_cell_angle_alpha 86.897849
_cell_angle_beta 63.264487
_cell_angle_gamma 62.444771
_cell_volume 420.646130
_symmetry_space_group_name_H-M "P -1"
_symmetry_group_IT_number 2
_symmetry_cell_setting 'triclinic'
loop_
_space_group_symop_operation_xyz
x,y,z
-x,-y,-z
loop_
_atom_site_type_symbol
_atom_site_label
_atom_site_fract_x
_atom_site_fract_y
_atom_site_fract_z
Si Si1 0.841172 0.935992 0.641613
Si Si2 0.300488 0.634300 0.517896
Si Si3 0.443970 0.200687 0.212325
Si Si4 0.731324 0.421027 0.933685
Si Si5 0.293946 0.095053 0.709617
Si Si6 0.001590 0.444519 0.206898
Si Si7 0.000000 0.000000 0.000000
O O1 0.848381 0.079563 0.487856
O O2 0.801578 0.179588 0.778097
O O3 0.694698 0.877479 0.699963
O O4 0.988379 0.633687 0.634103
O O5 0.401459 0.473361 0.334124
O O6 0.284484 0.371725 0.613390
O O7 0.358825 0.804507 0.586963
O O8 0.433116 0.323339 0.057407
O O9 0.601074 0.946897 0.210034
O O10 0.827658 0.597373 0.894714
O O11 0.795441 0.220379 0.043597
O O12 0.104774 0.222436 0.814672
O O13 0.971187 0.231032 0.131868
#
# Coordination Sequence:
#
# PCOD9111000 Si02
#       7
#     2   2   2   2   2   2   1
#     4   9  20  39  61  88 124 167 207 241 300 355
#     4  11  23  39  59  91 129 174 201 245 292 360
#     4  10  21  41  60  91 125 170 202 243 297 367
#     4   9  20  39  66  87 119 155 208 248 315 366
#     4  12  26  36  64  91 131 160 211 247 298 353
#     4  10  23  41  61  93 117 159 201 266 305 366
#     4  10  20  42  68  86 114 158 202 258 324 368
#
# _framework density 30.90484
#
# number of rings (size 3 to 8) (size 9 to 14) (size 15 to 20)
#    0.000    1.846    1.538    1.385    8.615    1.231 
#    0.000    0.769    0.000    9.231    0.000    0.000 
#    0.000    0.000    0.000    0.000    0.000    0.000 
#
# Total GULP energy -72574.860391 kJ/mol
# GULP energy per Si atom -5582.681569 kJ/mol
# Density = 3.083450 g / cm^3
# Si number density = 30.904840 Si / 1000 Ang^3
#
#
#
# Elastic Constant Matrix: (Units=GPa)
#
#
# Indices 1 2 3 4 5 6 
#
# 1 161.7120 81.5504 83.5829 -12.5686 55.5284 -9.4447
# 2 81.5504 219.0254 62.2754 -21.2795 48.3005 -40.8650
# 3 83.5829 62.2754 118.8723 -14.8830 53.3333 -23.6864
# 4 -12.5686 -21.2795 -14.8830 55.3459 -11.3289 31.9115
# 5 55.5284 48.3005 53.3333 -11.3289 70.3982 -10.8516
# 6 -9.4447 -40.8650 -23.6864 31.9115 -10.8516 87.9385
#
#
#
# Elastic Compliance Matrix: (Units=1/GPa)
#
#
# Indices 1 2 3 4 5 6 
#
# 1 0.011246 -0.002162 -0.005574 0.000662 -0.003359 -0.001953
# 2 -0.002162 0.006376 -0.000477 0.000093 -0.001935 0.002330
# 3 -0.005574 -0.000477 0.016379 -0.000111 -0.007282 0.002733
# 4 0.000662 0.000093 -0.000111 0.023322 0.001998 -0.008132
# 5 -0.003359 -0.001935 -0.007282 0.001998 0.023865 -0.001001
# 6 -0.001953 0.002330 0.002733 -0.008132 -0.001001 0.015808
#
#
# Mechanical properties :
#
#
# Convention : Reuss Voigt Hill
#
# Bulk Modulus (GPa) = 56.89396 106.04746 81.47071
# Shear Modulus (GPa) = 41.91792 60.88323 51.40058
#
# Velocity S-wave (km/s) = 3.68687 4.44331 4.08265
# Velocity P-wave (km/s) = 6.04759 7.79183 6.97445
#
# Compressibility (1/GPa) = 0.01757656
#
# Stress axis : x y z
#
# Youngs Moduli (GPa) = 88.92306 156.82662 61.05364
#
# Poissons Ratio (x) = 0.33900 0.34031
# Poissons Ratio (y) = 0.19222 0.02911
# Poissons Ratio (z) = 0.49566 0.07477
#
# Static dielectric constant tensor:
#      x y z
#    x 2.718200 -0.125210 -0.342840 
#    y -0.125210 2.711080 -0.020770 
#    z -0.342840 -0.020770 2.413190 
# 
# From -- ./inp_files/32185.got.cif
#   From: 2010.05.17/outbox.cif.g08.bks.cpg/sg2_17_cif.got.tgz:32185.got - 2010.06.03 11:33:40.
