data_PCOD9111900
_publ_section_title
;
Structure prediction by ZEFSAII (Michael W. Deem and Ramdas Pophale) SiO2 
 PCOD9111900
Probable space group: P -1
;
_chemical_formula_sum "Si O2"
_cell_formula_units_Z 15
_cell_length_a 8.182927
_cell_length_b 9.479930
_cell_length_c 19.019564
_cell_angle_alpha 138.487872
_cell_angle_beta 140.739374
_cell_angle_gamma 46.548964
_cell_volume 598.001568
_symmetry_space_group_name_H-M "P -1"
_symmetry_group_IT_number 2
_symmetry_cell_setting 'triclinic'
loop_
_space_group_symop_operation_xyz
x,y,z
-x,-y,-z
loop_
_atom_site_type_symbol
_atom_site_label
_atom_site_fract_x
_atom_site_fract_y
_atom_site_fract_z
Si Si1 0.000000 0.000000 0.000000
Si Si2 0.047604 0.014709 0.183956
Si Si3 0.733108 0.687774 0.000166
Si Si4 0.892881 0.240610 0.494624
Si Si5 0.586888 0.625898 0.228694
Si Si6 0.144356 0.477251 0.870084
Si Si7 0.215795 0.355691 0.466546
Si Si8 0.783460 0.188197 0.598283
O O1 0.974216 0.917077 0.879348
O O2 0.930549 0.261306 0.045705
O O3 0.083755 0.209889 0.318312
O O4 0.321904 0.824783 0.218068
O O5 0.801006 0.911031 0.082803
O O6 0.713541 0.665859 0.069593
O O7 0.494483 0.593797 0.854998
O O8 0.000000 0.500000 0.000000
O O9 0.166082 0.312203 0.628701
O O10 0.694834 0.453444 0.475807
O O11 0.779711 0.181862 0.509030
O O12 0.983519 0.035421 0.395027
O O13 0.674625 0.590983 0.163616
O O14 0.883089 0.391268 0.736009
O O15 0.488289 0.209116 0.535184
O O16 0.000000 0.500000 0.500000
#
# Coordination Sequence:
#
# PCOD9111900 Si02
#       8
#     1   2   2   2   2   2   2   2
#     4  12  24  44  68 100 144 178 240 300 348 412
#     4  11  24  45  70 100 145 186 235 299 351 423
#     4  10  21  40  67  97 137 181 231 278 357 431
#     4  10  22  44  73 100 132 186 241 291 351 416
#     4  10  20  43  74  95 135 187 239 287 351 432
#     4  11  23  42  69 104 132 187 239 288 361 422
#     4  12  27  46  68 108 145 185 233 297 359 423
#     4  10  23  45  72  98 138 187 239 290 346 428
#
# _framework density 25.083545000000001
#
# number of rings (size 3 to 8) (size 9 to 14) (size 15 to 20)
#    0.000    1.333    4.000    2.400    1.867    2.667 
#    2.400    1.333    0.000    0.000    0.000    0.000 
#    0.000    0.000    0.000    0.000    0.000    0.000 
#
# Total GULP energy -83719.996268 kJ/mol
# GULP energy per Si atom -5581.333085 kJ/mol
# Density = 2.502645 g / cm^3
# Si number density = 25.083545 Si / 1000 Ang^3
#
#
#
# Elastic Constant Matrix: (Units=GPa)
#
#
# Indices 1 2 3 4 5 6 
#
# 1 74.4139 20.8073 43.2759 5.3249 -4.5979 -19.4929
# 2 20.8073 101.4912 22.4449 22.3963 3.8544 -4.9722
# 3 43.2759 22.4449 124.0261 17.1704 0.2203 -20.8189
# 4 5.3249 22.3963 17.1704 39.3230 -8.5115 -2.8384
# 5 -4.5979 3.8544 0.2203 -8.5115 41.2652 3.5270
# 6 -19.4929 -4.9722 -20.8189 -2.8384 3.5270 40.3125
#
#
#
# Elastic Compliance Matrix: (Units=1/GPa)
#
#
# Indices 1 2 3 4 5 6 
#
# 1 0.018974 -0.003040 -0.005417 0.002484 0.002430 0.005964
# 2 -0.003040 0.012182 -0.000211 -0.007087 -0.002910 -0.000321
# 3 -0.005417 -0.000211 0.011059 -0.004142 -0.001747 0.002927
# 4 0.002484 -0.007087 -0.004142 0.032592 0.007700 -0.000191
# 5 0.002430 -0.002910 -0.001747 0.007700 0.026533 -0.001866
# 6 0.005964 -0.000321 0.002927 -0.000191 -0.001866 0.029312
#
#
# Mechanical properties :
#
#
# Convention : Reuss Voigt Hill
#
# Bulk Modulus (GPa) = 40.19744 52.55415 46.37579
# Shear Modulus (GPa) = 31.99361 38.40702 35.20031
#
# Velocity S-wave (km/s) = 3.57526 3.91725 3.75016
# Velocity P-wave (km/s) = 5.75357 6.43871 6.10576
#
# Compressibility (1/GPa) = 0.02487721
#
# Stress axis : x y z
#
# Youngs Moduli (GPa) = 52.70488 82.08967 90.42294
#
# Poissons Ratio (x) = 0.24956 0.48984
# Poissons Ratio (y) = 0.16023 0.01911
# Poissons Ratio (z) = 0.28552 0.01735
#
# Static dielectric constant tensor:
#      x y z
#    x 2.053150 0.053740 0.010050 
#    y 0.053740 2.073970 -0.002900 
#    z 0.010050 -0.002900 1.958250 
# 
# From -- ./inp_files/587655.got.cif
#   From: 2010.05.17/outbox.cif.g08.bks.cpg/sg2_294_cif.got.tgz:587655.got - 2010.06.03 11:33:40.
