data_PCOD9111244
_publ_section_title
;
Structure prediction by ZEFSAII (Michael W. Deem and Ramdas Pophale) SiO2 
 PCOD9111244
Probable space group: P -1
;
_chemical_formula_sum "Si O2"
_cell_formula_units_Z 14
_cell_length_a 8.443474
_cell_length_b 9.233821
_cell_length_c 12.477734
_cell_angle_alpha 118.820071
_cell_angle_beta 65.663635
_cell_angle_gamma 71.733227
_cell_volume 595.750983
_symmetry_space_group_name_H-M "P -1"
_symmetry_group_IT_number 2
_symmetry_cell_setting 'triclinic'
loop_
_space_group_symop_operation_xyz
x,y,z
-x,-y,-z
loop_
_atom_site_type_symbol
_atom_site_label
_atom_site_fract_x
_atom_site_fract_y
_atom_site_fract_z
Si Si1 0.273987 0.204011 0.526854
Si Si2 0.508884 0.324092 0.370854
Si Si3 0.565666 0.140663 0.933909
Si Si4 0.144880 0.492875 0.863079
Si Si5 0.628307 0.225015 0.712902
Si Si6 0.222903 0.054960 0.980806
Si Si7 0.794720 0.454871 0.670593
O O1 0.463919 0.205778 0.425342
O O2 0.214398 0.304448 0.696364
O O3 0.046219 0.368151 0.579627
O O4 0.332850 0.976924 0.422170
O O5 0.500000 0.500000 0.500000
O O6 0.314094 0.454495 0.381993
O O7 0.728106 0.135556 0.173356
O O8 0.641199 0.189580 0.824244
O O9 0.443378 0.043111 0.899759
O O10 0.368777 0.357371 0.130159
O O11 0.762752 0.990792 0.912744
O O12 0.372157 0.433589 0.826832
O O13 0.000000 0.500000 0.000000
O O14 0.991824 0.714454 0.918927
O O15 0.791792 0.264357 0.635797
#
# Coordination Sequence:
#
# PCOD9111244 Si02
#       7
#     2   2   2   2   2   2   2
#     4  12  24  43  67  96 137 186 221 276 343 403
#     4  11  24  45  69 101 136 175 227 285 338 402
#     4  10  20  42  70  98 135 178 228 273 330 408
#     4  12  23  41  67 100 133 181 222 278 340 399
#     4  12  24  42  67 106 139 175 224 287 335 394
#     4  10  21  42  71  98 135 179 226 272 339 405
#     4  11  24  42  68 100 138 178 231 275 334 406
#
# _framework density 23.499752000000001
#
# number of rings (size 3 to 8) (size 9 to 14) (size 15 to 20)
#    0.000    0.857    4.286    2.571    0.000    2.286 
#    0.000    9.286    0.000    0.000    0.000    0.000 
#    0.000    0.000    0.000    0.000    0.000    0.000 
#
# Total GULP energy -78451.054622 kJ/mol
# GULP energy per Si atom -5603.646759 kJ/mol
# Density = 2.344627 g / cm^3
# Si number density = 23.499752 Si / 1000 Ang^3
#
#
#
# Elastic Constant Matrix: (Units=GPa)
#
#
# Indices 1 2 3 4 5 6 
#
# 1 55.8211 28.3856 31.4169 -1.6501 10.0326 -4.5662
# 2 28.3856 130.7419 48.4759 1.6413 6.4144 -11.7382
# 3 31.4169 48.4759 108.7108 1.0688 30.8822 -7.0547
# 4 -1.6501 1.6413 1.0688 35.0162 3.5309 -0.5671
# 5 10.0326 6.4144 30.8822 3.5309 33.8807 8.7722
# 6 -4.5662 -11.7382 -7.0547 -0.5671 8.7722 53.3362
#
#
#
# Elastic Compliance Matrix: (Units=1/GPa)
#
#
# Indices 1 2 3 4 5 6 
#
# 1 0.022528 -0.003071 -0.004351 0.001617 -0.002582 0.001119
# 2 -0.003071 0.009830 -0.004206 -0.000738 0.002730 0.000887
# 3 -0.004351 -0.004206 0.016458 0.000936 -0.013833 0.003164
# 4 0.001617 -0.000738 0.000936 0.029115 -0.004525 0.001154
# 5 -0.002582 0.002730 -0.013833 -0.004525 0.045154 -0.008925
# 6 0.001119 0.000887 0.003164 0.001154 -0.008925 0.020939
#
#
# Mechanical properties :
#
#
# Convention : Reuss Voigt Hill
#
# Bulk Modulus (GPa) = 39.12525 56.87008 47.99766
# Shear Modulus (GPa) = 28.44130 36.91297 32.67714
#
# Velocity S-wave (km/s) = 3.48268 3.96761 3.73303
# Velocity P-wave (km/s) = 5.73214 6.72622 6.24898
#
# Compressibility (1/GPa) = 0.02555894
#
# Stress axis : x y z
#
# Youngs Moduli (GPa) = 44.38882 101.72852 60.76226
#
# Poissons Ratio (x) = 0.31242 0.26437
# Poissons Ratio (y) = 0.13632 0.25560
# Poissons Ratio (z) = 0.19313 0.42792
#
# Static dielectric constant tensor:
#      x y z
#    x 1.898840 -0.011580 -0.003220 
#    y -0.011580 1.872060 0.032520 
#    z -0.003220 0.032520 1.877740 
# 
# From -- ./inp_files/151577.got.cif
#   From: 2010.05.17/outbox.cif.g08.bks.cpg/sg2_76_cif.got.tgz:151577.got - 2010.06.03 11:33:40.
