data_PCOD9111318
_publ_section_title
;
Structure prediction by ZEFSAII (Michael W. Deem and Ramdas Pophale) SiO2 
 PCOD9111318
Probable space group: P -1
;
_chemical_formula_sum "Si O2"
_cell_formula_units_Z 15
_cell_length_a 13.885504
_cell_length_b 7.822381
_cell_length_c 17.076948
_cell_angle_alpha 49.749675
_cell_angle_beta 155.401243
_cell_angle_gamma 129.086106
_cell_volume 583.871035
_symmetry_space_group_name_H-M "P -1"
_symmetry_group_IT_number 2
_symmetry_cell_setting 'triclinic'
loop_
_space_group_symop_operation_xyz
x,y,z
-x,-y,-z
loop_
_atom_site_type_symbol
_atom_site_label
_atom_site_fract_x
_atom_site_fract_y
_atom_site_fract_z
Si Si1 0.113167 0.179359 0.297430
Si Si2 0.642385 0.990917 0.930142
Si Si3 0.500000 0.500000 0.500000
Si Si4 0.416565 0.809639 0.663372
Si Si5 0.448364 0.346975 0.899943
Si Si6 0.215608 0.183306 0.628163
Si Si7 0.990912 0.517666 0.721157
Si Si8 0.776292 0.098818 0.772581
O O1 0.315143 0.339193 0.354762
O O2 0.108100 0.327612 0.329943
O O3 0.197576 0.944901 0.454769
O O4 0.879256 0.133907 0.090247
O O5 0.601544 0.916755 0.834019
O O6 0.435111 0.135611 0.753575
O O7 0.610382 0.761080 0.027177
O O8 0.664295 0.290246 0.683249
O O9 0.355314 0.566085 0.729655
O O10 0.572999 0.881747 0.680568
O O11 0.317181 0.164459 0.795711
O O12 0.730363 0.410158 0.087165
O O13 0.118241 0.409978 0.461813
O O14 0.000000 0.000000 0.500000
O O15 0.889724 0.257885 0.737985
O O16 0.000000 0.000000 0.000000
#
# Coordination Sequence:
#
# PCOD9111318 Si02
#       8
#     2   2   1   2   2   2   2   2
#     4  10  21  42  66  93 141 173 224 283 339 410
#     4  12  24  41  69 101 135 184 227 280 350 419
#     4   8  20  38  68  98 130 182 226 278 342 402
#     4  11  25  44  65  99 139 177 225 291 349 404
#     4  12  25  41  69 101 134 181 230 281 347 415
#     4  12  24  42  69 101 137 181 232 281 344 419
#     4  11  21  42  70  98 132 178 231 279 341 416
#     4  10  20  42  72  94 138 182 224 292 345 407
#
# _framework density 25.690602999999999
#
# number of rings (size 3 to 8) (size 9 to 14) (size 15 to 20)
#    0.000    1.067    5.333    1.600    0.000    1.600 
#    0.000   10.667    0.000    0.000    0.000    0.000 
#    0.000    0.000    0.000    0.000    0.000    0.000 
#
# Total GULP energy -83518.162096 kJ/mol
# GULP energy per Si atom -5567.877473 kJ/mol
# Density = 2.563213 g / cm^3
# Si number density = 25.690603 Si / 1000 Ang^3
#
#
#
# Elastic Constant Matrix: (Units=GPa)
#
#
# Indices 1 2 3 4 5 6 
#
# 1 44.8602 9.9963 20.9993 0.8962 -16.8548 -0.1259
# 2 9.9963 94.6891 57.5313 -7.7844 -5.4793 32.3835
# 3 20.9993 57.5313 175.6371 4.0488 -7.0683 -1.9859
# 4 0.8962 -7.7844 4.0488 44.2048 -9.2622 1.1917
# 5 -16.8548 -5.4793 -7.0683 -9.2622 28.3692 -2.9123
# 6 -0.1259 32.3835 -1.9859 1.1917 -2.9123 36.3010
#
#
#
# Elastic Compliance Matrix: (Units=1/GPa)
#
#
# Indices 1 2 3 4 5 6 
#
# 1 0.030727 -0.001113 -0.002605 0.003275 0.018702 0.002350
# 2 -0.001113 0.023220 -0.007781 0.005727 0.001578 -0.021206
# 3 -0.002605 -0.007781 0.008657 -0.002510 -0.000952 0.007412
# 4 0.003275 0.005727 -0.002510 0.026118 0.010414 -0.005256
# 5 0.018702 0.001578 -0.000952 0.010414 0.050062 0.002280
# 6 0.002350 -0.021206 0.007412 -0.005256 0.002280 0.047234
#
#
# Mechanical properties :
#
#
# Convention : Reuss Voigt Hill
#
# Bulk Modulus (GPa) = 25.24920 54.69334 39.97127
# Shear Modulus (GPa) = 22.50031 36.88563 29.69297
#
# Velocity S-wave (km/s) = 2.96263 3.79326 3.40338
# Velocity P-wave (km/s) = 4.64246 6.36557 5.57104
#
# Compressibility (1/GPa) = 0.03960522
#
# Stress axis : x y z
#
# Youngs Moduli (GPa) = 32.54480 43.06546 115.51060
#
# Poissons Ratio (x) = 0.04793 0.30096
# Poissons Ratio (y) = 0.03622 0.89882
# Poissons Ratio (z) = 0.08479 0.33510
#
# Static dielectric constant tensor:
#      x y z
#    x 2.071000 -0.104430 0.082110 
#    y -0.104430 2.007270 -0.024180 
#    z 0.082110 -0.024180 1.941190 
# 
# From -- ./inp_files/441504.got.cif
#   From: 2010.05.17/outbox.cif.g08.bks.cpg/sg2_221_cif.got.tgz:441504.got - 2010.06.03 11:33:40.
