data_PCOD9111875
_publ_section_title
;
Structure prediction by ZEFSAII (Michael W. Deem and Ramdas Pophale) SiO2 
 PCOD9111875
Probable space group: P -1
;
_chemical_formula_sum "Si O2"
_cell_formula_units_Z 16
_cell_length_a 7.669706
_cell_length_b 12.471326
_cell_length_c 16.176939
_cell_angle_alpha 143.604826
_cell_angle_beta 132.198939
_cell_angle_gamma 66.395511
_cell_volume 644.600733
_symmetry_space_group_name_H-M "P -1"
_symmetry_group_IT_number 2
_symmetry_cell_setting 'triclinic'
loop_
_space_group_symop_operation_xyz
x,y,z
-x,-y,-z
loop_
_atom_site_type_symbol
_atom_site_label
_atom_site_fract_x
_atom_site_fract_y
_atom_site_fract_z
Si Si1 0.206085 0.198411 0.207763
Si Si2 0.001408 0.032216 0.733804
Si Si3 0.525418 0.526399 0.121885
Si Si4 0.747261 0.587082 0.875378
Si Si5 0.194538 0.379703 0.496350
Si Si6 0.347226 0.899724 0.655989
Si Si7 0.252981 0.026736 0.542627
Si Si8 0.018603 0.494939 0.245353
O O1 0.213404 0.296169 0.359882
O O2 0.456969 0.148611 0.253717
O O3 0.163710 0.352352 0.228638
O O4 0.000000 0.000000 0.000000
O O5 0.238782 0.041351 0.758153
O O6 0.903247 0.815150 0.601646
O O7 0.813103 0.069553 0.628232
O O8 0.097028 0.187214 0.932185
O O9 0.302942 0.458717 0.072406
O O10 0.635110 0.752888 0.306128
O O11 0.738156 0.427871 0.145596
O O12 0.500000 0.500000 0.000000
O O13 0.466604 0.507542 0.697197
O O14 0.922693 0.486652 0.821919
O O15 0.000000 0.500000 0.500000
O O16 0.139466 0.698600 0.450142
O O17 0.426534 0.970300 0.630843
O O18 0.000000 0.000000 0.500000
#
# Coordination Sequence:
#
# PCOD9111875 Si02
#       8
#     2   2   2   2   2   2   2   2
#     4  12  28  46  70 106 145 194 251 307 378 443
#     4  11  24  46  72 108 149 188 255 309 375 451
#     4  12  25  47  78 110 151 198 249 306 381 450
#     4  12  27  47  77 111 149 201 250 308 384 436
#     4  12  26  47  71 107 151 196 258 311 369 451
#     4  11  23  45  74  98 147 198 236 310 382 429
#     4  10  20  43  73 103 142 192 238 306 371 438
#     4  12  26  50  73 106 152 193 254 313 368 451
#
# _framework density 24.821567999999999
#
# number of rings (size 3 to 8) (size 9 to 14) (size 15 to 20)
#    0.000    0.500    5.000    4.125    7.000    1.000 
#    0.000    1.250    0.000    0.000    0.000    0.000 
#    0.000    0.000    0.000    0.000    0.000    0.000 
#
# Total GULP energy -89458.107427 kJ/mol
# GULP energy per Si atom -5591.131714 kJ/mol
# Density = 2.476507 g / cm^3
# Si number density = 24.821568 Si / 1000 Ang^3
#
#
#
# Elastic Constant Matrix: (Units=GPa)
#
#
# Indices 1 2 3 4 5 6 
#
# 1 70.6963 -8.2623 13.4842 -3.0044 -7.4459 9.1509
# 2 -8.2623 87.8631 6.2407 -4.3307 20.8080 8.3421
# 3 13.4842 6.2407 154.6217 2.5110 -13.3979 3.8170
# 4 -3.0044 -4.3307 2.5110 35.7776 10.7168 0.1877
# 5 -7.4459 20.8080 -13.3979 10.7168 28.8035 -2.0547
# 6 9.1509 8.3421 3.8170 0.1877 -2.0547 35.3174
#
#
#
# Elastic Compliance Matrix: (Units=1/GPa)
#
#
# Indices 1 2 3 4 5 6 
#
# 1 0.015303 0.001609 -0.001183 0.001126 0.001529 -0.004134
# 2 0.001609 0.016022 -0.002073 0.006732 -0.014976 -0.004884
# 3 -0.001183 -0.002073 0.007161 -0.002495 0.005476 0.000354
# 4 0.001126 0.006732 -0.002495 0.034696 -0.018848 -0.002893
# 5 0.001529 -0.014976 0.005476 -0.018848 0.055913 0.005902
# 6 -0.004134 -0.004884 0.000354 -0.002893 0.005902 0.030860
#
#
# Mechanical properties :
#
#
# Convention : Reuss Voigt Hill
#
# Bulk Modulus (GPa) = 28.41701 37.34515 32.88108
# Shear Modulus (GPa) = 28.57473 40.09429 34.33451
#
# Velocity S-wave (km/s) = 3.39662 4.02344 3.72325
# Velocity P-wave (km/s) = 5.18229 6.05493 5.63553
#
# Compressibility (1/GPa) = 0.03519019
#
# Stress axis : x y z
#
# Youngs Moduli (GPa) = 65.34754 62.41375 139.65379
#
# Poissons Ratio (x) = -0.10042 0.16524
# Poissons Ratio (y) = -0.10514 0.28956
# Poissons Ratio (z) = 0.07732 0.12941
#
# Static dielectric constant tensor:
#      x y z
#    x 0.838040 0.577460 -0.148040 
#    y 0.577460 1.909920 -0.085890 
#    z -0.148040 -0.085890 2.022820 
# 
# From -- ./inp_files/501046.got.cif
#   From: 2010.05.17/outbox.cif.g08.bks.cpg/sg2_251_cif.got.tgz:501046.got - 2010.06.03 11:33:40.
