data_PCOD9111779
_publ_section_title
;
Structure prediction by ZEFSAII (Michael W. Deem and Ramdas Pophale) SiO2 
 PCOD9111779
Probable space group: P -1
;
_chemical_formula_sum "Si O2"
_cell_formula_units_Z 14
_cell_length_a 21.246103
_cell_length_b 9.314716
_cell_length_c 6.218661
_cell_angle_alpha 51.313135
_cell_angle_beta 124.061052
_cell_angle_gamma 139.368105
_cell_volume 616.607182
_symmetry_space_group_name_H-M "P -1"
_symmetry_group_IT_number 2
_symmetry_cell_setting 'triclinic'
loop_
_space_group_symop_operation_xyz
x,y,z
-x,-y,-z
loop_
_atom_site_type_symbol
_atom_site_label
_atom_site_fract_x
_atom_site_fract_y
_atom_site_fract_z
Si Si1 0.223475 0.097224 0.193733
Si Si2 0.389728 0.788087 0.921394
Si Si3 0.227148 0.620784 0.093805
Si Si4 0.908773 0.747404 0.146749
Si Si5 0.666204 0.511955 0.302990
Si Si6 0.399291 0.412668 0.493776
Si Si7 0.899252 0.403401 0.778539
O O1 0.299165 0.154748 0.475036
O O2 0.141905 0.817596 0.252865
O O3 0.170897 0.213555 0.015681
O O4 0.286918 0.248224 0.963776
O O5 0.373225 0.721733 0.698533
O O6 0.313302 0.782983 0.928953
O O7 0.376161 0.562949 0.186239
O O8 0.500000 0.000000 0.000000
O O9 0.256364 0.476092 0.408648
O O10 0.192138 0.707603 0.127711
O O11 0.129918 0.441130 0.938886
O O12 0.917720 0.626292 0.482031
O O13 0.000000 0.000000 0.000000
O O14 0.590264 0.502010 0.322218
O O15 0.500000 0.500000 0.500000
O O16 0.000000 0.500000 0.000000
#
# Coordination Sequence:
#
# PCOD9111779 Si02
#       7
#     2   2   2   2   2   2   2
#     4  11  24  46  70 100 146 189 240 302 368 437
#     4  10  22  39  66 102 138 189 239 296 363 436
#     4  11  22  45  70  97 144 192 239 301 369 439
#     4  12  26  47  74 101 149 193 244 307 369 444
#     4  10  20  43  70  93 139 192 237 285 379 423
#     4  10  23  40  66 104 139 188 240 300 365 435
#     4  12  29  44  71 114 143 193 256 303 380 443
#
# _framework density 22.704889999999999
#
# number of rings (size 3 to 8) (size 9 to 14) (size 15 to 20)
#    0.000    1.143    5.714    0.857    2.000   13.714 
#    0.000    0.000    0.000    0.000    0.000    0.000 
#    0.000    0.000    0.000    0.000    0.000    0.000 
#
# Total GULP energy -77947.322409 kJ/mol
# GULP energy per Si atom -5567.665886 kJ/mol
# Density = 2.265321 g / cm^3
# Si number density = 22.704890 Si / 1000 Ang^3
#
#
#
# Elastic Constant Matrix: (Units=GPa)
#
#
# Indices 1 2 3 4 5 6 
#
# 1 110.1170 25.6529 52.8331 -0.1049 2.5475 4.4156
# 2 25.6529 127.8527 47.2130 9.4499 8.6785 14.5641
# 3 52.8331 47.2130 86.5006 8.5045 5.3014 -5.0641
# 4 -0.1049 9.4499 8.5045 27.4725 -6.8771 8.8582
# 5 2.5475 8.6785 5.3014 -6.8771 33.2561 -1.5710
# 6 4.4156 14.5641 -5.0641 8.8582 -1.5710 31.2317
#
#
#
# Elastic Compliance Matrix: (Units=1/GPa)
#
#
# Indices 1 2 3 4 5 6 
#
# 1 0.013725 0.001053 -0.009784 0.004663 0.000948 -0.005293
# 2 0.001053 0.011063 -0.006917 -0.000111 -0.002195 -0.006508
# 3 -0.009784 -0.006917 0.022956 -0.008825 -0.002424 0.010712
# 4 0.004663 -0.000111 -0.008825 0.046429 0.009985 -0.014705
# 5 0.000948 -0.002195 -0.002424 0.009985 0.032989 -0.000676
# 6 -0.005293 -0.006508 0.010712 -0.014705 -0.000676 0.041676
#
#
# Mechanical properties :
#
#
# Convention : Reuss Voigt Hill
#
# Bulk Modulus (GPa) = 60.80087 63.98537 62.39312
# Shear Modulus (GPa) = 24.31707 31.64348 27.98028
#
# Velocity S-wave (km/s) = 3.27617 3.73726 3.51429
# Velocity P-wave (km/s) = 6.41467 6.84582 6.63375
#
# Compressibility (1/GPa) = 0.01644713
#
# Stress axis : x y z
#
# Youngs Moduli (GPa) = 72.85936 90.38966 43.56241
#
# Poissons Ratio (x) = -0.09520 0.42623
# Poissons Ratio (y) = -0.07674 0.30133
# Poissons Ratio (z) = 0.71288 0.62525
#
# Static dielectric constant tensor:
#      x y z
#    x 2.167660 0.128740 -0.163690 
#    y 0.128740 2.196330 0.062410 
#    z -0.163690 0.062410 1.942410 
# 
# From -- ./inp_files/116749.got.cif
#   From: 2010.05.17/outbox.cif.g08.bks.cpg/sg2_59_cif.got.tgz:116749.got - 2010.06.03 11:33:40.
