data_PCOD9111735
_publ_section_title
;
Structure prediction by ZEFSAII (Michael W. Deem and Ramdas Pophale) SiO2 
 PCOD9111735
Probable space group: P -1
;
_chemical_formula_sum "Si O2"
_cell_formula_units_Z 14
_cell_length_a 20.068690
_cell_length_b 10.756284
_cell_length_c 6.396976
_cell_angle_alpha 103.556748
_cell_angle_beta 110.563594
_cell_angle_gamma 135.896183
_cell_volume 598.405930
_symmetry_space_group_name_H-M "P -1"
_symmetry_group_IT_number 2
_symmetry_cell_setting 'triclinic'
loop_
_space_group_symop_operation_xyz
x,y,z
-x,-y,-z
loop_
_atom_site_type_symbol
_atom_site_label
_atom_site_fract_x
_atom_site_fract_y
_atom_site_fract_z
Si Si1 0.185125 0.187550 0.099501
Si Si2 0.771326 0.951302 0.218239
Si Si3 0.939540 0.486986 0.120788
Si Si4 0.521716 0.713600 0.619908
Si Si5 0.657538 0.920870 0.453655
Si Si6 0.629090 0.101155 0.151037
Si Si7 0.910413 0.674872 0.867326
O O1 0.360585 0.454110 0.450729
O O2 0.139309 0.263244 0.089208
O O3 0.179545 0.108986 0.836468
O O4 0.069397 0.935349 0.028377
O O5 0.715370 0.892801 0.369609
O O6 0.635751 0.790625 0.867857
O O7 0.920285 0.274889 0.478956
O O8 0.912241 0.584036 0.031939
O O9 0.000000 0.500000 0.000000
O O10 0.785247 0.169659 0.855338
O O11 0.515647 0.681715 0.351578
O O12 0.586570 0.956328 0.840579
O O13 0.632489 0.996192 0.291771
O O14 0.788371 0.423063 0.472718
O O15 0.500000 0.000000 0.000000
#
# Coordination Sequence:
#
# PCOD9111735 Si02
#       7
#     2   2   2   2   2   2   2
#     4  11  24  42  63  97 134 178 210 261 335 396
#     4  10  23  40  64  95 127 176 213 258 333 383
#     4   9  20  42  64  96 127 165 223 272 315 379
#     4  11  23  42  67  97 131 169 220 270 324 383
#     4   9  22  40  64  99 127 163 222 279 313 374
#     4  10  20  43  69  94 127 170 223 268 323 378
#     4  10  23  44  67  93 137 170 214 274 320 393
#
# _framework density 23.395488
#
# number of rings (size 3 to 8) (size 9 to 14) (size 15 to 20)
#    0.000    2.000    1.429    1.286    6.000    2.286 
#    5.143    0.000    0.000    0.000    0.000    0.000 
#    0.000    0.000    0.000    0.000    0.000    0.000 
#
# Total GULP energy -78162.300243 kJ/mol
# GULP energy per Si atom -5583.021446 kJ/mol
# Density = 2.334224 g / cm^3
# Si number density = 23.395488 Si / 1000 Ang^3
#
#
#
# Elastic Constant Matrix: (Units=GPa)
#
#
# Indices 1 2 3 4 5 6 
#
# 1 159.4078 55.3277 43.9834 5.9006 -23.8483 15.4597
# 2 55.3277 93.8487 26.1027 11.1247 -7.6795 21.2643
# 3 43.9834 26.1027 102.6983 16.2446 -7.8621 10.5399
# 4 5.9006 11.1247 16.2446 23.2621 0.2208 3.6538
# 5 -23.8483 -7.6795 -7.8621 0.2208 45.0662 2.7741
# 6 15.4597 21.2643 10.5399 3.6538 2.7741 37.3003
#
#
#
# Elastic Compliance Matrix: (Units=1/GPa)
#
#
# Indices 1 2 3 4 5 6 
#
# 1 0.009085 -0.004287 -0.002695 0.001751 0.003660 -0.001004
# 2 -0.004287 0.015440 -0.000607 -0.004870 0.000676 -0.006427
# 3 -0.002695 -0.000607 0.012431 -0.007499 0.000760 -0.001372
# 4 0.001751 -0.004870 -0.007499 0.050225 -0.001418 -0.000645
# 5 0.003660 0.000676 0.000760 -0.001418 0.024616 -0.003809
# 6 -0.001004 -0.006427 -0.001372 -0.000645 -0.003809 0.031624
#
#
# Mechanical properties :
#
#
# Convention : Reuss Voigt Hill
#
# Bulk Modulus (GPa) = 45.91622 67.42024 56.66823
# Shear Modulus (GPa) = 30.14648 36.49513 33.32080
#
# Velocity S-wave (km/s) = 3.59355 3.95387 3.77801
# Velocity P-wave (km/s) = 6.07345 7.05155 6.58070
#
# Compressibility (1/GPa) = 0.02177879
#
# Stress axis : x y z
#
# Youngs Moduli (GPa) = 110.07378 64.76498 80.44546
#
# Poissons Ratio (x) = 0.27764 0.21679
# Poissons Ratio (y) = 0.47188 0.04881
# Poissons Ratio (z) = 0.29664 0.03930
#
# Static dielectric constant tensor:
#      x y z
#    x 1.860430 0.001450 -0.012120 
#    y 0.001450 1.910740 0.065050 
#    z -0.012120 0.065050 1.984160 
# 
# From -- ./inp_files/118788.got.cif
#   From: 2010.05.17/outbox.cif.g08.bks.cpg/sg2_60_cif.got.tgz:118788.got - 2010.06.03 11:33:40.
