data_PCOD9111979
_publ_section_title
;
Structure prediction by ZEFSAII (Michael W. Deem and Ramdas Pophale) SiO2 
 PCOD9111979
Probable space group: P -1
;
_chemical_formula_sum "Si O2"
_cell_formula_units_Z 16
_cell_length_a 5.090362
_cell_length_b 13.448571
_cell_length_c 19.968339
_cell_angle_alpha 34.366125
_cell_angle_beta 59.833659
_cell_angle_gamma 57.673381
_cell_volume 646.672982
_symmetry_space_group_name_H-M "P -1"
_symmetry_group_IT_number 2
_symmetry_cell_setting 'triclinic'
loop_
_space_group_symop_operation_xyz
x,y,z
-x,-y,-z
loop_
_atom_site_type_symbol
_atom_site_label
_atom_site_fract_x
_atom_site_fract_y
_atom_site_fract_z
Si Si1 0.679268 0.916955 0.605586
Si Si2 0.831509 0.233687 0.014164
Si Si3 0.017598 0.130736 0.262742
Si Si4 0.293222 0.613890 0.302718
Si Si5 0.560048 0.699587 0.628227
Si Si6 0.809828 0.071585 0.775551
Si Si7 0.817305 0.796349 0.149129
Si Si8 0.778684 0.519118 0.104462
O O1 0.812875 0.875168 0.685007
O O2 0.777105 0.770320 0.614849
O O3 0.310087 0.923065 0.656704
O O4 0.679645 0.117624 0.468738
O O5 0.510442 0.938285 0.138547
O O6 0.482454 0.329330 0.983862
O O7 0.029401 0.159963 0.962819
O O8 0.900000 0.070745 0.148872
O O9 0.926887 0.344375 0.136783
O O10 0.207676 0.991703 0.262082
O O11 0.284903 0.413417 0.393286
O O12 0.652340 0.631409 0.245826
O O13 0.082321 0.737265 0.203933
O O14 0.402699 0.567416 0.766075
O O15 0.827747 0.278468 0.673033
O O16 0.026193 0.609943 0.057872
#
# Coordination Sequence:
#
# PCOD9111979 Si02
#       8
#     2   2   2   2   2   2   2   2
#     4  10  25  39  73  92 123 163 211 262 321 371
#     4  12  22  39  64  98 121 166 214 259 309 363
#     4  11  25  45  59  94 130 171 207 250 315 386
#     4  10  22  37  66  89 126 162 199 267 313 355
#     4  10  20  44  66 100 121 156 208 278 315 362
#     4  10  27  40  65  86 139 169 212 246 307 377
#     4  10  21  38  60  93 119 164 207 256 306 355
#     4  11  23  37  65  93 128 158 205 266 316 365
#
# _framework density 24.742027
#
# number of rings (size 3 to 8) (size 9 to 14) (size 15 to 20)
#    0.750    0.750    2.500    1.875    3.500    8.000 
#    0.000    1.250    0.000    0.000    0.000    0.000 
#    0.000    0.000    0.000    0.000    0.000    0.000 
#
# Total GULP energy -89481.952027 kJ/mol
# GULP energy per Si atom -5592.622002 kJ/mol
# Density = 2.468571 g / cm^3
# Si number density = 24.742027 Si / 1000 Ang^3
#
#
#
# Elastic Constant Matrix: (Units=GPa)
#
#
# Indices 1 2 3 4 5 6 
#
# 1 104.6881 39.1614 7.2684 5.1489 7.6691 18.8741
# 2 39.1614 205.4343 36.4610 -26.8439 -0.3253 34.3740
# 3 7.2684 36.4610 48.5996 -21.9297 10.4720 2.7958
# 4 5.1489 -26.8439 -21.9297 33.4759 2.9788 -7.0336
# 5 7.6691 -0.3253 10.4720 2.9788 35.7748 -1.6426
# 6 18.8741 34.3740 2.7958 -7.0336 -1.6426 38.5148
#
#
#
# Elastic Compliance Matrix: (Units=1/GPa)
#
#
# Indices 1 2 3 4 5 6 
#
# 1 0.011668 -0.001679 -0.002401 -0.005654 -0.001579 -0.005146
# 2 -0.001679 0.006957 -0.003996 0.002134 0.001202 -0.004655
# 3 -0.002401 -0.003996 0.036825 0.023588 -0.011996 0.005866
# 4 -0.005654 0.002134 0.023588 0.050423 -0.009506 0.007957
# 5 -0.001579 0.001202 -0.011996 -0.009506 0.032616 0.000227
# 6 -0.005146 -0.004655 0.005866 0.007957 0.000227 0.033677
#
#
# Mechanical properties :
#
#
# Convention : Reuss Voigt Hill
#
# Bulk Modulus (GPa) = 25.44651 58.27819 41.86235
# Shear Modulus (GPa) = 24.82429 39.94183 32.38306
#
# Velocity S-wave (km/s) = 3.17097 4.02223 3.62170
# Velocity P-wave (km/s) = 4.86968 6.72135 5.86900
#
# Compressibility (1/GPa) = 0.03929811
#
# Stress axis : x y z
#
# Youngs Moduli (GPa) = 85.70293 143.74793 27.15577
#
# Poissons Ratio (x) = 0.24128 0.06519
# Poissons Ratio (y) = 0.14385 0.10853
# Poissons Ratio (z) = 0.20575 0.57448
#
# Static dielectric constant tensor:
#      x y z
#    x 2.000780 -0.018490 -0.060840 
#    y -0.018490 2.038120 -0.021880 
#    z -0.060840 -0.021880 1.968190 
# 
# From -- ./inp_files/583682.got.cif
#   From: 2010.05.17/outbox.cif.g08.bks.cpg/sg2_292_cif.got.tgz:583682.got - 2010.06.03 11:33:40.
