data_PCOD9111877
_publ_section_title
;
Structure prediction by ZEFSAII (Michael W. Deem and Ramdas Pophale) SiO2 
 PCOD9111877
Probable space group: P -1
;
_chemical_formula_sum "Si O2"
_cell_formula_units_Z 12
_cell_length_a 10.252715
_cell_length_b 10.400469
_cell_length_c 8.291445
_cell_angle_alpha 87.812523
_cell_angle_beta 112.085538
_cell_angle_gamma 140.191030
_cell_volume 475.400168
_symmetry_space_group_name_H-M "P -1"
_symmetry_group_IT_number 2
_symmetry_cell_setting 'triclinic'
loop_
_space_group_symop_operation_xyz
x,y,z
-x,-y,-z
loop_
_atom_site_type_symbol
_atom_site_label
_atom_site_fract_x
_atom_site_fract_y
_atom_site_fract_z
Si Si1 0.961636 0.614378 0.048052
Si Si2 0.635676 0.723410 0.975645
Si Si3 0.392772 0.608473 0.356712
Si Si4 0.555153 0.947250 0.880994
Si Si5 0.832586 0.824538 0.696519
Si Si6 0.804680 0.298166 0.541096
O O1 0.884976 0.934218 0.179589
O O2 0.051934 0.686528 0.269661
O O3 0.698381 0.453472 0.866774
O O4 0.000000 0.500000 0.000000
O O5 0.500000 0.500000 0.000000
O O6 0.489030 0.749701 0.892064
O O7 0.722561 0.761878 0.829219
O O8 0.675201 0.797625 0.507344
O O9 0.246648 0.379109 0.376154
O O10 0.304573 0.668329 0.405055
O O11 0.839849 0.154148 0.965325
O O12 0.416581 0.907225 0.666343
O O13 0.500000 0.000000 0.000000
O O14 0.000000 0.500000 0.500000
#
# Coordination Sequence:
#
# PCOD9111877 Si02
#       6
#     2   2   2   2   2   2
#     4  10  22  42  71 103 141 198 240 302 387 435
#     4  11  25  46  75 111 149 200 254 307 376 450
#     4  10  20  43  73 103 143 197 250 300 378 444
#     4  12  24  46  71 109 153 192 254 312 372 454
#     4  10  22  45  75  99 150 198 247 310 369 454
#     4  11  24  42  71 108 146 191 247 309 376 454
#
# _framework density 25.241890999999999
#
# number of rings (size 3 to 8) (size 9 to 14) (size 15 to 20)
#    0.000    1.333    3.333    2.500    0.000    4.000 
#    0.000    3.333    3.667    0.000    0.000    0.000 
#    0.000    0.000    0.000    0.000    0.000    0.000 
#
# Total GULP energy -67175.861358 kJ/mol
# GULP energy per Si atom -5597.988446 kJ/mol
# Density = 2.518444 g / cm^3
# Si number density = 25.241891 Si / 1000 Ang^3
#
#
#
# Elastic Constant Matrix: (Units=GPa)
#
#
# Indices 1 2 3 4 5 6 
#
# 1 69.7103 37.0285 58.3111 -1.5414 16.5648 1.0547
# 2 37.0285 123.5751 29.9821 -3.0837 -2.3659 2.2168
# 3 58.3111 29.9821 200.1054 5.2217 35.7561 -1.1665
# 4 -1.5414 -3.0837 5.2217 40.1679 2.3969 0.8041
# 5 16.5648 -2.3659 35.7561 2.3969 57.4380 8.8968
# 6 1.0547 2.2168 -1.1665 0.8041 8.8968 43.9847
#
#
#
# Elastic Compliance Matrix: (Units=1/GPa)
#
#
# Indices 1 2 3 4 5 6 
#
# 1 0.022426 -0.005527 -0.005090 0.001308 -0.003630 0.000316
# 2 -0.005527 0.009892 -0.000300 0.000466 0.002300 -0.000848
# 3 -0.005090 -0.000300 0.007107 -0.000978 -0.003077 0.000966
# 4 0.001308 0.000466 -0.000978 0.025161 -0.000739 -0.000391
# 5 -0.003630 0.002300 -0.003077 -0.000739 0.021176 -0.004380
# 6 0.000316 -0.000848 0.000966 -0.000391 -0.004380 0.023689
#
#
# Mechanical properties :
#
#
# Convention : Reuss Voigt Hill
#
# Bulk Modulus (GPa) = 56.85071 71.55935 64.20503
# Shear Modulus (GPa) = 36.45694 46.18938 41.32316
#
# Velocity S-wave (km/s) = 3.80452 4.28234 4.05048
# Velocity P-wave (km/s) = 6.47074 7.27064 6.88232
#
# Compressibility (1/GPa) = 0.01758993
#
# Stress axis : x y z
#
# Youngs Moduli (GPa) = 44.59160 101.09202 140.71441
#
# Poissons Ratio (x) = 0.55876 0.71630
# Poissons Ratio (y) = 0.24647 0.04215
# Poissons Ratio (z) = 0.22699 0.03028
#
# Static dielectric constant tensor:
#      x y z
#    x 2.043510 0.117030 0.032950 
#    y 0.117030 2.439450 -0.053920 
#    z 0.032950 -0.053920 2.029540 
# 
# From -- ./inp_files/235410.got.cif
#   From: 2010.05.17/outbox.cif.g08.bks.cpg/sg2_118_cif.got.tgz:235410.got - 2010.06.03 11:33:40.
