data_PCOD9111311
_publ_section_title
;
Structure prediction by ZEFSAII (Michael W. Deem and Ramdas Pophale) SiO2 
 PCOD9111311
Probable space group: P -1
;
_chemical_formula_sum "Si O2"
_cell_formula_units_Z 15
_cell_length_a 16.583339
_cell_length_b 20.044197
_cell_length_c 8.766766
_cell_angle_alpha 47.860651
_cell_angle_beta 125.087441
_cell_angle_gamma 161.691137
_cell_volume 654.198034
_symmetry_space_group_name_H-M "P -1"
_symmetry_group_IT_number 2
_symmetry_cell_setting 'triclinic'
loop_
_space_group_symop_operation_xyz
x,y,z
-x,-y,-z
loop_
_atom_site_type_symbol
_atom_site_label
_atom_site_fract_x
_atom_site_fract_y
_atom_site_fract_z
Si Si1 0.539742 0.451093 0.503036
Si Si2 0.939328 0.299878 0.208943
Si Si3 0.300172 0.724148 0.156781
Si Si4 0.000000 0.500000 0.500000
Si Si5 0.810568 0.974229 0.064558
Si Si6 0.921455 0.239526 0.961311
Si Si7 0.829681 0.029199 0.656064
Si Si8 0.715055 0.752489 0.785780
O O1 0.500000 0.500000 0.500000
O O2 0.344993 0.294689 0.386283
O O3 0.848920 0.709979 0.396657
O O4 0.450943 0.283924 0.742379
O O5 0.775972 0.080400 0.444610
O O6 0.141741 0.510181 0.230032
O O7 0.769415 0.242994 0.061393
O O8 0.066923 0.372860 0.077455
O O9 0.181447 0.634088 0.334960
O O10 0.612340 0.975404 0.085143
O O11 0.014303 0.620840 0.288351
O O12 0.005393 0.053451 0.158206
O O13 0.957271 0.177489 0.005239
O O14 0.749043 0.954449 0.858403
O O15 0.700943 0.839310 0.710816
O O16 0.500000 0.500000 0.000000
#
# Coordination Sequence:
#
# PCOD9111311 Si02
#       8
#     2   2   2   1   2   2   2   2
#     4  12  25  43  71  93 134 179 218 282 337 393
#     4  10  22  42  70  96 132 174 214 275 330 395
#     4  10  22  46  67  98 137 169 220 275 333 392
#     4  10  20  42  72  92 130 174 210 272 326 390
#     4  12  25  45  69 100 135 181 226 279 336 401
#     4  11  24  44  66  98 137 173 223 272 333 397
#     4  12  25  46  66 101 138 172 234 278 331 405
#     4  12  25  47  68  98 137 178 227 284 337 393
#
# _framework density 22.928836
#
# number of rings (size 3 to 8) (size 9 to 14) (size 15 to 20)
#    0.000    0.800    2.667    5.600    1.867    0.000 
#    7.200   19.333    0.000    0.000    0.000    0.000 
#    0.000    0.000    0.000    0.000    0.000    0.000 
#
# Total GULP energy -83695.644362 kJ/mol
# GULP energy per Si atom -5579.709624 kJ/mol
# Density = 2.287665 g / cm^3
# Si number density = 22.928836 Si / 1000 Ang^3
#
#
#
# Elastic Constant Matrix: (Units=GPa)
#
#
# Indices 1 2 3 4 5 6 
#
# 1 92.1880 14.3976 53.7730 3.1541 14.6243 -30.8854
# 2 14.3976 64.4188 34.4437 -2.6281 2.8165 -10.0327
# 3 53.7730 34.4437 205.6940 -3.0604 2.3355 -14.2553
# 4 3.1541 -2.6281 -3.0604 33.7535 -10.9729 4.3944
# 5 14.6243 2.8165 2.3355 -10.9729 39.6325 -13.8476
# 6 -30.8854 -10.0327 -14.2553 4.3944 -13.8476 44.3810
#
#
#
# Elastic Compliance Matrix: (Units=1/GPa)
#
#
# Indices 1 2 3 4 5 6 
#
# 1 0.017194 -0.000290 -0.003782 -0.004528 -0.003889 0.009920
# 2 -0.000290 0.017474 -0.002640 0.000859 0.000272 0.002900
# 3 -0.003782 -0.002640 0.006230 0.001235 0.001219 -0.000970
# 4 -0.004528 0.000859 0.001235 0.033819 0.009917 -0.002814
# 5 -0.003889 0.000272 0.001219 0.009917 0.031640 0.006637
# 6 0.009920 0.002900 -0.000970 -0.002814 0.006637 0.032130
#
#
# Mechanical properties :
#
#
# Convention : Reuss Voigt Hill
#
# Bulk Modulus (GPa) = 36.39767 63.05884 49.72826
# Shear Modulus (GPa) = 31.04264 40.86584 35.95424
#
# Velocity S-wave (km/s) = 3.68349 4.22630 3.96419
# Velocity P-wave (km/s) = 5.83090 7.16779 6.53363
#
# Compressibility (1/GPa) = 0.02747429
#
# Stress axis : x y z
#
# Youngs Moduli (GPa) = 58.15951 57.22640 160.52338
#
# Poissons Ratio (x) = 0.01662 0.60710
# Poissons Ratio (y) = 0.01689 0.42370
# Poissons Ratio (z) = 0.21996 0.15105
#
# Static dielectric constant tensor:
#      x y z
#    x 1.867030 0.028950 -0.001550 
#    y 0.028950 1.934230 0.001420 
#    z -0.001550 0.001420 1.830530 
# 
# From -- ./inp_files/337520.got.cif
#   From: 2010.05.17/outbox.cif.g08.bks.cpg/sg2_169_cif.got.tgz:337520.got - 2010.06.03 11:33:40.
