data_PCOD9111201
_publ_section_title
;
Structure prediction by ZEFSAII (Michael W. Deem and Ramdas Pophale) SiO2 
 PCOD9111201
Probable space group: P -1
;
_chemical_formula_sum "Si O2"
_cell_formula_units_Z 16
_cell_length_a 12.591541
_cell_length_b 11.425098
_cell_length_c 5.438662
_cell_angle_alpha 76.122704
_cell_angle_beta 63.068758
_cell_angle_gamma 67.829324
_cell_volume 643.723234
_symmetry_space_group_name_H-M "P -1"
_symmetry_group_IT_number 2
_symmetry_cell_setting 'triclinic'
loop_
_space_group_symop_operation_xyz
x,y,z
-x,-y,-z
loop_
_atom_site_type_symbol
_atom_site_label
_atom_site_fract_x
_atom_site_fract_y
_atom_site_fract_z
Si Si1 0.852447 0.565837 0.834927
Si Si2 0.064848 0.666123 0.517611
Si Si3 0.589960 0.088253 0.872889
Si Si4 0.698666 0.970874 0.324023
Si Si5 0.616203 0.745302 0.716175
Si Si6 0.016219 0.136068 0.875748
Si Si7 0.782838 0.352169 0.234292
Si Si8 0.475945 0.580862 0.732717
O O1 0.908061 0.443503 0.661639
O O2 0.748473 0.671982 0.738312
O O3 0.957022 0.624821 0.798120
O O4 0.789557 0.495606 0.129105
O O5 0.199783 0.662592 0.484707
O O6 0.002640 0.805832 0.407029
O O7 0.670325 0.061176 0.551936
O O8 0.489809 0.222944 0.973318
O O9 0.500000 0.000000 0.000000
O O10 0.667510 0.045814 0.063941
O O11 0.622043 0.871898 0.507888
O O12 0.841205 0.883248 0.198528
O O13 0.567727 0.664213 0.615265
O O14 0.909463 0.241973 0.080377
O O15 0.000000 0.000000 0.000000
O O16 0.669398 0.339933 0.199486
O O17 0.500000 0.500000 0.500000
O O18 0.500000 0.500000 0.000000
#
# Coordination Sequence:
#
# PCOD9111201 Si02
#       8
#     2   2   2   2   2   2   2   2
#     4  10  20  42  70 108 139 180 240 302 372 433
#     4  10  22  44  70 104 143 183 244 306 365 442
#     4  10  24  45  71 108 145 185 247 306 365 438
#     4  11  25  49  71 108 145 191 254 308 369 439
#     4  11  22  45  76 105 148 197 241 305 372 446
#     4  11  27  47  69 102 143 193 245 307 373 433
#     4  11  25  45  70 104 148 189 245 300 373 447
#     4  12  28  48  70 108 152 196 241 296 373 456
#
# _framework density 24.855402999999999
#
# number of rings (size 3 to 8) (size 9 to 14) (size 15 to 20)
#    0.000    1.250    2.500    2.625    5.250    3.500 
#    9.000    0.000    0.000    0.000    0.000    0.000 
#    0.000    0.000    0.000    0.000    0.000    0.000 
#
# Total GULP energy -89362.955642 kJ/mol
# GULP energy per Si atom -5585.184728 kJ/mol
# Density = 2.479883 g / cm^3
# Si number density = 24.855403 Si / 1000 Ang^3
#
#
#
# Elastic Constant Matrix: (Units=GPa)
#
#
# Indices 1 2 3 4 5 6 
#
# 1 136.9655 33.5603 35.4035 0.1433 16.0477 -15.2701
# 2 33.5603 111.4969 43.7179 -7.3582 2.0315 -0.6745
# 3 35.4035 43.7179 85.5839 7.4734 9.1895 0.5095
# 4 0.1433 -7.3582 7.4734 43.6742 -8.5538 6.5634
# 5 16.0477 2.0315 9.1895 -8.5538 32.0330 2.6751
# 6 -15.2701 -0.6745 0.5095 6.5634 2.6751 31.5880
#
#
#
# Elastic Compliance Matrix: (Units=1/GPa)
#
#
# Indices 1 2 3 4 5 6 
#
# 1 0.009557 -0.001968 -0.002300 -0.001743 -0.004919 0.005394
# 2 -0.001968 0.012129 -0.006055 0.003956 0.003151 -0.001683
# 3 -0.002300 -0.006055 0.016622 -0.004711 -0.004478 -0.000151
# 4 -0.001743 0.003956 -0.004711 0.027397 0.009892 -0.007212
# 5 -0.004919 0.003151 -0.004478 0.009892 0.038036 -0.007515
# 6 0.005394 -0.001683 -0.000151 -0.007212 -0.007515 0.036367
#
#
# Mechanical properties :
#
#
# Convention : Reuss Voigt Hill
#
# Bulk Modulus (GPa) = 56.61862 62.15663 59.38763
# Shear Modulus (GPa) = 30.00446 36.21668 33.11057
#
# Velocity S-wave (km/s) = 3.47819 3.82133 3.65379
# Velocity P-wave (km/s) = 6.24172 6.67321 6.46107
#
# Compressibility (1/GPa) = 0.01766203
#
# Stress axis : x y z
#
# Youngs Moduli (GPa) = 104.63117 82.44726 60.16021
#
# Poissons Ratio (x) = 0.16223 0.13838
# Poissons Ratio (y) = 0.20588 0.36430
# Poissons Ratio (z) = 0.24067 0.49926
#
# Static dielectric constant tensor:
#      x y z
#    x 2.128020 0.019180 0.062910 
#    y 0.019180 2.020680 0.089850 
#    z 0.062910 0.089850 2.338340 
# 
# From -- ./inp_files/69721.got.cif
#   From: 2010.05.17/outbox.cif.g08.bks.cpg/sg2_35_cif.got.tgz:69721.got - 2010.06.03 11:33:40.
