data_PCOD9111763
_publ_section_title
;
Structure prediction by ZEFSAII (Michael W. Deem and Ramdas Pophale) SiO2 
 PCOD9111763
Probable space group: P -1
;
_chemical_formula_sum "Si O2"
_cell_formula_units_Z 14
_cell_length_a 5.296474
_cell_length_b 21.115303
_cell_length_c 5.074645
_cell_angle_alpha 76.179763
_cell_angle_beta 93.750452
_cell_angle_gamma 111.799625
_cell_volume 511.520180
_symmetry_space_group_name_H-M "P -1"
_symmetry_group_IT_number 2
_symmetry_cell_setting 'triclinic'
loop_
_space_group_symop_operation_xyz
x,y,z
-x,-y,-z
loop_
_atom_site_type_symbol
_atom_site_label
_atom_site_fract_x
_atom_site_fract_y
_atom_site_fract_z
Si Si1 0.259555 0.900128 0.410394
Si Si2 0.284327 0.543960 0.117119
Si Si3 0.179955 0.057596 0.751316
Si Si4 0.160914 0.178538 0.927243
Si Si5 0.648176 0.234606 0.257651
Si Si6 0.475055 0.419023 0.403234
Si Si7 0.968760 0.300010 0.700393
O O1 0.563776 0.953243 0.344643
O O2 0.267018 0.833482 0.636047
O O3 0.035746 0.929517 0.474515
O O4 0.138275 0.875439 0.130438
O O5 0.442253 0.492089 0.252194
O O6 0.287332 0.575285 0.376701
O O7 0.453823 0.602166 0.859301
O O8 0.000000 0.500000 0.000000
O O9 0.314399 0.134037 0.829666
O O10 0.000000 0.000000 0.000000
O O11 0.139904 0.248773 0.739539
O O12 0.334498 0.204732 0.177488
O O13 0.729635 0.275426 0.494792
O O14 0.831680 0.284606 0.992303
O O15 0.193968 0.373295 0.563944
#
# Coordination Sequence:
#
# PCOD9111763 Si02
#       7
#     2   2   2   2   2   2   2
#     4   9  22  39  68  96 136 173 229 282 348 408
#     4  10  21  39  63  89 132 175 218 278 331 390
#     4  10  20  43  70 100 134 180 228 286 348 417
#     4   9  22  37  66  88 137 164 227 269 347 396
#     4  11  23  42  64  94 133 175 221 280 348 400
#     4  10  22  39  60  95 130 168 227 270 330 399
#     4  11  24  40  65  97 130 177 223 284 338 417
#
# _framework density 27.369398
#
# number of rings (size 3 to 8) (size 9 to 14) (size 15 to 20)
#    0.857    1.143    0.000    3.429    2.000    3.429 
#    0.000    1.429    0.000    0.000    0.000    0.000 
#    0.000    0.000    0.000    0.000    0.000    0.000 
#
# Total GULP energy -78215.278056 kJ/mol
# GULP energy per Si atom -5586.805575 kJ/mol
# Density = 2.730710 g / cm^3
# Si number density = 27.369398 Si / 1000 Ang^3
#
#
#
# Elastic Constant Matrix: (Units=GPa)
#
#
# Indices 1 2 3 4 5 6 
#
# 1 136.3093 26.8310 41.2540 -1.4792 15.0255 37.3162
# 2 26.8310 90.3844 44.9069 -0.2900 8.0890 30.9179
# 3 41.2540 44.9069 161.5796 -0.1099 8.4056 20.3056
# 4 -1.4792 -0.2900 -0.1099 61.8079 17.6703 3.7245
# 5 15.0255 8.0890 8.4056 17.6703 50.6814 3.2623
# 6 37.3162 30.9179 20.3056 3.7245 3.2623 50.0765
#
#
#
# Elastic Compliance Matrix: (Units=1/GPa)
#
#
# Indices 1 2 3 4 5 6 
#
# 1 0.009985 0.000519 -0.001664 0.001469 -0.002828 -0.007011
# 2 0.000519 0.015707 -0.003301 0.001165 -0.001959 -0.008705
# 3 -0.001664 -0.003301 0.007513 0.000014 -0.000246 0.000247
# 4 0.001469 0.001165 0.000014 0.018341 -0.006842 -0.002738
# 5 -0.002828 -0.001959 -0.000246 -0.006842 0.023153 0.002417
# 6 -0.007011 -0.008705 0.000247 -0.002738 0.002417 0.030514
#
#
# Mechanical properties :
#
#
# Convention : Reuss Voigt Hill
#
# Bulk Modulus (GPa) = 41.13258 68.25077 54.69168
# Shear Modulus (GPa) = 40.91320 50.86525 45.88923
#
# Velocity S-wave (km/s) = 3.87053 4.31568 4.09915
# Velocity P-wave (km/s) = 5.91912 7.05864 6.51385
#
# Compressibility (1/GPa) = 0.02431163
#
# Stress axis : x y z
#
# Youngs Moduli (GPa) = 100.15127 63.66741 133.10097
#
# Poissons Ratio (x) = -0.03304 0.22153
# Poissons Ratio (y) = -0.05198 0.43939
# Poissons Ratio (z) = 0.16669 0.21018
#
# Static dielectric constant tensor:
#      x y z
#    x 2.259820 -0.117040 -0.109110 
#    y -0.117040 2.168450 0.048950 
#    z -0.109110 0.048950 2.171300 
# 
# From -- ./inp_files/14883.got.cif
#   From: 2010.05.17/outbox.cif.g08.bks.cpg/sg2_8_cif.got.tgz:14883.got - 2010.06.03 11:33:40.
