data_PCOD9111331
_publ_section_title
;
Structure prediction by ZEFSAII (Michael W. Deem and Ramdas Pophale) SiO2 
 PCOD9111331
Probable space group: P -1
;
_chemical_formula_sum "Si O2"
_cell_formula_units_Z 14
_cell_length_a 11.861690
_cell_length_b 9.586320
_cell_length_c 9.552750
_cell_angle_alpha 43.349983
_cell_angle_beta 69.096458
_cell_angle_gamma 92.852209
_cell_volume 610.249774
_symmetry_space_group_name_H-M "P -1"
_symmetry_group_IT_number 2
_symmetry_cell_setting 'triclinic'
loop_
_space_group_symop_operation_xyz
x,y,z
-x,-y,-z
loop_
_atom_site_type_symbol
_atom_site_label
_atom_site_fract_x
_atom_site_fract_y
_atom_site_fract_z
Si Si1 0.128620 0.003597 0.014651
Si Si2 0.359469 0.256048 0.163743
Si Si3 0.926814 0.103527 0.555490
Si Si4 0.503948 0.242111 0.361054
Si Si5 0.102643 0.548015 0.288519
Si Si6 0.389046 0.697930 0.158246
Si Si7 0.572329 0.798528 0.254471
O O1 0.082138 0.951497 0.235323
O O2 0.149929 0.816340 0.048183
O O3 0.284730 0.208995 0.808554
O O4 0.000000 0.000000 0.000000
O O5 0.376853 0.240607 0.333148
O O6 0.229528 0.027138 0.332708
O O7 0.496355 0.260326 0.038363
O O8 0.545366 0.349420 0.698050
O O9 0.019798 0.381725 0.319081
O O10 0.000000 0.000000 0.500000
O O11 0.486047 0.238075 0.537415
O O12 0.500000 0.000000 0.500000
O O13 0.371497 0.501678 0.928069
O O14 0.234299 0.526701 0.299466
O O15 0.000000 0.500000 0.500000
O O16 0.385578 0.938475 0.005538
#
# Coordination Sequence:
#
# PCOD9111331 Si02
#       7
#     2   2   2   2   2   2   2
#     4  10  22  43  66 100 138 178 233 282 340 427
#     4  11  25  44  68  99 137 177 235 284 339 425
#     4  11  25  45  65  97 138 182 226 282 355 407
#     4  11  25  42  67 101 136 175 222 288 354 400
#     4   9  22  41  69  95 135 184 222 277 353 407
#     4  10  20  42  72  99 130 174 237 280 335 419
#     4  10  21  40  71 100 133 174 230 291 336 404
#
# _framework density 22.941424000000001
#
# number of rings (size 3 to 8) (size 9 to 14) (size 15 to 20)
#    0.000    1.714    2.857    0.000    8.000    1.714 
#    7.714    0.714    0.000    0.000    0.000    0.000 
#    0.000    0.000    0.000    0.000    0.000    0.000 
#
# Total GULP energy -78037.014984 kJ/mol
# GULP energy per Si atom -5574.072499 kJ/mol
# Density = 2.288921 g / cm^3
# Si number density = 22.941424 Si / 1000 Ang^3
#
#
#
# Elastic Constant Matrix: (Units=GPa)
#
#
# Indices 1 2 3 4 5 6 
#
# 1 169.6948 52.7375 35.2657 -7.9824 -23.2570 28.8163
# 2 52.7375 124.2135 23.3119 -11.2588 -7.7694 13.2208
# 3 35.2657 23.3119 63.8271 -4.3250 -2.1313 10.7711
# 4 -7.9824 -11.2588 -4.3250 42.3048 7.6315 -0.3259
# 5 -23.2570 -7.7694 -2.1313 7.6315 37.9327 6.0136
# 6 28.8163 13.2208 10.7711 -0.3259 6.0136 51.2894
#
#
#
# Elastic Compliance Matrix: (Units=1/GPa)
#
#
# Indices 1 2 3 4 5 6 
#
# 1 0.008723 -0.002358 -0.003074 -0.000309 0.005434 -0.004286
# 2 -0.002358 0.009686 -0.001971 0.001895 0.000167 -0.000765
# 3 -0.003074 -0.001971 0.018360 0.000981 -0.001221 -0.001471
# 4 -0.000309 0.001895 0.000981 0.025055 -0.004819 0.000204
# 5 0.005434 0.000167 -0.001221 -0.004819 0.031673 -0.006584
# 6 -0.004286 -0.000765 -0.001471 0.000204 -0.006584 0.023185
#
#
# Mechanical properties :
#
#
# Convention : Reuss Voigt Hill
#
# Bulk Modulus (GPa) = 45.53702 64.48508 55.01105
# Shear Modulus (GPa) = 36.02052 42.73340 39.37696
#
# Velocity S-wave (km/s) = 3.96676 4.32060 4.14746
# Velocity P-wave (km/s) = 6.39317 7.28421 6.85319
#
# Compressibility (1/GPa) = 0.02196016
#
# Stress axis : x y z
#
# Youngs Moduli (GPa) = 114.64127 103.24601 54.46663
#
# Poissons Ratio (x) = 0.24350 0.16745
# Poissons Ratio (y) = 0.27037 0.10737
# Poissons Ratio (z) = 0.35245 0.20353
#
# Static dielectric constant tensor:
#      x y z
#    x 1.906400 0.002970 -0.001990 
#    y 0.002970 1.991100 -0.172410 
#    z -0.001990 -0.172410 2.032010 
# 
# From -- ./inp_files/237061.got.cif
#   From: 2010.05.17/outbox.cif.g08.bks.cpg/sg2_119_cif.got.tgz:237061.got - 2010.06.03 11:33:40.
