data_PCOD9111011
_publ_section_title
;
Structure prediction by ZEFSAII (Michael W. Deem and Ramdas Pophale) SiO2 
 PCOD9111011
Probable space group: P -1
;
_chemical_formula_sum "Si O2"
_cell_formula_units_Z 15
_cell_length_a 8.829792
_cell_length_b 20.600828
_cell_length_c 6.723177
_cell_angle_alpha 129.896395
_cell_angle_beta 54.357306
_cell_angle_gamma 133.498933
_cell_volume 658.320105
_symmetry_space_group_name_H-M "P -1"
_symmetry_group_IT_number 2
_symmetry_cell_setting 'triclinic'
loop_
_space_group_symop_operation_xyz
x,y,z
-x,-y,-z
loop_
_atom_site_type_symbol
_atom_site_label
_atom_site_fract_x
_atom_site_fract_y
_atom_site_fract_z
Si Si1 0.316385 0.816339 0.565754
Si Si2 0.423952 0.391851 0.918804
Si Si3 0.140372 0.345541 0.394058
Si Si4 0.277705 0.127264 0.396034
Si Si5 0.417606 0.283177 0.312300
Si Si6 0.500000 0.000000 0.500000
Si Si7 0.181674 0.921247 0.203409
Si Si8 0.749718 0.448347 0.133689
O O1 0.531450 0.819001 0.483041
O O2 0.368526 0.888792 0.484053
O O3 0.112313 0.709319 0.475110
O O4 0.238822 0.856981 0.890571
O O5 0.408875 0.328407 0.618374
O O6 0.500000 0.500000 0.000000
O O7 0.200102 0.348601 0.123803
O O8 0.604024 0.406131 0.967672
O O9 0.241760 0.287926 0.316302
O O10 0.264003 0.458598 0.589502
O O11 0.357954 0.174686 0.209596
O O12 0.062881 0.127461 0.626697
O O13 0.220177 0.014910 0.226186
O O14 0.648330 0.357871 0.187263
O O15 0.340964 0.961533 0.348026
O O16 0.000000 0.500000 0.000000
#
# Coordination Sequence:
#
# PCOD9111011 Si02
#       8
#     2   2   2   2   2   1   2   2
#     4  11  24  43  65  95 131 167 216 260 323 381
#     4  11  20  41  68  83 123 175 208 265 322 371
#     4  11  23  42  64  93 126 171 215 266 316 385
#     4  10  22  41  68  95 126 168 211 262 314 386
#     4  11  22  43  63  93 128 165 222 258 324 384
#     4  10  20  42  68  90 126 168 202 262 312 380
#     4  10  22  46  66  95 133 165 211 265 324 374
#     4  11  25  41  59  96 131 164 216 267 319 383
#
# _framework density 22.785267999999999
#
# number of rings (size 3 to 8) (size 9 to 14) (size 15 to 20)
#    0.000    1.333    2.667    4.000    1.867    1.600 
#    7.200   19.333    0.000    0.000    0.000    0.000 
#    0.000    0.000    0.000    0.000    0.000    0.000 
#
# Total GULP energy -83671.395221 kJ/mol
# GULP energy per Si atom -5578.093015 kJ/mol
# Density = 2.273341 g / cm^3
# Si number density = 22.785268 Si / 1000 Ang^3
#
#
#
# Elastic Constant Matrix: (Units=GPa)
#
#
# Indices 1 2 3 4 5 6 
#
# 1 55.0247 48.3326 28.4191 -17.4572 -7.0025 -3.5594
# 2 48.3326 171.7069 25.6527 -38.5757 1.8309 -3.8313
# 3 28.4191 25.6527 66.5849 -8.2261 3.9571 -1.3263
# 4 -17.4572 -38.5757 -8.2261 39.5270 0.8079 6.6800
# 5 -7.0025 1.8309 3.9571 0.8079 22.9145 -12.8765
# 6 -3.5594 -3.8313 -1.3263 6.6800 -12.8765 46.9997
#
#
#
# Elastic Compliance Matrix: (Units=1/GPa)
#
#
# Indices 1 2 3 4 5 6 
#
# 1 0.034455 -0.006846 -0.012334 0.004721 0.016098 0.005443
# 2 -0.006846 0.009121 0.000401 0.006350 -0.004123 -0.001796
# 3 -0.012334 0.000401 0.020586 -0.000127 -0.008890 -0.002738
# 4 0.004721 0.006350 -0.000127 0.034433 -0.002975 -0.004837
# 5 0.016098 -0.004123 -0.008890 -0.002975 0.060425 0.017610
# 6 0.005443 -0.001796 -0.002738 -0.004837 0.017610 0.026977
#
#
# Mechanical properties :
#
#
# Convention : Reuss Voigt Hill
#
# Bulk Modulus (GPa) = 37.58420 55.34725 46.46573
# Shear Modulus (GPa) = 21.51255 34.61570 28.06412
#
# Velocity S-wave (km/s) = 3.07602 3.90194 3.51333
# Velocity P-wave (km/s) = 5.39877 6.68159 6.07414
#
# Compressibility (1/GPa) = 0.02660692
#
# Stress axis : x y z
#
# Youngs Moduli (GPa) = 29.02320 109.63424 48.57663
#
# Poissons Ratio (x) = 0.75051 0.59912
# Poissons Ratio (y) = 0.19868 -0.01950
# Poissons Ratio (z) = 0.35796 -0.04401
#
# Static dielectric constant tensor:
#      x y z
#    x 1.803050 0.044660 -0.012250 
#    y 0.044660 1.761930 -0.073430 
#    z -0.012250 -0.073430 1.818590 
# 
# From -- ./inp_files/53632.got.cif
#   From: 2010.05.17/outbox.cif.g08.bks.cpg/sg2_27_cif.got.tgz:53632.got - 2010.06.03 11:33:40.
