data_PCOD9111379
_publ_section_title
;
Structure prediction by ZEFSAII (Michael W. Deem and Ramdas Pophale) SiO2 
 PCOD9111379
Probable space group: P -1
;
_chemical_formula_sum "Si O2"
_cell_formula_units_Z 16
_cell_length_a 5.905483
_cell_length_b 7.426793
_cell_length_c 19.549149
_cell_angle_alpha 116.544787
_cell_angle_beta 84.155553
_cell_angle_gamma 123.735044
_cell_volume 625.399139
_symmetry_space_group_name_H-M "P -1"
_symmetry_group_IT_number 2
_symmetry_cell_setting 'triclinic'
loop_
_space_group_symop_operation_xyz
x,y,z
-x,-y,-z
loop_
_atom_site_type_symbol
_atom_site_label
_atom_site_fract_x
_atom_site_fract_y
_atom_site_fract_z
Si Si1 0.235244 0.491006 0.274645
Si Si2 0.111882 0.725495 0.085840
Si Si3 0.249677 0.074156 0.623466
Si Si4 0.821075 0.595344 0.484992
Si Si5 0.372478 0.077049 0.958799
Si Si6 0.784523 0.778814 0.891373
Si Si7 0.308406 0.767422 0.678699
Si Si8 0.095862 0.816699 0.248052
O O1 0.460370 0.664602 0.354794
O O2 0.355197 0.400972 0.198263
O O3 0.155932 0.649065 0.261506
O O4 0.947010 0.270758 0.277771
O O5 0.978760 0.686353 0.156788
O O6 0.120603 0.951234 0.090797
O O7 0.434311 0.819943 0.095449
O O8 0.000000 0.500000 0.000000
O O9 0.087143 0.129306 0.691914
O O10 0.343303 0.923218 0.636959
O O11 0.030526 0.886202 0.542537
O O12 0.500000 0.500000 0.500000
O O13 0.787582 0.497284 0.392128
O O14 0.000000 0.500000 0.500000
O O15 0.348237 0.267087 0.037243
O O16 0.500000 0.000000 0.000000
O O17 0.082307 0.832696 0.906073
O O18 0.607570 0.922109 0.730889
#
# Coordination Sequence:
#
# PCOD9111379 Si02
#       8
#     2   2   2   2   2   2   2   2
#     4  11  25  40  66  98 131 180 227 286 342 419
#     4  11  25  39  62  93 124 171 226 277 346 406
#     4  10  23  42  68 100 137 176 230 277 349 414
#     4  10  20  42  76 105 145 190 233 289 354 425
#     4   9  21  39  62  87 117 161 219 275 340 407
#     4  10  22  42  63  86 129 169 219 278 349 403
#     4  10  22  44  68  96 136 183 224 277 353 412
#     4  11  24  41  63  94 135 171 229 287 341 421
#
# _framework density 25.583659000000001
#
# number of rings (size 3 to 8) (size 9 to 14) (size 15 to 20)
#    0.000    1.750    1.250    1.500    7.000    5.000 
#    0.000    0.625    0.000    0.000    0.000    0.000 
#    0.000    0.000    0.000    0.000    0.000    0.000 
#
# Total GULP energy -89308.337565 kJ/mol
# GULP energy per Si atom -5581.771098 kJ/mol
# Density = 2.552543 g / cm^3
# Si number density = 25.583659 Si / 1000 Ang^3
#
#
#
# Elastic Constant Matrix: (Units=GPa)
#
#
# Indices 1 2 3 4 5 6 
#
# 1 78.8898 14.6483 17.4227 8.0237 2.7376 7.1173
# 2 14.6483 32.5663 7.4573 5.0440 7.1387 -4.1503
# 3 17.4227 7.4573 124.7419 26.2935 -6.0207 -6.6993
# 4 8.0237 5.0440 26.2935 38.4231 8.3565 1.7088
# 5 2.7376 7.1387 -6.0207 8.3565 39.8513 -0.8971
# 6 7.1173 -4.1503 -6.6993 1.7088 -0.8971 46.3606
#
#
#
# Elastic Compliance Matrix: (Units=1/GPa)
#
#
# Indices 1 2 3 4 5 6 
#
# 1 0.014596 -0.006440 -0.001607 -0.000979 0.000046 -0.003013
# 2 -0.006440 0.035834 -0.000954 -0.001648 -0.005685 0.004009
# 3 -0.001607 -0.000954 0.010098 -0.007271 0.003376 0.001954
# 4 -0.000979 -0.001648 -0.007271 0.033217 -0.007756 -0.002422
# 5 0.000046 -0.005685 0.003376 -0.007756 0.028263 0.000805
# 6 -0.003013 0.004009 0.001954 -0.002422 0.000805 0.022779
#
#
# Mechanical properties :
#
#
# Convention : Reuss Voigt Hill
#
# Bulk Modulus (GPa) = 23.51461 35.02825 29.27143
# Shear Modulus (GPa) = 28.25416 38.03831 33.14624
#
# Velocity S-wave (km/s) = 3.32683 3.86011 3.60335
# Velocity P-wave (km/s) = 4.89574 5.79557 5.36456
#
# Compressibility (1/GPa) = 0.04252675
#
# Stress axis : x y z
#
# Youngs Moduli (GPa) = 68.51049 27.90631 99.02513
#
# Poissons Ratio (x) = 0.17971 0.15913
# Poissons Ratio (y) = 0.44119 0.09451
# Poissons Ratio (z) = 0.11009 0.02664
#
# Static dielectric constant tensor:
#      x y z
#    x 2.149130 0.005950 -0.028970 
#    y 0.005950 2.096770 0.057120 
#    z -0.028970 0.057120 2.030640 
# 
# From -- ./inp_files/604064.got.cif
#   From: 2010.05.17/outbox.cif.g08.bks.cpg/sg2_303_cif.got.tgz:604064.got - 2010.06.03 11:33:40.
