data_PCOD9111589
_publ_section_title
;
Structure prediction by ZEFSAII (Michael W. Deem and Ramdas Pophale) SiO2 
 PCOD9111589
Probable space group: P -1
;
_chemical_formula_sum "Si O2"
_cell_formula_units_Z 14
_cell_length_a 12.112536
_cell_length_b 19.561227
_cell_length_c 9.643188
_cell_angle_alpha 31.394169
_cell_angle_beta 40.797818
_cell_angle_gamma 27.441524
_cell_volume 548.500634
_symmetry_space_group_name_H-M "P -1"
_symmetry_group_IT_number 2
_symmetry_cell_setting 'triclinic'
loop_
_space_group_symop_operation_xyz
x,y,z
-x,-y,-z
loop_
_atom_site_type_symbol
_atom_site_label
_atom_site_fract_x
_atom_site_fract_y
_atom_site_fract_z
Si Si1 0.677158 0.275434 0.932518
Si Si2 0.412378 0.672567 0.468347
Si Si3 0.783543 0.856977 0.932785
Si Si4 0.780804 0.015565 0.082098
Si Si5 0.644227 0.201061 0.390100
Si Si6 0.225770 0.242302 0.608980
Si Si7 0.895038 0.562298 0.144662
O O1 0.470317 0.487604 0.712037
O O2 0.646068 0.149125 0.112154
O O3 0.697755 0.258797 0.106875
O O4 0.946107 0.169082 0.816442
O O5 0.395600 0.701809 0.598014
O O6 0.647777 0.620365 0.285468
O O7 0.216110 0.863302 0.239308
O O8 0.826182 0.983328 0.634088
O O9 0.909948 0.735912 0.161747
O O10 0.847618 0.732119 0.958796
O O11 0.500000 0.000000 0.000000
O O12 0.673195 0.946227 0.232432
O O13 0.412266 0.246866 0.478806
O O14 0.064502 0.399483 0.376809
O O15 0.000000 0.500000 0.000000
#
# Coordination Sequence:
#
# PCOD9111589 Si02
#       7
#     2   2   2   2   2   2   2
#     4  11  27  45  68 102 143 187 231 284 353 426
#     4  12  23  49  69  99 146 184 233 290 351 419
#     4  10  20  43  66  97 137 178 227 287 350 405
#     4  11  25  46  71  96 141 191 228 289 356 410
#     4  11  24  43  73 104 133 182 242 282 350 425
#     4  11  22  45  69  99 139 182 227 299 346 408
#     4  12  26  39  70 109 138 180 238 291 353 415
#
# _framework density 25.524128000000001
#
# number of rings (size 3 to 8) (size 9 to 14) (size 15 to 20)
#    0.000    0.857    5.714    2.143    4.000    1.143 
#    2.571    0.000    0.000    0.000    0.000    0.000 
#    0.000    0.000    0.000    0.000    0.000    0.000 
#
# Total GULP energy -78385.887176 kJ/mol
# GULP energy per Si atom -5598.991941 kJ/mol
# Density = 2.546603 g / cm^3
# Si number density = 25.524128 Si / 1000 Ang^3
#
#
#
# Elastic Constant Matrix: (Units=GPa)
#
#
# Indices 1 2 3 4 5 6 
#
# 1 108.2835 44.2234 12.1923 -6.1519 14.6316 24.1252
# 2 44.2234 93.7504 39.1506 -14.2262 0.9853 41.3548
# 3 12.1923 39.1506 77.1421 -20.8331 21.1723 11.1047
# 4 -6.1519 -14.2262 -20.8331 44.3903 13.6554 1.5477
# 5 14.6316 0.9853 21.1723 13.6554 48.1364 -1.4946
# 6 24.1252 41.3548 11.1047 1.5477 -1.4946 53.9188
#
#
#
# Elastic Compliance Matrix: (Units=1/GPa)
#
#
# Indices 1 2 3 4 5 6 
#
# 1 0.012999 -0.006363 0.004549 0.004147 -0.007067 -0.002188
# 2 -0.006363 0.023953 -0.010620 0.000565 0.005545 -0.013200
# 3 0.004549 -0.010620 0.026306 0.014790 -0.016938 -0.000202
# 4 0.004147 0.000565 0.014790 0.036070 -0.018224 -0.006876
# 5 -0.007067 0.005545 -0.016938 -0.018224 0.035550 0.003906
# 6 -0.002188 -0.013200 -0.000202 -0.006876 0.003906 0.029997
#
#
# Mechanical properties :
#
#
# Convention : Reuss Voigt Hill
#
# Bulk Modulus (GPa) = 26.04766 52.25652 39.15209
# Shear Modulus (GPa) = 24.68647 41.52976 33.10812
#
# Velocity S-wave (km/s) = 3.11333 4.03808 3.60548
# Velocity P-wave (km/s) = 4.81155 6.50072 5.71884
#
# Compressibility (1/GPa) = 0.03839117
#
# Stress axis : x y z
#
# Youngs Moduli (GPa) = 76.92648 41.74774 38.01428
#
# Poissons Ratio (x) = 0.26564 -0.17294
# Poissons Ratio (y) = 0.48949 0.40371
# Poissons Ratio (z) = -0.34996 0.44336
#
# Static dielectric constant tensor:
#      x y z
#    x 2.039610 -0.045050 0.041220 
#    y -0.045050 2.102800 -0.042750 
#    z 0.041220 -0.042750 2.056210 
# 
# From -- ./inp_files/278763.got.cif
#   From: 2010.05.17/outbox.cif.g08.bks.cpg/sg2_140_cif.got.tgz:278763.got - 2010.06.03 11:33:40.
