data_PCOD9111248
_publ_section_title
;
Structure prediction by ZEFSAII (Michael W. Deem and Ramdas Pophale) SiO2 
 PCOD9111248
Probable space group: P -1
;
_chemical_formula_sum "Si O2"
_cell_formula_units_Z 15
_cell_length_a 10.249763
_cell_length_b 12.336859
_cell_length_c 9.999934
_cell_angle_alpha 143.862315
_cell_angle_beta 59.414569
_cell_angle_gamma 120.430493
_cell_volume 630.479711
_symmetry_space_group_name_H-M "P -1"
_symmetry_group_IT_number 2
_symmetry_cell_setting 'triclinic'
loop_
_space_group_symop_operation_xyz
x,y,z
-x,-y,-z
loop_
_atom_site_type_symbol
_atom_site_label
_atom_site_fract_x
_atom_site_fract_y
_atom_site_fract_z
Si Si1 0.306243 0.908689 0.642667
Si Si2 0.421039 0.818549 0.104915
Si Si3 0.633380 0.628582 0.635321
Si Si4 0.849208 0.861606 0.268951
Si Si5 0.931305 0.599259 0.515653
Si Si6 0.796839 0.972929 0.714005
Si Si7 0.213886 0.576531 0.187774
Si Si8 0.000000 0.000000 0.000000
O O1 0.240064 0.017285 0.660615
O O2 0.523795 0.992147 0.303673
O O3 0.302388 0.696419 0.383942
O O4 0.171732 0.926402 0.835603
O O5 0.295220 0.682754 0.123221
O O6 0.325875 0.891490 0.107727
O O7 0.551658 0.708151 0.880197
O O8 0.500000 0.500000 0.500000
O O9 0.758862 0.504755 0.481689
O O10 0.718099 0.796014 0.663997
O O11 0.822555 0.902829 0.478931
O O12 0.796176 0.644915 0.039856
O O13 0.035130 0.927845 0.216987
O O14 0.000000 0.500000 0.500000
O O15 0.039415 0.606078 0.336394
O O16 0.921755 0.802080 0.779224
#
# Coordination Sequence:
#
# PCOD9111248 Si02
#       8
#     2   2   2   2   2   2   2   1
#     4  11  23  46  70 108 143 191 244 307 363 425
#     4  12  26  48  74 109 152 194 243 312 370 428
#     4  12  28  49  72 110 154 191 249 303 372 445
#     4  11  25  46  77 104 147 192 254 297 365 434
#     4  11  25  47  73 107 140 195 244 296 360 435
#     4  11  26  49  73 106 150 203 239 302 371 442
#     4  11  25  43  76 110 143 188 248 302 364 439
#     4  10  20  42  70  98 148 180 236 292 358 428
#
# _framework density 23.791409000000002
#
# number of rings (size 3 to 8) (size 9 to 14) (size 15 to 20)
#    0.000    0.800    2.667    4.000    3.733    3.200 
#    0.000    0.000    0.000    0.000    0.000    0.000 
#    0.000    0.000    0.000    0.000    0.000    0.000 
#
# Total GULP energy -83688.207979 kJ/mol
# GULP energy per Si atom -5579.213865 kJ/mol
# Density = 2.373726 g / cm^3
# Si number density = 23.791409 Si / 1000 Ang^3
#
#
#
# Elastic Constant Matrix: (Units=GPa)
#
#
# Indices 1 2 3 4 5 6 
#
# 1 137.8856 57.8757 -6.4048 4.1026 -6.8404 30.1385
# 2 57.8757 103.8624 26.6123 4.5279 -6.3398 7.5961
# 3 -6.4048 26.6123 80.2388 12.7825 6.2948 12.8954
# 4 4.1026 4.5279 12.7825 41.1309 16.9550 4.8173
# 5 -6.8404 -6.3398 6.2948 16.9550 28.5540 1.9726
# 6 30.1385 7.5961 12.8954 4.8173 1.9726 33.3719
#
#
#
# Elastic Compliance Matrix: (Units=1/GPa)
#
#
# Indices 1 2 3 4 5 6 
#
# 1 0.013934 -0.008153 0.006001 -0.001716 0.002117 -0.012925
# 2 -0.008153 0.015722 -0.007019 -0.000765 0.003095 0.006424
# 3 0.006001 -0.007019 0.017547 -0.003638 -0.001137 -0.010010
# 4 -0.001716 -0.000765 -0.003638 0.033977 -0.019913 -0.000598
# 5 0.002117 0.003095 -0.001137 -0.019913 0.048440 -0.002166
# 6 -0.012925 0.006424 -0.010010 -0.000598 -0.002166 0.044258
#
#
# Mechanical properties :
#
#
# Convention : Reuss Voigt Hill
#
# Bulk Modulus (GPa) = 34.64779 53.12814 43.88797
# Shear Modulus (GPa) = 24.77203 36.87159 30.82181
#
# Velocity S-wave (km/s) = 3.23029 3.94100 3.60321
# Velocity P-wave (km/s) = 5.33927 6.56414 5.98313
#
# Compressibility (1/GPa) = 0.02886187
#
# Stress axis : x y z
#
# Youngs Moduli (GPa) = 71.76527 63.60506 56.98942
#
# Poissons Ratio (x) = 0.51857 -0.34198
# Poissons Ratio (y) = 0.58510 0.39999
# Poissons Ratio (z) = -0.43065 0.44642
#
# Static dielectric constant tensor:
#      x y z
#    x 2.001630 0.007450 -0.027830 
#    y 0.007450 1.979710 -0.062220 
#    z -0.027830 -0.062220 1.989600 
# 
# From -- ./inp_files/432038.got.cif
#   From: 2010.05.17/outbox.cif.g08.bks.cpg/sg2_217_cif.got.tgz:432038.got - 2010.06.03 11:33:40.
