data_PCOD9111831
_publ_section_title
;
Structure prediction by ZEFSAII (Michael W. Deem and Ramdas Pophale) SiO2 
 PCOD9111831
Probable space group: P -1
;
_chemical_formula_sum "Si O2"
_cell_formula_units_Z 14
_cell_length_a 21.185067
_cell_length_b 14.584475
_cell_length_c 11.580657
_cell_angle_alpha 142.568937
_cell_angle_beta 156.451059
_cell_angle_gamma 23.714062
_cell_volume 551.686472
_symmetry_space_group_name_H-M "P -1"
_symmetry_group_IT_number 2
_symmetry_cell_setting 'triclinic'
loop_
_space_group_symop_operation_xyz
x,y,z
-x,-y,-z
loop_
_atom_site_type_symbol
_atom_site_label
_atom_site_fract_x
_atom_site_fract_y
_atom_site_fract_z
Si Si1 0.371234 0.786586 0.136302
Si Si2 0.909479 0.392073 0.606764
Si Si3 0.129407 0.805139 0.235183
Si Si4 0.994939 0.317520 0.427837
Si Si5 0.382012 0.654318 0.272315
Si Si6 0.742391 0.849792 0.855970
Si Si7 0.233325 0.180865 0.466909
O O1 0.630873 0.532919 0.270138
O O2 0.410626 0.746329 0.303462
O O3 0.346439 0.961328 0.195946
O O4 0.085144 0.944184 0.808222
O O5 0.064861 0.251086 0.611630
O O6 0.859627 0.609999 0.760009
O O7 0.047468 0.235468 0.795088
O O8 0.233708 0.805857 0.293804
O O9 0.353504 0.594863 0.483835
O O10 0.976166 0.770453 0.898235
O O11 0.869164 0.574457 0.467556
O O12 0.219109 0.146197 0.542333
O O13 0.780265 0.361259 0.069791
O O14 0.509141 0.982367 0.679231
#
# Coordination Sequence:
#
# PCOD9111831 Si02
#       7
#     2   2   2   2   2   2   2
#     4  12  21  40  66  92 132 173 219 269 325 392
#     4  11  23  40  66  99 130 171 225 275 327 384
#     4  10  21  43  69  93 127 179 226 265 318 398
#     4  10  22  42  67  99 135 168 217 278 329 388
#     4  10  24  42  64  97 135 175 216 267 333 398
#     4  11  23  41  67 100 130 174 224 273 326 394
#     4  10  20  43  71  96 130 172 221 276 325 385
#
# _framework density 25.376733000000002
#
# number of rings (size 3 to 8) (size 9 to 14) (size 15 to 20)
#    0.000    1.429    2.857    2.571    0.000    2.286 
#    2.571    1.429    0.000    0.000    0.000    0.000 
#    0.000    0.000    0.000    0.000    0.000    0.000 
#
# Total GULP energy -78211.916757 kJ/mol
# GULP energy per Si atom -5586.565483 kJ/mol
# Density = 2.531897 g / cm^3
# Si number density = 25.376733 Si / 1000 Ang^3
#
#
#
# Elastic Constant Matrix: (Units=GPa)
#
#
# Indices 1 2 3 4 5 6 
#
# 1 200.0502 46.6957 41.3643 -9.9151 7.3551 -4.3273
# 2 46.6957 68.0824 26.9863 -7.3312 5.7123 11.0332
# 3 41.3643 26.9863 71.3143 -20.6491 -11.8712 10.6776
# 4 -9.9151 -7.3312 -20.6491 44.1598 4.0659 7.8691
# 5 7.3551 5.7123 -11.8712 4.0659 43.8051 -5.2755
# 6 -4.3273 11.0332 10.6776 7.8691 -5.2755 58.2514
#
#
#
# Elastic Compliance Matrix: (Units=1/GPa)
#
#
# Indices 1 2 3 4 5 6 
#
# 1 0.006502 -0.003475 -0.003140 -0.000779 -0.001211 0.001712
# 2 -0.003475 0.020291 -0.005504 0.001032 -0.004084 -0.003602
# 3 -0.003140 -0.005504 0.022057 0.008842 0.005933 -0.003891
# 4 -0.000779 0.001032 0.008842 0.027877 -0.000884 -0.005720
# 5 -0.001211 -0.004084 0.005933 -0.000884 0.025498 0.002025
# 6 0.001712 -0.003602 -0.003891 -0.005720 0.002025 0.019646
#
#
# Mechanical properties :
#
#
# Convention : Reuss Voigt Hill
#
# Bulk Modulus (GPa) = 40.63135 63.28219 51.95677
# Shear Modulus (GPa) = 32.40182 44.20328 38.30255
#
# Velocity S-wave (km/s) = 3.57715 4.17811 3.88926
# Velocity P-wave (km/s) = 5.75390 6.94743 6.37864
#
# Compressibility (1/GPa) = 0.02461154
#
# Stress axis : x y z
#
# Youngs Moduli (GPa) = 153.79855 49.28402 45.33676
#
# Poissons Ratio (x) = 0.17125 0.14236
# Poissons Ratio (y) = 0.53440 0.24956
# Poissons Ratio (z) = 0.48292 0.27128
#
# Static dielectric constant tensor:
#      x y z
#    x 2.024690 -0.032420 0.015550 
#    y -0.032420 2.158260 0.129690 
#    z 0.015550 0.129690 2.012320 
# 
# From -- ./inp_files/471754.got.cif
#   From: 2010.05.17/outbox.cif.g08.bks.cpg/sg2_236_cif.got.tgz:471754.got - 2010.06.03 11:33:40.
