data_PCOD9111930
_publ_section_title
;
Structure prediction by ZEFSAII (Michael W. Deem and Ramdas Pophale) SiO2 
 PCOD9111930
Probable space group: P -1
;
_chemical_formula_sum "Si O2"
_cell_formula_units_Z 14
_cell_length_a 11.762177
_cell_length_b 17.467993
_cell_length_c 16.358635
_cell_angle_alpha 21.865940
_cell_angle_beta 33.316958
_cell_angle_gamma 31.266823
_cell_volume 633.900796
_symmetry_space_group_name_H-M "P -1"
_symmetry_group_IT_number 2
_symmetry_cell_setting 'triclinic'
loop_
_space_group_symop_operation_xyz
x,y,z
-x,-y,-z
loop_
_atom_site_type_symbol
_atom_site_label
_atom_site_fract_x
_atom_site_fract_y
_atom_site_fract_z
Si Si1 0.564178 0.080504 0.630699
Si Si2 0.217987 0.150342 0.117118
Si Si3 0.226360 0.519442 0.479222
Si Si4 0.678508 0.168344 0.771645
Si Si5 0.951315 0.240906 0.952730
Si Si6 0.310852 0.787004 0.016142
Si Si7 0.736334 0.353082 0.141291
O O1 0.436234 0.296995 0.548602
O O2 0.671575 0.160368 0.411866
O O3 0.744161 0.902485 0.757751
O O4 0.382301 0.985254 0.804644
O O5 0.973959 0.324510 0.067085
O O6 0.256848 0.923657 0.267201
O O7 0.419909 0.217409 0.897773
O O8 0.263767 0.628013 0.433150
O O9 0.786206 0.310156 0.754714
O O10 0.018074 0.445817 0.683900
O O11 0.829859 0.954079 0.947677
O O12 0.776056 0.316022 0.057911
O O13 0.853872 0.160872 0.013114
O O14 0.540370 0.585817 0.049841
#
# Coordination Sequence:
#
# PCOD9111930 Si02
#       7
#     2   2   2   2   2   2   2
#     4  11  23  43  62  95 127 163 206 251 310 369
#     4  10  20  44  62  92 128 155 211 253 303 373
#     4  11  22  41  65  97 120 163 208 252 317 356
#     4  10  22  40  66  95 122 160 203 262 310 353
#     4  11  23  43  64  94 125 158 212 256 304 370
#     4  11  24  42  64  91 128 164 204 256 307 364
#     4  10  25  41  63  91 124 168 206 249 310 365
#
# _framework density 22.085474000000001
#
# number of rings (size 3 to 8) (size 9 to 14) (size 15 to 20)
#    0.000    1.429    2.857    1.286    0.000    8.571 
#    2.571    0.000    0.000    0.000    0.000    0.000 
#    0.000    0.000    0.000    0.000    0.000    0.000 
#
# Total GULP energy -78352.890460 kJ/mol
# GULP energy per Si atom -5596.635033 kJ/mol
# Density = 2.203521 g / cm^3
# Si number density = 22.085474 Si / 1000 Ang^3
#
#
#
# Elastic Constant Matrix: (Units=GPa)
#
#
# Indices 1 2 3 4 5 6 
#
# 1 -1895.4010 2751.4771-1769.2788 154.1877 -614.2823 48.0863
# 2 2751.4771-3593.8402 2478.2854 -192.4939 803.8704 -76.4452
# 3 -1769.2788 2478.2854-1550.6948 136.4674 -548.0475 44.5022
# 4 154.1877 -192.4939 136.4674 13.5390 53.8003 -2.4973
# 5 -614.2823 803.8704 -548.0475 53.8003 -140.1468 15.0956
# 6 48.0863 -76.4452 44.5022 -2.4973 15.0956 30.9214
#
#
#
# Elastic Compliance Matrix: (Units=1/GPa)
#
#
# Indices 1 2 3 4 5 6 
#
# 1 0.009495 0.002474 -0.007624 -0.002347 0.001634 0.001337
# 2 0.002474 0.005106 0.002305 -0.006593 0.007061 0.001480
# 3 -0.007624 0.002305 0.012571 0.001097 -0.002040 0.000547
# 4 -0.002347 -0.006593 0.001097 0.048757 -0.013498 -0.003700
# 5 0.001634 0.007061 -0.002040 -0.013498 0.029269 0.002474
# 6 0.001337 0.001480 0.000547 -0.003700 0.002474 0.031625
#
#
# Mechanical properties :
#
#
# Convention : Reuss Voigt Hill
#
# Bulk Modulus (GPa) = 46.55289 -13.21874 16.66708
# Shear Modulus (GPa) = 33.40584 -719.16527 -342.87971
#
# Velocity S-wave (km/s) = 3.89340 -18.06475 -12.47350
# Velocity P-wave (km/s) = 6.42928 21.00266 14.13818
#
# Compressibility (1/GPa) = 0.02148094
#
# Stress axis : x y z
#
# Youngs Moduli (GPa) = 105.32170 195.83163 79.55131
#
# Poissons Ratio (x) = -0.48455 0.60652
# Poissons Ratio (y) = -0.26060 -0.18333
# Poissons Ratio (z) = 0.80300 -0.45131
#
# Static dielectric constant tensor:
#      x y z
#    x 1.807500 -0.001990 0.015880 
#    y -0.001990 1.818240 -0.006990 
#    z 0.015880 -0.006990 1.788120 
# 
# From -- ./inp_files/570290.got.cif
#   From: 2010.05.17/outbox.cif.g08.bks.cpg/sg2_286_cif.got.tgz:570290.got - 2010.06.03 11:33:40.
