data_PCOD9111207
_publ_section_title
;
Structure prediction by ZEFSAII (Michael W. Deem and Ramdas Pophale) SiO2 
 PCOD9111207
Probable space group: P -1
;
_chemical_formula_sum "Si O2"
_cell_formula_units_Z 16
_cell_length_a 5.499951
_cell_length_b 14.403198
_cell_length_c 17.176353
_cell_angle_alpha 37.104850
_cell_angle_beta 128.826538
_cell_angle_gamma 111.585264
_cell_volume 613.686060
_symmetry_space_group_name_H-M "P -1"
_symmetry_group_IT_number 2
_symmetry_cell_setting 'triclinic'
loop_
_space_group_symop_operation_xyz
x,y,z
-x,-y,-z
loop_
_atom_site_type_symbol
_atom_site_label
_atom_site_fract_x
_atom_site_fract_y
_atom_site_fract_z
Si Si1 0.184042 0.487000 0.338067
Si Si2 0.444865 0.246194 0.755203
Si Si3 0.417493 0.293141 0.890782
Si Si4 0.369081 0.015160 0.165758
Si Si5 0.093777 0.942113 0.420382
Si Si6 0.968855 0.452411 0.912797
Si Si7 0.777458 0.212187 0.610860
Si Si8 0.627238 0.753752 0.750933
O O1 0.390858 0.610833 0.316228
O O2 0.054357 0.504067 0.211681
O O3 0.439126 0.314763 0.510559
O O4 0.862705 0.540368 0.289467
O O5 0.482848 0.203504 0.882235
O O6 0.595720 0.102612 0.822421
O O7 0.061974 0.291608 0.631242
O O8 0.729895 0.339499 0.951585
O O9 0.284518 0.190157 0.995246
O O10 0.133782 0.961539 0.213792
O O11 0.709253 0.988837 0.297842
O O12 0.247509 0.820620 0.462422
O O13 0.250727 0.841095 0.595653
O O14 0.212536 0.100238 0.325833
O O15 0.814721 0.613177 0.823443
O O16 0.307218 0.341123 0.090280
#
# Coordination Sequence:
#
# PCOD9111207 Si02
#       8
#     2   2   2   2   2   2   2   2
#     4  11  24  41  64  96 128 164 208 257 311 374
#     4  10  24  42  68  90 126 166 210 256 310 372
#     4  11  24  41  64  96 128 164 208 257 311 374
#     4  11  24  41  64  96 128 164 208 257 311 374
#     4  10  22  42  66  92 130 164 210 258 312 368
#     4  10  22  42  66  92 130 164 210 258 312 368
#     4  11  24  41  64  96 128 164 208 257 311 374
#     4  10  20  42  70  88 122 174 208 258 314 366
#
# _framework density 26.071960000000001
#
# number of rings (size 3 to 8) (size 9 to 14) (size 15 to 20)
#    0.000    1.500    2.500    1.500    3.500    6.000 
#    0.000    7.500    0.000    0.000    0.000    0.000 
#    0.000    0.000    0.000    0.000    0.000    0.000 
#
# Total GULP energy -89670.355793 kJ/mol
# GULP energy per Si atom -5604.397237 kJ/mol
# Density = 2.601262 g / cm^3
# Si number density = 26.071960 Si / 1000 Ang^3
#
#
#
# Elastic Constant Matrix: (Units=GPa)
#
#
# Indices 1 2 3 4 5 6 
#
# 1 22.1187 0.9897 19.7914 8.8422 -1.8979 -0.6141
# 2 0.9897 127.1303 49.6801 8.6231 1.3763 4.3865
# 3 19.7914 49.6801 152.6157 1.9407 6.7904 5.6331
# 4 8.8422 8.6231 1.9407 23.6177 0.5210 -0.5540
# 5 -1.8979 1.3763 6.7904 0.5210 26.3356 -13.5463
# 6 -0.6141 4.3865 5.6331 -0.5540 -13.5463 12.2908
#
#
#
# Elastic Compliance Matrix: (Units=1/GPa)
#
#
# Indices 1 2 3 4 5 6 
#
# 1 0.070881 0.004772 -0.013035 -0.026947 0.028047 0.037511
# 2 0.004772 0.009653 -0.003624 -0.005055 -0.000089 -0.001872
# 3 -0.013035 -0.003624 0.010613 0.005188 -0.013024 -0.018343
# 4 -0.026947 -0.005055 0.005188 0.053827 -0.008820 -0.009215
# 5 0.028047 -0.000089 -0.013024 -0.008820 0.108831 0.126953
# 6 0.037511 -0.001872 -0.018343 -0.009215 0.126953 0.231817
#
#
# Mechanical properties :
#
#
# Convention : Reuss Voigt Hill
#
# Bulk Modulus (GPa) = 14.84264 49.19857 32.02061
# Shear Modulus (GPa) = 9.40105 27.87572 18.63838
#
# Velocity S-wave (km/s) = 1.90096 3.27338 2.67663
# Velocity P-wave (km/s) = 3.24399 5.76177 4.67555
#
# Compressibility (1/GPa) = 0.06737345
#
# Stress axis : x y z
#
# Youngs Moduli (GPa) = 14.10812 103.59042 94.22367
#
# Poissons Ratio (x) = -0.49433 1.22822
# Poissons Ratio (y) = -0.06732 0.34146
# Poissons Ratio (z) = 0.18390 0.37540
#
# Static dielectric constant tensor:
#      x y z
#    x 1.983950 -0.006600 -0.008720 
#    y -0.006600 2.000540 0.024930 
#    z -0.008720 0.024930 2.058840 
# 
# From -- ./inp_files/441571.got.cif
#   From: 2010.05.17/outbox.cif.g08.bks.cpg/sg2_221_cif.got.tgz:441571.got - 2010.06.03 11:33:40.
