data_PCOD9111901
_publ_section_title
;
Structure prediction by ZEFSAII (Michael W. Deem and Ramdas Pophale) SiO2 
 PCOD9111901
Probable space group: P -1
;
_chemical_formula_sum "Si O2"
_cell_formula_units_Z 16
_cell_length_a 10.065517
_cell_length_b 5.617849
_cell_length_c 17.387630
_cell_angle_alpha 89.594547
_cell_angle_beta 50.554599
_cell_angle_gamma 95.497389
_cell_volume 752.814823
_symmetry_space_group_name_H-M "P -1"
_symmetry_group_IT_number 2
_symmetry_cell_setting 'triclinic'
loop_
_space_group_symop_operation_xyz
x,y,z
-x,-y,-z
loop_
_atom_site_type_symbol
_atom_site_label
_atom_site_fract_x
_atom_site_fract_y
_atom_site_fract_z
Si Si1 0.730249 0.236325 0.264632
Si Si2 0.186241 0.984637 0.612553
Si Si3 0.937455 0.951317 0.935529
Si Si4 0.349029 0.089262 0.391573
Si Si5 0.057482 0.342613 0.780604
Si Si6 0.808256 0.436819 0.606158
Si Si7 0.391434 0.229073 0.039956
Si Si8 0.144688 0.348293 0.255111
O O1 0.551733 0.115381 0.297582
O O2 0.769984 0.522175 0.243549
O O3 0.727544 0.176122 0.356849
O O4 0.898206 0.150317 0.164116
O O5 0.308068 0.071060 0.497669
O O6 0.123186 0.188678 0.688283
O O7 0.007372 0.834551 0.649644
O O8 0.940131 0.199907 0.887907
O O9 0.752985 0.804247 0.976834
O O10 0.000000 0.000000 0.000000
O O11 0.287141 0.339451 0.387693
O O12 0.260741 0.835235 0.391523
O O13 0.945850 0.523833 0.780286
O O14 0.796301 0.458658 0.702507
O O15 0.000000 0.500000 0.500000
O O16 0.286261 0.216751 0.159824
O O17 0.500000 0.500000 0.000000
O O18 0.500000 0.000000 0.000000
#
# Coordination Sequence:
#
# PCOD9111901 Si02
#       8
#     2   2   2   2   2   2   2   2
#     4  10  24  43  68 103 136 185 238 294 355 428
#     4  10  21  40  73  94 140 184 234 284 346 424
#     4  11  25  46  75 103 144 187 238 307 379 425
#     4  12  27  43  68 111 143 185 243 293 348 420
#     4  10  20  43  74  95 136 186 234 282 360 428
#     4  12  27  44  69 101 149 192 237 289 354 426
#     4  12  27  48  74 109 140 186 250 299 361 444
#     4  11  23  44  71  99 136 196 231 285 356 431
#
# _framework density 21.253564999999998
#
# number of rings (size 3 to 8) (size 9 to 14) (size 15 to 20)
#    0.000    1.000    5.000    2.250    7.000    3.000 
#    0.000    0.000    0.000    0.000    0.000    0.000 
#    0.000    0.000    0.000    0.000    0.000    0.000 
#
# Total GULP energy -89212.673081 kJ/mol
# GULP energy per Si atom -5575.792068 kJ/mol
# Density = 2.120519 g / cm^3
# Si number density = 21.253565 Si / 1000 Ang^3
#
#
#
# Elastic Constant Matrix: (Units=GPa)
#
#
# Indices 1 2 3 4 5 6 
#
# 1 89.4781 41.0332 53.2715 1.2489 -6.7819 16.7353
# 2 41.0332 93.2798 35.0386 -6.3699 -9.3359 1.4367
# 3 53.2715 35.0386 82.0979 8.2998 0.0323 10.8243
# 4 1.2489 -6.3699 8.2998 30.9996 9.5235 -3.1725
# 5 -6.7819 -9.3359 0.0323 9.5235 41.9637 4.0961
# 6 16.7353 1.4367 10.8243 -3.1725 4.0961 25.7970
#
#
#
# Elastic Compliance Matrix: (Units=1/GPa)
#
#
# Indices 1 2 3 4 5 6 
#
# 1 0.022188 -0.005333 -0.010614 -0.001359 0.003732 -0.010403
# 2 -0.005333 0.014892 -0.003973 0.004522 0.000970 0.004699
# 3 -0.010614 -0.003973 0.021734 -0.006182 -0.000957 -0.002621
# 4 -0.001359 0.004522 -0.006182 0.038586 -0.008881 0.009379
# 5 0.003732 0.000970 -0.000957 -0.008881 0.027399 -0.007516
# 6 -0.010403 0.004699 -0.002621 0.009379 -0.007516 0.048698
#
#
# Mechanical properties :
#
#
# Convention : Reuss Voigt Hill
#
# Bulk Modulus (GPa) = 52.69845 58.17139 55.43492
# Shear Modulus (GPa) = 22.76251 28.78622 25.77436
#
# Velocity S-wave (km/s) = 3.27616 3.68423 3.48617
# Velocity P-wave (km/s) = 6.25779 6.74742 6.50721
#
# Compressibility (1/GPa) = 0.01897589
#
# Stress axis : x y z
#
# Youngs Moduli (GPa) = 45.06973 67.15100 46.01075
#
# Poissons Ratio (x) = 0.35808 0.48835
# Poissons Ratio (y) = 0.24034 0.18278
# Poissons Ratio (z) = 0.47836 0.26676
#
# Static dielectric constant tensor:
#      x y z
#    x 1.844060 0.006110 -0.033550 
#    y 0.006110 1.910150 -0.029370 
#    z -0.033550 -0.029370 1.743270 
# 
# From -- ./inp_files/107070.got.cif
#   From: 2010.05.17/outbox.cif.g08.bks.cpg/sg2_54_cif.got.tgz:107070.got - 2010.06.03 11:33:40.
