data_PCOD9111037
_publ_section_title
;
Structure prediction by ZEFSAII (Michael W. Deem and Ramdas Pophale) SiO2 
 PCOD9111037
Probable space group: P -1
;
_chemical_formula_sum "Si O2"
_cell_formula_units_Z 14
_cell_length_a 7.274080
_cell_length_b 24.698639
_cell_length_c 9.450025
_cell_angle_alpha 146.217664
_cell_angle_beta 111.202038
_cell_angle_gamma 52.481349
_cell_volume 707.418181
_symmetry_space_group_name_H-M "P -1"
_symmetry_group_IT_number 2
_symmetry_cell_setting 'triclinic'
loop_
_space_group_symop_operation_xyz
x,y,z
-x,-y,-z
loop_
_atom_site_type_symbol
_atom_site_label
_atom_site_fract_x
_atom_site_fract_y
_atom_site_fract_z
Si Si1 0.216550 0.160961 0.664926
Si Si2 0.482808 0.270199 0.330895
Si Si3 0.067215 0.521125 0.912909
Si Si4 0.814798 0.628529 0.802237
Si Si5 0.062336 0.736704 0.467179
Si Si6 0.661320 0.885251 0.901790
Si Si7 0.771742 0.994572 0.422107
O O1 0.081616 0.175559 0.514902
O O2 0.492005 0.116823 0.607938
O O3 0.221690 0.069576 0.572002
O O4 0.089615 0.288412 0.986542
O O5 0.271004 0.394153 0.620897
O O6 0.420210 0.297074 0.204440
O O7 0.733055 0.250358 0.393786
O O8 0.473660 0.162277 0.153388
O O9 0.833297 0.594670 0.899820
O O10 0.156468 0.605342 0.149640
O O11 0.000000 0.500000 0.000000
O O12 0.000000 0.500000 0.500000
O O13 0.868840 0.776255 0.624593
O O14 0.780282 0.920659 0.129126
O O15 0.500000 0.000000 0.000000
O O16 0.000000 0.000000 0.500000
#
# Coordination Sequence:
#
# PCOD9111037 Si02
#       7
#     2   2   2   2   2   2   2
#     4  10  22  43  60  91 126 164 202 266 310 368
#     4  11  23  42  66  92 130 166 206 261 315 376
#     4  10  20  42  68  94 127 164 205 262 314 371
#     4   9  20  39  66  87 125 165 199 256 316 365
#     4  11  24  39  67  93 127 166 209 252 325 373
#     4  12  25  42  61  95 127 164 216 261 304 370
#     4  11  25  41  65  87 125 166 216 255 316 368
#
# _framework density 19.790274
#
# number of rings (size 3 to 8) (size 9 to 14) (size 15 to 20)
#    0.000    1.429    4.286    0.429    4.000    0.571 
#    0.000    0.714    0.000    0.000    0.000    0.000 
#    0.000    0.000    0.000    0.000    0.000    0.000 
#
# Total GULP energy -78058.942321 kJ/mol
# GULP energy per Si atom -5575.638737 kJ/mol
# Density = 1.974523 g / cm^3
# Si number density = 19.790274 Si / 1000 Ang^3
#
#
#
# Elastic Constant Matrix: (Units=GPa)
#
#
# Indices 1 2 3 4 5 6 
#
# 1 77.7756 60.0218 23.6777 -11.1429 27.6724 -7.5482
# 2 60.0218 165.6026 34.8138 -27.4735 27.2466 -1.5158
# 3 23.6777 34.8138 92.1790 -13.6712 15.3451 -4.1557
# 4 -11.1429 -27.4735 -13.6712 43.2902 -5.6394 2.3076
# 5 27.6724 27.2466 15.3451 -5.6394 33.7700 -7.4170
# 6 -7.5482 -1.5158 -4.1557 2.3076 -7.4170 21.2351
#
#
#
# Elastic Compliance Matrix: (Units=1/GPa)
#
#
# Indices 1 2 3 4 5 6 
#
# 1 0.022453 -0.005786 -0.001390 -0.000113 -0.012469 0.002953
# 2 -0.005786 0.009391 -0.001231 0.003941 -0.002242 -0.002838
# 3 -0.001390 -0.001231 0.012559 0.002400 -0.003054 0.000548
# 4 -0.000113 0.003941 0.002400 0.026416 -0.000261 -0.002251
# 5 -0.012469 -0.002242 -0.003054 -0.000261 0.045326 0.010670
# 6 0.002953 -0.002838 0.000548 -0.002251 0.010670 0.052018
#
#
# Mechanical properties :
#
#
# Convention : Reuss Voigt Hill
#
# Bulk Modulus (GPa) = 36.24565 63.62044 49.93305
# Shear Modulus (GPa) = 25.75025 34.12866 29.93945
#
# Velocity S-wave (km/s) = 3.61107 4.15724 3.89374
# Velocity P-wave (km/s) = 5.97838 7.43375 6.74543
#
# Compressibility (1/GPa) = 0.02758952
#
# Stress axis : x y z
#
# Youngs Moduli (GPa) = 44.53825 106.48425 79.62139
#
# Poissons Ratio (x) = 0.61610 0.11068
# Poissons Ratio (y) = 0.25769 0.09800
# Poissons Ratio (z) = 0.06191 0.13107
#
# Static dielectric constant tensor:
#      x y z
#    x 1.735910 -0.031580 -0.090970 
#    y -0.031580 1.736400 0.042430 
#    z -0.090970 0.042430 1.781770 
# 
# From -- ./inp_files/221377.got.cif
#   From: 2010.05.17/outbox.cif.g08.bks.cpg/sg2_111_cif.got.tgz:221377.got - 2010.06.03 11:33:40.
