data_PCOD9111813
_publ_section_title
;
Structure prediction by ZEFSAII (Michael W. Deem and Ramdas Pophale) SiO2 
 PCOD9111813
Probable space group: P -1
;
_chemical_formula_sum "Si O2"
_cell_formula_units_Z 16
_cell_length_a 23.984411
_cell_length_b 9.569455
_cell_length_c 9.271960
_cell_angle_alpha 133.982457
_cell_angle_beta 133.713291
_cell_angle_gamma 28.465736
_cell_volume 709.426780
_symmetry_space_group_name_H-M "P -1"
_symmetry_group_IT_number 2
_symmetry_cell_setting 'triclinic'
loop_
_space_group_symop_operation_xyz
x,y,z
-x,-y,-z
loop_
_atom_site_type_symbol
_atom_site_label
_atom_site_fract_x
_atom_site_fract_y
_atom_site_fract_z
Si Si1 0.813087 0.653789 0.927490
Si Si2 0.618469 0.238466 0.851424
Si Si3 0.404845 0.457003 0.229803
Si Si4 0.061217 0.306705 0.612234
Si Si5 0.540304 0.728246 0.258584
Si Si6 0.635885 0.810514 0.258077
Si Si7 0.271801 0.612321 0.394809
Si Si8 0.899265 0.362548 0.561649
O O1 0.751827 0.570363 0.810233
O O2 0.876484 0.467713 0.760394
O O3 0.740248 0.983513 0.974574
O O4 0.882977 0.612886 0.153913
O O5 0.625723 0.292253 0.739409
O O6 0.563785 0.135178 0.719949
O O7 0.542625 0.551622 0.018546
O O8 0.338992 0.577353 0.352440
O O9 0.550008 0.145998 0.280429
O O10 0.357479 0.367203 0.982372
O O11 0.000000 0.500000 0.500000
O O12 0.964989 0.400709 0.615730
O O13 0.154472 0.961364 0.478814
O O14 0.548344 0.894633 0.287552
O O15 0.650980 0.524721 0.419062
O O16 0.768485 0.578520 0.402529
O O17 0.000000 0.000000 0.500000
#
# Coordination Sequence:
#
# PCOD9111813 Si02
#       8
#     2   2   2   2   2   2   2   2
#     4  12  26  48  76 103 140 199 243 298 368 430
#     4  10  23  41  71 109 143 193 234 299 358 447
#     4  10  25  41  72 113 155 185 239 306 375 430
#     4  12  30  50  71 110 145 190 250 308 363 431
#     4  10  20  43  71 101 147 183 242 284 366 438
#     4  10  22  46  71 108 146 197 240 302 368 435
#     4  12  25  47  73 108 148 192 239 305 364 441
#     4  12  26  49  78 104 143 199 252 298 356 441
#
# _framework density 22.553419000000002
#
# number of rings (size 3 to 8) (size 9 to 14) (size 15 to 20)
#    0.000    1.000    3.750    1.125    7.000    5.000 
#    0.000    0.000    0.000    0.000    0.000    0.000 
#    0.000    0.000    0.000    0.000    0.000    0.000 
#
# Total GULP energy -89255.184758 kJ/mol
# GULP energy per Si atom -5578.449047 kJ/mol
# Density = 2.250209 g / cm^3
# Si number density = 22.553419 Si / 1000 Ang^3
#
#
#
# Elastic Constant Matrix: (Units=GPa)
#
#
# Indices 1 2 3 4 5 6 
#
# 1 97.3536 8.4155 10.9015 -14.8500 -11.0343 6.3827
# 2 8.4155 28.9324 62.6721 -56.3093 1.3746 -11.3327
# 3 10.9015 62.6721 74.6310 -4.1786 1.0745 12.7372
# 4 -14.8500 -56.3093 -4.1786 23.8330 -0.0374 -21.3420
# 5 -11.0343 1.3746 1.0745 -0.0374 32.2571 -4.8081
# 6 6.3827 -11.3327 12.7372 -21.3420 -4.8081 20.2187
#
#
#
# Elastic Compliance Matrix: (Units=1/GPa)
#
#
# Indices 1 2 3 4 5 6 
#
# 1 0.011160 -0.001558 0.000060 0.001437 0.003575 -0.002067
# 2 -0.001558 0.000384 0.001736 -0.012965 -0.002820 -0.014742
# 3 0.000060 0.001736 0.011443 0.012275 0.000600 0.006844
# 4 0.001437 -0.012965 0.012275 0.008522 -0.000329 -0.006536
# 5 0.003575 -0.002820 0.000600 -0.000329 0.032981 0.004409
# 6 -0.002067 -0.014742 0.006844 -0.006536 0.004409 0.031687
#
#
# Mechanical properties :
#
#
# Convention : Reuss Voigt Hill
#
# Bulk Modulus (GPa) = 42.62104 40.54391 41.58248
# Shear Modulus (GPa) = 48.29857 23.19030 35.74444
#
# Velocity S-wave (km/s) = 4.63268 3.21009 3.98537
# Velocity P-wave (km/s) = 6.89597 5.63520 6.29722
#
# Compressibility (1/GPa) = 0.02346259
#
# Stress axis : x y z
#
# Youngs Moduli (GPa) = 89.60727 2603.95179 87.38673
#
# Poissons Ratio (x) = 4.05758 -0.00526
# Poissons Ratio (y) = 0.13963 -0.15168
# Poissons Ratio (z) = -0.00539 -4.51989
#
# Static dielectric constant tensor:
#      x y z
#    x 2.178750 0.136440 0.266200 
#    y 0.136440 2.157680 0.128280 
#    z 0.266200 0.128280 2.030900 
# 
# From -- ./inp_files/352442.got.cif
#   From: 2010.05.17/outbox.cif.g08.bks.cpg/sg2_177_cif.got.tgz:352442.got - 2010.06.03 11:33:40.
