data_PCOD9111765
_publ_section_title
;
Structure prediction by ZEFSAII (Michael W. Deem and Ramdas Pophale) SiO2 
 PCOD9111765
Probable space group: P -1
;
_chemical_formula_sum "Si O2"
_cell_formula_units_Z 16
_cell_length_a 20.855873
_cell_length_b 11.793540
_cell_length_c 6.625413
_cell_angle_alpha 46.131375
_cell_angle_beta 58.465062
_cell_angle_gamma 38.243386
_cell_volume 726.404507
_symmetry_space_group_name_H-M "P -1"
_symmetry_group_IT_number 2
_symmetry_cell_setting 'triclinic'
loop_
_space_group_symop_operation_xyz
x,y,z
-x,-y,-z
loop_
_atom_site_type_symbol
_atom_site_label
_atom_site_fract_x
_atom_site_fract_y
_atom_site_fract_z
Si Si1 0.724563 0.478697 0.351054
Si Si2 0.898717 0.723552 0.291717
Si Si3 0.563946 0.121240 0.214772
Si Si4 0.919189 0.976346 0.628535
Si Si5 0.775438 0.696731 0.217789
Si Si6 0.396892 0.638923 0.366199
Si Si7 0.194538 0.069637 0.404325
Si Si8 0.577798 0.867330 0.847709
O O1 0.814615 0.226956 0.475845
O O2 0.768756 0.522639 0.402312
O O3 0.627357 0.500570 0.502028
O O4 0.686691 0.652072 0.024435
O O5 0.844041 0.666594 0.320949
O O6 0.816991 0.900466 0.375782
O O7 0.000000 0.500000 0.500000
O O8 0.923022 0.840075 0.967368
O O9 0.462556 0.202534 0.164461
O O10 0.657124 0.910234 0.194274
O O11 0.576179 0.032302 0.525079
O O12 0.583520 0.275728 0.960969
O O13 0.905496 0.886198 0.564363
O O14 0.000000 0.000000 0.500000
O O15 0.812559 0.745202 0.905532
O O16 0.500000 0.500000 0.500000
O O17 0.300794 0.844834 0.408987
O O18 0.500000 0.000000 0.000000
#
# Coordination Sequence:
#
# PCOD9111765 Si02
#       8
#     2   2   2   2   2   2   2   2
#     4  11  23  43  67 100 143 176 220 298 346 394
#     4  11  26  46  72  99 133 186 235 279 353 420
#     4  10  22  40  66  96 132 178 237 272 327 428
#     4  10  25  46  69 102 140 170 229 288 355 412
#     4  10  23  42  68  97 134 175 236 279 338 409
#     4  10  20  43  70 100 142 183 223 286 353 401
#     4   9  23  45  68  99 136 179 223 284 339 415
#     4  11  22  40  65  97 133 181 234 277 335 405
#
# _framework density 22.026295000000001
#
# number of rings (size 3 to 8) (size 9 to 14) (size 15 to 20)
#    0.000    1.750    2.500    0.750    5.250    1.500 
#    6.750    0.625    0.000    0.000    0.000    0.000 
#    0.000    0.000    0.000    0.000    0.000    0.000 
#
# Total GULP energy -89248.731936 kJ/mol
# GULP energy per Si atom -5578.045746 kJ/mol
# Density = 2.197616 g / cm^3
# Si number density = 22.026295 Si / 1000 Ang^3
#
#
#
# Elastic Constant Matrix: (Units=GPa)
#
#
# Indices 1 2 3 4 5 6 
#
# 1 184.6123 27.8075 67.9586 -3.6564 -18.8254 5.2930
# 2 27.8075 48.3789 33.4900 -12.2617 -1.5334 -0.7573
# 3 67.9586 33.4900 132.4225 -4.0262 0.6184 12.5616
# 4 -3.6564 -12.2617 -4.0262 19.8754 -8.4834 3.7575
# 5 -18.8254 -1.5334 0.6184 -8.4834 28.0909 -11.8361
# 6 5.2930 -0.7573 12.5616 3.7575 -11.8361 31.4963
#
#
#
# Elastic Compliance Matrix: (Units=1/GPa)
#
#
# Indices 1 2 3 4 5 6 
#
# 1 0.007690 -0.000722 -0.003964 0.002712 0.007127 0.002626
# 2 -0.000722 0.032268 -0.007675 0.021569 0.010152 0.005200
# 3 -0.003964 -0.007675 0.012034 -0.005041 -0.007638 -0.006587
# 4 0.002712 0.021569 -0.005041 0.073921 0.026837 0.003340
# 5 0.007127 0.010152 -0.007638 0.026837 0.057903 0.020651
# 6 0.002626 0.005200 -0.006587 0.003340 0.020651 0.041422
#
#
# Mechanical properties :
#
#
# Convention : Reuss Voigt Hill
#
# Bulk Modulus (GPa) = 36.66956 69.32509 52.99732
# Shear Modulus (GPa) = 19.30129 31.63636 25.46883
#
# Velocity S-wave (km/s) = 2.96342 3.79397 3.40412
# Velocity P-wave (km/s) = 5.32854 7.12280 6.28998
#
# Compressibility (1/GPa) = 0.02727057
#
# Stress axis : x y z
#
# Youngs Moduli (GPa) = 130.04390 30.99041 83.09781
#
# Poissons Ratio (x) = 0.02237 0.32937
# Poissons Ratio (y) = 0.09386 0.63779
# Poissons Ratio (z) = 0.51545 0.23786
#
# Static dielectric constant tensor:
#      x y z
#    x 1.914830 0.011450 -0.032140 
#    y 0.011450 1.794810 0.014990 
#    z -0.032140 0.014990 1.819640 
# 
# From -- ./inp_files/118458.got.cif
#   From: 2010.05.17/outbox.cif.g08.bks.cpg/sg2_60_cif.got.tgz:118458.got - 2010.06.03 11:33:40.
