data_PCOD9111031
_publ_section_title
;
Structure prediction by ZEFSAII (Michael W. Deem and Ramdas Pophale) SiO2 
 PCOD9111031
Probable space group: P -1
;
_chemical_formula_sum "Si O2"
_cell_formula_units_Z 16
_cell_length_a 11.082627
_cell_length_b 13.395185
_cell_length_c 11.533865
_cell_angle_alpha 59.440297
_cell_angle_beta 80.774865
_cell_angle_gamma 32.636515
_cell_volume 649.581943
_symmetry_space_group_name_H-M "P -1"
_symmetry_group_IT_number 2
_symmetry_cell_setting 'triclinic'
loop_
_space_group_symop_operation_xyz
x,y,z
-x,-y,-z
loop_
_atom_site_type_symbol
_atom_site_label
_atom_site_fract_x
_atom_site_fract_y
_atom_site_fract_z
Si Si1 0.730532 0.761297 0.194106
Si Si2 0.952261 0.100216 0.127417
Si Si3 0.563946 0.475605 0.637952
Si Si4 0.461872 0.747040 0.953742
Si Si5 0.904090 0.216096 0.319797
Si Si6 0.474886 0.074127 0.279389
Si Si7 0.063277 0.693578 0.178874
Si Si8 0.900757 0.745086 0.614649
O O1 0.615209 0.884947 0.265378
O O2 0.003247 0.609036 0.222341
O O3 0.814279 0.557318 0.284767
O O4 0.500000 0.000000 0.000000
O O5 0.703800 0.218797 0.099180
O O6 0.024362 0.068585 0.267808
O O7 0.208181 0.817298 0.194687
O O8 0.873388 0.280958 0.958522
O O9 0.500000 0.500000 0.500000
O O10 0.293944 0.698780 0.626601
O O11 0.723154 0.456823 0.662803
O O12 0.583568 0.744931 0.856973
O O13 0.230187 0.009685 0.907847
O O14 0.697044 0.491524 0.143911
O O15 0.091302 0.126458 0.433213
O O16 0.695809 0.897032 0.451573
O O17 0.215302 0.223604 0.274669
#
# Coordination Sequence:
#
# PCOD9111031 Si02
#       8
#     2   2   2   2   2   2   2   2
#     4  11  25  42  72  98 126 175 229 268 325 385
#     4  11  23  42  65  98 131 164 216 264 322 391
#     4  11  25  44  65  97 137 168 209 268 331 390
#     4  10  20  42  68  93 131 165 219 270 320 384
#     4  12  25  39  68  98 126 175 215 268 321 388
#     4  10  25  46  65  93 130 179 213 275 330 384
#     4  10  21  43  67  98 126 172 214 268 326 382
#     4  11  26  45  63  95 139 170 222 270 327 390
#
# _framework density 24.631226999999999
#
# number of rings (size 3 to 8) (size 9 to 14) (size 15 to 20)
#    0.000    1.250    2.500    3.000    8.750    1.500 
#    4.500    0.000    0.000    0.000    0.000    0.000 
#    0.000    0.000    0.000    0.000    0.000    0.000 
#
# Total GULP energy -89584.691769 kJ/mol
# GULP energy per Si atom -5599.043236 kJ/mol
# Density = 2.457517 g / cm^3
# Si number density = 24.631227 Si / 1000 Ang^3
#
#
#
# Elastic Constant Matrix: (Units=GPa)
#
#
# Indices 1 2 3 4 5 6 
#
# 1 106.0626 30.2300 7.0096 12.3213 15.2200 18.9385
# 2 30.2300 107.0648 -7.8059 14.6135 7.0735 12.6833
# 3 7.0096 -7.8059 57.0058 16.9540 9.8462 4.3796
# 4 12.3213 14.6135 16.9540 34.3988 4.7419 -2.2581
# 5 15.2200 7.0735 9.8462 4.7419 40.3612 2.8217
# 6 18.9385 12.6833 4.3796 -2.2581 2.8217 34.2519
#
#
#
# Elastic Compliance Matrix: (Units=1/GPa)
#
#
# Indices 1 2 3 4 5 6 
#
# 1 0.011903 -0.001931 0.000364 -0.003537 -0.003413 -0.005865
# 2 -0.001931 0.011657 0.004301 -0.006469 -0.001316 -0.004117
# 3 0.000364 0.004301 0.023183 -0.013088 -0.004643 -0.005239
# 4 -0.003537 -0.006469 -0.013088 0.040055 0.000351 0.008636
# 5 -0.003413 -0.001316 -0.004643 0.000351 0.027334 0.000740
# 6 -0.005865 -0.004117 -0.005239 0.008636 0.000740 0.035141
#
#
# Mechanical properties :
#
#
# Convention : Reuss Voigt Hill
#
# Bulk Modulus (GPa) = 19.15341 36.55563 27.85452
# Shear Modulus (GPa) = 31.01599 37.84901 34.43250
#
# Velocity S-wave (km/s) = 3.55239 3.92424 3.74293
# Velocity P-wave (km/s) = 4.96175 5.95031 5.47837
#
# Compressibility (1/GPa) = 0.05221003
#
# Stress axis : x y z
#
# Youngs Moduli (GPa) = 84.01513 85.78839 43.13496
#
# Poissons Ratio (x) = 0.16567 -0.01570
# Poissons Ratio (y) = 0.16225 -0.18553
# Poissons Ratio (z) = -0.03058 -0.36899
#
# Static dielectric constant tensor:
#      x y z
#    x 1.982660 0.013950 -0.002720 
#    y 0.013950 1.944390 0.000320 
#    z -0.002720 0.000320 1.954250 
# 
# From -- ./inp_files/283006.got.cif
#   From: 2010.05.17/outbox.cif.g08.bks.cpg/sg2_142_cif.got.tgz:283006.got - 2010.06.03 11:33:40.
