data_PCOD9111189
_publ_section_title
;
Structure prediction by ZEFSAII (Michael W. Deem and Ramdas Pophale) SiO2 
 PCOD9111189
Probable space group: P -1
;
_chemical_formula_sum "Si O2"
_cell_formula_units_Z 16
_cell_length_a 20.057866
_cell_length_b 7.759491
_cell_length_c 12.474886
_cell_angle_alpha 59.753824
_cell_angle_beta 30.930717
_cell_angle_gamma 46.540888
_cell_volume 704.747464
_symmetry_space_group_name_H-M "P -1"
_symmetry_group_IT_number 2
_symmetry_cell_setting 'triclinic'
loop_
_space_group_symop_operation_xyz
x,y,z
-x,-y,-z
loop_
_atom_site_type_symbol
_atom_site_label
_atom_site_fract_x
_atom_site_fract_y
_atom_site_fract_z
Si Si1 0.691038 0.431983 0.313055
Si Si2 0.750774 0.772299 0.541344
Si Si3 0.310790 0.627157 0.226937
Si Si4 0.770945 0.160145 0.490005
Si Si5 0.976665 0.477727 0.903520
Si Si6 0.883972 0.998521 0.016325
Si Si7 0.499460 0.046024 0.615650
Si Si8 0.775931 0.010908 0.952169
O O1 0.661587 0.375931 0.489200
O O2 0.540082 0.683735 0.397215
O O3 0.798550 0.182339 0.175955
O O4 0.811235 0.512734 0.134043
O O5 0.725343 0.572926 0.681488
O O6 0.928105 0.660274 0.291829
O O7 0.720001 0.975468 0.603983
O O8 0.649660 0.871267 0.538950
O O9 0.252744 0.738760 0.390308
O O10 0.221945 0.842715 0.194934
O O11 0.500000 0.500000 0.000000
O O12 0.949598 0.049873 0.234668
O O13 0.933120 0.743995 0.848867
O O14 0.078838 0.267952 0.919960
O O15 0.758878 0.135485 0.050143
O O16 0.500000 0.000000 0.500000
O O17 0.367002 0.016429 0.856570
#
# Coordination Sequence:
#
# PCOD9111189 Si02
#       8
#     2   2   2   2   2   2   2   2
#     4  10  21  41  71 106 140 168 223 294 363 413
#     4  12  23  45  73  97 141 186 236 285 349 410
#     4  12  28  50  64  96 147 195 241 279 336 418
#     4  11  24  44  74 102 137 185 233 290 349 414
#     4  10  20  42  70 104 136 171 227 292 357 417
#     4  11  20  43  74 108 140 168 224 305 363 412
#     4  11  24  41  67 107 136 183 233 285 356 422
#     4  11  25  44  68  96 142 188 230 288 346 411
#
# _framework density 22.703168000000002
#
# number of rings (size 3 to 8) (size 9 to 14) (size 15 to 20)
#    0.000    1.000    3.750    3.375    0.000    6.000 
#    4.500    1.250    0.000    0.000    0.000    0.000 
#    0.000    0.000    0.000    0.000    0.000    0.000 
#
# Total GULP energy -89262.662804 kJ/mol
# GULP energy per Si atom -5578.916425 kJ/mol
# Density = 2.265149 g / cm^3
# Si number density = 22.703168 Si / 1000 Ang^3
#
#
#
# Elastic Constant Matrix: (Units=GPa)
#
#
# Indices 1 2 3 4 5 6 
#
# 1 84.3686 54.9886 27.6213 -19.9679 7.8868 9.7601
# 2 54.9886 158.3775 54.0757 -42.2698 18.5668 4.7531
# 3 27.6213 54.0757 94.4365 -19.9463 3.9096 6.4241
# 4 -19.9679 -42.2698 -19.9463 38.8231 -1.8708 -4.6696
# 5 7.8868 18.5668 3.9096 -1.8708 27.2492 -12.8858
# 6 9.7601 4.7531 6.4241 -4.6696 -12.8858 25.5416
#
#
#
# Elastic Compliance Matrix: (Units=1/GPa)
#
#
# Indices 1 2 3 4 5 6 
#
# 1 0.016804 -0.003760 -0.001460 0.002610 -0.005542 -0.007674
# 2 -0.003760 0.012026 -0.003525 0.008811 -0.006821 -0.001745
# 3 -0.001460 -0.003525 0.013607 0.002210 0.000224 -0.001692
# 4 0.002610 0.008811 0.002210 0.037890 -0.003557 0.001940
# 5 -0.005542 -0.006821 0.000224 -0.003557 0.057709 0.031795
# 6 -0.007674 -0.001745 -0.001692 0.001940 0.031795 0.059230
#
#
# Mechanical properties :
#
#
# Convention : Reuss Voigt Hill
#
# Bulk Modulus (GPa) = 40.08044 67.83933 53.95989
# Shear Modulus (GPa) = 22.41426 31.68926 27.05176
#
# Velocity S-wave (km/s) = 3.14550 3.74010 3.45562
# Velocity P-wave (km/s) = 5.55740 6.97116 6.30404
#
# Compressibility (1/GPa) = 0.02494982
#
# Stress axis : x y z
#
# Youngs Moduli (GPa) = 59.50811 83.15021 73.49190
#
# Poissons Ratio (x) = 0.31261 0.10727
# Poissons Ratio (y) = 0.22373 0.25904
# Poissons Ratio (z) = 0.08686 0.29309
#
# Static dielectric constant tensor:
#      x y z
#    x 1.926890 0.050410 -0.011370 
#    y 0.050410 1.920080 0.049850 
#    z -0.011370 0.049850 1.833180 
# 
# From -- ./inp_files/469812.got.cif
#   From: 2010.05.17/outbox.cif.g08.bks.cpg/sg2_235_cif.got.tgz:469812.got - 2010.06.03 11:33:40.
