data_PCOD9111774
_publ_section_title
;
Structure prediction by ZEFSAII (Michael W. Deem and Ramdas Pophale) SiO2 
 PCOD9111774
Probable space group: P -1
;
_chemical_formula_sum "Si O2"
_cell_formula_units_Z 16
_cell_length_a 9.334485
_cell_length_b 9.030819
_cell_length_c 23.289298
_cell_angle_alpha 30.919101
_cell_angle_beta 52.256180
_cell_angle_gamma 49.032756
_cell_volume 755.436109
_symmetry_space_group_name_H-M "P -1"
_symmetry_group_IT_number 2
_symmetry_cell_setting 'triclinic'
loop_
_space_group_symop_operation_xyz
x,y,z
-x,-y,-z
loop_
_atom_site_type_symbol
_atom_site_label
_atom_site_fract_x
_atom_site_fract_y
_atom_site_fract_z
Si Si1 0.026374 0.443693 0.240418
Si Si2 0.652441 0.550379 0.155851
Si Si3 0.706915 0.600603 0.576136
Si Si4 0.179436 0.208541 0.067132
Si Si5 0.406773 0.285322 0.752321
Si Si6 0.259515 0.500931 0.270411
Si Si7 0.664128 0.647459 0.897413
Si Si8 0.924527 0.985331 0.338404
O O1 0.135581 0.401131 0.287384
O O2 0.164703 0.519953 0.132739
O O3 0.811065 0.671825 0.224849
O O4 0.982351 0.152101 0.322692
O O5 0.596350 0.717610 0.175790
O O6 0.473650 0.452372 0.212235
O O7 0.833320 0.251749 0.225882
O O8 0.690053 0.766890 0.026884
O O9 0.508466 0.540736 0.630324
O O10 0.713686 0.671151 0.618340
O O11 0.761479 0.840891 0.443561
O O12 0.884210 0.285936 0.632534
O O13 0.250704 0.283770 0.086220
O O14 0.167702 0.867783 0.181200
O O15 0.000000 0.500000 0.000000
O O16 0.547245 0.981037 0.791551
O O17 0.500000 0.500000 0.000000
#
# Coordination Sequence:
#
# PCOD9111774 Si02
#       8
#     2   2   2   2   2   2   2   2
#     4  11  24  41  61  97 130 164 211 263 315 377
#     4  10  21  38  62  90 120 168 212 257 308 378
#     4  10  20  43  70  91 123 169 213 264 313 379
#     4  12  23  39  61  88 129 166 210 258 310 378
#     4  10  22  41  63  90 128 165 216 253 315 381
#     4  11  23  39  61  92 129 162 208 263 316 373
#     4  12  25  41  62  92 130 174 208 257 314 378
#     4  10  21  42  69  93 123 165 219 259 315 382
#
# _framework density 21.179819999999999
#
# number of rings (size 3 to 8) (size 9 to 14) (size 15 to 20)
#    0.000    1.250    3.750    3.375    3.500    5.500 
#    2.250    0.000    0.000    3.000    0.000    0.000 
#    0.000    0.000    0.000    0.000    0.000    0.000 
#
# Total GULP energy -89299.407015 kJ/mol
# GULP energy per Si atom -5581.212938 kJ/mol
# Density = 2.113161 g / cm^3
# Si number density = 21.179820 Si / 1000 Ang^3
#
#
#
# Elastic Constant Matrix: (Units=GPa)
#
#
# Indices 1 2 3 4 5 6 
#
# 1 107.2422 14.9327 3.0128 -9.5909 -16.4230 -14.6188
# 2 14.9327 52.0567 12.4306 -3.6046 -1.8396 -26.2216
# 3 3.0128 12.4306 71.6716 11.9181 -4.1084 -4.6380
# 4 -9.5909 -3.6046 11.9181 27.1907 -7.7961 -1.7986
# 5 -16.4230 -1.8396 -4.1084 -7.7961 26.1297 3.0438
# 6 -14.6188 -26.2216 -4.6380 -1.7986 3.0438 33.2749
#
#
#
# Elastic Compliance Matrix: (Units=1/GPa)
#
#
# Indices 1 2 3 4 5 6 
#
# 1 0.012084 0.000006 -0.000943 0.007619 0.009166 0.004755
# 2 0.000006 0.034936 -0.005783 0.009297 0.001168 0.027123
# 3 -0.000943 -0.005783 0.016184 -0.008586 -0.000653 -0.003120
# 4 0.007619 0.009297 -0.008586 0.050281 0.017865 0.010561
# 5 0.009166 0.001168 -0.000653 0.017865 0.049187 0.001323
# 6 0.004755 0.027123 -0.003120 0.010561 0.001323 0.053530
#
#
# Mechanical properties :
#
#
# Convention : Reuss Voigt Hill
#
# Bulk Modulus (GPa) = 20.09540 32.41363 26.25452
# Shear Modulus (GPa) = 20.30606 30.69201 25.49904
#
# Velocity S-wave (km/s) = 3.09972 3.81086 3.47353
# Velocity P-wave (km/s) = 4.72436 5.89073 5.33949
#
# Compressibility (1/GPa) = 0.04976263
#
# Stress axis : x y z
#
# Youngs Moduli (GPa) = 82.75620 28.62338 61.79068
#
# Poissons Ratio (x) = -0.00016 0.05825
# Poissons Ratio (y) = -0.00046 0.35736
# Poissons Ratio (z) = 0.07801 0.16554
#
# Static dielectric constant tensor:
#      x y z
#    x 1.752200 -0.067640 -0.015320 
#    y -0.067640 1.855560 0.019850 
#    z -0.015320 0.019850 1.783870 
# 
# From -- ./inp_files/223054.got.cif
#   From: 2010.05.17/outbox.cif.g08.bks.cpg/sg2_112_cif.got.tgz:223054.got - 2010.06.03 11:33:40.
