data_PCOD9111109
_publ_section_title
;
Structure prediction by ZEFSAII (Michael W. Deem and Ramdas Pophale) SiO2 
 PCOD9111109
Probable space group: P -1
;
_chemical_formula_sum "Si O2"
_cell_formula_units_Z 16
_cell_length_a 17.483804
_cell_length_b 11.489034
_cell_length_c 23.411623
_cell_angle_alpha 152.985092
_cell_angle_beta 20.736733
_cell_angle_gamma 141.661782
_cell_volume 720.659722
_symmetry_space_group_name_H-M "P -1"
_symmetry_group_IT_number 2
_symmetry_cell_setting 'triclinic'
loop_
_space_group_symop_operation_xyz
x,y,z
-x,-y,-z
loop_
_atom_site_type_symbol
_atom_site_label
_atom_site_fract_x
_atom_site_fract_y
_atom_site_fract_z
Si Si1 0.142295 0.559839 0.810534
Si Si2 0.784504 0.325014 0.551637
Si Si3 0.505041 0.857311 0.697020
Si Si4 0.076826 0.781702 0.128461
Si Si5 0.246961 0.982457 0.300100
Si Si6 0.235043 0.132394 0.252782
Si Si7 0.495772 0.600266 0.112920
Si Si8 0.376546 0.278915 0.738585
O O1 0.287511 0.754492 0.810692
O O2 0.286867 0.376084 0.578721
O O3 0.123821 0.351464 0.782167
O O4 0.871732 0.704654 0.054031
O O5 0.833056 0.593880 0.615135
O O6 0.729243 0.325358 0.658230
O O7 0.555056 0.321160 0.677918
O O8 0.982765 0.052187 0.276253
O O9 0.598072 0.934953 0.725342
O O10 0.444563 0.122470 0.814821
O O11 0.125243 0.907673 0.209876
O O12 0.301504 0.529502 0.855211
O O13 0.210130 0.172708 0.354589
O O14 0.000000 0.000000 0.500000
O O15 0.356900 0.664835 0.072810
O O16 0.500000 0.000000 0.000000
O O17 0.500000 0.500000 0.000000
O O18 0.500000 0.000000 0.500000
#
# Coordination Sequence:
#
# PCOD9111109 Si02
#       8
#     2   2   2   2   2   2   2   2
#     4   9  20  43  70  94 138 184 238 292 343 422
#     4  12  23  44  71 102 140 188 238 291 362 425
#     4  10  20  42  69 102 134 187 241 281 358 424
#     4  10  22  43  69  96 139 182 234 294 354 412
#     4  11  24  40  68 102 143 178 232 301 352 421
#     4  12  22  44  69 102 142 183 234 295 363 429
#     4  10  21  39  66  98 136 176 227 290 351 420
#     4  10  23  45  66  98 144 188 238 291 353 423
#
# _framework density 22.201879999999999
#
# number of rings (size 3 to 8) (size 9 to 14) (size 15 to 20)
#    0.750    0.750    3.750    1.125    3.500    0.500 
#    6.750    0.625    0.000    0.000    0.000    0.000 
#    0.000    0.125    0.000    0.000    0.000    0.000 
#
# Total GULP energy -89169.451969 kJ/mol
# GULP energy per Si atom -5573.090748 kJ/mol
# Density = 2.215135 g / cm^3
# Si number density = 22.201880 Si / 1000 Ang^3
#
#
#
# Elastic Constant Matrix: (Units=GPa)
#
#
# Indices 1 2 3 4 5 6 
#
# 1 85.1565 40.1606 21.0337 6.3412 -3.0414 1.7232
# 2 40.1606 148.3345 35.6650 16.5252 -4.0625 6.9082
# 3 21.0337 35.6650 134.8553 26.0017 -11.8851 8.2848
# 4 6.3412 16.5252 26.0017 42.9423 -3.0935 -9.3100
# 5 -3.0414 -4.0625 -11.8851 -3.0935 29.3322 0.2870
# 6 1.7232 6.9082 8.2848 -9.3100 0.2870 38.7453
#
#
#
# Elastic Compliance Matrix: (Units=1/GPa)
#
#
# Indices 1 2 3 4 5 6 
#
# 1 0.013660 -0.003419 -0.001232 0.000141 0.000456 0.000296
# 2 -0.003419 0.008273 -0.001084 -0.002374 0.000118 -0.001662
# 3 -0.001232 -0.001084 0.009423 -0.005570 0.002983 -0.003127
# 4 0.000141 -0.002374 -0.005570 0.029468 0.000452 0.008685
# 5 0.000456 0.000118 0.002983 0.000452 0.035421 -0.000833
# 6 0.000296 -0.001662 -0.003127 0.008685 -0.000833 0.028855
#
#
# Mechanical properties :
#
#
# Convention : Reuss Voigt Hill
#
# Bulk Modulus (GPa) = 50.28765 62.45165 56.36965
# Shear Modulus (GPa) = 34.91677 40.30309 37.60993
#
# Velocity S-wave (km/s) = 3.97002 4.26526 4.12029
# Velocity P-wave (km/s) = 6.61167 7.24200 6.93400
#
# Compressibility (1/GPa) = 0.01988560
#
# Stress axis : x y z
#
# Youngs Moduli (GPa) = 73.20886 120.87351 106.12113
#
# Poissons Ratio (x) = 0.41329 0.13069
# Poissons Ratio (y) = 0.25031 0.11508
# Poissons Ratio (z) = 0.09016 0.13108
#
# Static dielectric constant tensor:
#      x y z
#    x 1.941840 0.042450 0.205060 
#    y 0.042450 1.826860 0.126420 
#    z 0.205060 0.126420 2.418470 
# 
# From -- ./inp_files/613134.got.cif
#   From: 2010.05.17/outbox.cif.g08.bks.cpg/sg2_307_cif.got.tgz:613134.got - 2010.06.03 11:33:40.
