data_PCOD9111851
_publ_section_title
;
Structure prediction by ZEFSAII (Michael W. Deem and Ramdas Pophale) SiO2 
 PCOD9111851
Probable space group: P -1
;
_chemical_formula_sum "Si O2"
_cell_formula_units_Z 14
_cell_length_a 7.674943
_cell_length_b 10.138866
_cell_length_c 13.435576
_cell_angle_alpha 128.446036
_cell_angle_beta 47.693427
_cell_angle_gamma 133.950409
_cell_volume 532.666269
_symmetry_space_group_name_H-M "P -1"
_symmetry_group_IT_number 2
_symmetry_cell_setting 'triclinic'
loop_
_space_group_symop_operation_xyz
x,y,z
-x,-y,-z
loop_
_atom_site_type_symbol
_atom_site_label
_atom_site_fract_x
_atom_site_fract_y
_atom_site_fract_z
Si Si1 0.395472 0.908716 0.138743
Si Si2 0.945622 0.994495 0.898744
Si Si3 0.267046 0.554462 0.139385
Si Si4 0.403262 0.263004 0.718767
Si Si5 0.757960 0.525428 0.555884
Si Si6 0.211981 0.765471 0.722514
Si Si7 0.012395 0.956757 0.591783
O O1 0.257308 0.689090 0.121055
O O2 0.555758 0.040491 0.233237
O O3 0.172157 0.973401 0.243682
O O4 0.636987 0.941911 0.987591
O O5 0.012055 0.630603 0.820759
O O6 0.843509 0.810581 0.143337
O O7 0.000000 0.000000 0.000000
O O8 0.353870 0.676115 0.266999
O O9 0.500000 0.500000 0.000000
O O10 0.515131 0.451659 0.694550
O O11 0.027362 0.831000 0.758800
O O12 0.300845 0.087064 0.596052
O O13 0.667945 0.360673 0.430097
O O14 0.875070 0.731604 0.558854
O O15 0.000000 0.500000 0.500000
O O16 0.000000 0.000000 0.500000
#
# Coordination Sequence:
#
# PCOD9111851 Si02
#       7
#     2   2   2   2   2   2   2
#     4  11  24  46  73 105 155 195 243 312 382 436
#     4  10  20  43  72 107 144 191 246 313 368 437
#     4  12  22  41  78 111 141 191 253 311 365 449
#     4  12  26  46  75 111 149 193 257 309 373 452
#     4  12  27  45  76 109 146 198 260 306 367 454
#     4  11  21  40  71 106 144 188 252 305 368 430
#     4  12  30  51  73 109 160 203 244 311 384 442
#
# _framework density 26.282872999999999
#
# number of rings (size 3 to 8) (size 9 to 14) (size 15 to 20)
#    0.000    0.571    5.714    3.429    0.000    6.286 
#    0.000    1.429    0.000    0.000    0.000    0.000 
#    0.000    0.000    0.000    0.000    0.000    0.000 
#
# Total GULP energy -78228.806266 kJ/mol
# GULP energy per Si atom -5587.771876 kJ/mol
# Density = 2.622305 g / cm^3
# Si number density = 26.282873 Si / 1000 Ang^3
#
#
#
# Elastic Constant Matrix: (Units=GPa)
#
#
# Indices 1 2 3 4 5 6 
#
# 1 63.7024 16.9651 21.8908 8.6972 -8.8764 -5.6129
# 2 16.9651 230.8810 61.0079 -12.5752 -13.9034 -1.2363
# 3 21.8908 61.0079 95.3798 -9.2517 -1.9278 -14.5717
# 4 8.6972 -12.5752 -9.2517 58.9706 -4.4200 -2.5137
# 5 -8.8764 -13.9034 -1.9278 -4.4200 52.6516 1.5532
# 6 -5.6129 -1.2363 -14.5717 -2.5137 1.5532 21.8769
#
#
#
# Elastic Compliance Matrix: (Units=1/GPa)
#
#
# Indices 1 2 3 4 5 6 
#
# 1 0.018045 -0.000280 -0.003996 -0.003098 0.002520 0.001417
# 2 -0.000280 0.005423 -0.003655 0.000632 0.001370 -0.002225
# 3 -0.003996 -0.003655 0.015399 0.002541 -0.001139 0.009398
# 4 -0.003098 0.000632 0.002541 0.018161 0.001176 0.002936
# 5 0.002520 0.001370 -0.001139 0.001176 0.019875 -0.001311
# 6 0.001417 -0.002225 0.009398 0.002936 -0.001311 0.052638
#
#
# Mechanical properties :
#
#
# Convention : Reuss Voigt Hill
#
# Bulk Modulus (GPa) = 43.46881 65.52120 54.49500
# Shear Modulus (GPa) = 32.66487 46.03978 39.35233
#
# Velocity S-wave (km/s) = 3.52919 4.18988 3.87364
# Velocity P-wave (km/s) = 5.76035 6.95630 6.38638
#
# Compressibility (1/GPa) = 0.02300500
#
# Stress axis : x y z
#
# Youngs Moduli (GPa) = 55.41830 184.41319 64.94087
#
# Poissons Ratio (x) = 0.05154 0.25948
# Poissons Ratio (y) = 0.01549 0.23737
# Poissons Ratio (z) = 0.22144 0.67407
#
# Static dielectric constant tensor:
#      x y z
#    x 2.259390 -0.042350 0.098260 
#    y -0.042350 2.031320 -0.070280 
#    z 0.098260 -0.070280 2.280400 
# 
# From -- ./inp_files/490071.got.cif
#   From: 2010.05.17/outbox.cif.g08.bks.cpg/sg2_246_cif.got.tgz:490071.got - 2010.06.03 11:33:40.
