data_PCOD9111274
_publ_section_title
;
Structure prediction by ZEFSAII (Michael W. Deem and Ramdas Pophale) SiO2 
 PCOD9111274
Probable space group: P -1
;
_chemical_formula_sum "Si O2"
_cell_formula_units_Z 16
_cell_length_a 10.521389
_cell_length_b 11.502834
_cell_length_c 9.775837
_cell_angle_alpha 89.944893
_cell_angle_beta 42.443466
_cell_angle_gamma 112.605742
_cell_volume 655.690879
_symmetry_space_group_name_H-M "P -1"
_symmetry_group_IT_number 2
_symmetry_cell_setting 'triclinic'
loop_
_space_group_symop_operation_xyz
x,y,z
-x,-y,-z
loop_
_atom_site_type_symbol
_atom_site_label
_atom_site_fract_x
_atom_site_fract_y
_atom_site_fract_z
Si Si1 0.693447 0.602333 0.238395
Si Si2 0.668223 0.124323 0.763391
Si Si3 0.248778 0.390283 0.096595
Si Si4 0.178028 0.311064 0.440374
Si Si5 0.798209 0.279559 0.135828
Si Si6 0.335982 0.208271 0.562316
Si Si7 0.219761 0.901543 0.618124
Si Si8 0.159062 0.628869 0.203188
O O1 0.500000 0.500000 0.500000
O O2 0.612290 0.299412 0.349798
O O3 0.757647 0.755762 0.233039
O O4 0.929237 0.611821 0.058832
O O5 0.632128 0.090039 0.631404
O O6 0.683605 0.264449 0.799653
O O7 0.926542 0.172668 0.594374
O O8 0.500000 0.000000 0.000000
O O9 0.320397 0.367290 0.186982
O O10 0.163962 0.493028 0.185118
O O11 0.030954 0.235840 0.222646
O O12 0.400105 0.438635 0.840338
O O13 0.271279 0.260972 0.481837
O O14 0.091557 0.406029 0.564899
O O15 0.733357 0.140408 0.271719
O O16 0.240338 0.046197 0.616401
O O17 0.764880 0.282653 0.999659
#
# Coordination Sequence:
#
# PCOD9111274 Si02
#       8
#     2   2   2   2   2   2   2   2
#     4  11  25  46  71 105 133 182 237 278 351 411
#     4   9  19  38  66 103 135 179 238 278 343 407
#     4  10  22  43  71 104 136 183 237 286 341 414
#     4   9  22  42  70 100 137 184 230 282 358 406
#     4  11  24  46  71 100 139 185 227 283 349 408
#     4  12  24  46  69 101 148 177 225 296 338 415
#     4  10  24  40  69 104 136 183 236 276 348 414
#     4  10  20  42  71  98 140 181 224 293 341 405
#
# _framework density 24.401741999999999
#
# number of rings (size 3 to 8) (size 9 to 14) (size 15 to 20)
#    0.750    1.000    1.250    2.250    0.000    8.500 
#    0.000    5.000    0.000    0.000    0.000    0.000 
#    0.000    0.000    0.000    0.000    0.000    0.000 
#
# Total GULP energy -89382.886813 kJ/mol
# GULP energy per Si atom -5586.430426 kJ/mol
# Density = 2.434620 g / cm^3
# Si number density = 24.401742 Si / 1000 Ang^3
#
#
#
# Elastic Constant Matrix: (Units=GPa)
#
#
# Indices 1 2 3 4 5 6 
#
# 1 115.9907 64.1450 36.8775 15.0966 20.0565 6.0715
# 2 64.1450 180.8048 37.8294 -2.7026 17.8100 -2.3670
# 3 36.8775 37.8294 128.1323 6.3267 16.5153 -9.5310
# 4 15.0966 -2.7026 6.3267 36.3663 3.1639 2.2046
# 5 20.0565 17.8100 16.5153 3.1639 54.8504 8.2387
# 6 6.0715 -2.3670 -9.5310 2.2046 8.2387 32.4699
#
#
#
# Elastic Compliance Matrix: (Units=1/GPa)
#
#
# Indices 1 2 3 4 5 6 
#
# 1 0.012574 -0.003915 -0.002142 -0.004814 -0.002040 -0.002421
# 2 -0.003915 0.007256 -0.000931 0.002344 -0.000940 0.001067
# 3 -0.002142 -0.000931 0.009296 -0.000827 -0.002219 0.003681
# 4 -0.004814 0.002344 -0.000827 0.029909 -0.000308 -0.001124
# 5 -0.002040 -0.000940 -0.002219 -0.000308 0.020809 -0.005597
# 6 -0.002421 0.001067 0.003681 -0.001124 -0.005597 0.033905
#
#
# Mechanical properties :
#
#
# Convention : Reuss Voigt Hill
#
# Bulk Modulus (GPa) = 66.00785 78.07018 72.03902
# Shear Modulus (GPa) = 37.65735 43.80906 40.73320
#
# Velocity S-wave (km/s) = 3.93265 4.24172 4.09011
# Velocity P-wave (km/s) = 6.90870 7.48684 7.20357
#
# Compressibility (1/GPa) = 0.01514971
#
# Stress axis : x y z
#
# Youngs Moduli (GPa) = 79.53090 137.81394 107.56880
#
# Poissons Ratio (x) = 0.53958 0.23045
# Poissons Ratio (y) = 0.31139 0.10011
# Poissons Ratio (z) = 0.17038 0.12826
#
# Static dielectric constant tensor:
#      x y z
#    x 1.939870 0.044620 -0.016810 
#    y 0.044620 1.953660 -0.039840 
#    z -0.016810 -0.039840 2.027160 
# 
# From -- ./inp_files/453075.got.cif
#   From: 2010.05.17/outbox.cif.g08.bks.cpg/sg2_227_cif.got.tgz:453075.got - 2010.06.03 11:33:40.
