data_PCOD9111961
_publ_section_title
;
Structure prediction by ZEFSAII (Michael W. Deem and Ramdas Pophale) SiO2 
 PCOD9111961
Probable space group: P -1
;
_chemical_formula_sum "Si O2"
_cell_formula_units_Z 14
_cell_length_a 11.403451
_cell_length_b 6.479463
_cell_length_c 17.072570
_cell_angle_alpha 48.138225
_cell_angle_beta 134.034478
_cell_angle_gamma 104.415360
_cell_volume 618.618799
_symmetry_space_group_name_H-M "P -1"
_symmetry_group_IT_number 2
_symmetry_cell_setting 'triclinic'
loop_
_space_group_symop_operation_xyz
x,y,z
-x,-y,-z
loop_
_atom_site_type_symbol
_atom_site_label
_atom_site_fract_x
_atom_site_fract_y
_atom_site_fract_z
Si Si1 0.188510 0.516769 0.387538
Si Si2 0.551389 0.687769 0.039427
Si Si3 0.231540 0.395500 0.087689
Si Si4 0.355785 0.845664 0.483709
Si Si5 0.893745 0.536021 0.810068
Si Si6 0.794790 0.940767 0.125890
Si Si7 0.376113 0.811031 0.675875
O O1 0.333134 0.632346 0.460452
O O2 0.165474 0.584810 0.265324
O O3 0.994203 0.698532 0.289312
O O4 0.245555 0.162853 0.523493
O O5 0.696251 0.813652 0.048794
O O6 0.644559 0.437573 0.214352
O O7 0.500000 0.500000 0.000000
O O8 0.362689 0.956861 0.907815
O O9 0.202454 0.387880 0.169004
O O10 0.432386 0.192179 0.212295
O O11 0.091751 0.338621 0.981152
O O12 0.197086 0.743982 0.970496
O O13 0.393779 0.692099 0.624932
O O14 0.500000 0.000000 0.500000
O O15 0.159539 0.118865 0.329524
#
# Coordination Sequence:
#
# PCOD9111961 Si02
#       7
#     2   2   2   2   2   2   2
#     4  11  25  41  68 100 131 183 216 268 336 399
#     4  10  24  46  69  98 127 171 220 285 333 389
#     4  10  20  44  64  97 139 174 221 278 320 393
#     4  11  22  45  60  96 143 174 213 271 325 397
#     4  10  22  40  66  97 137 175 221 270 327 395
#     4  10  23  42  67  95 130 169 223 271 333 385
#     4  10  24  41  67  97 134 173 221 271 334 387
#
# _framework density 22.631063000000001
#
# number of rings (size 3 to 8) (size 9 to 14) (size 15 to 20)
#    0.000    1.714    2.857    0.000    4.000    6.857 
#    2.571    1.429    0.000    0.000    0.000    0.000 
#    0.000    0.000    0.000    0.000    0.000    0.000 
#
# Total GULP energy -77954.537763 kJ/mol
# GULP energy per Si atom -5568.181269 kJ/mol
# Density = 2.257955 g / cm^3
# Si number density = 22.631063 Si / 1000 Ang^3
#
#
#
# Elastic Constant Matrix: (Units=GPa)
#
#
# Indices 1 2 3 4 5 6 
#
# 1 31.6389 21.9166 27.9872 4.3037 1.0768 -6.7878
# 2 21.9166 120.2696 41.4907 21.9836 -0.3434 6.5023
# 3 27.9872 41.4907 133.7175 0.0462 9.3542 -7.8240
# 4 4.3037 21.9836 0.0462 46.0791 -8.5399 6.3798
# 5 1.0768 -0.3434 9.3542 -8.5399 37.3006 -1.8519
# 6 -6.7878 6.5023 -7.8240 6.3798 -1.8519 19.2288
#
#
#
# Elastic Compliance Matrix: (Units=1/GPa)
#
#
# Indices 1 2 3 4 5 6 
#
# 1 0.046011 -0.006337 -0.006698 -0.003543 0.000319 0.016866
# 2 -0.006337 0.011403 -0.002528 -0.004101 -0.000304 -0.005790
# 3 -0.006698 -0.002528 0.009914 0.001192 -0.001947 0.001941
# 4 -0.003543 -0.004101 0.001192 0.026017 0.005350 -0.007496
# 5 0.000319 -0.000304 -0.001947 0.005350 0.028530 0.000396
# 6 0.016866 -0.005790 0.001941 -0.007496 0.000396 0.063232
#
#
# Mechanical properties :
#
#
# Convention : Reuss Voigt Hill
#
# Bulk Modulus (GPa) = 27.62276 52.04611 39.83443
# Shear Modulus (GPa) = 21.90085 33.47047 27.68566
#
# Velocity S-wave (km/s) = 3.11422 3.84990 3.50143
# Velocity P-wave (km/s) = 5.01631 6.54292 5.82980
#
# Compressibility (1/GPa) = 0.03620203
#
# Stress axis : x y z
#
# Youngs Moduli (GPa) = 21.73393 87.69401 100.86581
#
# Poissons Ratio (x) = 0.55572 0.67561
# Poissons Ratio (y) = 0.13773 0.25499
# Poissons Ratio (z) = 0.14558 0.22169
#
# Static dielectric constant tensor:
#      x y z
#    x 1.891120 -0.018830 0.009760 
#    y -0.018830 1.949660 0.043060 
#    z 0.009760 0.043060 1.858520 
# 
# From -- ./inp_files/83003.got.cif
#   From: 2010.05.17/outbox.cif.g08.bks.cpg/sg2_42_cif.got.tgz:83003.got - 2010.06.03 11:33:40.
