data_PCOD9111826
_publ_section_title
;
Structure prediction by ZEFSAII (Michael W. Deem and Ramdas Pophale) SiO2 
 PCOD9111826
Probable space group: P -1
;
_chemical_formula_sum "Si O2"
_cell_formula_units_Z 14
_cell_length_a 21.130438
_cell_length_b 8.601011
_cell_length_c 12.754606
_cell_angle_alpha 125.493950
_cell_angle_beta 151.572712
_cell_angle_gamma 37.622377
_cell_volume 617.710599
_symmetry_space_group_name_H-M "P -1"
_symmetry_group_IT_number 2
_symmetry_cell_setting 'triclinic'
loop_
_space_group_symop_operation_xyz
x,y,z
-x,-y,-z
loop_
_atom_site_type_symbol
_atom_site_label
_atom_site_fract_x
_atom_site_fract_y
_atom_site_fract_z
Si Si1 0.928377 0.275289 0.773856
Si Si2 0.570622 0.968138 0.823796
Si Si3 0.159285 0.474870 0.774432
Si Si4 0.255334 0.519253 0.714230
Si Si5 0.237121 0.145240 0.320888
Si Si6 0.903179 0.982315 0.757914
Si Si7 0.137208 0.041941 0.787081
O O1 0.831552 0.571221 0.705877
O O2 0.016490 0.086228 0.725253
O O3 0.801086 0.258039 0.648630
O O4 0.114707 0.141551 0.062485
O O5 0.400536 0.268752 0.747914
O O6 0.468411 0.922299 0.581016
O O7 0.692790 0.769526 0.022750
O O8 0.719138 0.941634 0.964550
O O9 0.281327 0.431724 0.837978
O O10 0.000000 0.500000 0.500000
O O11 0.047162 0.743422 0.788802
O O12 0.031772 0.703564 0.433473
O O13 0.258240 0.745198 0.797260
O O14 0.189575 0.102402 0.350057
O O15 0.000000 0.000000 0.000000
#
# Coordination Sequence:
#
# PCOD9111826 Si02
#       7
#     2   2   2   2   2   2   2
#     4  10  20  43  71  93 132 183 220 277 345 404
#     4  12  24  41  65  99 138 173 227 284 337 408
#     4  12  23  42  68  96 136 181 224 283 348 397
#     4  11  23  41  63  98 132 177 225 276 341 408
#     4  10  22  41  68 101 131 173 229 277 340 405
#     4  10  22  44  72 100 136 182 228 282 344 405
#     4  11  22  41  66  93 139 168 228 282 337 405
#
# _framework density 22.664334
#
# number of rings (size 3 to 8) (size 9 to 14) (size 15 to 20)
#    0.000    1.143    4.286    2.571    0.000    0.571 
#    5.143    2.857    0.000    0.000    0.000    0.000 
#    0.000    0.000    0.000    0.000    0.000    0.000 
#
# Total GULP energy -77996.254743 kJ/mol
# GULP energy per Si atom -5571.161053 kJ/mol
# Density = 2.261275 g / cm^3
# Si number density = 22.664334 Si / 1000 Ang^3
#
#
#
# Elastic Constant Matrix: (Units=GPa)
#
#
# Indices 1 2 3 4 5 6 
#
# 1 114.3949 10.1887 14.8574 -4.1100 -14.9001 32.2441
# 2 10.1887 68.8086 9.3803 -1.6141 -8.9100 12.3776
# 3 14.8574 9.3803 108.8730 -0.3076 -12.3882 18.3309
# 4 -4.1100 -1.6141 -0.3076 18.2638 -0.5143 -9.3152
# 5 -14.9001 -8.9100 -12.3882 -0.5143 27.1684 4.6661
# 6 32.2441 12.3776 18.3309 -9.3152 4.6661 35.0318
#
#
#
# Elastic Compliance Matrix: (Units=1/GPa)
#
#
# Indices 1 2 3 4 5 6 
#
# 1 0.015318 0.002570 0.002555 -0.005973 0.013688 -0.019755
# 2 0.002570 0.017141 0.001104 -0.003299 0.009383 -0.011126
# 3 0.002555 0.001104 0.011636 -0.004616 0.008913 -0.011245
# 4 -0.005973 -0.003299 -0.004616 0.067181 -0.010048 0.028281
# 5 0.013688 0.009383 0.008913 -0.010048 0.056552 -0.030782
# 6 -0.019755 -0.011126 -0.011245 0.028281 -0.030782 0.068164
#
#
# Mechanical properties :
#
#
# Convention : Reuss Voigt Hill
#
# Bulk Modulus (GPa) = 17.68292 40.10326 28.89309
# Shear Modulus (GPa) = 20.62838 33.26947 26.94892
#
# Velocity S-wave (km/s) = 3.02017 3.83550 3.45199
# Velocity P-wave (km/s) = 4.47001 6.11127 5.35390
#
# Compressibility (1/GPa) = 0.05655176
#
# Stress axis : x y z
#
# Youngs Moduli (GPa) = 65.28450 58.33954 85.94289
#
# Poissons Ratio (x) = -0.14991 -0.21959
# Poissons Ratio (y) = -0.16775 -0.09489
# Poissons Ratio (z) = -0.16681 -0.06441
#
# Static dielectric constant tensor:
#      x y z
#    x 1.871640 0.080420 0.003850 
#    y 0.080420 1.894200 0.013960 
#    z 0.003850 0.013960 1.844240 
# 
# From -- ./inp_files/28273.got.cif
#   From: 2010.05.17/outbox.cif.g08.bks.cpg/sg2_15_cif.got.tgz:28273.got - 2010.06.03 11:33:40.
