data_PCOD9111793
_publ_section_title
;
Structure prediction by ZEFSAII (Michael W. Deem and Ramdas Pophale) SiO2 
 PCOD9111793
Probable space group: P -1
;
_chemical_formula_sum "Si O2"
_cell_formula_units_Z 16
_cell_length_a 18.613103
_cell_length_b 12.494803
_cell_length_c 10.525654
_cell_angle_alpha 116.815649
_cell_angle_beta 37.495152
_cell_angle_gamma 143.321331
_cell_volume 765.939526
_symmetry_space_group_name_H-M "P -1"
_symmetry_group_IT_number 2
_symmetry_cell_setting 'triclinic'
loop_
_space_group_symop_operation_xyz
x,y,z
-x,-y,-z
loop_
_atom_site_type_symbol
_atom_site_label
_atom_site_fract_x
_atom_site_fract_y
_atom_site_fract_z
Si Si1 0.786723 0.768210 0.217431
Si Si2 0.422106 0.060132 0.926092
Si Si3 0.157052 0.626877 0.965081
Si Si4 0.319803 0.254032 0.126474
Si Si5 0.277915 0.981393 0.357881
Si Si6 0.586711 0.370096 0.299742
Si Si7 0.078189 0.062264 0.616950
Si Si8 0.112647 0.631874 0.542544
O O1 0.732618 0.591543 0.151344
O O2 0.601419 0.707299 0.421124
O O3 0.815634 0.777135 0.333456
O O4 0.000000 0.000000 0.000000
O O5 0.382419 0.167444 0.011221
O O6 0.335525 0.962180 0.137175
O O7 0.300425 0.864736 0.902984
O O8 0.665771 0.244834 0.683016
O O9 0.025959 0.505102 0.213799
O O10 0.300062 0.626844 0.763528
O O11 0.000000 0.500000 0.000000
O O12 0.186475 0.183000 0.397720
O O13 0.500000 0.500000 0.000000
O O14 0.164253 0.126137 0.157625
O O15 0.486802 0.207978 0.242536
O O16 0.131010 0.968397 0.520888
O O17 0.173739 0.819258 0.527696
O O18 0.000000 0.500000 0.500000
#
# Coordination Sequence:
#
# PCOD9111793 Si02
#       8
#     2   2   2   2   2   2   2   2
#     4  10  23  42  67  97 126 172 221 274 336 392
#     4  11  24  44  65 102 133 169 230 283 326 406
#     4  12  28  46  65  96 145 184 219 275 340 403
#     4  10  23  41  64  93 131 174 209 268 335 396
#     4  10  20  43  70  97 129 159 227 291 327 383
#     4  10  23  43  64  96 133 170 220 279 328 395
#     4   9  22  40  62  93 131 161 219 271 325 391
#     4  12  24  41  74  98 126 179 225 274 339 393
#
# _framework density 20.889379000000002
#
# number of rings (size 3 to 8) (size 9 to 14) (size 15 to 20)
#    0.000    1.500    2.500    1.125    7.000    5.500 
#    2.250    0.000    0.000    0.000    0.000    0.000 
#    0.000    0.000    0.000    0.000    0.000    0.000 
#
# Total GULP energy -89344.255023 kJ/mol
# GULP energy per Si atom -5584.015939 kJ/mol
# Density = 2.084183 g / cm^3
# Si number density = 20.889379 Si / 1000 Ang^3
#
#
#
# Elastic Constant Matrix: (Units=GPa)
#
#
# Indices 1 2 3 4 5 6 
#
# 1 110.8692 49.4182 44.0750 -11.5189 -28.0691 11.9885
# 2 49.4182 139.5961 42.0179 -30.0412 -9.9270 4.4489
# 3 44.0750 42.0179 83.2366 -28.1219 -16.9191 -0.3839
# 4 -11.5189 -30.0412 -28.1219 28.1373 4.3189 3.0943
# 5 -28.0691 -9.9270 -16.9191 4.3189 34.2060 -5.1983
# 6 11.9885 4.4489 -0.3839 3.0943 -5.1983 32.2048
#
#
#
# Elastic Compliance Matrix: (Units=1/GPa)
#
#
# Indices 1 2 3 4 5 6 
#
# 1 0.015126 -0.003896 -0.005997 -0.004887 0.008426 -0.003334
# 2 -0.003896 0.010691 -0.000353 0.009866 -0.001705 -0.001254
# 3 -0.005997 -0.000353 0.022596 0.018994 0.003963 0.001365
# 4 -0.004887 0.009866 0.018994 0.063766 -0.000647 -0.005548
# 5 0.008426 -0.001705 0.003963 -0.000647 0.038209 0.003376
# 6 -0.003334 -0.001254 0.001365 -0.005548 0.003376 0.033560
#
#
# Mechanical properties :
#
#
# Convention : Reuss Voigt Hill
#
# Bulk Modulus (GPa) = 35.81350 67.19157 51.50253
# Shear Modulus (GPa) = 23.39210 32.12232 27.75721
#
# Velocity S-wave (km/s) = 3.34998 3.92565 3.64919
# Velocity P-wave (km/s) = 5.66964 7.26518 6.51643
#
# Compressibility (1/GPa) = 0.02792243
#
# Stress axis : x y z
#
# Youngs Moduli (GPa) = 66.11034 93.53733 44.25489
#
# Poissons Ratio (x) = 0.36444 0.26538
# Poissons Ratio (y) = 0.25758 0.01561
# Poissons Ratio (z) = 0.39644 0.03299
#
# Static dielectric constant tensor:
#      x y z
#    x 1.763660 0.014530 -0.001480 
#    y 0.014530 1.797340 0.005890 
#    z -0.001480 0.005890 1.784550 
# 
# From -- ./inp_files/464663.got.cif
#   From: 2010.05.17/outbox.cif.g08.bks.cpg/sg2_233_cif.got.tgz:464663.got - 2010.06.03 11:33:40.
