data_PCOD9111688
_publ_section_title
;
Structure prediction by ZEFSAII (Michael W. Deem and Ramdas Pophale) SiO2 
 PCOD9111688
Probable space group: P -1
;
_chemical_formula_sum "Si O2"
_cell_formula_units_Z 16
_cell_length_a 17.549083
_cell_length_b 7.706002
_cell_length_c 15.571939
_cell_angle_alpha 134.376726
_cell_angle_beta 156.946441
_cell_angle_gamma 49.430344
_cell_volume 589.233694
_symmetry_space_group_name_H-M "P -1"
_symmetry_group_IT_number 2
_symmetry_cell_setting 'triclinic'
loop_
_space_group_symop_operation_xyz
x,y,z
-x,-y,-z
loop_
_atom_site_type_symbol
_atom_site_label
_atom_site_fract_x
_atom_site_fract_y
_atom_site_fract_z
Si Si1 0.968554 0.763836 0.324528
Si Si2 0.663165 0.784357 0.672106
Si Si3 0.344787 0.330161 0.826508
Si Si4 0.285450 0.395821 0.526358
Si Si5 0.332701 0.763421 0.064940
Si Si6 0.305975 0.715397 0.393012
Si Si7 0.523030 0.810402 0.831209
Si Si8 0.031592 0.025818 0.313530
O O1 0.080659 0.515239 0.383554
O O2 0.066245 0.833483 0.358579
O O3 0.000000 0.000000 0.500000
O O4 0.746824 0.751767 0.060745
O O5 0.718572 0.739059 0.615788
O O6 0.435662 0.749240 0.453847
O O7 0.754600 0.563341 0.748667
O O8 0.710999 0.061816 0.839593
O O9 0.157873 0.253248 0.552141
O O10 0.461252 0.084687 0.884786
O O11 0.500000 0.500000 0.000000
O O12 0.274543 0.490087 0.889479
O O13 0.431462 0.251006 0.691940
O O14 0.409977 0.629458 0.712274
O O15 0.195379 0.903655 0.902426
O O16 0.449660 0.769135 0.642481
O O17 0.124158 0.901046 0.281577
#
# Coordination Sequence:
#
# PCOD9111688 Si02
#       8
#     2   2   2   2   2   2   2   2
#     4  12  24  42  75 101 130 181 235 283 345 410
#     4  10  20  43  68  95 135 183 227 278 349 396
#     4  11  22  42  70  98 139 177 227 292 343 401
#     4  11  25  48  64 101 143 183 226 291 330 417
#     4  12  25  38  68  97 143 181 218 284 350 398
#     4   9  19  42  73  93 134 177 229 290 330 408
#     4  10  22  44  69  97 136 177 238 274 349 401
#     4  11  23  45  66 107 135 174 240 282 338 415
#
# _framework density 27.153912999999999
#
# number of rings (size 3 to 8) (size 9 to 14) (size 15 to 20)
#    0.000    1.250    3.750    4.500    1.750    1.500 
#   11.250    0.625    0.000    0.000    0.000    0.000 
#    0.000    0.000    0.000    0.000    0.000    0.000 
#
# Total GULP energy -89458.958161 kJ/mol
# GULP energy per Si atom -5591.184885 kJ/mol
# Density = 2.709211 g / cm^3
# Si number density = 27.153913 Si / 1000 Ang^3
#
#
#
# Elastic Constant Matrix: (Units=GPa)
#
#
# Indices 1 2 3 4 5 6 
#
# 1 98.9816 32.7317 33.7470 -6.4836 5.9563 -22.2601
# 2 32.7317 180.7073 68.3550 -8.3737 -7.9987 -43.0398
# 3 33.7470 68.3550 133.7249 -32.3188 13.2807 -19.9747
# 4 -6.4836 -8.3737 -32.3188 69.6149 -6.5224 -7.0402
# 5 5.9563 -7.9987 13.2807 -6.5224 36.4378 3.2294
# 6 -22.2601 -43.0398 -19.9747 -7.0402 3.2294 56.2449
#
#
#
# Elastic Compliance Matrix: (Units=1/GPa)
#
#
# Indices 1 2 3 4 5 6 
#
# 1 0.011908 -0.000617 -0.001877 0.000384 -0.001659 0.003717
# 2 -0.000617 0.008252 -0.003665 -0.000035 0.002834 0.004601
# 3 -0.001877 -0.003665 0.011506 0.004485 -0.004006 0.001330
# 4 0.000384 -0.000035 0.004485 0.016954 0.000994 0.003783
# 5 -0.001659 0.002834 -0.004006 0.000994 0.030110 -0.001515
# 6 0.003717 0.004601 0.001330 0.003783 -0.001515 0.023804
#
#
# Mechanical properties :
#
#
# Convention : Reuss Voigt Hill
#
# Bulk Modulus (GPa) = 51.68704 75.89794 63.79249
# Shear Modulus (GPa) = 41.22010 51.03152 46.12581
#
# Velocity S-wave (km/s) = 3.90040 4.33984 4.12598
# Velocity P-wave (km/s) = 6.27378 7.28862 6.80016
#
# Compressibility (1/GPa) = 0.01934721
#
# Stress axis : x y z
#
# Youngs Moduli (GPa) = 83.97852 121.18865 86.91482
#
# Poissons Ratio (x) = 0.07480 0.16312
# Poissons Ratio (y) = 0.05183 0.31853
# Poissons Ratio (z) = 0.15761 0.44414
#
# Static dielectric constant tensor:
#      x y z
#    x 2.188950 -0.005210 0.002740 
#    y -0.005210 2.138370 0.025880 
#    z 0.002740 0.025880 2.112210 
# 
# From -- ./inp_files/577645.got.cif
#   From: 2010.05.17/outbox.cif.g08.bks.cpg/sg2_289_cif.got.tgz:577645.got - 2010.06.03 11:33:40.
