data_PCOD9111966
_publ_section_title
;
Structure prediction by ZEFSAII (Michael W. Deem and Ramdas Pophale) SiO2 
 PCOD9111966
Probable space group: P -1
;
_chemical_formula_sum "Si O2"
_cell_formula_units_Z 14
_cell_length_a 8.726920
_cell_length_b 13.904876
_cell_length_c 11.606278
_cell_angle_alpha 126.572790
_cell_angle_beta 39.087262
_cell_angle_gamma 109.317616
_cell_volume 688.609019
_symmetry_space_group_name_H-M "P -1"
_symmetry_group_IT_number 2
_symmetry_cell_setting 'triclinic'
loop_
_space_group_symop_operation_xyz
x,y,z
-x,-y,-z
loop_
_atom_site_type_symbol
_atom_site_label
_atom_site_fract_x
_atom_site_fract_y
_atom_site_fract_z
Si Si1 0.001349 0.715502 0.190134
Si Si2 0.799019 0.599276 0.831748
Si Si3 0.455765 0.749949 0.574971
Si Si4 0.160632 0.661809 0.481632
Si Si5 0.763298 0.402661 0.250403
Si Si6 0.624729 0.955135 0.517182
Si Si7 0.721783 0.208690 0.701521
O O1 0.166487 0.752408 0.219336
O O2 0.754105 0.685943 0.369152
O O3 0.867439 0.837970 0.281081
O O4 0.159699 0.614504 0.939291
O O5 0.744511 0.472118 0.729851
O O6 0.918901 0.654458 0.692348
O O7 0.011701 0.571515 0.786439
O O8 0.554170 0.699136 0.088932
O O9 0.357874 0.691165 0.478129
O O10 0.292125 0.723571 0.756903
O O11 0.444502 0.892545 0.654443
O O12 0.115795 0.764749 0.482200
O O13 0.500000 0.500000 0.500000
O O14 0.500000 0.000000 0.500000
O O15 0.698284 0.069347 0.615345
#
# Coordination Sequence:
#
# PCOD9111966 Si02
#       7
#     2   2   2   2   2   2   2
#     4  10  25  39  62  95 125 160 208 256 311 365
#     4  10  24  39  62  93 125 161 216 249 314 371
#     4   9  22  42  64  92 122 163 214 248 314 367
#     4  10  21  41  62  91 124 164 208 260 303 375
#     4  11  24  43  64  90 131 164 207 258 309 375
#     4  10  20  44  65  89 127 161 216 251 303 376
#     4  12  22  40  66  92 127 166 202 261 312 365
#
# _framework density 20.330842000000001
#
# number of rings (size 3 to 8) (size 9 to 14) (size 15 to 20)
#    0.857    0.857    1.429    2.571    8.000    0.571 
#    2.571    2.857    0.000    0.000    0.000    0.000 
#    0.000    0.000    0.000    0.000    0.000    0.000 
#
# Total GULP energy -78144.285006 kJ/mol
# GULP energy per Si atom -5581.734643 kJ/mol
# Density = 2.028457 g / cm^3
# Si number density = 20.330842 Si / 1000 Ang^3
#
#
#
# Elastic Constant Matrix: (Units=GPa)
#
#
# Indices 1 2 3 4 5 6 
#
# 1 88.4133 5.9659 19.0674 0.0901 -5.7465 10.6330
# 2 5.9659 96.0302 -2.8018 3.1844 4.2852 21.3542
# 3 19.0674 -2.8018 47.1055 -0.9883 -0.6278 9.9626
# 4 0.0901 3.1844 -0.9883 18.0614 -4.8471 3.9543
# 5 -5.7465 4.2852 -0.6278 -4.8471 28.0812 7.1854
# 6 10.6330 21.3542 9.9626 3.9543 7.1854 32.0204
#
#
#
# Elastic Compliance Matrix: (Units=1/GPa)
#
#
# Indices 1 2 3 4 5 6 
#
# 1 0.012984 -0.000315 -0.004384 0.001619 0.003860 -0.003804
# 2 -0.000315 0.012553 0.002843 0.000100 0.000473 -0.009270
# 3 -0.004384 0.002843 0.025224 0.003507 0.002196 -0.009214
# 4 0.001619 0.000100 0.003507 0.062138 0.014341 -0.012588
# 5 0.003860 0.000473 0.002196 0.014341 0.042320 -0.013548
# 6 -0.003804 -0.009270 -0.009214 -0.012588 -0.013548 0.046137
#
#
# Mechanical properties :
#
#
# Convention : Reuss Voigt Hill
#
# Bulk Modulus (GPa) = 21.25450 30.66799 25.96125
# Shear Modulus (GPa) = 22.64997 29.58709 26.11853
#
# Velocity S-wave (km/s) = 3.34139 3.81895 3.58813
# Velocity P-wave (km/s) = 5.03622 5.87904 5.47387
#
# Compressibility (1/GPa) = 0.04704886
#
# Stress axis : x y z
#
# Youngs Moduli (GPa) = 77.01793 79.66332 39.64417
#
# Poissons Ratio (x) = 0.02507 0.17382
# Poissons Ratio (y) = 0.02423 -0.11271
# Poissons Ratio (z) = 0.33768 -0.22648
#
# Static dielectric constant tensor:
#      x y z
#    x 1.698780 -0.019320 -0.011140 
#    y -0.019320 1.778270 -0.006390 
#    z -0.011140 -0.006390 1.694370 
# 
# From -- ./inp_files/331399.got.cif
#   From: 2010.05.17/outbox.cif.g08.bks.cpg/sg2_166_cif.got.tgz:331399.got - 2010.06.03 11:33:40.
