data_PCOD9111420
_publ_section_title
;
Structure prediction by ZEFSAII (Michael W. Deem and Ramdas Pophale) SiO2 
 PCOD9111420
Probable space group: P -1
;
_chemical_formula_sum "Si O2"
_cell_formula_units_Z 14
_cell_length_a 9.235274
_cell_length_b 13.671241
_cell_length_c 14.106738
_cell_angle_alpha 29.439131
_cell_angle_beta 98.171060
_cell_angle_gamma 119.330315
_cell_volume 570.742624
_symmetry_space_group_name_H-M "P -1"
_symmetry_group_IT_number 2
_symmetry_cell_setting 'triclinic'
loop_
_space_group_symop_operation_xyz
x,y,z
-x,-y,-z
loop_
_atom_site_type_symbol
_atom_site_label
_atom_site_fract_x
_atom_site_fract_y
_atom_site_fract_z
Si Si1 0.185608 0.066663 0.066716
Si Si2 0.627516 0.893035 0.690024
Si Si3 0.811992 0.168896 0.124174
Si Si4 0.992987 0.020152 0.369609
Si Si5 0.589632 0.300532 0.372758
Si Si6 0.623838 0.384031 0.913907
Si Si7 0.243244 0.188108 0.748566
O O1 0.266829 0.364916 0.863391
O O2 0.372672 0.103618 0.088234
O O3 0.196907 0.076745 0.945921
O O4 0.926777 0.802067 0.295010
O O5 0.538775 0.787399 0.663498
O O6 0.701199 0.198068 0.454448
O O7 0.429628 0.642152 0.957446
O O8 0.821277 0.934109 0.692988
O O9 0.997147 0.248458 0.138171
O O10 0.587375 0.918711 0.375888
O O11 0.803698 0.035939 0.140024
O O12 0.803580 0.393154 0.914782
O O13 0.742215 0.680739 0.615510
O O14 0.000000 0.000000 0.500000
O O15 0.500000 0.500000 0.500000
#
# Coordination Sequence:
#
# PCOD9111420 Si02
#       7
#     2   2   2   2   2   2   2
#     4  11  23  42  67  96 130 173 222 270 334 390
#     4  10  23  40  64  97 137 174 213 268 326 390
#     4  11  23  43  66  95 135 171 223 275 320 394
#     4  12  23  42  65  99 137 173 223 271 316 399
#     4  10  20  43  62  95 137 170 218 267 319 402
#     4  11  25  42  66  99 132 180 219 262 340 390
#     4  11  23  42  71  95 127 174 221 280 333 384
#
# _framework density 24.529444000000002
#
# number of rings (size 3 to 8) (size 9 to 14) (size 15 to 20)
#    0.000    1.143    4.286    0.857    2.000    4.571 
#    0.000    0.714    0.000    0.000    0.000    0.000 
#    0.000    0.000    0.000    0.000    0.000    0.000 
#
# Total GULP energy -78325.319704 kJ/mol
# GULP energy per Si atom -5594.665693 kJ/mol
# Density = 2.447361 g / cm^3
# Si number density = 24.529444 Si / 1000 Ang^3
#
#
#
# Elastic Constant Matrix: (Units=GPa)
#
#
# Indices 1 2 3 4 5 6 
#
# 1 202.3213 38.8364 33.7842 3.3529 -5.8434 16.5927
# 2 38.8364 123.5155 4.2539 19.0157 -8.5124 -8.1229
# 3 33.7842 4.2539 62.1031 6.9141 -10.2058 -0.3755
# 4 3.3529 19.0157 6.9141 23.0360 6.0553 -9.7638
# 5 -5.8434 -8.5124 -10.2058 6.0553 53.6318 5.1546
# 6 16.5927 -8.1229 -0.3755 -9.7638 5.1546 47.3711
#
#
#
# Elastic Compliance Matrix: (Units=1/GPa)
#
#
# Indices 1 2 3 4 5 6 
#
# 1 0.006065 -0.002098 -0.003301 0.000911 -0.000182 -0.002303
# 2 -0.002098 0.010358 0.001951 -0.009460 0.002829 0.000269
# 3 -0.003301 0.001951 0.019469 -0.008458 0.004668 -0.000606
# 4 0.000911 -0.009460 -0.008458 0.061587 -0.011108 0.011894
# 5 -0.000182 0.002829 0.004668 -0.011108 0.021607 -0.004055
# 6 -0.002303 0.000269 -0.000606 0.011894 -0.004055 0.024850
#
#
# Mechanical properties :
#
#
# Convention : Reuss Voigt Hill
#
# Bulk Modulus (GPa) = 34.48555 60.18764 47.33660
# Shear Modulus (GPa) = 31.15336 45.54548 38.34942
#
# Velocity S-wave (km/s) = 3.56763 4.31370 3.95828
# Velocity P-wave (km/s) = 5.57315 7.02857 6.34274
#
# Compressibility (1/GPa) = 0.02899765
#
# Stress axis : x y z
#
# Youngs Moduli (GPa) = 164.88183 96.54817 51.36254
#
# Poissons Ratio (x) = 0.20251 0.16954
# Poissons Ratio (y) = 0.34585 -0.10023
# Poissons Ratio (z) = 0.54426 -0.18840
#
# Static dielectric constant tensor:
#      x y z
#    x 1.991190 0.015950 0.001880 
#    y 0.015950 1.988280 -0.059450 
#    z 0.001880 -0.059450 2.003780 
# 
# From -- ./inp_files/313598.got.cif
#   From: 2010.05.17/outbox.cif.g08.bks.cpg/sg2_157_cif.got.tgz:313598.got - 2010.06.03 11:33:40.
