data_PCOD9111822
_publ_section_title
;
Structure prediction by ZEFSAII (Michael W. Deem and Ramdas Pophale) SiO2 
 PCOD9111822
Probable space group: P -1
;
_chemical_formula_sum "Si O2"
_cell_formula_units_Z 12
_cell_length_a 5.665429
_cell_length_b 9.126193
_cell_length_c 12.414669
_cell_angle_alpha 81.310747
_cell_angle_beta 63.569994
_cell_angle_gamma 99.521850
_cell_volume 548.219055
_symmetry_space_group_name_H-M "P -1"
_symmetry_group_IT_number 2
_symmetry_cell_setting 'triclinic'
loop_
_space_group_symop_operation_xyz
x,y,z
-x,-y,-z
loop_
_atom_site_type_symbol
_atom_site_label
_atom_site_fract_x
_atom_site_fract_y
_atom_site_fract_z
Si Si1 0.707508 0.646141 0.883278
Si Si2 0.235246 0.323134 0.367160
Si Si3 0.419838 0.817782 0.511479
Si Si4 0.525697 0.330148 0.707095
Si Si5 0.986838 0.566367 0.113377
Si Si6 0.483931 0.828838 0.051279
O O1 0.627077 0.688545 0.777066
O O2 0.956910 0.573572 0.814339
O O3 0.500000 0.500000 0.000000
O O4 0.738704 0.779187 0.949899
O O5 0.414971 0.258982 0.425600
O O6 0.256832 0.503651 0.366675
O O7 0.913561 0.234692 0.429532
O O8 0.517839 0.765893 0.382340
O O9 0.500000 0.000000 0.500000
O O10 0.269579 0.387168 0.794485
O O11 0.568694 0.222384 0.808899
O O12 0.228387 0.720090 0.054251
O O13 0.000000 0.500000 0.000000
O O14 0.500000 0.000000 0.000000
#
# Coordination Sequence:
#
# PCOD9111822 Si02
#       6
#     2   2   2   2   2   2
#     4  10  20  43  71 108 139 183 241 300 367 440
#     4  12  25  49  80 103 145 201 251 305 365 451
#     4  12  31  50  73 110 151 197 252 312 375 435
#     4  12  25  47  73 106 143 198 252 302 362 457
#     4  11  21  43  71 102 147 185 248 300 365 445
#     4  11  25  41  68 111 151 185 239 309 384 434
#
# _framework density 21.889061000000002
#
# number of rings (size 3 to 8) (size 9 to 14) (size 15 to 20)
#    0.000    0.667    5.000    3.500    4.667    2.000 
#    0.000    0.000    0.000    0.000    0.000    0.000 
#    0.000    0.000    0.000    0.000    0.000    0.000 
#
# Total GULP energy -66898.781805 kJ/mol
# GULP energy per Si atom -5574.898484 kJ/mol
# Density = 2.183924 g / cm^3
# Si number density = 21.889061 Si / 1000 Ang^3
#
#
#
# Elastic Constant Matrix: (Units=GPa)
#
#
# Indices 1 2 3 4 5 6 
#
# 1 129.9296 69.8929 69.1760 -7.9688 10.9403 3.9373
# 2 69.8929 192.9418 82.1289 -4.4885 21.2776 -6.4708
# 3 69.1760 82.1289 170.8007 20.5819 35.2504 0.1925
# 4 -7.9688 -4.4885 20.5819 31.7627 -3.9177 8.3328
# 5 10.9403 21.2776 35.2504 -3.9177 53.4254 -1.4754
# 6 3.9373 -6.4708 0.1925 8.3328 -1.4754 31.8907
#
#
#
# Elastic Compliance Matrix: (Units=1/GPa)
#
#
# Indices 1 2 3 4 5 6 
#
# 1 0.012051 -0.002424 -0.005044 0.007205 0.002251 -0.003728
# 2 -0.002424 0.007329 -0.002647 0.001731 -0.000513 0.001326
# 3 -0.005044 -0.002647 0.011781 -0.010724 -0.006403 0.002521
# 4 0.007205 0.001731 -0.010724 0.044535 0.007853 -0.011747
# 5 0.002251 -0.000513 -0.006403 0.007853 0.023225 -0.001321
# 6 -0.003728 0.001326 0.002521 -0.011747 -0.001321 0.035080
#
#
# Mechanical properties :
#
#
# Convention : Reuss Voigt Hill
#
# Bulk Modulus (GPa) = 91.47272 104.00751 97.74011
# Shear Modulus (GPa) = 31.67076 41.58071 36.62574
#
# Velocity S-wave (km/s) = 3.80791 4.36318 4.09497
# Velocity P-wave (km/s) = 7.82391 8.54412 8.19193
#
# Compressibility (1/GPa) = 0.01093222
#
# Stress axis : x y z
#
# Youngs Moduli (GPa) = 82.97953 136.44572 84.88172
#
# Poissons Ratio (x) = 0.33078 0.42812
# Poissons Ratio (y) = 0.20116 0.22464
# Poissons Ratio (z) = 0.41852 0.36111
#
# Static dielectric constant tensor:
#      x y z
#    x 2.033410 -0.086780 -0.020580 
#    y -0.086780 1.745010 -0.008510 
#    z -0.020580 -0.008510 1.902680 
# 
# From -- ./inp_files/359483.got.cif
#   From: 2010.05.17/outbox.cif.g08.bks.cpg/sg2_180_cif.got.tgz:359483.got - 2010.06.03 11:33:40.
