data_PCOD9111823
_publ_section_title
;
Structure prediction by ZEFSAII (Michael W. Deem and Ramdas Pophale) SiO2 
 PCOD9111823
Probable space group: P -1
;
_chemical_formula_sum "Si O2"
_cell_formula_units_Z 16
_cell_length_a 25.064869
_cell_length_b 9.485579
_cell_length_c 9.202263
_cell_angle_alpha 49.236767
_cell_angle_beta 133.510907
_cell_angle_gamma 150.978883
_cell_volume 761.687306
_symmetry_space_group_name_H-M "P -1"
_symmetry_group_IT_number 2
_symmetry_cell_setting 'triclinic'
loop_
_space_group_symop_operation_xyz
x,y,z
-x,-y,-z
loop_
_atom_site_type_symbol
_atom_site_label
_atom_site_fract_x
_atom_site_fract_y
_atom_site_fract_z
Si Si1 0.307321 0.945787 0.957007
Si Si2 0.760907 0.800163 0.303322
Si Si3 0.714567 0.381785 0.270817
Si Si4 0.928045 0.119467 0.673750
Si Si5 0.846911 0.363844 0.387352
Si Si6 0.494097 0.284334 0.564820
Si Si7 0.508729 0.236653 0.318467
Si Si8 0.264802 0.461162 0.133205
O O1 0.270465 0.660422 0.105774
O O2 0.442070 0.184936 0.087384
O O3 0.267958 0.902858 0.745224
O O4 0.245866 0.994956 0.893335
O O5 0.748620 0.618381 0.279919
O O6 0.641881 0.545130 0.340899
O O7 0.864632 0.976201 0.493973
O O8 0.810177 0.404401 0.432217
O O9 0.592770 0.039828 0.309159
O O10 0.720942 0.462464 0.061621
O O11 0.911207 0.297454 0.577938
O O12 0.062769 0.348889 0.739825
O O13 0.855344 0.864591 0.825993
O O14 0.500000 0.500000 0.500000
O O15 0.453985 0.228369 0.360907
O O16 0.623171 0.449277 0.689051
O O17 0.500000 0.000000 0.500000
#
# Coordination Sequence:
#
# PCOD9111823 Si02
#       8
#     2   2   2   2   2   2   2   2
#     4  10  22  37  60  87 122 160 204 246 298 365
#     4  11  22  39  62  89 125 162 205 252 306 362
#     4  11  24  38  58  94 130 156 198 261 312 353
#     4  10  20  43  71  87 116 167 212 247 298 375
#     4   9  22  42  67  90 120 160 210 252 303 363
#     4  12  25  37  61  91 127 164 202 253 310 366
#     4  12  21  39  60  89 122 168 206 246 303 373
#     4  11  22  40  61  89 124 160 205 249 304 370
#
# _framework density 21.005997000000001
#
# number of rings (size 3 to 8) (size 9 to 14) (size 15 to 20)
#    0.000    1.250    3.750    1.500    5.250    3.500 
#    0.000    0.000    2.750    3.000    0.000    0.000 
#    0.000    0.000    0.000    0.000    0.000    0.000 
#
# Total GULP energy -89161.805237 kJ/mol
# GULP energy per Si atom -5572.612827 kJ/mol
# Density = 2.095819 g / cm^3
# Si number density = 21.005997 Si / 1000 Ang^3
#
#
#
# Elastic Constant Matrix: (Units=GPa)
#
#
# Indices 1 2 3 4 5 6 
#
# 1 134.1908 54.0566 26.7278 -12.3354 6.6365 -33.9857
# 2 54.0566 97.1042 29.2117 -10.8768 -3.2835 -9.3721
# 3 26.7278 29.2117 56.6119 0.4017 4.0427 -3.1112
# 4 -12.3354 -10.8768 0.4017 34.5461 1.5542 1.9551
# 5 6.6365 -3.2835 4.0427 1.5542 29.4427 -13.8057
# 6 -33.9857 -9.3721 -3.1112 1.9551 -13.8057 37.2499
#
#
#
# Elastic Compliance Matrix: (Units=1/GPa)
#
#
# Indices 1 2 3 4 5 6 
#
# 1 0.012924 -0.004856 -0.003154 0.002417 0.001966 0.010908
# 2 -0.004856 0.015203 -0.005818 0.002964 0.003447 0.000031
# 3 -0.003154 -0.005818 0.022290 -0.002770 -0.004777 -0.004105
# 4 0.002417 0.002964 -0.002770 0.030788 -0.001140 0.000681
# 5 0.001966 0.003447 -0.004777 -0.001140 0.043221 0.018340
# 6 0.010908 0.000031 -0.004105 0.000681 0.018340 0.043224
#
#
# Mechanical properties :
#
#
# Convention : Reuss Voigt Hill
#
# Bulk Modulus (GPa) = 43.93269 56.43322 50.18296
# Shear Modulus (GPa) = 24.64349 32.10845 28.37597
#
# Velocity S-wave (km/s) = 3.42886 3.91389 3.67938
# Velocity P-wave (km/s) = 6.05276 6.88101 6.48013
#
# Compressibility (1/GPa) = 0.02276209
#
# Stress axis : x y z
#
# Youngs Moduli (GPa) = 77.37599 65.77676 44.86230
#
# Poissons Ratio (x) = 0.31939 0.14150
# Poissons Ratio (y) = 0.37572 0.26099
# Poissons Ratio (z) = 0.24406 0.38267
#
# Static dielectric constant tensor:
#      x y z
#    x 1.775400 -0.049610 0.041840 
#    y -0.049610 1.810500 -0.026970 
#    z 0.041840 -0.026970 1.843550 
# 
# From -- ./inp_files/187433.got.cif
#   From: 2010.05.17/outbox.cif.g08.bks.cpg/sg2_94_cif.got.tgz:187433.got - 2010.06.03 11:33:40.
