data_PCOD9111642
_publ_section_title
;
Structure prediction by ZEFSAII (Michael W. Deem and Ramdas Pophale) SiO2 
 PCOD9111642
Probable space group: P -1
;
_chemical_formula_sum "Si O2"
_cell_formula_units_Z 14
_cell_length_a 14.548784
_cell_length_b 13.914199
_cell_length_c 12.425198
_cell_angle_alpha 121.679695
_cell_angle_beta 28.529572
_cell_angle_gamma 142.308126
_cell_volume 597.123773
_symmetry_space_group_name_H-M "P -1"
_symmetry_group_IT_number 2
_symmetry_cell_setting 'triclinic'
loop_
_space_group_symop_operation_xyz
x,y,z
-x,-y,-z
loop_
_atom_site_type_symbol
_atom_site_label
_atom_site_fract_x
_atom_site_fract_y
_atom_site_fract_z
Si Si1 0.359394 0.281917 0.802420
Si Si2 0.396464 0.769002 0.652250
Si Si3 0.597508 0.674802 0.531640
Si Si4 0.186337 0.916101 0.918990
Si Si5 0.522644 0.611806 0.816139
Si Si6 0.102847 0.195515 0.243026
Si Si7 0.059463 0.645248 0.584803
O O1 0.525684 0.258966 0.555235
O O2 0.557130 0.492099 0.704139
O O3 0.297868 0.236972 0.965108
O O4 0.008520 0.140792 0.021993
O O5 0.348782 0.642262 0.709341
O O6 0.179159 0.776409 0.860040
O O7 0.729440 0.980912 0.484204
O O8 0.500000 0.500000 0.500000
O O9 0.594754 0.692696 0.672007
O O10 0.960339 0.859620 0.213440
O O11 0.562662 0.136260 0.661552
O O12 0.753063 0.763447 0.765128
O O13 0.153611 0.459991 0.148737
O O14 0.107663 0.332544 0.298011
O O15 0.000000 0.500000 0.500000
#
# Coordination Sequence:
#
# PCOD9111642 Si02
#       7
#     2   2   2   2   2   2   2
#     4  10  20  43  67  98 137 171 222 281 338 387
#     4  10  22  41  71  98 130 180 229 271 336 393
#     4  11  23  48  66  98 139 180 224 274 337 399
#     4  10  23  44  72 102 132 173 234 276 326 408
#     4  11  23  45  66  96 141 175 224 276 336 405
#     4  10  23  43  63 101 134 178 224 271 341 404
#     4  10  23  43  65 104 135 171 223 283 340 388
#
# _framework density 23.445724999999999
#
# number of rings (size 3 to 8) (size 9 to 14) (size 15 to 20)
#    0.000    1.714    2.857    2.143    4.000    6.286 
#   15.429    1.429    0.000    0.000    0.000    0.000 
#    0.000    0.000    0.000    0.000    0.000    0.000 
#
# Total GULP energy -78365.672225 kJ/mol
# GULP energy per Si atom -5597.548016 kJ/mol
# Density = 2.339236 g / cm^3
# Si number density = 23.445725 Si / 1000 Ang^3
#
#
#
# Elastic Constant Matrix: (Units=GPa)
#
#
# Indices 1 2 3 4 5 6 
#
# 1 159.7460 41.6938 75.5021 24.6777 16.5240 5.9899
# 2 41.6938 111.1058 36.3229 25.2237 -4.8333 2.6331
# 3 75.5021 36.3229 134.0721 18.0511 2.3109 10.6345
# 4 24.6777 25.2237 18.0511 42.0405 -2.0107 -11.1243
# 5 16.5240 -4.8333 2.3109 -2.0107 50.0272 10.1082
# 6 5.9899 2.6331 10.6345 -11.1243 10.1082 48.3109
#
#
#
# Elastic Compliance Matrix: (Units=1/GPa)
#
#
# Indices 1 2 3 4 5 6 
#
# 1 0.009599 -0.001601 -0.004515 -0.002918 -0.003212 -0.000109
# 2 -0.001601 0.011466 -0.001312 -0.005779 0.001839 -0.001853
# 3 -0.004515 -0.001312 0.010763 -0.001761 0.001284 -0.002412
# 4 -0.002918 -0.005779 -0.001761 0.031951 0.000072 0.008406
# 5 -0.003212 0.001839 0.001284 0.000072 0.022099 -0.004592
# 6 -0.000109 -0.001853 -0.002412 0.008406 -0.004592 0.024241
#
#
# Mechanical properties :
#
#
# Convention : Reuss Voigt Hill
#
# Bulk Modulus (GPa) = 58.91718 79.10683 69.01200
# Shear Modulus (GPa) = 38.27592 44.83605 41.55599
#
# Velocity S-wave (km/s) = 4.04484 4.37777 4.21460
# Velocity P-wave (km/s) = 6.85552 7.70498 7.29263
#
# Compressibility (1/GPa) = 0.01697298
#
# Stress axis : x y z
#
# Youngs Moduli (GPa) = 104.18031 87.21603 92.91206
#
# Poissons Ratio (x) = 0.13961 0.41950
# Poissons Ratio (y) = 0.16676 0.12185
# Poissons Ratio (z) = 0.47037 0.11438
#
# Static dielectric constant tensor:
#      x y z
#    x 1.904070 -0.047170 -0.009950 
#    y -0.047170 1.944650 -0.030480 
#    z -0.009950 -0.030480 1.893750 
# 
# From -- ./inp_files/455770.got.cif
#   From: 2010.05.17/outbox.cif.g08.bks.cpg/sg2_228_cif.got.tgz:455770.got - 2010.06.03 11:33:40.
