data_PCOD9111060
_publ_section_title
;
Structure prediction by ZEFSAII (Michael W. Deem and Ramdas Pophale) SiO2 
 PCOD9111060
Probable space group: P -1
;
_chemical_formula_sum "Si O2"
_cell_formula_units_Z 16
_cell_length_a 19.282777
_cell_length_b 19.544077
_cell_length_c 8.753711
_cell_angle_alpha 46.071363
_cell_angle_beta 35.668267
_cell_angle_gamma 20.504196
_cell_volume 636.302037
_symmetry_space_group_name_H-M "P -1"
_symmetry_group_IT_number 2
_symmetry_cell_setting 'triclinic'
loop_
_space_group_symop_operation_xyz
x,y,z
-x,-y,-z
loop_
_atom_site_type_symbol
_atom_site_label
_atom_site_fract_x
_atom_site_fract_y
_atom_site_fract_z
Si Si1 0.600044 0.733205 0.576176
Si Si2 0.294396 0.688644 0.686183
Si Si3 0.974067 0.414133 0.009558
Si Si4 0.097571 0.154367 0.984985
Si Si5 0.964856 0.316900 0.505290
Si Si6 0.772944 0.236123 0.990756
Si Si7 0.430019 0.874078 0.345555
Si Si8 0.035430 0.060646 0.519814
O O1 0.802058 0.506495 0.605326
O O2 0.450306 0.805730 0.577919
O O3 0.779807 0.691796 0.260835
O O4 0.394949 0.919626 0.774797
O O5 0.500000 0.500000 0.500000
O O6 0.174478 0.863755 0.543495
O O7 0.069985 0.768189 0.975062
O O8 0.398153 0.647499 0.730073
O O9 0.019188 0.314074 0.937273
O O10 0.959149 0.363293 0.270809
O O11 0.714096 0.663088 0.090278
O O12 0.018951 0.144155 0.283515
O O13 0.826254 0.312696 0.768565
O O14 0.271082 0.082412 0.351988
O O15 0.772009 0.219805 0.835459
O O16 0.000000 0.000000 0.000000
O O17 0.237361 0.965238 0.426015
#
# Coordination Sequence:
#
# PCOD9111060 Si02
#       8
#     2   2   2   2   2   2   2   2
#     4  11  26  40  68 100 135 179 227 274 334 388
#     4  11  24  40  68  96 128 172 222 275 341 399
#     4  11  23  42  67  99 134 181 227 273 329 393
#     4  12  23  44  63  96 142 173 217 284 332 395
#     4  10  20  42  68  96 131 170 226 274 325 393
#     4   9  19  39  66  90 126 168 216 263 327 395
#     4  10  20  43  70  92 132 173 224 277 325 392
#     4  10  21  42  65  93 127 176 215 269 334 405
#
# _framework density 25.145288999999998
#
# number of rings (size 3 to 8) (size 9 to 14) (size 15 to 20)
#    0.000    1.500    2.500    4.500    1.750    2.000 
#    2.250    1.250    0.000    0.000    0.000    0.000 
#    0.000    0.000    0.000    0.000    0.000    0.000 
#
# Total GULP energy -89243.739257 kJ/mol
# GULP energy per Si atom -5577.733704 kJ/mol
# Density = 2.508806 g / cm^3
# Si number density = 25.145289 Si / 1000 Ang^3
#
#
#
# Elastic Constant Matrix: (Units=GPa)
#
#
# Indices 1 2 3 4 5 6 
#
# 1 62.8498 23.6054 7.2812 14.1437 7.2292 12.7371
# 2 23.6054 167.4910 39.4970 39.7330 13.5488 25.0418
# 3 7.2812 39.4970 88.8834 29.6487 12.5904 6.2700
# 4 14.1437 39.7330 29.6487 58.4975 11.6056 14.2770
# 5 7.2292 13.5488 12.5904 11.6056 34.9026 10.0729
# 6 12.7371 25.0418 6.2700 14.2770 10.0729 43.9638
#
#
#
# Elastic Compliance Matrix: (Units=1/GPa)
#
#
# Indices 1 2 3 4 5 6 
#
# 1 0.017782 -0.001415 0.000440 -0.002462 -0.001534 -0.003258
# 2 -0.001415 0.007842 -0.002075 -0.003251 -0.000151 -0.002671
# 3 0.000440 -0.002075 0.014376 -0.005770 -0.003005 0.001566
# 4 -0.002462 -0.003251 -0.005770 0.024377 -0.003154 -0.003806
# 5 -0.001534 -0.000151 -0.003005 -0.003154 0.032754 -0.005521
# 6 -0.003258 -0.002671 0.001566 -0.003806 -0.005521 0.027489
#
#
# Mechanical properties :
#
#
# Convention : Reuss Voigt Hill
#
# Bulk Modulus (GPa) = 29.49629 51.11013 40.30321
# Shear Modulus (GPa) = 35.20677 44.06215 39.63446
#
# Velocity S-wave (km/s) = 3.74590 4.19059 3.97447
# Velocity P-wave (km/s) = 5.51949 6.61701 6.09301
#
# Compressibility (1/GPa) = 0.03390257
#
# Stress axis : x y z
#
# Youngs Moduli (GPa) = 56.23651 127.52191 69.55874
#
# Poissons Ratio (x) = 0.18040 -0.03063
# Poissons Ratio (y) = 0.07956 0.14430
# Poissons Ratio (z) = -0.02477 0.26455
#
# Static dielectric constant tensor:
#      x y z
#    x 2.145900 -0.011800 -0.031950 
#    y -0.011800 2.041500 0.052910 
#    z -0.031950 0.052910 2.042680 
# 
# From -- ./inp_files/349478.got.cif
#   From: 2010.05.17/outbox.cif.g08.bks.cpg/sg2_175_cif.got.tgz:349478.got - 2010.06.03 11:33:40.
