data_PCOD9111939
_publ_section_title
;
Structure prediction by ZEFSAII (Michael W. Deem and Ramdas Pophale) SiO2 
 PCOD9111939
Probable space group: P -1
;
_chemical_formula_sum "Si O2"
_cell_formula_units_Z 16
_cell_length_a 15.160099
_cell_length_b 16.152823
_cell_length_c 7.368337
_cell_angle_alpha 74.764128
_cell_angle_beta 66.223492
_cell_angle_gamma 26.248225
_cell_volume 708.166857
_symmetry_space_group_name_H-M "P -1"
_symmetry_group_IT_number 2
_symmetry_cell_setting 'triclinic'
loop_
_space_group_symop_operation_xyz
x,y,z
-x,-y,-z
loop_
_atom_site_type_symbol
_atom_site_label
_atom_site_fract_x
_atom_site_fract_y
_atom_site_fract_z
Si Si1 0.439896 0.010503 0.740993
Si Si2 0.003941 0.568554 0.201607
Si Si3 0.029767 0.004975 0.681676
Si Si4 0.538272 0.373249 0.974178
Si Si5 0.484047 0.234275 0.046711
Si Si6 0.898533 0.888990 0.638185
Si Si7 0.290451 0.640681 0.705443
Si Si8 0.105912 0.302487 0.358496
O O1 0.194469 0.232731 0.859136
O O2 0.500000 0.000000 0.500000
O O3 0.464470 0.888886 0.800586
O O4 0.635154 0.891074 0.768059
O O5 0.959293 0.631119 0.413751
O O6 0.247564 0.406123 0.056558
O O7 0.995255 0.471972 0.254525
O O8 0.092214 0.054603 0.577133
O O9 0.794336 0.172690 0.853133
O O10 0.196885 0.807507 0.752597
O O11 0.000000 0.000000 0.500000
O O12 0.382355 0.500809 0.853456
O O13 0.500000 0.500000 0.000000
O O14 0.486095 0.319450 0.116599
O O15 0.675472 0.083512 0.822940
O O16 0.934762 0.762035 0.626651
O O17 0.099575 0.753207 0.679579
O O18 0.500000 0.500000 0.500000
#
# Coordination Sequence:
#
# PCOD9111939 Si02
#       8
#     2   2   2   2   2   2   2   2
#     4   9  20  43  64  90 126 166 208 266 331 384
#     4   9  20  39  64  89 127 159 210 266 326 378
#     4  10  20  44  63  90 137 168 214 271 318 392
#     4  12  26  43  65 101 135 171 222 278 324 386
#     4  11  23  40  65  91 132 164 208 280 316 379
#     4  11  22  41  65  95 129 173 221 260 326 393
#     4  11  21  43  69  87 133 182 216 264 331 386
#     4   9  20  41  63  90 124 162 208 271 316 387
#
# _framework density 22.593546
#
# number of rings (size 3 to 8) (size 9 to 14) (size 15 to 20)
#    0.000    1.750    5.000    0.750    3.500    2.500 
#    9.000    1.250    0.000    0.000    0.000    0.000 
#    0.000    0.000    0.000    0.000    0.000    0.000 
#
# Total GULP energy -89260.088352 kJ/mol
# GULP energy per Si atom -5578.755522 kJ/mol
# Density = 2.254212 g / cm^3
# Si number density = 22.593546 Si / 1000 Ang^3
#
#
#
# Elastic Constant Matrix: (Units=GPa)
#
#
# Indices 1 2 3 4 5 6 
#
# 1 128.9337 65.7813 33.1607 -2.6728 -34.9759 39.4277
# 2 65.7813 172.7178 37.8650 7.9717 -29.5233 -1.0356
# 3 33.1607 37.8650 43.5951 -6.0263 -22.5229 -2.8651
# 4 -2.6728 7.9717 -6.0263 38.9885 5.4309 -17.5077
# 5 -34.9759 -29.5233 -22.5229 5.4309 36.1284 -3.9038
# 6 39.4277 -1.0356 -2.8651 -17.5077 -3.9038 44.4466
#
#
#
# Elastic Compliance Matrix: (Units=1/GPa)
#
#
# Indices 1 2 3 4 5 6 
#
# 1 0.023489 -0.003977 -0.012128 -0.012517 0.011037 -0.025672
# 2 -0.003977 0.008392 -0.003564 -0.001339 0.001320 0.003082
# 3 -0.012128 -0.003564 0.045780 0.014213 0.013959 0.020451
# 4 -0.012517 -0.001339 0.014213 0.040569 -0.007499 0.027310
# 5 0.011037 0.001320 0.013959 -0.007499 0.048455 -0.007558
# 6 -0.025672 0.003082 0.020451 0.027310 -0.007558 0.056756
#
#
# Mechanical properties :
#
#
# Convention : Reuss Voigt Hill
#
# Bulk Modulus (GPa) = 26.09481 68.76228 47.42854
# Shear Modulus (GPa) = 18.14516 37.80867 27.97692
#
# Velocity S-wave (km/s) = 2.83700 4.09519 3.52272
# Velocity P-wave (km/s) = 4.72294 7.27058 6.13056
#
# Compressibility (1/GPa) = 0.03832179
#
# Stress axis : x y z
#
# Youngs Moduli (GPa) = 42.57261 119.16463 21.84342
#
# Poissons Ratio (x) = 0.47390 0.26493
# Poissons Ratio (y) = 0.16931 0.07786
# Poissons Ratio (z) = 0.51634 0.42476
#
# Static dielectric constant tensor:
#      x y z
#    x 1.921790 0.023900 0.035600 
#    y 0.023900 1.833860 -0.025650 
#    z 0.035600 -0.025650 1.892540 
# 
# From -- ./inp_files/312939.got.cif
#   From: 2010.05.17/outbox.cif.g08.bks.cpg/sg2_157_cif.got.tgz:312939.got - 2010.06.03 11:33:40.
