data_PCOD9111296
_publ_section_title
;
Structure prediction by ZEFSAII (Michael W. Deem and Ramdas Pophale) SiO2 
 PCOD9111296
Probable space group: P -1
;
_chemical_formula_sum "Si O2"
_cell_formula_units_Z 14
_cell_length_a 9.198882
_cell_length_b 21.865716
_cell_length_c 9.693289
_cell_angle_alpha 155.161692
_cell_angle_beta 43.463615
_cell_angle_gamma 139.814040
_cell_volume 524.653357
_symmetry_space_group_name_H-M "P -1"
_symmetry_group_IT_number 2
_symmetry_cell_setting 'triclinic'
loop_
_space_group_symop_operation_xyz
x,y,z
-x,-y,-z
loop_
_atom_site_type_symbol
_atom_site_label
_atom_site_fract_x
_atom_site_fract_y
_atom_site_fract_z
Si Si1 0.666765 0.265291 0.759066
Si Si2 0.735067 0.647287 0.118400
Si Si3 0.494265 0.853345 0.104001
Si Si4 0.157991 0.144491 0.773092
Si Si5 0.447837 0.838816 0.788323
Si Si6 0.079039 0.563527 0.301914
Si Si7 0.924734 0.791223 0.747904
O O1 0.844442 0.179128 0.432266
O O2 0.771542 0.417510 0.902820
O O3 0.500000 0.000000 0.500000
O O4 0.640511 0.283813 0.976235
O O5 0.813043 0.699984 0.016943
O O6 0.661931 0.784036 0.510339
O O7 0.500000 0.500000 0.000000
O O8 0.923822 0.594320 0.950580
O O9 0.731742 0.825993 0.870711
O O10 0.579420 0.828682 0.326148
O O11 0.000000 0.000000 0.500000
O O12 0.049480 0.113428 0.934865
O O13 0.237264 0.704943 0.582482
O O14 0.500000 0.000000 0.000000
O O15 0.403250 0.848756 0.002621
O O16 0.881902 0.620831 0.499085
#
# Coordination Sequence:
#
# PCOD9111296 Si02
#       7
#     2   2   2   2   2   2   2
#     4   9  20  45  64  95 146 187 234 295 369 423
#     4  10  20  42  72 104 144 192 240 295 370 428
#     4  11  24  40  67 103 146 191 238 296 375 431
#     4  11  22  35  70 112 142 186 253 307 349 427
#     4  11  23  40  72 105 138 187 247 302 349 423
#     4   9  20  43  75  94 140 192 234 294 359 433
#     4   9  23  42  68  96 143 194 232 294 377 423
#
# _framework density 26.684287000000001
#
# number of rings (size 3 to 8) (size 9 to 14) (size 15 to 20)
#    0.857    1.143    2.857    0.857    4.000    1.714 
#    0.000    2.857    0.000    0.000    0.000    0.000 
#    0.000    0.000    0.000    0.000    0.000    0.000 
#
# Total GULP energy -78183.143901 kJ/mol
# GULP energy per Si atom -5584.510279 kJ/mol
# Density = 2.662355 g / cm^3
# Si number density = 26.684287 Si / 1000 Ang^3
#
#
#
# Elastic Constant Matrix: (Units=GPa)
#
#
# Indices 1 2 3 4 5 6 
#
# 1 174.1549 49.9096 62.3372 0.8886 -14.0776 -15.5833
# 2 49.9096 164.3918 37.2374 -12.9126 7.1973 -35.7110
# 3 62.3372 37.2374 102.7726 8.7922 -9.7364 -16.3275
# 4 0.8886 -12.9126 8.7922 49.4608 -14.0429 -6.3121
# 5 -14.0776 7.1973 -9.7364 -14.0429 55.6950 -6.5416
# 6 -15.5833 -35.7110 -16.3275 -6.3121 -6.5416 58.5013
#
#
#
# Elastic Compliance Matrix: (Units=1/GPa)
#
#
# Indices 1 2 3 4 5 6 
#
# 1 0.007747 -0.001370 -0.004052 0.000740 0.001656 0.000361
# 2 -0.001370 0.008071 -0.001690 0.002858 -0.000453 0.004348
# 3 -0.004052 -0.001690 0.013337 -0.002224 0.001141 0.001499
# 4 0.000740 0.002858 -0.002224 0.023603 0.005912 0.004529
# 5 0.001656 -0.000453 0.001141 0.005912 0.020523 0.003416
# 6 0.000361 0.004348 0.001499 0.004529 0.003416 0.021133
#
#
# Mechanical properties :
#
#
# Convention : Reuss Voigt Hill
#
# Bulk Modulus (GPa) = 66.97480 82.25419 74.61450
# Shear Modulus (GPa) = 44.00870 52.18710 48.09790
#
# Velocity S-wave (km/s) = 4.06549 4.42715 4.25017
# Velocity P-wave (km/s) = 6.86957 7.55148 7.21858
#
# Compressibility (1/GPa) = 0.01493099
#
# Stress axis : x y z
#
# Youngs Moduli (GPa) = 129.07559 123.90682 74.98172
#
# Poissons Ratio (x) = 0.16978 0.30380
# Poissons Ratio (y) = 0.17686 0.12671
# Poissons Ratio (z) = 0.52298 0.20938
#
# Static dielectric constant tensor:
#      x y z
#    x 2.127160 0.047600 -0.019320 
#    y 0.047600 2.125970 0.015340 
#    z -0.019320 0.015340 2.239030 
# 
# From -- ./inp_files/280238.got.cif
#   From: 2010.05.17/outbox.cif.g08.bks.cpg/sg2_141_cif.got.tgz:280238.got - 2010.06.03 11:33:40.
