data_PCOD9111428
_publ_section_title
;
Structure prediction by ZEFSAII (Michael W. Deem and Ramdas Pophale) SiO2 
 PCOD9111428
Probable space group: P -1
;
_chemical_formula_sum "Si O2"
_cell_formula_units_Z 12
_cell_length_a 19.292655
_cell_length_b 8.574538
_cell_length_c 5.238288
_cell_angle_alpha 77.778983
_cell_angle_beta 84.293194
_cell_angle_gamma 32.178295
_cell_volume 445.703400
_symmetry_space_group_name_H-M "P -1"
_symmetry_group_IT_number 2
_symmetry_cell_setting 'triclinic'
loop_
_space_group_symop_operation_xyz
x,y,z
-x,-y,-z
loop_
_atom_site_type_symbol
_atom_site_label
_atom_site_fract_x
_atom_site_fract_y
_atom_site_fract_z
Si Si1 0.023279 0.694229 0.028403
Si Si2 0.577695 0.230782 0.750907
Si Si3 0.835139 0.874757 0.649677
Si Si4 0.412020 0.147854 0.235868
Si Si5 0.307216 0.637638 0.860024
Si Si6 0.878934 0.215432 0.279032
O O1 0.080927 0.449950 0.279753
O O2 0.137963 0.574742 0.896160
O O3 0.937914 0.981320 0.126085
O O4 0.930300 0.803916 0.803327
O O5 0.500000 0.500000 0.500000
O O6 0.455775 0.417174 0.911377
O O7 0.710192 0.073226 0.808443
O O8 0.624382 0.969875 0.706893
O O9 0.777957 0.048797 0.340467
O O10 0.500000 0.000000 0.500000
O O11 0.308674 0.495679 0.127614
O O12 0.500000 0.000000 0.000000
O O13 0.256230 0.610242 0.664196
O O14 0.000000 0.000000 0.500000
#
# Coordination Sequence:
#
# PCOD9111428 Si02
#       6
#     2   2   2   2   2   2
#     4  10  23  40  69  90 137 179 223 288 336 409
#     4   9  20  40  67  97 139 170 224 282 348 408
#     4  10  20  43  63 102 137 175 227 280 353 409
#     4  10  22  43  68  97 136 182 229 281 345 419
#     4  10  21  39  69  96 136 172 230 281 340 413
#     4  11  22  42  64  97 130 177 234 276 338 409
#
# _framework density 26.923732999999999
#
# number of rings (size 3 to 8) (size 9 to 14) (size 15 to 20)
#    0.000    2.000    1.667    1.000    0.000    4.667 
#    6.000   15.000    0.000    0.000    0.000    0.000 
#    0.000    0.000    0.000    0.000    0.000    0.000 
#
# Total GULP energy -66830.294390 kJ/mol
# GULP energy per Si atom -5569.191199 kJ/mol
# Density = 2.686245 g / cm^3
# Si number density = 26.923733 Si / 1000 Ang^3
#
#
#
# Elastic Constant Matrix: (Units=GPa)
#
#
# Indices 1 2 3 4 5 6 
#
# 1 140.1558 17.8170 18.9654 -14.0031 -17.2221 -4.8477
# 2 17.8170 99.4360 53.3382 -36.9453 -1.3200 5.7355
# 3 18.9654 53.3382 166.0031 -42.1896 -7.3241 31.9852
# 4 -14.0031 -36.9453 -42.1896 59.1154 10.7604 -12.5429
# 5 -17.2221 -1.3200 -7.3241 10.7604 43.9160 -21.3517
# 6 -4.8477 5.7355 31.9852 -12.5429 -21.3517 43.6667
#
#
#
# Elastic Compliance Matrix: (Units=1/GPa)
#
#
# Indices 1 2 3 4 5 6 
#
# 1 0.008239 -0.000799 -0.001168 0.000661 0.005056 0.004537
# 2 -0.000799 0.014429 -0.003097 0.007223 -0.001337 0.001706
# 3 -0.001168 -0.003097 0.009269 0.003495 -0.003332 -0.007137
# 4 0.000661 0.007223 0.003495 0.025226 -0.004288 0.001713
# 5 0.005056 -0.001337 -0.003332 -0.004288 0.034311 0.018723
# 6 0.004537 0.001706 -0.007137 0.001713 0.018723 0.038055
#
#
# Mechanical properties :
#
#
# Convention : Reuss Voigt Hill
#
# Bulk Modulus (GPa) = 45.84982 65.09292 55.47137
# Shear Modulus (GPa) = 34.03107 50.37123 42.20115
#
# Velocity S-wave (km/s) = 3.55911 4.33007 3.96338
# Velocity P-wave (km/s) = 5.82719 7.01631 6.44921
#
# Compressibility (1/GPa) = 0.02181034
#
# Stress axis : x y z
#
# Youngs Moduli (GPa) = 121.37795 69.30690 107.88794
#
# Poissons Ratio (x) = 0.05536 0.12597
# Poissons Ratio (y) = 0.09695 0.33408
# Poissons Ratio (z) = 0.14173 0.21461
#
# Static dielectric constant tensor:
#      x y z
#    x 2.280250 -0.131520 -0.032140 
#    y -0.131520 2.454260 0.033940 
#    z -0.032140 0.033940 2.135650 
# 
# From -- ./inp_files/24510.got.cif
#   From: 2010.05.17/outbox.cif.g08.bks.cpg/sg2_13_cif.got.tgz:24510.got - 2010.06.03 11:33:40.
