data_PCOD9111415
_publ_section_title
;
Structure prediction by ZEFSAII (Michael W. Deem and Ramdas Pophale) SiO2 
 PCOD9111415
Probable space group: P -1
;
_chemical_formula_sum "Si O2"
_cell_formula_units_Z 16
_cell_length_a 7.151836
_cell_length_b 11.394879
_cell_length_c 11.985135
_cell_angle_alpha 40.903490
_cell_angle_beta 94.935581
_cell_angle_gamma 91.468507
_cell_volume 636.009059
_symmetry_space_group_name_H-M "P -1"
_symmetry_group_IT_number 2
_symmetry_cell_setting 'triclinic'
loop_
_space_group_symop_operation_xyz
x,y,z
-x,-y,-z
loop_
_atom_site_type_symbol
_atom_site_label
_atom_site_fract_x
_atom_site_fract_y
_atom_site_fract_z
Si Si1 0.328670 0.617633 0.959194
Si Si2 0.708561 0.712223 0.401477
Si Si3 0.751764 0.619687 0.229984
Si Si4 0.026704 0.054623 0.649837
Si Si5 0.736059 0.122994 0.397650
Si Si6 0.064193 0.840587 0.032039
Si Si7 0.453961 0.892230 0.940149
Si Si8 0.445866 0.369000 0.310579
O O1 0.417317 0.789857 0.896394
O O2 0.282665 0.482995 0.152170
O O3 0.500000 0.500000 0.000000
O O4 0.196323 0.702874 0.795442
O O5 0.722599 0.591150 0.380192
O O6 0.915022 0.774692 0.399658
O O7 0.619171 0.647479 0.555418
O O8 0.588634 0.898058 0.229786
O O9 0.650538 0.815116 0.051480
O O10 0.633388 0.482856 0.253086
O O11 0.964713 0.659274 0.185257
O O12 0.840111 0.080722 0.549463
O O13 0.187455 0.025881 0.581450
O O14 0.023114 0.903116 0.855479
O O15 0.524465 0.191819 0.374135
O O16 0.289854 0.823561 0.060270
O O17 0.000000 0.000000 0.000000
#
# Coordination Sequence:
#
# PCOD9111415 Si02
#       8
#     2   2   2   2   2   2   2   2
#     4   9  18  41  64  86 131 169 213 267 320 398
#     4  11  21  41  62  97 130 168 224 268 322 392
#     4  11  23  42  65  96 136 176 217 271 337 395
#     4  10  22  39  65  99 128 163 222 282 322 381
#     4  10  20  43  62  91 134 166 219 270 327 396
#     4  11  21  39  67  98 129 166 222 275 320 387
#     4  10  21  39  68  95 127 171 222 273 323 383
#     4  10  24  39  65  92 134 173 214 264 339 400
#
# _framework density 25.156874999999999
#
# number of rings (size 3 to 8) (size 9 to 14) (size 15 to 20)
#    0.000    1.750    5.000    0.750    1.750    0.500 
#    4.500    6.875    0.000    0.000    0.000    0.000 
#    0.000    0.000    0.000    0.000    0.000    0.000 
#
# Total GULP energy -89247.312265 kJ/mol
# GULP energy per Si atom -5577.957017 kJ/mol
# Density = 2.509962 g / cm^3
# Si number density = 25.156875 Si / 1000 Ang^3
#
#
#
# Elastic Constant Matrix: (Units=GPa)
#
#
# Indices 1 2 3 4 5 6 
#
# 1 36.7453 -6.3801 6.8951 5.8945 -9.7362 -9.6389
# 2 -6.3801 108.2375 14.6311 19.3853 1.5048 -7.1091
# 3 6.8951 14.6311 90.6522 28.0423 -7.5587 -0.2680
# 4 5.8945 19.3853 28.0423 39.9394 0.9012 -4.5118
# 5 -9.7362 1.5048 -7.5587 0.9012 38.8107 7.6852
# 6 -9.6389 -7.1091 -0.2680 -4.5118 7.6852 31.7331
#
#
#
# Elastic Compliance Matrix: (Units=1/GPa)
#
#
# Indices 1 2 3 4 5 6 
#
# 1 0.032677 0.003417 -0.000933 -0.005016 0.006329 0.008437
# 2 0.003417 0.010577 -0.000401 -0.005051 -0.000048 0.002697
# 3 -0.000933 -0.000401 0.014626 -0.010299 0.003370 -0.002530
# 4 -0.005016 -0.005051 -0.010299 0.035958 -0.004593 0.003483
# 5 0.006329 -0.000048 0.003370 -0.004593 0.029267 -0.005801
# 6 0.008437 0.002697 -0.002530 0.003483 -0.005801 0.036559
#
#
# Mechanical properties :
#
#
# Convention : Reuss Voigt Hill
#
# Bulk Modulus (GPa) = 16.11659 29.54748 22.83204
# Shear Modulus (GPa) = 28.38001 36.79587 32.58794
#
# Velocity S-wave (km/s) = 3.36240 3.82862 3.60306
# Velocity P-wave (km/s) = 4.63623 5.59600 5.13857
#
# Compressibility (1/GPa) = 0.06204786
#
# Stress axis : x y z
#
# Youngs Moduli (GPa) = 30.60210 94.54527 68.37026
#
# Poissons Ratio (x) = -0.32304 0.06377
# Poissons Ratio (y) = -0.10456 0.02739
# Poissons Ratio (z) = 0.02854 0.03787
#
# Static dielectric constant tensor:
#      x y z
#    x 2.004870 -0.004240 -0.023860 
#    y -0.004240 2.015790 -0.026070 
#    z -0.023860 -0.026070 2.099510 
# 
# From -- ./inp_files/388832.got.cif
#   From: 2010.05.17/outbox.cif.g08.bks.cpg/sg2_195_cif.got.tgz:388832.got - 2010.06.03 11:33:40.
