data_PCOD9111825
_publ_section_title
;
Structure prediction by ZEFSAII (Michael W. Deem and Ramdas Pophale) SiO2 
 PCOD9111825
Probable space group: P -1
;
_chemical_formula_sum "Si O2"
_cell_formula_units_Z 16
_cell_length_a 11.056086
_cell_length_b 9.059841
_cell_length_c 8.871637
_cell_angle_alpha 117.106827
_cell_angle_beta 104.169435
_cell_angle_gamma 60.640958
_cell_volume 689.171748
_symmetry_space_group_name_H-M "P -1"
_symmetry_group_IT_number 2
_symmetry_cell_setting 'triclinic'
loop_
_space_group_symop_operation_xyz
x,y,z
-x,-y,-z
loop_
_atom_site_type_symbol
_atom_site_label
_atom_site_fract_x
_atom_site_fract_y
_atom_site_fract_z
Si Si1 0.536293 0.017204 0.192280
Si Si2 0.137811 0.029765 0.047684
Si Si3 0.374704 0.655224 0.616134
Si Si4 0.188360 0.874958 0.424306
Si Si5 0.725643 0.877677 0.617386
Si Si6 0.651446 0.388258 0.070974
Si Si7 0.047795 0.192628 0.775852
Si Si8 0.782057 0.650542 0.230251
O O1 0.654045 0.822885 0.193658
O O2 0.595471 0.167460 0.281484
O O3 0.407589 0.083338 0.301468
O O4 0.500000 0.000000 0.000000
O O5 0.149419 0.156503 0.243694
O O6 0.272431 0.833400 0.021915
O O7 0.131855 0.111429 0.917341
O O8 0.000000 0.000000 0.000000
O O9 0.500000 0.500000 0.500000
O O10 0.246909 0.715669 0.492399
O O11 0.364340 0.584267 0.742351
O O12 0.100402 0.811026 0.256037
O O13 0.291902 0.937392 0.394923
O O14 0.105569 0.054983 0.585456
O O15 0.765446 0.714959 0.430777
O O16 0.755722 0.475516 0.102758
O O17 0.500000 0.500000 0.000000
O O18 0.076684 0.361314 0.806230
#
# Coordination Sequence:
#
# PCOD9111825 Si02
#       8
#     2   2   2   2   2   2   2   2
#     4  12  23  41  62  95 133 177 223 277 337 403
#     4  12  24  43  71 100 132 182 231 274 340 409
#     4  12  25  41  66  98 134 176 226 277 338 406
#     4  10  21  40  68  97 128 176 224 273 335 399
#     4  11  22  38  69  97 129 175 228 273 334 403
#     4  12  27  45  66 102 141 177 222 287 345 402
#     4  10  20  43  71  93 130 178 227 271 334 407
#     4  11  23  42  67  96 131 178 223 281 337 401
#
# _framework density 23.216272
#
# number of rings (size 3 to 8) (size 9 to 14) (size 15 to 20)
#    0.000    0.750    5.000    4.125    3.500    0.000 
#    0.000    4.375    0.000    0.000    0.000    0.000 
#    0.000    0.000    0.000    0.000    0.000    0.000 
#
# Total GULP energy -89408.129115 kJ/mol
# GULP energy per Si atom -5588.008070 kJ/mol
# Density = 2.316343 g / cm^3
# Si number density = 23.216272 Si / 1000 Ang^3
#
#
#
# Elastic Constant Matrix: (Units=GPa)
#
#
# Indices 1 2 3 4 5 6 
#
# 1 69.3717 8.0630 17.0268 -10.1903 4.4168 22.2852
# 2 8.0630 62.2507 34.8832 -12.5887 13.1646 13.3933
# 3 17.0268 34.8832 144.1624 -22.3607 10.3155 1.0746
# 4 -10.1903 -12.5887 -22.3607 34.3335 -2.8681 -0.4849
# 5 4.4168 13.1646 10.3155 -2.8681 44.3784 -5.7587
# 6 22.2852 13.3933 1.0746 -0.4849 -5.7587 34.7779
#
#
#
# Elastic Compliance Matrix: (Units=1/GPa)
#
#
# Indices 1 2 3 4 5 6 
#
# 1 0.020418 0.003778 -0.002048 0.005541 -0.004279 -0.015107
# 2 0.003778 0.023674 -0.004610 0.005989 -0.007571 -0.012566
# 3 -0.002048 -0.004610 0.008804 0.003487 0.000125 0.002885
# 4 0.005541 0.005989 0.003487 0.035021 -0.001621 -0.005745
# 5 -0.004279 -0.007571 0.000125 -0.001621 0.026369 0.009997
# 6 -0.015107 -0.012566 0.002885 -0.005745 0.009997 0.044759
#
#
# Mechanical properties :
#
#
# Convention : Reuss Voigt Hill
#
# Bulk Modulus (GPa) = 21.21455 43.97008 32.59232
# Shear Modulus (GPa) = 27.69822 37.08540 32.39181
#
# Velocity S-wave (km/s) = 3.45781 4.00107 3.73932
# Velocity P-wave (km/s) = 5.00994 6.35021 5.71947
#
# Compressibility (1/GPa) = 0.04713746
#
# Stress axis : x y z
#
# Youngs Moduli (GPa) = 48.97686 42.24059 113.57833
#
# Poissons Ratio (x) = -0.15960 0.23255
# Poissons Ratio (y) = -0.18506 0.52363
# Poissons Ratio (z) = 0.10028 0.19474
#
# Static dielectric constant tensor:
#      x y z
#    x 1.914180 -0.036910 -0.010080 
#    y -0.036910 1.826000 -0.029430 
#    z -0.010080 -0.029430 1.860110 
# 
# From -- ./inp_files/245092.got.cif
#   From: 2010.05.17/outbox.cif.g08.bks.cpg/sg2_123_cif.got.tgz:245092.got - 2010.06.03 11:33:40.
