data_PCOD9111965
_publ_section_title
;
Structure prediction by ZEFSAII (Michael W. Deem and Ramdas Pophale) SiO2 
 PCOD9111965
Probable space group: P -1
;
_chemical_formula_sum "Si O2"
_cell_formula_units_Z 16
_cell_length_a 9.931318
_cell_length_b 8.954993
_cell_length_c 15.811803
_cell_angle_alpha 113.149605
_cell_angle_beta 33.118446
_cell_angle_gamma 103.878968
_cell_volume 695.180906
_symmetry_space_group_name_H-M "P -1"
_symmetry_group_IT_number 2
_symmetry_cell_setting 'triclinic'
loop_
_space_group_symop_operation_xyz
x,y,z
-x,-y,-z
loop_
_atom_site_type_symbol
_atom_site_label
_atom_site_fract_x
_atom_site_fract_y
_atom_site_fract_z
Si Si1 0.477805 0.028293 0.618103
Si Si2 0.767072 0.727972 0.806551
Si Si3 0.448325 0.836566 0.741879
Si Si4 0.964118 0.230502 0.920686
Si Si5 0.799592 0.507077 0.530069
Si Si6 0.954340 0.031493 0.705414
Si Si7 0.465945 0.821887 0.150964
Si Si8 0.577164 0.514046 0.146576
O O1 0.400731 0.874230 0.675902
O O2 0.766041 0.035152 0.488690
O O3 0.500000 0.000000 0.500000
O O4 0.250888 0.179613 0.786874
O O5 0.567258 0.627144 0.848738
O O6 0.034880 0.609103 0.649734
O O7 0.809856 0.878158 0.757961
O O8 0.659703 0.798638 0.966853
O O9 0.679416 0.687392 0.600987
O O10 0.512897 0.009851 0.776568
O O11 0.217895 0.804319 0.914577
O O12 0.947109 0.117561 0.820799
O O13 0.858050 0.417729 0.989960
O O14 0.566434 0.441395 0.679628
O O15 0.000000 0.500000 0.500000
O O16 0.806233 0.158131 0.744537
O O17 0.528921 0.665035 0.142488
#
# Coordination Sequence:
#
# PCOD9111965 Si02
#       8
#     2   2   2   2   2   2   2   2
#     4  10  25  41  67  91 124 172 225 264 303 375
#     4  11  21  38  60  93 133 167 202 256 333 381
#     4  11  23  42  68  97 125 170 213 267 319 382
#     4  10  20  44  65  87 128 173 217 252 314 380
#     4   9  21  37  59  91 134 164 196 253 330 382
#     4  11  22  38  64  96 131 166 210 265 316 384
#     4  12  23  36  67 103 129 158 215 265 331 380
#     4  10  22  37  63  94 130 170 202 267 317 382
#
# _framework density 23.015592000000002
#
# number of rings (size 3 to 8) (size 9 to 14) (size 15 to 20)
#    0.000    1.500    2.500    3.375    5.250    1.500 
#    0.000    0.625    2.750    2.250    0.000    0.000 
#    0.000    0.000    0.000    0.000    0.000    0.000 
#
# Total GULP energy -89460.825465 kJ/mol
# GULP energy per Si atom -5591.301592 kJ/mol
# Density = 2.296321 g / cm^3
# Si number density = 23.015592 Si / 1000 Ang^3
#
#
#
# Elastic Constant Matrix: (Units=GPa)
#
#
# Indices 1 2 3 4 5 6 
#
# 1 80.0022 55.0370 49.4468 3.6996 -11.1331 -29.2929
# 2 55.0370 124.9696 51.3267 9.7823 -27.3358 -39.7681
# 3 49.4468 51.3267 168.9651 24.3890 -26.9056 -33.2730
# 4 3.6996 9.7823 24.3890 32.3290 -12.8786 -6.0374
# 5 -11.1331 -27.3358 -26.9056 -12.8786 36.3956 13.7671
# 6 -29.2929 -39.7681 -33.2730 -6.0374 13.7671 42.9612
#
#
#
# Elastic Compliance Matrix: (Units=1/GPa)
#
#
# Indices 1 2 3 4 5 6 
#
# 1 0.021247 -0.006450 -0.003707 0.002483 -0.002816 0.006896
# 2 -0.006450 0.014451 -0.000197 0.000281 0.006237 0.006867
# 3 -0.003707 -0.000197 0.008616 -0.004539 0.002530 0.002514
# 4 0.002483 0.000281 -0.004539 0.038470 0.011122 0.000280
# 5 -0.002816 0.006237 0.002530 0.011122 0.039048 -0.005137
# 6 0.006896 0.006867 0.002514 0.000280 -0.005137 0.037968
#
#
# Mechanical properties :
#
#
# Convention : Reuss Voigt Hill
#
# Bulk Modulus (GPa) = 42.36448 76.17310 59.26879
# Shear Modulus (GPa) = 26.54229 36.87892 31.71061
#
# Velocity S-wave (km/s) = 3.39961 4.00727 3.71588
# Velocity P-wave (km/s) = 5.81864 7.38777 6.64965
#
# Compressibility (1/GPa) = 0.02360468
#
# Stress axis : x y z
#
# Youngs Moduli (GPa) = 47.06596 69.19810 116.05798
#
# Poissons Ratio (x) = 0.44635 0.43024
# Poissons Ratio (y) = 0.30359 0.02291
# Poissons Ratio (z) = 0.17448 0.01366
#
# Static dielectric constant tensor:
#      x y z
#    x 1.972760 0.006160 0.009630 
#    y 0.006160 1.867640 0.014240 
#    z 0.009630 0.014240 1.877340 
# 
# From -- ./inp_files/566807.got.cif
#   From: 2010.05.17/outbox.cif.g08.bks.cpg/sg2_284_cif.got.tgz:566807.got - 2010.06.03 11:33:40.
