data_PCOD9111361
_publ_section_title
;
Structure prediction by ZEFSAII (Michael W. Deem and Ramdas Pophale) SiO2 
 PCOD9111361
Probable space group: P -1
;
_chemical_formula_sum "Si O2"
_cell_formula_units_Z 15
_cell_length_a 26.413418
_cell_length_b 15.222685
_cell_length_c 16.740862
_cell_angle_alpha 26.584427
_cell_angle_beta 163.212713
_cell_angle_gamma 160.951312
_cell_volume 630.412970
_symmetry_space_group_name_H-M "P -1"
_symmetry_group_IT_number 2
_symmetry_cell_setting 'triclinic'
loop_
_space_group_symop_operation_xyz
x,y,z
-x,-y,-z
loop_
_atom_site_type_symbol
_atom_site_label
_atom_site_fract_x
_atom_site_fract_y
_atom_site_fract_z
Si Si1 0.000000 0.000000 0.500000
Si Si2 0.417632 0.181285 0.434996
Si Si3 0.694438 0.938058 0.815042
Si Si4 0.572499 0.706415 0.212510
Si Si5 0.068386 0.889635 0.439028
Si Si6 0.209259 0.398615 0.597965
Si Si7 0.763109 0.189908 0.395997
Si Si8 0.954567 0.483497 0.037730
O O1 0.747414 0.765272 0.359687
O O2 0.832235 0.862484 0.270824
O O3 0.386739 0.389664 0.208010
O O4 0.681181 0.347226 0.738801
O O5 0.401030 0.078851 0.403907
O O6 0.239022 0.948445 0.417522
O O7 0.466408 0.683733 0.729765
O O8 0.852158 0.231137 0.856390
O O9 0.881102 0.904730 0.111869
O O10 0.734771 0.862822 0.407799
O O11 0.453772 0.821265 0.918265
O O12 0.218523 0.908212 0.580061
O O13 0.899726 0.631870 0.455709
O O14 0.005387 0.305971 0.297280
O O15 0.000000 0.500000 0.500000
O O16 0.000000 0.500000 0.000000
#
# Coordination Sequence:
#
# PCOD9111361 Si02
#       8
#     1   2   2   2   2   2   2   2
#     4  10  20  42  74 112 148 190 236 306 390 444
#     4  12  26  50  77 108 153 204 252 320 384 457
#     4  12  25  46  75 114 148 196 258 314 389 458
#     4  11  23  50  79 110 155 201 253 317 382 458
#     4  11  26  48  70 110 149 203 257 308 384 454
#     4  11  24  43  76 110 154 194 249 320 382 461
#     4  12  30  49  75 112 152 206 263 317 375 460
#     4  12  25  45  73 111 151 192 251 315 391 456
#
# _framework density 23.793927
#
# number of rings (size 3 to 8) (size 9 to 14) (size 15 to 20)
#    0.000    0.533    4.000    3.600    3.733    2.667 
#    0.000    0.000    0.000    0.000    0.000    0.000 
#    0.000    0.000    0.000    0.000    0.000    0.000 
#
# Total GULP energy -83721.725096 kJ/mol
# GULP energy per Si atom -5581.448340 kJ/mol
# Density = 2.373977 g / cm^3
# Si number density = 23.793927 Si / 1000 Ang^3
#
#
#
# Elastic Constant Matrix: (Units=GPa)
#
#
# Indices 1 2 3 4 5 6 
#
# 1 140.6024 61.3043 22.6592 -4.5494 -5.2387 11.2033
# 2 61.3043 129.8474 14.4021 11.2973 -12.4834 17.8907
# 3 22.6592 14.4021 93.4964 -6.3812 -6.6998 -4.6602
# 4 -4.5494 11.2973 -6.3812 36.4288 -7.0198 -9.5410
# 5 -5.2387 -12.4834 -6.6998 -7.0198 38.0994 7.8458
# 6 11.2033 17.8907 -4.6602 -9.5410 7.8458 37.6039
#
#
#
# Elastic Compliance Matrix: (Units=1/GPa)
#
#
# Indices 1 2 3 4 5 6 
#
# 1 0.009365 -0.004401 -0.001453 0.002206 0.000065 -0.000331
# 2 -0.004401 0.011576 -0.001166 -0.005381 0.003308 -0.006396
# 3 -0.001453 -0.001166 0.011705 0.003291 0.001472 0.002966
# 4 0.002206 -0.005381 0.003291 0.033221 0.003164 0.010080
# 5 0.000065 0.003308 0.001472 0.003164 0.029578 -0.006779
# 6 -0.000331 -0.006396 0.002966 0.010080 -0.006779 0.034074
#
#
# Mechanical properties :
#
#
# Convention : Reuss Voigt Hill
#
# Bulk Modulus (GPa) = 53.74128 62.29749 58.01938
# Shear Modulus (GPa) = 33.38653 40.13180 36.75916
#
# Velocity S-wave (km/s) = 3.74993 4.11133 3.93478
# Velocity P-wave (km/s) = 6.43308 6.98400 6.71419
#
# Compressibility (1/GPa) = 0.01860767
#
# Stress axis : x y z
#
# Youngs Moduli (GPa) = 106.77789 86.38691 85.43166
#
# Poissons Ratio (x) = 0.38015 0.12414
# Poissons Ratio (y) = 0.46988 0.09959
# Poissons Ratio (z) = 0.15516 0.10070
#
# Static dielectric constant tensor:
#      x y z
#    x 1.183460 0.414830 -0.393930 
#    y 0.414830 1.521540 0.241060 
#    z -0.393930 0.241060 1.781340 
# 
# From -- ./inp_files/543029.got.cif
#   From: 2010.05.17/outbox.cif.g08.bks.cpg/sg2_272_cif.got.tgz:543029.got - 2010.06.03 11:33:40.
