data_PCOD9111545
_publ_section_title
;
Structure prediction by ZEFSAII (Michael W. Deem and Ramdas Pophale) SiO2 
 PCOD9111545
Probable space group: P -1
;
_chemical_formula_sum "Si O2"
_cell_formula_units_Z 14
_cell_length_a 18.540121
_cell_length_b 5.259704
_cell_length_c 9.935130
_cell_angle_alpha 60.255616
_cell_angle_beta 136.744831
_cell_angle_gamma 111.999995
_cell_volume 576.276775
_symmetry_space_group_name_H-M "P -1"
_symmetry_group_IT_number 2
_symmetry_cell_setting 'triclinic'
loop_
_space_group_symop_operation_xyz
x,y,z
-x,-y,-z
loop_
_atom_site_type_symbol
_atom_site_label
_atom_site_fract_x
_atom_site_fract_y
_atom_site_fract_z
Si Si1 0.719815 0.216635 0.989330
Si Si2 0.535013 0.329292 0.919151
Si Si3 0.719222 0.558282 0.268021
Si Si4 0.438119 0.692328 0.474885
Si Si5 0.117267 0.454518 0.725270
Si Si6 0.895700 0.380833 0.715172
Si Si7 0.024124 0.906572 0.838569
O O1 0.627302 0.342338 0.927127
O O2 0.828149 0.401355 0.108062
O O3 0.728044 0.898142 0.152512
O O4 0.671321 0.234677 0.768610
O O5 0.601024 0.461784 0.099810
O O6 0.445037 0.509944 0.672234
O O7 0.500000 0.000000 0.000000
O O8 0.803844 0.430654 0.311563
O O9 0.774167 0.446876 0.506083
O O10 0.500000 0.500000 0.500000
O O11 0.500000 0.000000 0.500000
O O12 0.000000 0.500000 0.500000
O O13 0.111135 0.109475 0.831958
O O14 0.956612 0.696738 0.703201
O O15 0.917553 0.283252 0.921698
O O16 0.948967 0.130408 0.761119
#
# Coordination Sequence:
#
# PCOD9111545 Si02
#       7
#     2   2   2   2   2   2   2
#     4  10  23  39  64  93 127 170 214 264 324 391
#     4  10  23  42  65  95 126 166 215 274 332 389
#     4  11  22  38  63  92 125 164 216 264 319 380
#     4  10  20  43  66  90 128 167 208 268 327 386
#     4  11  22  37  61  93 126 168 215 258 307 380
#     4  10  22  39  61  84 128 165 210 258 311 374
#     4  10  22  40  58  87 123 175 208 252 313 370
#
# _framework density 24.293882
#
# number of rings (size 3 to 8) (size 9 to 14) (size 15 to 20)
#    0.000    1.714    2.857    0.857    4.000    2.857 
#    0.000    1.429    0.000    0.000    0.000    0.000 
#    0.000    0.000    0.000    0.000    0.000    0.000 
#
# Total GULP energy -78114.326050 kJ/mol
# GULP energy per Si atom -5579.594718 kJ/mol
# Density = 2.423859 g / cm^3
# Si number density = 24.293882 Si / 1000 Ang^3
#
#
#
# Elastic Constant Matrix: (Units=GPa)
#
#
# Indices 1 2 3 4 5 6 
#
# 1 61.6152 9.3974 35.0310 16.7154 13.8254 5.8774
# 2 9.3974 161.7954 72.6118 13.3186 9.3682 2.1337
# 3 35.0310 72.6118 252.6004 6.2656 7.9982 4.3942
# 4 16.7154 13.3186 6.2656 40.3280 15.0588 -1.3050
# 5 13.8254 9.3682 7.9982 15.0588 31.1158 3.2560
# 6 5.8774 2.1337 4.3942 -1.3050 3.2560 33.0192
#
#
#
# Elastic Compliance Matrix: (Units=1/GPa)
#
#
# Indices 1 2 3 4 5 6 
#
# 1 0.020983 0.000933 -0.002789 -0.006688 -0.005319 -0.003164
# 2 0.000933 0.007326 -0.002145 -0.002105 -0.001015 -0.000337
# 3 -0.002789 -0.002145 0.004932 0.001060 0.000103 0.000010
# 4 -0.006688 -0.002105 0.001060 0.033108 -0.013086 0.003784
# 5 -0.005319 -0.001015 0.000103 -0.013086 0.041491 -0.003610
# 6 -0.003164 -0.000337 0.000010 0.003784 -0.003610 0.031374
#
#
# Mechanical properties :
#
#
# Convention : Reuss Voigt Hill
#
# Bulk Modulus (GPa) = 39.62052 78.89905 59.25979
# Shear Modulus (GPa) = 32.12764 44.82399 38.47581
#
# Velocity S-wave (km/s) = 3.64051 4.30009 3.98397
# Velocity P-wave (km/s) = 5.83226 7.56319 6.75341
#
# Compressibility (1/GPa) = 0.02523945
#
# Stress axis : x y z
#
# Youngs Moduli (GPa) = 47.65816 136.50837 202.73954
#
# Poissons Ratio (x) = -0.12738 0.56540
# Poissons Ratio (y) = -0.04447 0.43487
# Poissons Ratio (z) = 0.13291 0.29281
#
# Static dielectric constant tensor:
#      x y z
#    x 2.130260 -0.110730 -0.012790 
#    y -0.110730 1.946720 0.002020 
#    z -0.012790 0.002020 2.024050 
# 
# From -- ./inp_files/473343.got.cif
#   From: 2010.05.17/outbox.cif.g08.bks.cpg/sg2_237_cif.got.tgz:473343.got - 2010.06.03 11:33:40.
