data_PCOD9111567
_publ_section_title
;
Structure prediction by ZEFSAII (Michael W. Deem and Ramdas Pophale) SiO2 
 PCOD9111567
Probable space group: P -1
;
_chemical_formula_sum "Si O2"
_cell_formula_units_Z 16
_cell_length_a 16.249799
_cell_length_b 15.261772
_cell_length_c 8.683199
_cell_angle_alpha 60.933135
_cell_angle_beta 88.753164
_cell_angle_gamma 36.122853
_cell_volume 770.757756
_symmetry_space_group_name_H-M "P -1"
_symmetry_group_IT_number 2
_symmetry_cell_setting 'triclinic'
loop_
_space_group_symop_operation_xyz
x,y,z
-x,-y,-z
loop_
_atom_site_type_symbol
_atom_site_label
_atom_site_fract_x
_atom_site_fract_y
_atom_site_fract_z
Si Si1 0.905533 0.009969 0.583897
Si Si2 0.473635 0.518674 0.171153
Si Si3 0.545376 0.777120 0.946580
Si Si4 0.820823 0.452335 0.479135
Si Si5 0.315395 0.281511 0.290491
Si Si6 0.755387 0.430916 0.814286
Si Si7 0.768753 0.033829 0.279169
Si Si8 0.196438 0.321673 0.557754
O O1 0.695630 0.280093 0.434768
O O2 0.844411 0.995560 0.470246
O O3 0.000000 0.000000 0.500000
O O4 0.061621 0.792471 0.884743
O O5 0.384518 0.510082 0.220132
O O6 0.500000 0.500000 0.000000
O O7 0.317059 0.781150 0.982525
O O8 0.709910 0.650986 0.940713
O O9 0.412883 0.842912 0.803886
O O10 0.379726 0.039926 0.789422
O O11 0.665894 0.590710 0.236940
O O12 0.830896 0.365386 0.694718
O O13 0.745180 0.642675 0.384356
O O14 0.039435 0.225260 0.591368
O O15 0.352086 0.345964 0.321749
O O16 0.165145 0.390317 0.320161
O O17 0.500000 0.000000 0.500000
O O18 0.000000 0.500000 0.500000
#
# Coordination Sequence:
#
# PCOD9111567 Si02
#       8
#     2   2   2   2   2   2   2   2
#     4  11  22  40  68  89 124 170 215 269 321 378
#     4  10  21  38  61  90 121 166 210 265 323 374
#     4  11  22  41  68  94 136 168 220 267 317 392
#     4  11  25  40  66  94 129 178 208 264 336 382
#     4   9  20  37  68  95 122 169 213 265 314 377
#     4  11  22  42  63  92 134 165 218 267 320 388
#     4  11  23  38  67  95 124 167 218 269 324 382
#     4  10  20  43  66  93 137 170 211 270 327 388
#
# _framework density 20.758792
#
# number of rings (size 3 to 8) (size 9 to 14) (size 15 to 20)
#    0.000    1.500    3.750    2.625    1.750    1.500 
#    0.000    1.875   13.750    0.000    0.000    0.000 
#    0.000    0.000    0.000    0.000    0.000    0.000 
#
# Total GULP energy -89213.251411 kJ/mol
# GULP energy per Si atom -5575.828213 kJ/mol
# Density = 2.071154 g / cm^3
# Si number density = 20.758792 Si / 1000 Ang^3
#
#
#
# Elastic Constant Matrix: (Units=GPa)
#
#
# Indices 1 2 3 4 5 6 
#
# 1 85.7418 24.8901 55.7514 1.6567 -4.2091 -18.6551
# 2 24.8901 85.2233 40.6954 5.7567 -3.8685 -19.4631
# 3 55.7514 40.6954 111.8464 9.5880 0.3903 -11.2700
# 4 1.6567 5.7567 9.5880 31.6813 -1.3247 -13.3873
# 5 -4.2091 -3.8685 0.3903 -1.3247 28.8529 -1.9453
# 6 -18.6551 -19.4631 -11.2700 -13.3873 -1.9453 37.9622
#
#
#
# Elastic Compliance Matrix: (Units=1/GPa)
#
#
# Indices 1 2 3 4 5 6 
#
# 1 0.020004 0.000843 -0.009834 0.006040 0.004094 0.009682
# 2 0.000843 0.015957 -0.005634 0.002204 0.002969 0.007852
# 3 -0.009834 -0.005634 0.015863 -0.005554 -0.003005 -0.005125
# 4 0.006040 0.002204 -0.005554 0.039754 0.004202 0.016684
# 5 0.004094 0.002969 -0.003005 0.004202 0.036291 0.005984
# 6 0.009682 0.007852 -0.005125 0.016684 0.005984 0.039794
#
#
# Mechanical properties :
#
#
# Convention : Reuss Voigt Hill
#
# Bulk Modulus (GPa) = 44.30109 58.38726 51.34418
# Shear Modulus (GPa) = 24.45715 30.46427 27.46071
#
# Velocity S-wave (km/s) = 3.43616 3.83500 3.64104
# Velocity P-wave (km/s) = 6.09345 6.91355 6.51641
#
# Compressibility (1/GPa) = 0.02257281
#
# Stress axis : x y z
#
# Youngs Moduli (GPa) = 49.99115 62.66706 63.03953
#
# Poissons Ratio (x) = -0.05282 0.61994
# Poissons Ratio (y) = -0.04214 0.35518
# Poissons Ratio (z) = 0.49162 0.35309
#
# Static dielectric constant tensor:
#      x y z
#    x 1.754010 0.022040 -0.016940 
#    y 0.022040 1.793210 -0.001070 
#    z -0.016940 -0.001070 1.748400 
# 
# From -- ./inp_files/312738.got.cif
#   From: 2010.05.17/outbox.cif.g08.bks.cpg/sg2_157_cif.got.tgz:312738.got - 2010.06.03 11:33:40.
