data_PCOD9111917
_publ_section_title
;
Structure prediction by ZEFSAII (Michael W. Deem and Ramdas Pophale) SiO2 
 PCOD9111917
Probable space group: P -1
;
_chemical_formula_sum "Si O2"
_cell_formula_units_Z 14
_cell_length_a 5.140942
_cell_length_b 11.369286
_cell_length_c 14.960771
_cell_angle_alpha 69.668675
_cell_angle_beta 62.795175
_cell_angle_gamma 60.851839
_cell_volume 670.400434
_symmetry_space_group_name_H-M "P -1"
_symmetry_group_IT_number 2
_symmetry_cell_setting 'triclinic'
loop_
_space_group_symop_operation_xyz
x,y,z
-x,-y,-z
loop_
_atom_site_type_symbol
_atom_site_label
_atom_site_fract_x
_atom_site_fract_y
_atom_site_fract_z
Si Si1 0.575151 0.860053 0.472943
Si Si2 0.268741 0.737579 0.420262
Si Si3 0.461527 0.147849 0.043783
Si Si4 0.849716 0.863006 0.091700
Si Si5 0.784940 0.554216 0.933153
Si Si6 0.112308 0.406748 0.419120
Si Si7 0.110578 0.405071 0.748112
O O1 0.363868 0.848759 0.427040
O O2 0.943330 0.808884 0.397664
O O3 0.594906 0.735552 0.569006
O O4 0.500000 0.000000 0.500000
O O5 0.832322 0.349831 0.467169
O O6 0.550370 0.637763 0.342060
O O7 0.225722 0.165663 0.992081
O O8 0.809362 0.127515 0.956722
O O9 0.350019 0.282414 0.085037
O O10 0.552687 0.005626 0.119644
O O11 0.881415 0.739546 0.183421
O O12 0.009740 0.495061 0.828740
O O13 0.500000 0.500000 0.000000
O O14 0.000000 0.500000 0.000000
O O15 0.135170 0.501924 0.311694
O O16 0.000000 0.500000 0.500000
#
# Coordination Sequence:
#
# PCOD9111917 Si02
#       7
#     2   2   2   2   2   2   2
#     4  10  22  43  66  88 131 173 202 270 328 372
#     4  10  23  40  66  94 132 165 218 261 322 389
#     4  10  20  44  57  92 121 163 208 270 319 368
#     4  10  22  37  70  80 125 166 210 260 323 379
#     4  12  24  41  63  94 128 163 216 273 318 371
#     4  10  23  41  67  95 134 166 220 267 320 389
#     4  12  22  41  67  98 123 181 215 264 326 388
#
# _framework density 20.883044000000002
#
# number of rings (size 3 to 8) (size 9 to 14) (size 15 to 20)
#    0.857    0.571    4.286    0.857    0.000    4.571 
#    2.571    0.000    0.000    0.000    0.000    0.000 
#    0.000    0.000    0.000    0.000    0.000    0.000 
#
# Total GULP energy -77984.830972 kJ/mol
# GULP energy per Si atom -5570.345069 kJ/mol
# Density = 2.083551 g / cm^3
# Si number density = 20.883044 Si / 1000 Ang^3
#
#
#
# Elastic Constant Matrix: (Units=GPa)
#
#
# Indices 1 2 3 4 5 6 
#
# 1 102.1182 1.4429 4.2181 0.7344 5.1062 20.5262
# 2 1.4429 152.5013 25.9210 -3.5956 12.2186 17.6085
# 3 4.2181 25.9210 57.2243 -4.6146 22.8113 2.0148
# 4 0.7344 -3.5956 -4.6146 34.7373 -5.0871 6.1528
# 5 5.1062 12.2186 22.8113 -5.0871 22.1599 3.6039
# 6 20.5262 17.6085 2.0148 6.1528 3.6039 28.6003
#
#
#
# Elastic Compliance Matrix: (Units=1/GPa)
#
#
# Indices 1 2 3 4 5 6 
#
# 1 0.011692 0.001159 -0.000586 0.001292 -0.000934 -0.009224
# 2 0.001159 0.007798 -0.003360 0.001367 0.000134 -0.005707
# 3 -0.000586 -0.003360 0.031205 -0.001573 -0.031239 0.004566
# 4 0.001292 0.001367 -0.001573 0.031791 0.009442 -0.009687
# 5 -0.000934 0.000134 -0.031239 0.009442 0.081132 -0.009466
# 6 -0.009224 -0.005707 0.004566 -0.009687 -0.009466 0.048054
#
#
# Mechanical properties :
#
#
# Convention : Reuss Voigt Hill
#
# Bulk Modulus (GPa) = 22.16205 41.66754 31.91480
# Shear Modulus (GPa) = 21.52525 35.78361 28.65443
#
# Velocity S-wave (km/s) = 3.21402 4.14397 3.70826
# Velocity P-wave (km/s) = 4.94052 6.54925 5.80092
#
# Compressibility (1/GPa) = 0.04512217
#
# Stress axis : x y z
#
# Youngs Moduli (GPa) = 85.52987 128.23939 32.04586
#
# Poissons Ratio (x) = -0.14866 0.01877
# Poissons Ratio (y) = -0.09915 0.10767
# Poissons Ratio (z) = 0.05011 0.43086
#
# Static dielectric constant tensor:
#      x y z
#    x 1.806000 0.005700 -0.018250 
#    y 0.005700 1.824690 -0.066780 
#    z -0.018250 -0.066780 1.771990 
# 
# From -- ./inp_files/481547.got.cif
#   From: 2010.05.17/outbox.cif.g08.bks.cpg/sg2_241_cif.got.tgz:481547.got - 2010.06.03 11:33:40.
