data_PCOD9111410
_publ_section_title
;
Structure prediction by ZEFSAII (Michael W. Deem and Ramdas Pophale) SiO2 
 PCOD9111410
Probable space group: P -1
;
_chemical_formula_sum "Si O2"
_cell_formula_units_Z 16
_cell_length_a 12.507522
_cell_length_b 8.916608
_cell_length_c 12.483946
_cell_angle_alpha 95.276663
_cell_angle_beta 147.116327
_cell_angle_gamma 79.637630
_cell_volume 739.017429
_symmetry_space_group_name_H-M "P -1"
_symmetry_group_IT_number 2
_symmetry_cell_setting 'triclinic'
loop_
_space_group_symop_operation_xyz
x,y,z
-x,-y,-z
loop_
_atom_site_type_symbol
_atom_site_label
_atom_site_fract_x
_atom_site_fract_y
_atom_site_fract_z
Si Si1 0.183800 0.866260 0.610043
Si Si2 0.086074 0.886408 0.160179
Si Si3 0.094901 0.334030 0.108031
Si Si4 0.524289 0.318524 0.980600
Si Si5 0.481299 0.176482 0.535423
Si Si6 0.782731 0.917624 0.523982
Si Si7 0.118241 0.661427 0.845034
Si Si8 0.919984 0.619189 0.345754
O O1 0.340088 0.787369 0.825153
O O2 0.075736 0.731449 0.464461
O O3 0.291679 0.959134 0.621229
O O4 0.000000 0.000000 0.500000
O O5 0.299603 0.790435 0.294537
O O6 0.125616 0.980811 0.302849
O O7 0.930098 0.774216 0.020877
O O8 0.000000 0.000000 0.000000
O O9 0.321280 0.290306 0.337645
O O10 0.968231 0.308244 0.106833
O O11 0.000000 0.500000 0.000000
O O12 0.660385 0.305087 0.987381
O O13 0.500000 0.500000 0.000000
O O14 0.298366 0.289950 0.793171
O O15 0.387104 0.162946 0.571833
O O16 0.500000 0.000000 0.500000
O O17 0.967682 0.778389 0.648961
O O18 0.108233 0.489550 0.786032
O O19 0.000000 0.500000 0.500000
#
# Coordination Sequence:
#
# PCOD9111410 Si02
#       8
#     2   2   2   2   2   2   2   2
#     4  12  23  42  63  95 130 153 212 267 295 373
#     4  11  20  42  67  85 124 175 203 252 312 368
#     4  11  24  41  62  96 129 156 209 266 301 369
#     4  10  21  43  63  89 123 168 202 250 315 371
#     4   9  19  41  63  86 122 163 210 246 311 367
#     4  10  21  40  64  95 124 161 211 257 307 365
#     4  10  20  43  62  90 125 164 206 248 314 376
#     4  11  22  42  66  87 126 169 201 253 315 369
#
# _framework density 21.650369000000001
#
# number of rings (size 3 to 8) (size 9 to 14) (size 15 to 20)
#    0.000    1.500    7.500    0.000    1.750    1.000 
#   18.000    0.000    0.000    0.000    0.000    0.000 
#    0.000    0.000    0.000    0.000    0.000    0.000 
#
# Total GULP energy -89219.102482 kJ/mol
# GULP energy per Si atom -5576.193905 kJ/mol
# Density = 2.160109 g / cm^3
# Si number density = 21.650369 Si / 1000 Ang^3
#
#
#
# Elastic Constant Matrix: (Units=GPa)
#
#
# Indices 1 2 3 4 5 6 
#
# 1 41.4032 -5.1019 30.9596 -12.3854 8.6797 -1.1725
# 2 -5.1019 82.3083 29.7023 -17.4438 -13.4762 3.0917
# 3 30.9596 29.7023 130.6021 -26.4103 7.5368 4.0697
# 4 -12.3854 -17.4438 -26.4103 44.8780 0.6950 -7.7793
# 5 8.6797 -13.4762 7.5368 0.6950 34.7983 -6.2557
# 6 -1.1725 3.0917 4.0697 -7.7793 -6.2557 29.7387
#
#
#
# Elastic Compliance Matrix: (Units=1/GPa)
#
#
# Indices 1 2 3 4 5 6 
#
# 1 0.033774 0.005648 -0.007598 0.007611 -0.004224 0.002886
# 2 0.005648 0.016132 -0.004293 0.005529 0.005988 0.001839
# 3 -0.007598 -0.004293 0.011143 0.002621 -0.002450 -0.001208
# 4 0.007611 0.005529 0.002621 0.029301 0.000368 0.007109
# 5 -0.004224 0.005988 -0.002450 0.000368 0.033849 0.006763
# 6 0.002886 0.001839 -0.001208 0.007109 0.006763 0.036996
#
#
# Mechanical properties :
#
#
# Convention : Reuss Voigt Hill
#
# Bulk Modulus (GPa) = 20.59106 40.60373 30.59740
# Shear Modulus (GPa) = 26.33407 35.13322 30.73365
#
# Velocity S-wave (km/s) = 3.49138 4.03271 3.77177
# Velocity P-wave (km/s) = 5.07783 6.36229 5.75600
#
# Compressibility (1/GPa) = 0.04856477
#
# Stress axis : x y z
#
# Youngs Moduli (GPa) = 29.60842 61.98956 89.74070
#
# Poissons Ratio (x) = -0.35013 0.68184
# Poissons Ratio (y) = -0.16724 0.38521
# Poissons Ratio (z) = 0.22496 0.26609
#
# Static dielectric constant tensor:
#      x y z
#    x 1.890510 0.010230 0.006190 
#    y 0.010230 1.726350 0.038110 
#    z 0.006190 0.038110 1.790030 
# 
# From -- ./inp_files/528667.got.cif
#   From: 2010.05.17/outbox.cif.g08.bks.cpg/sg2_265_cif.got.tgz:528667.got - 2010.06.03 11:33:40.
