data_PCOD9111251
_publ_section_title
;
Structure prediction by ZEFSAII (Michael W. Deem and Ramdas Pophale) SiO2 
 PCOD9111251
Probable space group: P -1
;
_chemical_formula_sum "Si O2"
_cell_formula_units_Z 15
_cell_length_a 7.325591
_cell_length_b 11.543233
_cell_length_c 9.066438
_cell_angle_alpha 113.087295
_cell_angle_beta 130.282671
_cell_angle_gamma 75.456256
_cell_volume 538.016926
_symmetry_space_group_name_H-M "P -1"
_symmetry_group_IT_number 2
_symmetry_cell_setting 'triclinic'
loop_
_space_group_symop_operation_xyz
x,y,z
-x,-y,-z
loop_
_atom_site_type_symbol
_atom_site_label
_atom_site_fract_x
_atom_site_fract_y
_atom_site_fract_z
Si Si1 0.981067 0.987437 0.158011
Si Si2 0.760000 0.071031 0.466941
Si Si3 0.598188 0.662234 0.202236
Si Si4 0.917193 0.746578 0.630847
Si Si5 0.206610 0.366713 0.182226
Si Si6 0.500000 0.000000 0.000000
Si Si7 0.081429 0.649736 0.263332
Si Si8 0.643368 0.390990 0.222082
O O1 0.914498 0.132188 0.237280
O O2 0.216396 0.954341 0.356431
O O3 0.748847 0.917701 0.063933
O O4 0.000000 0.000000 0.000000
O O5 0.790702 0.222719 0.554974
O O6 0.000000 0.000000 0.500000
O O7 0.563359 0.020617 0.224297
O O8 0.686821 0.763485 0.415664
O O9 0.575290 0.533958 0.219238
O O10 0.822061 0.644507 0.201197
O O11 0.384152 0.680037 0.986331
O O12 0.830129 0.714358 0.731652
O O13 0.084530 0.633533 0.606087
O O14 0.205234 0.516482 0.294238
O O15 0.454270 0.343376 0.216671
O O16 0.983867 0.346858 0.943516
#
# Coordination Sequence:
#
# PCOD9111251 Si02
#       8
#     2   2   2   2   2   1   2   2
#     4  11  26  46  70 105 141 185 238 291 353 421
#     4  10  22  45  76 103 139 190 242 294 352 417
#     4  10  21  41  64  98 136 172 229 274 337 415
#     4  12  24  44  69  98 142 180 222 289 343 421
#     4  10  23  41  70 105 142 176 229 286 357 428
#     4  10  24  48  76  98 134 188 244 300 348 400
#     4  10  20  42  70  99 143 180 222 300 350 411
#     4  10  23  42  65  98 137 184 222 270 349 419
#
# _framework density 27.880165000000002
#
# number of rings (size 3 to 8) (size 9 to 14) (size 15 to 20)
#    0.000    1.600    1.333    2.800    1.867    7.467 
#    2.400    0.000    0.000    0.000    0.000    0.000 
#    0.000    0.000    0.000    0.000    0.000    0.000 
#
# Total GULP energy -83762.990287 kJ/mol
# GULP energy per Si atom -5584.199352 kJ/mol
# Density = 2.781671 g / cm^3
# Si number density = 27.880165 Si / 1000 Ang^3
#
#
#
# Elastic Constant Matrix: (Units=GPa)
#
#
# Indices 1 2 3 4 5 6 
#
# 1 106.9625 7.9855 6.2139 -13.9881 -19.1221 9.5627
# 2 7.9855 108.2853 22.4527 8.5209 -4.5970 0.1109
# 3 6.2139 22.4527 157.3017 -33.4479 -16.8496 -14.2030
# 4 -13.9881 8.5209 -33.4479 48.5650 -0.7064 -2.6871
# 5 -19.1221 -4.5970 -16.8496 -0.7064 37.5217 -16.3257
# 6 9.5627 0.1109 -14.2030 -2.6871 -16.3257 20.5628
#
#
#
# Elastic Compliance Matrix: (Units=1/GPa)
#
#
# Indices 1 2 3 4 5 6 
#
# 1 0.011110 -0.001284 0.001908 0.005016 0.007745 0.002963
# 2 -0.001284 0.010211 -0.003066 -0.004554 -0.002766 -0.004366
# 3 0.001908 -0.003066 0.013003 0.011544 0.016559 0.022766
# 4 0.005016 -0.004554 0.011544 0.032414 0.018486 0.024578
# 5 0.007745 -0.002766 0.016559 0.018486 0.064946 0.061830
# 6 0.002963 -0.004366 0.022766 0.024578 0.061830 0.115304
#
#
# Mechanical properties :
#
#
# Convention : Reuss Voigt Hill
#
# Bulk Modulus (GPa) = 33.96630 49.53930 41.75280
# Shear Modulus (GPa) = 19.10699 43.72306 31.41503
#
# Velocity S-wave (km/s) = 2.62071 3.96441 3.36041
# Velocity P-wave (km/s) = 4.62244 6.22596 5.48314
#
# Compressibility (1/GPa) = 0.02944094
#
# Stress axis : x y z
#
# Youngs Moduli (GPa) = 90.01114 97.93698 76.90296
#
# Poissons Ratio (x) = 0.12574 -0.14674
# Poissons Ratio (y) = 0.11556 0.23576
# Poissons Ratio (z) = -0.17175 0.30024
#
# Static dielectric constant tensor:
#      x y z
#    x 2.721180 0.916920 0.470160 
#    y 0.916920 3.509210 0.848810 
#    z 0.470160 0.848810 2.764580 
# 
# From -- ./inp_files/182078.got.cif
#   From: 2010.05.17/outbox.cif.g08.bks.cpg/sg2_92_cif.got.tgz:182078.got - 2010.06.03 11:33:40.
