data_PCOD9111341
_publ_section_title
;
Structure prediction by ZEFSAII (Michael W. Deem and Ramdas Pophale) SiO2 
 PCOD9111341
Probable space group: P -1
;
_chemical_formula_sum "Si O2"
_cell_formula_units_Z 16
_cell_length_a 4.934184
_cell_length_b 15.893554
_cell_length_c 12.128662
_cell_angle_alpha 134.076342
_cell_angle_beta 112.298527
_cell_angle_gamma 59.764290
_cell_volume 589.710073
_symmetry_space_group_name_H-M "P -1"
_symmetry_group_IT_number 2
_symmetry_cell_setting 'triclinic'
loop_
_space_group_symop_operation_xyz
x,y,z
-x,-y,-z
loop_
_atom_site_type_symbol
_atom_site_label
_atom_site_fract_x
_atom_site_fract_y
_atom_site_fract_z
Si Si1 0.293662 0.457764 0.150826
Si Si2 0.183262 0.616652 0.074226
Si Si3 0.364423 0.219326 0.210521
Si Si4 0.703699 0.212181 0.040392
Si Si5 0.771461 0.796770 0.466625
Si Si6 0.494320 0.343985 0.549490
Si Si7 0.585223 0.005245 0.217680
Si Si8 0.177289 0.893430 0.339927
O O1 0.109961 0.572097 0.143882
O O2 0.554725 0.324638 0.032219
O O3 0.459793 0.523539 0.318085
O O4 0.027745 0.399408 0.073611
O O5 0.155060 0.756785 0.219692
O O6 0.500000 0.500000 0.000000
O O7 0.554912 0.257352 0.179806
O O8 0.318123 0.319226 0.393126
O O9 0.061451 0.197471 0.096159
O O10 0.551935 0.086990 0.177720
O O11 0.577311 0.098595 0.902687
O O12 0.689793 0.678254 0.392106
O O13 0.552759 0.857795 0.382331
O O14 0.145207 0.758124 0.484900
O O15 0.612584 0.897731 0.630240
O O16 0.954911 0.948120 0.251037
O O17 0.000000 0.000000 0.500000
#
# Coordination Sequence:
#
# PCOD9111341 Si02
#       8
#     2   2   2   2   2   2   2   2
#     4  11  26  41  72  99 143 184 232 289 359 439
#     4  11  23  45  71 107 147 184 229 292 369 439
#     4  11  26  45  69  97 141 185 245 302 348 405
#     4  12  26  45  69 104 135 189 243 292 352 420
#     4  10  22  41  70 103 138 180 226 288 356 434
#     4  11  23  45  69  98 138 186 233 286 357 411
#     4  10  22  44  70 101 141 184 233 297 362 421
#     4  10  20  42  73 108 143 186 237 291 361 444
#
# _framework density 27.131976000000002
#
# number of rings (size 3 to 8) (size 9 to 14) (size 15 to 20)
#    0.000    1.250    2.500    3.000    1.750    3.000 
#    0.000   13.750    0.000    0.000    0.000    0.000 
#    0.000    0.000    0.000    0.000    0.000    0.000 
#
# Total GULP energy -89421.642667 kJ/mol
# GULP energy per Si atom -5588.852667 kJ/mol
# Density = 2.707022 g / cm^3
# Si number density = 27.131976 Si / 1000 Ang^3
#
#
#
# Elastic Constant Matrix: (Units=GPa)
#
#
# Indices 1 2 3 4 5 6 
#
# 1 128.4450 20.3948 9.1412 0.0876 20.1094 -1.4109
# 2 20.3948 129.8213 21.4799 17.7744 17.0797 4.8738
# 3 9.1412 21.4799 162.2088 22.2135 17.0780 12.1240
# 4 0.0876 17.7744 22.2135 53.0072 3.4438 14.2055
# 5 20.1094 17.0797 17.0780 3.4438 33.0322 -0.4540
# 6 -1.4109 4.8738 12.1240 14.2055 -0.4540 39.1961
#
#
#
# Elastic Compliance Matrix: (Units=1/GPa)
#
#
# Indices 1 2 3 4 5 6 
#
# 1 0.008685 -0.000797 0.000057 0.000511 -0.004955 0.000152
# 2 -0.000797 0.008706 -0.000382 -0.002491 -0.003561 -0.000131
# 3 0.000057 -0.000382 0.006955 -0.002220 -0.003220 -0.001335
# 4 0.000511 -0.002491 -0.002220 0.022573 -0.000327 -0.007170
# 5 -0.004955 -0.003561 -0.003220 -0.000327 0.036855 0.001806
# 6 0.000152 -0.000131 -0.001335 -0.007170 0.001806 0.028567
#
#
# Mechanical properties :
#
#
# Convention : Reuss Voigt Hill
#
# Bulk Modulus (GPa) = 45.24838 58.05634 51.65236
# Shear Modulus (GPa) = 40.99943 49.67772 45.33857
#
# Velocity S-wave (km/s) = 3.89152 4.28362 4.09227
# Velocity P-wave (km/s) = 6.07497 6.77570 6.43488
#
# Compressibility (1/GPa) = 0.02210024
#
# Stress axis : x y z
#
# Youngs Moduli (GPa) = 115.13881 114.86531 143.78140
#
# Poissons Ratio (x) = 0.09160 -0.00814
# Poissons Ratio (y) = 0.09182 0.05493
# Poissons Ratio (z) = -0.00652 0.04388
#
# Static dielectric constant tensor:
#      x y z
#    x 2.228890 0.113520 -0.103010 
#    y 0.113520 2.256310 -0.074740 
#    z -0.103010 -0.074740 2.258820 
# 
# From -- ./inp_files/485277.got.cif
#   From: 2010.05.17/outbox.cif.g08.bks.cpg/sg2_243_cif.got.tgz:485277.got - 2010.06.03 11:33:40.
