data_PCOD9111467
_publ_section_title
;
Structure prediction by ZEFSAII (Michael W. Deem and Ramdas Pophale) SiO2 
 PCOD9111467
Probable space group: P -1
;
_chemical_formula_sum "Si O2"
_cell_formula_units_Z 16
_cell_length_a 7.105573
_cell_length_b 11.356734
_cell_length_c 11.087141
_cell_angle_alpha 86.188397
_cell_angle_beta 70.209724
_cell_angle_gamma 64.868928
_cell_volume 759.011211
_symmetry_space_group_name_H-M "P -1"
_symmetry_group_IT_number 2
_symmetry_cell_setting 'triclinic'
loop_
_space_group_symop_operation_xyz
x,y,z
-x,-y,-z
loop_
_atom_site_type_symbol
_atom_site_label
_atom_site_fract_x
_atom_site_fract_y
_atom_site_fract_z
Si Si1 0.833712 0.875334 0.930793
Si Si2 0.570487 0.115965 0.828163
Si Si3 0.020160 0.558356 0.362908
Si Si4 0.723834 0.702472 0.778793
Si Si5 0.599782 0.387883 0.811329
Si Si6 0.702527 0.335218 0.062509
Si Si7 0.359366 0.209477 0.485665
Si Si8 0.751374 0.023555 0.534355
O O1 0.792524 0.798016 0.832419
O O2 0.079437 0.785104 0.929377
O O3 0.763629 0.021503 0.884907
O O4 0.654792 0.882914 0.070495
O O5 0.556208 0.260925 0.812092
O O6 0.629619 0.052737 0.687685
O O7 0.084786 0.444704 0.258269
O O8 0.222563 0.600250 0.319020
O O9 0.000000 0.500000 0.500000
O O10 0.787001 0.681744 0.394691
O O11 0.505523 0.700776 0.883144
O O12 0.670337 0.741977 0.648307
O O13 0.383413 0.526747 0.855978
O O14 0.719344 0.368314 0.917451
O O15 0.613762 0.146649 0.471851
O O16 0.268676 0.099004 0.513491
O O17 0.000000 0.000000 0.500000
#
# Coordination Sequence:
#
# PCOD9111467 Si02
#       8
#     2   2   2   2   2   2   2   2
#     4  11  24  42  64  96 133 174 204 266 324 382
#     4  11  24  42  62  97 134 162 222 261 314 393
#     4   9  20  39  67  92 122 167 213 263 316 377
#     4  10  20  43  64  92 129 162 215 259 316 388
#     4  10  21  42  63  98 128 165 218 264 313 389
#     4  10  23  40  66  92 130 173 208 262 326 371
#     4  10  22  40  63  87 122 169 210 258 318 364
#     4  11  24  40  60  90 126 165 210 264 308 375
#
# _framework density 21.080057
#
# number of rings (size 3 to 8) (size 9 to 14) (size 15 to 20)
#    0.000    1.750    2.500    0.750    3.500    2.000 
#    0.000    0.000    0.000    8.250    0.000    0.000 
#    0.000    0.000    0.000    0.000    0.000    0.000 
#
# Total GULP energy -89346.491442 kJ/mol
# GULP energy per Si atom -5584.155715 kJ/mol
# Density = 2.103208 g / cm^3
# Si number density = 21.080057 Si / 1000 Ang^3
#
#
#
# Elastic Constant Matrix: (Units=GPa)
#
#
# Indices 1 2 3 4 5 6 
#
# 1 63.9547 22.1855 12.2567 10.1193 -3.7606 -19.5708
# 2 22.1855 83.1799 2.5861 13.5519 -7.1792 -9.7185
# 3 12.2567 2.5861 76.5572 4.1855 -6.9856 -7.8032
# 4 10.1193 13.5519 4.1855 27.9019 1.7951 -5.5484
# 5 -3.7606 -7.1792 -6.9856 1.7951 18.3004 -2.4416
# 6 -19.5708 -9.7185 -7.8032 -5.5484 -2.4416 34.0995
#
#
#
# Elastic Compliance Matrix: (Units=1/GPa)
#
#
# Indices 1 2 3 4 5 6 
#
# 1 0.021203 -0.003364 -0.001608 -0.003999 0.004216 0.010494
# 2 -0.003364 0.014655 0.001158 -0.006088 0.006361 0.001976
# 3 -0.001608 0.001158 0.014229 -0.001954 0.006119 0.002784
# 4 -0.003999 -0.006088 -0.001954 0.041379 -0.007788 0.001698
# 5 0.004216 0.006361 0.006119 -0.007788 0.062282 0.008825
# 6 0.010494 0.001976 0.002784 0.001698 0.008825 0.037457
#
#
# Mechanical properties :
#
#
# Convention : Reuss Voigt Hill
#
# Bulk Modulus (GPa) = 23.55148 33.08314 28.31731
# Shear Modulus (GPa) = 23.47574 28.50459 25.99017
#
# Velocity S-wave (km/s) = 3.34076 3.68123 3.51511
# Velocity P-wave (km/s) = 5.10661 5.81349 5.47148
#
# Compressibility (1/GPa) = 0.04246018
#
# Stress axis : x y z
#
# Youngs Moduli (GPa) = 47.16327 68.23594 70.27758
#
# Poissons Ratio (x) = 0.22952 0.11301
# Poissons Ratio (y) = 0.15864 -0.08139
# Poissons Ratio (z) = 0.07584 -0.07903
#
# Static dielectric constant tensor:
#      x y z
#    x 1.719140 -0.015140 -0.005220 
#    y -0.015140 1.833630 -0.002510 
#    z -0.005220 -0.002510 1.769610 
# 
# From -- ./inp_files/77916.got.cif
#   From: 2010.05.17/outbox.cif.g08.bks.cpg/sg2_39_cif.got.tgz:77916.got - 2010.06.03 11:33:40.
