data_PCOD9111937
_publ_section_title
;
Structure prediction by ZEFSAII (Michael W. Deem and Ramdas Pophale) SiO2 
 PCOD9111937
Probable space group: P -1
;
_chemical_formula_sum "Si O2"
_cell_formula_units_Z 16
_cell_length_a 10.672767
_cell_length_b 14.062305
_cell_length_c 17.548629
_cell_angle_alpha 27.285891
_cell_angle_beta 45.546948
_cell_angle_gamma 31.336051
_cell_volume 608.539617
_symmetry_space_group_name_H-M "P -1"
_symmetry_group_IT_number 2
_symmetry_cell_setting 'triclinic'
loop_
_space_group_symop_operation_xyz
x,y,z
-x,-y,-z
loop_
_atom_site_type_symbol
_atom_site_label
_atom_site_fract_x
_atom_site_fract_y
_atom_site_fract_z
Si Si1 0.262955 0.900703 0.466570
Si Si2 0.336849 0.843525 0.819315
Si Si3 0.277083 0.894863 0.986184
Si Si4 0.234657 0.481841 0.244990
Si Si5 0.462112 0.378232 0.675003
Si Si6 0.755656 0.688213 0.920525
Si Si7 0.042646 0.239479 0.458262
Si Si8 0.981237 0.908117 0.827090
O O1 0.294254 0.049798 0.283228
O O2 0.260407 0.023146 0.458866
O O3 0.447806 0.558106 0.621108
O O4 0.000000 0.000000 0.500000
O O5 0.295130 0.951657 0.847280
O O6 0.520858 0.785462 0.717875
O O7 0.072347 0.995277 0.789544
O O8 0.500000 0.500000 0.000000
O O9 0.515917 0.804799 0.983651
O O10 0.304929 0.620728 0.169154
O O11 0.015021 0.198217 0.912729
O O12 0.110497 0.362962 0.400727
O O13 0.500000 0.500000 0.500000
O O14 0.704257 0.051609 0.830096
O O15 0.201166 0.494805 0.678166
O O16 0.000000 0.500000 0.000000
O O17 0.831329 0.441959 0.004684
O O18 0.009794 0.038490 0.649762
#
# Coordination Sequence:
#
# PCOD9111937 Si02
#       8
#     2   2   2   2   2   2   2   2
#     4  10  22  43  64  97 136 179 214 278 348 405
#     4  10  20  44  63  88 138 176 224 279 337 396
#     4  10  23  41  68  94 135 183 228 273 345 404
#     4  10  21  41  63  96 129 182 226 276 328 404
#     4   9  20  40  63  97 134 170 221 277 335 410
#     4  12  23  39  72  99 132 176 225 278 352 412
#     4  10  22  40  68  92 140 173 223 281 348 397
#     4  11  23  41  67 101 130 174 227 283 338 408
#
# _framework density 26.292453999999999
#
# number of rings (size 3 to 8) (size 9 to 14) (size 15 to 20)
#    0.000    1.750    2.500    3.000    7.000    0.500 
#    2.250    9.375    0.000    0.000    0.000    0.000 
#    0.000    0.000    0.000    0.000    0.000    0.000 
#
# Total GULP energy -89152.459635 kJ/mol
# GULP energy per Si atom -5572.028727 kJ/mol
# Density = 2.623261 g / cm^3
# Si number density = 26.292454 Si / 1000 Ang^3
#
#
#
# Elastic Constant Matrix: (Units=GPa)
#
#
# Indices 1 2 3 4 5 6 
#
# 1 103.4306 35.6138 23.4180 -0.8456 -17.0210 -26.5090
# 2 35.6138 93.5955 23.5749 -15.2997 1.4282 -15.5644
# 3 23.4180 23.5749 93.0972 -4.6988 -25.7744 -11.9214
# 4 -0.8456 -15.2997 -4.6988 35.3253 -9.5370 -3.9940
# 5 -17.0210 1.4282 -25.7744 -9.5370 43.0659 0.4361
# 6 -26.5090 -15.5644 -11.9214 -3.9940 0.4361 43.3313
#
#
#
# Elastic Compliance Matrix: (Units=1/GPa)
#
#
# Indices 1 2 3 4 5 6 
#
# 1 0.013804 -0.004038 0.000106 0.000957 0.005793 0.007053
# 2 -0.004038 0.014204 -0.002713 0.005278 -0.002546 0.002398
# 3 0.000106 -0.002713 0.014729 0.003804 0.009755 0.003395
# 4 0.000957 0.005278 0.003804 0.034591 0.010073 0.006615
# 5 0.005793 -0.002546 0.009755 0.010073 0.033604 0.005904
# 6 0.007053 0.002398 0.003395 0.006615 0.005904 0.029739
#
#
# Mechanical properties :
#
#
# Convention : Reuss Voigt Hill
#
# Bulk Modulus (GPa) = 33.95860 50.59299 42.27579
# Shear Modulus (GPa) = 30.52936 38.17893 34.35414
#
# Velocity S-wave (km/s) = 3.41125 3.81476 3.61864
# Velocity P-wave (km/s) = 5.33473 6.21992 5.79425
#
# Compressibility (1/GPa) = 0.02944762
#
# Stress axis : x y z
#
# Youngs Moduli (GPa) = 72.44398 70.40045 67.89165
#
# Poissons Ratio (x) = 0.28428 -0.00718
# Poissons Ratio (y) = 0.29254 0.18417
# Poissons Ratio (z) = -0.00766 0.19097
#
# Static dielectric constant tensor:
#      x y z
#    x 2.266720 0.092930 -0.038070 
#    y 0.092930 2.274480 0.044620 
#    z -0.038070 0.044620 2.156850 
# 
# From -- ./inp_files/610755.got.cif
#   From: 2010.05.17/outbox.cif.g08.bks.cpg/sg2_306_cif.got.tgz:610755.got - 2010.06.03 11:33:40.
