data_PCOD9111012
_publ_section_title
;
Structure prediction by ZEFSAII (Michael W. Deem and Ramdas Pophale) SiO2 
 PCOD9111012
Probable space group: P -1
;
_chemical_formula_sum "Si O2"
_cell_formula_units_Z 16
_cell_length_a 9.608870
_cell_length_b 22.807757
_cell_length_c 6.767205
_cell_angle_alpha 132.494159
_cell_angle_beta 58.501505
_cell_angle_gamma 137.079151
_cell_volume 743.546473
_symmetry_space_group_name_H-M "P -1"
_symmetry_group_IT_number 2
_symmetry_cell_setting 'triclinic'
loop_
_space_group_symop_operation_xyz
x,y,z
-x,-y,-z
loop_
_atom_site_type_symbol
_atom_site_label
_atom_site_fract_x
_atom_site_fract_y
_atom_site_fract_z
Si Si1 0.710181 0.963672 0.213024
Si Si2 0.619554 0.495687 0.084075
Si Si3 0.446363 0.777621 0.497118
Si Si4 0.765645 0.404693 0.484826
Si Si5 0.667847 0.115170 0.403214
Si Si6 0.153360 0.133874 0.392233
Si Si7 0.862522 0.722334 0.502497
Si Si8 0.500398 0.338181 0.129009
O O1 0.504880 0.907608 0.364820
O O2 0.683366 0.024423 0.204024
O O3 0.763005 0.895800 0.918677
O O4 0.911402 0.045886 0.380073
O O5 0.774770 0.608832 0.294482
O O6 0.515854 0.423919 0.185738
O O7 0.500000 0.500000 0.000000
O O8 0.710982 0.447212 0.798405
O O9 0.312463 0.702102 0.606225
O O10 0.388383 0.851947 0.674281
O O11 0.689492 0.842801 0.502366
O O12 0.422088 0.713833 0.176552
O O13 0.636886 0.381882 0.327428
O O14 0.000000 0.500000 0.500000
O O15 0.896541 0.209695 0.498105
O O16 0.182494 0.235796 0.559097
O O17 0.736870 0.731698 0.787317
#
# Coordination Sequence:
#
# PCOD9111012 Si02
#       8
#     2   2   2   2   2   2   2   2
#     4   9  21  43  67  92 129 166 201 273 337 377
#     4  11  23  39  62  95 128 169 223 259 307 383
#     4  11  24  40  66  98 124 168 224 255 313 394
#     4  11  26  41  63  94 133 174 213 263 319 368
#     4  10  23  38  63 100 126 157 214 271 321 377
#     4  10  20  42  68  90 127 170 211 254 325 402
#     4  11  21  39  64  90 128 173 210 260 316 373
#     4  11  23  42  63  88 136 176 210 262 316 375
#
# _framework density 21.518492999999999
#
# number of rings (size 3 to 8) (size 9 to 14) (size 15 to 20)
#    0.000    1.500    2.500    1.875    3.500    2.000 
#    0.000    3.750    0.000    0.000    0.000    0.000 
#    0.000    0.000    0.000    0.000    0.000    0.000 
#
# Total GULP energy -89180.331026 kJ/mol
# GULP energy per Si atom -5573.770689 kJ/mol
# Density = 2.146952 g / cm^3
# Si number density = 21.518493 Si / 1000 Ang^3
#
#
#
# Elastic Constant Matrix: (Units=GPa)
#
#
# Indices 1 2 3 4 5 6 
#
# 1 128.9009 69.9288 6.2236 -6.7505 2.2047 -3.5716
# 2 69.9288 133.2979 26.2932 -4.6852 0.0143 -5.0253
# 3 6.2236 26.2932 44.3525 -0.8165 13.9424 6.9316
# 4 -6.7505 -4.6852 -0.8165 25.0263 -2.3775 -8.8888
# 5 2.2047 0.0143 13.9424 -2.3775 9.9429 -1.7170
# 6 -3.5716 -5.0253 6.9316 -8.8888 -1.7170 49.3379
#
#
#
# Elastic Compliance Matrix: (Units=1/GPa)
#
#
# Indices 1 2 3 4 5 6 
#
# 1 0.011717 -0.007557 0.006973 0.000332 -0.012506 -0.001277
# 2 -0.007557 0.015363 -0.017857 0.004914 0.028804 0.005414
# 3 0.006973 -0.017857 0.066185 -0.014841 -0.100777 -0.016794
# 4 0.000332 0.004914 -0.014841 0.048188 0.034409 0.012489
# 5 -0.012506 0.028804 -0.100777 0.034409 0.258264 0.031374
# 6 -0.001277 0.005414 -0.016794 0.012489 0.031374 0.026429
#
#
# Mechanical properties :
#
#
# Convention : Reuss Voigt Hill
#
# Bulk Modulus (GPa) = 17.73615 56.82693 37.28154
# Shear Modulus (GPa) = 10.37726 30.46848 20.42287
#
# Velocity S-wave (km/s) = 2.19840 3.76695 3.08406
# Velocity P-wave (km/s) = 3.83459 6.73689 5.48132
#
# Compressibility (1/GPa) = 0.05638203
#
# Stress axis : x y z
#
# Youngs Moduli (GPa) = 85.34595 65.09245 15.10912
#
# Poissons Ratio (x) = 0.49193 -0.10536
# Poissons Ratio (y) = 0.64499 0.26981
# Poissons Ratio (z) = -0.59513 1.16237
#
# Static dielectric constant tensor:
#      x y z
#    x 1.801730 -0.040920 0.026950 
#    y -0.040920 1.879590 -0.007600 
#    z 0.026950 -0.007600 1.752240 
# 
# From -- ./inp_files/53683.got.cif
#   From: 2010.05.17/outbox.cif.g08.bks.cpg/sg2_27_cif.got.tgz:53683.got - 2010.06.03 11:33:40.
