data_PCOD9111140
_publ_section_title
;
Structure prediction by ZEFSAII (Michael W. Deem and Ramdas Pophale) SiO2 
 PCOD9111140
Probable space group: P -1
;
_chemical_formula_sum "Si O2"
_cell_formula_units_Z 16
_cell_length_a 14.947297
_cell_length_b 9.159040
_cell_length_c 6.465676
_cell_angle_alpha 88.708622
_cell_angle_beta 127.398361
_cell_angle_gamma 101.859709
_cell_volume 682.214729
_symmetry_space_group_name_H-M "P -1"
_symmetry_group_IT_number 2
_symmetry_cell_setting 'triclinic'
loop_
_space_group_symop_operation_xyz
x,y,z
-x,-y,-z
loop_
_atom_site_type_symbol
_atom_site_label
_atom_site_fract_x
_atom_site_fract_y
_atom_site_fract_z
Si Si1 0.852904 0.900679 0.187862
Si Si2 0.067260 0.808009 0.953212
Si Si3 0.223944 0.677154 0.867945
Si Si4 0.624467 0.555388 0.279500
Si Si5 0.639249 0.844172 0.577765
Si Si6 0.571422 0.369317 0.577352
Si Si7 0.872551 0.623729 0.437690
Si Si8 0.777651 0.076847 0.459486
O O1 0.905003 0.758932 0.314582
O O2 0.935298 0.035897 0.171297
O O3 0.813590 0.964516 0.345877
O O4 0.740493 0.850261 0.885669
O O5 0.166061 0.751213 0.968027
O O6 0.948905 0.684163 0.745014
O O7 0.112919 0.845133 0.246206
O O8 0.127322 0.537850 0.647099
O O9 0.261020 0.799557 0.737384
O O10 0.332865 0.625611 0.114943
O O11 0.629447 0.705263 0.412621
O O12 0.635164 0.418848 0.449476
O O13 0.736551 0.601475 0.294105
O O14 0.500000 0.500000 0.000000
O O15 0.517403 0.793920 0.529236
O O16 0.680161 0.989971 0.486271
O O17 0.500000 0.500000 0.500000
#
# Coordination Sequence:
#
# PCOD9111140 Si02
#       8
#     2   2   2   2   2   2   2   2
#     4  10  21  44  69 101 132 173 230 280 327 391
#     4  10  25  45  65  97 141 177 224 274 335 407
#     4  11  25  45  65  98 141 174 220 279 338 403
#     4  11  22  39  69 105 135 165 221 283 334 391
#     4  10  20  42  69  95 134 174 216 277 338 393
#     4  10  22  41  65  99 130 167 221 280 329 396
#     4  12  22  41  72 101 130 184 224 278 337 385
#     4  10  23  45  66  95 140 178 223 273 333 405
#
# _framework density 23.453026000000001
#
# number of rings (size 3 to 8) (size 9 to 14) (size 15 to 20)
#    0.000    1.500    1.250    4.500    1.750    1.500 
#    9.000    5.625    0.000    0.000    0.000    0.000 
#    0.000    0.000    0.000    0.000    0.000    0.000 
#
# Total GULP energy -89469.279458 kJ/mol
# GULP energy per Si atom -5591.829966 kJ/mol
# Density = 2.339965 g / cm^3
# Si number density = 23.453026 Si / 1000 Ang^3
#
#
#
# Elastic Constant Matrix: (Units=GPa)
#
#
# Indices 1 2 3 4 5 6 
#
# 1 52.5705 25.8536 31.7827 1.1689 13.7635 7.2445
# 2 25.8536 110.8108 72.0967 -3.5625 0.7755 10.6007
# 3 31.7827 72.0967 161.2713 17.9164 9.5042 24.2103
# 4 1.1689 -3.5625 17.9164 51.5762 6.0471 -1.5436
# 5 13.7635 0.7755 9.5042 6.0471 35.2189 12.2214
# 6 7.2445 10.6007 24.2103 -1.5436 12.2214 26.6202
#
#
#
# Elastic Compliance Matrix: (Units=1/GPa)
#
#
# Indices 1 2 3 4 5 6 
#
# 1 0.025081 -0.003933 -0.003090 0.001458 -0.009886 0.002174
# 2 -0.003933 0.013825 -0.005850 0.002801 0.002339 -0.000026
# 3 -0.003090 -0.005850 0.011029 -0.004633 0.001938 -0.008019
# 4 0.001458 0.002801 -0.004633 0.021984 -0.005395 0.006453
# 5 -0.009886 0.002339 0.001938 -0.005395 0.038919 -0.018185
# 6 0.002174 -0.000026 -0.008019 0.006453 -0.018185 0.052999
#
#
# Mechanical properties :
#
#
# Convention : Reuss Voigt Hill
#
# Bulk Modulus (GPa) = 41.34400 64.90207 53.12303
# Shear Modulus (GPa) = 25.29755 35.67771 30.48763
#
# Velocity S-wave (km/s) = 3.28784 3.90454 3.60939
# Velocity P-wave (km/s) = 5.66391 6.93257 6.33010
#
# Compressibility (1/GPa) = 0.02418731
#
# Stress axis : x y z
#
# Youngs Moduli (GPa) = 39.87126 72.33475 90.66657
#
# Poissons Ratio (x) = 0.28449 0.28019
# Poissons Ratio (y) = 0.15681 0.53044
# Poissons Ratio (z) = 0.12321 0.42319
#
# Static dielectric constant tensor:
#      x y z
#    x 1.997940 -0.032150 -0.049430 
#    y -0.032150 1.908780 0.017650 
#    z -0.049430 0.017650 1.879150 
# 
# From -- ./inp_files/107050.got.cif
#   From: 2010.05.17/outbox.cif.g08.bks.cpg/sg2_54_cif.got.tgz:107050.got - 2010.06.03 11:33:40.
