data_PCOD9111452
_publ_section_title
;
Structure prediction by ZEFSAII (Michael W. Deem and Ramdas Pophale) SiO2 
 PCOD9111452
Probable space group: P -1
;
_chemical_formula_sum "Si O2"
_cell_formula_units_Z 15
_cell_length_a 5.453502
_cell_length_b 15.183753
_cell_length_c 13.115664
_cell_angle_alpha 37.309410
_cell_angle_beta 110.517054
_cell_angle_gamma 97.855732
_cell_volume 596.888113
_symmetry_space_group_name_H-M "P -1"
_symmetry_group_IT_number 2
_symmetry_cell_setting 'triclinic'
loop_
_space_group_symop_operation_xyz
x,y,z
-x,-y,-z
loop_
_atom_site_type_symbol
_atom_site_label
_atom_site_fract_x
_atom_site_fract_y
_atom_site_fract_z
Si Si1 0.982911 0.387599 0.692222
Si Si2 0.000000 0.000000 0.500000
Si Si3 0.265409 0.711960 0.080935
Si Si4 0.912939 0.266137 0.401487
Si Si5 0.272408 0.135210 0.235374
Si Si6 0.352845 0.079679 0.003769
Si Si7 0.381199 0.419759 0.908959
Si Si8 0.463770 0.851807 0.400490
O O1 0.171731 0.423226 0.779397
O O2 0.000000 0.500000 0.500000
O O3 0.717789 0.379586 0.726892
O O4 0.094096 0.217574 0.823174
O O5 0.871997 0.888891 0.660540
O O6 0.096436 0.865963 0.554887
O O7 0.342424 0.605114 0.092167
O O8 0.446878 0.830113 0.998730
O O9 0.968179 0.817422 0.925538
O O10 0.751770 0.429258 0.190710
O O11 0.738920 0.237040 0.500463
O O12 0.232812 0.245077 0.487961
O O13 0.480508 0.985940 0.360449
O O14 0.401642 0.275834 0.115699
O O15 0.331612 0.945113 0.197588
O O16 0.500000 0.000000 0.000000
#
# Coordination Sequence:
#
# PCOD9111452 Si02
#       8
#     2   1   2   2   2   2   2   2
#     4  10  23  39  60  92 128 173 225 277 325 394
#     4  10  24  44  68 104 132 170 222 290 326 414
#     4  10  20  43  64  87 133 177 220 271 341 391
#     4  11  27  42  71  99 135 174 227 275 342 399
#     4  10  21  43  71  89 132 176 221 271 347 395
#     4  11  23  36  61  95 126 176 225 278 325 398
#     4  10  23  41  67  92 128 183 215 275 334 407
#     4  11  23  45  65  98 135 180 217 276 339 400
#
# _framework density 25.13034
#
# number of rings (size 3 to 8) (size 9 to 14) (size 15 to 20)
#    0.000    1.600    4.000    1.600    5.600    6.400 
#    0.000    0.667    0.000    0.000    0.000    0.000 
#    0.000    0.000    0.000    0.000    0.000    0.000 
#
# Total GULP energy -83611.710570 kJ/mol
# GULP energy per Si atom -5574.114038 kJ/mol
# Density = 2.507314 g / cm^3
# Si number density = 25.130340 Si / 1000 Ang^3
#
#
#
# Elastic Constant Matrix: (Units=GPa)
#
#
# Indices 1 2 3 4 5 6 
#
# 1 120.4893 19.8287 73.2502 -5.0231 -16.0284 -36.9807
# 2 19.8287 49.8944 0.0083 -8.2187 1.3013 -16.8106
# 3 73.2502 0.0083 91.5878 24.2610 -23.0063 -23.1740
# 4 -5.0231 -8.2187 24.2610 43.2015 -22.0883 -0.1751
# 5 -16.0284 1.3013 -23.0063 -22.0883 44.6182 9.5245
# 6 -36.9807 -16.8106 -23.1740 -0.1751 9.5245 44.9585
#
#
#
# Elastic Compliance Matrix: (Units=1/GPa)
#
#
# Indices 1 2 3 4 5 6 
#
# 1 0.026795 -0.005476 -0.023017 0.017657 0.005141 0.007109
# 2 -0.005476 0.025058 0.006140 0.000066 -0.001271 0.008300
# 3 -0.023017 0.006140 0.035228 -0.022105 -0.001605 0.001776
# 4 0.017657 0.000066 -0.022105 0.046993 0.018323 -0.000544
# 5 0.005141 -0.001271 -0.001605 0.018323 0.033411 -0.004080
# 6 0.007109 0.008300 0.001776 -0.000544 -0.004080 0.032971
#
#
# Mechanical properties :
#
#
# Convention : Reuss Voigt Hill
#
# Bulk Modulus (GPa) = 23.59782 49.79399 36.69591
# Shear Modulus (GPa) = 19.28373 37.81459 28.54916
#
# Velocity S-wave (km/s) = 2.77311 3.88330 3.37418
# Velocity P-wave (km/s) = 4.43442 6.32171 5.46023
#
# Compressibility (1/GPa) = 0.04237679
#
# Stress axis : x y z
#
# Youngs Moduli (GPa) = 37.31980 39.90760 28.38642
#
# Poissons Ratio (x) = 0.21852 0.65338
# Poissons Ratio (y) = 0.20435 -0.17430
# Poissons Ratio (z) = 0.85900 -0.24505
#
# Static dielectric constant tensor:
#      x y z
#    x 2.056490 0.048880 0.116820 
#    y 0.048880 2.042230 -0.004550 
#    z 0.116820 -0.004550 1.958220 
# 
# From -- ./inp_files/43225.got.cif
#   From: 2010.05.17/outbox.cif.g08.bks.cpg/sg2_22_cif.got.tgz:43225.got - 2010.06.03 11:33:40.
