data_PCOD9111595
_publ_section_title
;
Structure prediction by ZEFSAII (Michael W. Deem and Ramdas Pophale) SiO2 
 PCOD9111595
Probable space group: P -1
;
_chemical_formula_sum "Si O2"
_cell_formula_units_Z 16
_cell_length_a 15.743095
_cell_length_b 9.122001
_cell_length_c 12.275365
_cell_angle_alpha 106.400347
_cell_angle_beta 40.984429
_cell_angle_gamma 74.802101
_cell_volume 726.730503
_symmetry_space_group_name_H-M "P -1"
_symmetry_group_IT_number 2
_symmetry_cell_setting 'triclinic'
loop_
_space_group_symop_operation_xyz
x,y,z
-x,-y,-z
loop_
_atom_site_type_symbol
_atom_site_label
_atom_site_fract_x
_atom_site_fract_y
_atom_site_fract_z
Si Si1 0.448685 0.624440 0.403961
Si Si2 0.614722 0.833700 0.602092
Si Si3 0.108555 0.864959 0.538026
Si Si4 0.776097 0.631025 0.866563
Si Si5 0.827485 0.533546 0.542584
Si Si6 0.156753 0.104058 0.705160
Si Si7 0.263700 0.557813 0.723632
Si Si8 0.273962 0.679868 0.112424
O O1 0.290136 0.661307 0.626889
O O2 0.637931 0.467282 0.266487
O O3 0.348237 0.877829 0.538856
O O4 0.526060 0.487971 0.185931
O O5 0.668505 0.718825 0.644421
O O6 0.790219 0.789904 0.386321
O O7 0.611877 0.696705 0.492465
O O8 0.414865 0.108276 0.853788
O O9 0.124115 0.689546 0.546612
O O10 0.265815 0.731578 0.258115
O O11 0.127795 0.991250 0.624617
O O12 0.894849 0.069623 0.729633
O O13 0.761398 0.634282 0.750124
O O14 0.781515 0.451415 0.865272
O O15 0.973712 0.546299 0.687170
O O16 0.960825 0.287966 0.005165
#
# Coordination Sequence:
#
# PCOD9111595 Si02
#       8
#     2   2   2   2   2   2   2   2
#     4  11  24  45  69  91 129 169 220 275 316 383
#     4  12  25  42  66  98 130 178 215 263 321 390
#     4  10  22  40  71  99 131 170 210 268 330 385
#     4  10  22  43  65  98 136 171 213 261 331 386
#     4  10  23  41  67  98 137 170 208 272 322 389
#     4  12  24  44  67  95 132 170 215 272 320 383
#     4  11  27  44  64  94 129 172 224 266 320 377
#     4  10  20  43  67 100 129 167 214 264 330 385
#
# _framework density 22.016414999999999
#
# number of rings (size 3 to 8) (size 9 to 14) (size 15 to 20)
#    0.000    1.250    2.500    2.625    1.750    3.000 
#    2.250    0.000    0.000    0.000    0.000    0.000 
#    0.000    0.000    0.000    0.000    0.000    0.000 
#
# Total GULP energy -89529.482435 kJ/mol
# GULP energy per Si atom -5595.592652 kJ/mol
# Density = 2.196630 g / cm^3
# Si number density = 22.016415 Si / 1000 Ang^3
#
#
#
# Elastic Constant Matrix: (Units=GPa)
#
#
# Indices 1 2 3 4 5 6 
#
# 1 36.3803 -1.3375 -0.2276 -2.4142 17.9389 4.9567
# 2 -1.3375 97.9785 12.9117 0.0305 8.4418 2.4035
# 3 -0.2276 12.9117 96.9756 3.0475 1.6274 -8.8336
# 4 -2.4142 0.0305 3.0475 31.8228 3.0696 -1.2782
# 5 17.9389 8.4418 1.6274 3.0696 20.3545 5.8837
# 6 4.9567 2.4035 -8.8336 -1.2782 5.8837 27.9025
#
#
#
# Elastic Compliance Matrix: (Units=1/GPa)
#
#
# Indices 1 2 3 4 5 6 
#
# 1 0.053004 0.005025 0.000137 0.008927 -0.050518 0.001256
# 2 0.005025 0.011251 -0.001406 0.001369 -0.009094 -0.000327
# 3 0.000137 -0.001406 0.010893 -0.000744 -0.001396 0.003806
# 4 0.008927 0.001369 -0.000744 0.033645 -0.014200 0.002596
# 5 -0.050518 -0.009094 -0.001396 -0.014200 0.103480 -0.013155
# 6 0.001256 -0.000327 0.003806 0.002596 -0.013155 0.039742
#
#
# Mechanical properties :
#
#
# Convention : Reuss Voigt Hill
#
# Bulk Modulus (GPa) = 12.09787 28.22531 20.16159
# Shear Modulus (GPa) = 18.37840 30.68181 24.53011
#
# Velocity S-wave (km/s) = 2.89235 3.73713 3.34154
# Velocity P-wave (km/s) = 4.08181 5.60976 4.90564
#
# Compressibility (1/GPa) = 0.08265919
#
# Stress axis : x y z
#
# Youngs Moduli (GPa) = 18.86635 88.87782 91.80269
#
# Poissons Ratio (x) = -0.44657 -0.01259
# Poissons Ratio (y) = -0.09479 0.12911
# Poissons Ratio (z) = -0.00259 0.12500
#
# Static dielectric constant tensor:
#      x y z
#    x 1.800360 -0.024880 -0.004910 
#    y -0.024880 1.782100 -0.013950 
#    z -0.004910 -0.013950 1.784600 
# 
# From -- ./inp_files/307726.got.cif
#   From: 2010.05.17/outbox.cif.g08.bks.cpg/sg2_154_cif.got.tgz:307726.got - 2010.06.03 11:33:40.
