data_PCOD9111052
_publ_section_title
;
Structure prediction by ZEFSAII (Michael W. Deem and Ramdas Pophale) SiO2 
 PCOD9111052
Probable space group: P -1
;
_chemical_formula_sum "Si O2"
_cell_formula_units_Z 16
_cell_length_a 8.027867
_cell_length_b 13.181561
_cell_length_c 8.912425
_cell_angle_alpha 114.069091
_cell_angle_beta 67.722269
_cell_angle_gamma 132.223398
_cell_volume 629.940348
_symmetry_space_group_name_H-M "P -1"
_symmetry_group_IT_number 2
_symmetry_cell_setting 'triclinic'
loop_
_space_group_symop_operation_xyz
x,y,z
-x,-y,-z
loop_
_atom_site_type_symbol
_atom_site_label
_atom_site_fract_x
_atom_site_fract_y
_atom_site_fract_z
Si Si1 0.839447 0.960596 0.889439
Si Si2 0.369848 0.926814 0.788580
Si Si3 0.987184 0.327679 0.075065
Si Si4 0.901226 0.137848 0.725922
Si Si5 0.367927 0.310582 0.072281
Si Si6 0.933377 0.230779 0.469675
Si Si7 0.688181 0.355110 0.737956
Si Si8 0.406357 0.503786 0.375636
O O1 0.671529 0.993492 0.025643
O O2 0.705899 0.795053 0.827974
O O3 0.963414 0.057154 0.761474
O O4 0.000000 0.000000 0.000000
O O5 0.220150 0.893370 0.671173
O O6 0.246654 0.773187 0.812063
O O7 0.632511 0.017102 0.716570
O O8 0.158647 0.296031 0.058165
O O9 0.110875 0.489746 0.168481
O O10 0.936599 0.264949 0.886613
O O11 0.019785 0.193102 0.559068
O O12 0.515227 0.465256 0.186944
O O13 0.497408 0.288840 0.891230
O O14 0.777170 0.268084 0.616705
O O15 0.139175 0.370991 0.402009
O O16 0.593725 0.376408 0.629932
O O17 0.500000 0.500000 0.500000
#
# Coordination Sequence:
#
# PCOD9111052 Si02
#       8
#     2   2   2   2   2   2   2   2
#     4  11  20  41  68  95 126 178 222 273 327 391
#     4  11  22  43  65  93 139 174 223 275 336 380
#     4  10  20  42  68  95 133 169 226 280 323 395
#     4  11  25  39  66  99 132 175 226 274 330 399
#     4  11  22  43  70  97 130 178 222 273 334 397
#     4  12  25  46  65 100 143 175 215 283 338 391
#     4  11  25  43  72  97 132 183 221 268 340 401
#     4  11  25  44  68 101 138 173 217 276 342 399
#
# _framework density 25.399228999999998
#
# number of rings (size 3 to 8) (size 9 to 14) (size 15 to 20)
#    0.000    1.000    5.000    4.500    3.500    1.500 
#    2.250    2.500    0.000    0.000    0.000    0.000 
#    0.000    0.000    0.000    0.000    0.000    0.000 
#
# Total GULP energy -89527.044624 kJ/mol
# GULP energy per Si atom -5595.440289 kJ/mol
# Density = 2.534142 g / cm^3
# Si number density = 25.399229 Si / 1000 Ang^3
#
#
#
# Elastic Constant Matrix: (Units=GPa)
#
#
# Indices 1 2 3 4 5 6 
#
# 1 64.9878 10.4057 26.4871 1.3883 13.4916 -5.6570
# 2 10.4057 77.8764 9.4931 -10.2516 5.3249 -7.4972
# 3 26.4871 9.4931 114.3287 -14.2276 13.8865 -8.0464
# 4 1.3883 -10.2516 -14.2276 44.1306 -5.0556 5.3759
# 5 13.4916 5.3249 13.8865 -5.0556 53.6246 -3.0234
# 6 -5.6570 -7.4972 -8.0464 5.3759 -3.0234 42.8474
#
#
#
# Elastic Compliance Matrix: (Units=1/GPa)
#
#
# Indices 1 2 3 4 5 6 
#
# 1 0.018209 -0.001954 -0.003877 -0.002861 -0.003572 0.001441
# 2 -0.001954 0.013702 -0.000143 0.002937 -0.000458 0.001712
# 3 -0.003877 -0.000143 0.010272 0.003138 -0.001323 0.000905
# 4 -0.002861 0.002937 0.003138 0.024932 0.001838 -0.002273
# 5 -0.003572 -0.000458 -0.001323 0.001838 0.020130 0.000390
# 6 0.001441 0.001712 0.000905 -0.002273 0.000390 0.024311
#
#
# Mechanical properties :
#
#
# Convention : Reuss Voigt Hill
#
# Bulk Modulus (GPa) = 33.07581 38.88498 35.98039
# Shear Modulus (GPa) = 37.43008 42.17432 39.80220
#
# Velocity S-wave (km/s) = 3.84301 4.07929 3.96291
# Velocity P-wave (km/s) = 5.72208 6.12619 5.92758
#
# Compressibility (1/GPa) = 0.03023358
#
# Stress axis : x y z
#
# Youngs Moduli (GPa) = 54.91909 72.98076 97.35368
#
# Poissons Ratio (x) = 0.14261 0.37745
# Poissons Ratio (y) = 0.10732 0.01396
# Poissons Ratio (z) = 0.21293 0.01046
#
# Static dielectric constant tensor:
#      x y z
#    x 2.027610 0.018850 0.044180 
#    y 0.018850 2.069960 0.011780 
#    z 0.044180 0.011780 2.016580 
# 
# From -- ./inp_files/208201.got.cif
#   From: 2010.05.17/outbox.cif.g08.bks.cpg/sg2_105_cif.got.tgz:208201.got - 2010.06.03 11:33:40.
