data_PCOD9111347
_publ_section_title
;
Structure prediction by ZEFSAII (Michael W. Deem and Ramdas Pophale) SiO2 
 PCOD9111347
Probable space group: P -1
;
_chemical_formula_sum "Si O2"
_cell_formula_units_Z 16
_cell_length_a 14.136342
_cell_length_b 11.631539
_cell_length_c 9.278361
_cell_angle_alpha 102.820357
_cell_angle_beta 88.638311
_cell_angle_gamma 32.804573
_cell_volume 739.340688
_symmetry_space_group_name_H-M "P -1"
_symmetry_group_IT_number 2
_symmetry_cell_setting 'triclinic'
loop_
_space_group_symop_operation_xyz
x,y,z
-x,-y,-z
loop_
_atom_site_type_symbol
_atom_site_label
_atom_site_fract_x
_atom_site_fract_y
_atom_site_fract_z
Si Si1 0.183531 0.750911 0.341943
Si Si2 0.748654 0.932720 0.134090
Si Si3 0.487563 0.650664 0.573004
Si Si4 0.873910 0.428699 0.848769
Si Si5 0.332240 0.846510 0.319176
Si Si6 0.544191 0.114026 0.897810
Si Si7 0.958667 0.409975 0.519609
Si Si8 0.552375 0.892231 0.622003
O O1 0.321682 0.535814 0.391659
O O2 0.124945 0.713797 0.220100
O O3 0.290417 0.752285 0.280961
O O4 0.000000 0.000000 0.500000
O O5 0.619569 0.991964 0.262690
O O6 0.973083 0.688423 0.077019
O O7 0.680300 0.133997 0.250992
O O8 0.685980 0.975238 0.986913
O O9 0.500000 0.500000 0.500000
O O10 0.431889 0.762419 0.448281
O O11 0.933761 0.422691 0.694924
O O12 0.661567 0.689307 0.973585
O O13 0.456978 0.766579 0.164947
O O14 0.131655 0.135012 0.398577
O O15 0.595910 0.952420 0.745158
O O16 0.000000 0.500000 0.500000
O O17 0.750303 0.608416 0.517250
O O18 0.500000 0.000000 0.500000
#
# Coordination Sequence:
#
# PCOD9111347 Si02
#       8
#     2   2   2   2   2   2   2   2
#     4  11  21  43  76 107 139 189 246 299 353 433
#     4  12  24  45  68 103 146 190 236 299 363 430
#     4  10  20  42  73  99 134 187 239 293 353 422
#     4  12  25  45  71 103 148 191 242 294 370 426
#     4  11  24  44  75 107 144 188 249 298 362 430
#     4  12  27  47  68 108 150 187 234 306 373 424
#     4  12  22  43  74 104 143 187 246 298 351 439
#     4  12  26  45  74 103 143 193 247 300 360 431
#
# _framework density 21.640902000000001
#
# number of rings (size 3 to 8) (size 9 to 14) (size 15 to 20)
#    0.000    0.500    6.250    2.625    0.000    2.000 
#    2.250    0.625    0.000    0.000    0.000    0.000 
#    0.000    0.000    0.000    0.000    0.000    0.000 
#
# Total GULP energy -89425.606148 kJ/mol
# GULP energy per Si atom -5589.100384 kJ/mol
# Density = 2.159165 g / cm^3
# Si number density = 21.640902 Si / 1000 Ang^3
#
#
#
# Elastic Constant Matrix: (Units=GPa)
#
#
# Indices 1 2 3 4 5 6 
#
# 1 125.1367 32.2608 24.6551 -17.0664 -2.2375 6.5640
# 2 32.2608 107.7339 12.1704 -21.5253 8.5868 -19.9333
# 3 24.6551 12.1704 77.8166 -21.4071 8.1950 -2.9979
# 4 -17.0664 -21.5253 -21.4071 37.3691 -3.4686 5.2513
# 5 -2.2375 8.5868 8.1950 -3.4686 32.1996 -5.8807
# 6 6.5640 -19.9333 -2.9979 5.2513 -5.8807 50.5608
#
#
#
# Elastic Compliance Matrix: (Units=1/GPa)
#
#
# Indices 1 2 3 4 5 6 
#
# 1 0.009610 -0.002830 -0.002356 0.001925 0.001773 -0.002497
# 2 -0.002830 0.012088 0.000886 0.005354 -0.002272 0.004365
# 3 -0.002356 0.000886 0.016128 0.008297 -0.003549 0.000337
# 4 0.001925 0.005354 0.008297 0.035681 0.000195 -0.001330
# 5 0.001773 -0.002272 -0.003549 0.000195 0.033167 0.002501
# 6 -0.002497 0.004365 0.000337 -0.001330 0.002501 0.022272
#
#
# Mechanical properties :
#
#
# Convention : Reuss Voigt Hill
#
# Bulk Modulus (GPa) = 34.21547 49.87332 42.04439
# Shear Modulus (GPa) = 33.94729 40.13262 37.03996
#
# Velocity S-wave (km/s) = 3.96493 4.31104 4.14160
# Velocity P-wave (km/s) = 6.06678 6.91925 6.50699
#
# Compressibility (1/GPa) = 0.02922655
#
# Stress axis : x y z
#
# Youngs Moduli (GPa) = 104.05548 82.72652 62.00538
#
# Poissons Ratio (x) = 0.23415 0.14607
# Poissons Ratio (y) = 0.29452 -0.05497
# Poissons Ratio (z) = 0.24512 -0.07334
#
# Static dielectric constant tensor:
#      x y z
#    x 1.903900 0.044760 0.071650 
#    y 0.044760 1.872650 0.067200 
#    z 0.071650 0.067200 1.829940 
# 
# From -- ./inp_files/307743.got.cif
#   From: 2010.05.17/outbox.cif.g08.bks.cpg/sg2_154_cif.got.tgz:307743.got - 2010.06.03 11:33:40.
