data_PCOD9111761
_publ_section_title
;
Structure prediction by ZEFSAII (Michael W. Deem and Ramdas Pophale) SiO2 
 PCOD9111761
Probable space group: P -1
;
_chemical_formula_sum "Si O2"
_cell_formula_units_Z 16
_cell_length_a 16.930498
_cell_length_b 8.158241
_cell_length_c 9.844640
_cell_angle_alpha 133.807138
_cell_angle_beta 58.655700
_cell_angle_gamma 128.114689
_cell_volume 761.667701
_symmetry_space_group_name_H-M "P -1"
_symmetry_group_IT_number 2
_symmetry_cell_setting 'triclinic'
loop_
_space_group_symop_operation_xyz
x,y,z
-x,-y,-z
loop_
_atom_site_type_symbol
_atom_site_label
_atom_site_fract_x
_atom_site_fract_y
_atom_site_fract_z
Si Si1 0.378410 0.918887 0.584502
Si Si2 0.617973 0.059047 0.955447
Si Si3 0.385680 0.313338 0.025562
Si Si4 0.933982 0.450312 0.663166
Si Si5 0.757235 0.381471 0.246790
Si Si6 0.948118 0.269479 0.017398
Si Si7 0.713804 0.309461 0.731745
Si Si8 0.934186 0.934022 0.384567
O O1 0.314500 0.667899 0.585124
O O2 0.320907 0.883373 0.473308
O O3 0.500000 0.000000 0.500000
O O4 0.364014 0.116560 0.810179
O O5 0.669978 0.150204 0.815835
O O6 0.622961 0.826462 0.902240
O O7 0.681150 0.285428 0.132226
O O8 0.500000 0.000000 0.000000
O O9 0.328268 0.488741 0.158352
O O10 0.500000 0.500000 0.000000
O O11 0.831594 0.478180 0.746586
O O12 0.000000 0.500000 0.500000
O O13 0.001489 0.621170 0.820996
O O14 0.897162 0.153388 0.543039
O O15 0.830060 0.227698 0.099318
O O16 0.838718 0.666567 0.323635
O O17 0.000000 0.500000 0.000000
O O18 0.989205 0.072044 0.807970
O O19 0.000000 0.000000 0.500000
#
# Coordination Sequence:
#
# PCOD9111761 Si02
#       8
#     2   2   2   2   2   2   2   2
#     4  11  23  43  68 102 140 180 240 295 344 431
#     4  11  23  43  73 105 139 181 241 298 348 431
#     4  11  23  47  71  96 141 190 227 294 372 411
#     4  12  27  44  66 107 147 180 242 300 351 433
#     4  10  22  42  73 104 141 192 239 286 369 427
#     4  10  20  43  69  99 139 182 235 290 347 432
#     4  12  25  43  71 103 141 184 237 294 360 420
#     4  11  23  43  74 100 138 185 239 291 359 424
#
# _framework density 21.006536000000001
#
# number of rings (size 3 to 8) (size 9 to 14) (size 15 to 20)
#    0.000    1.000    5.000    3.000    0.000    5.500 
#    0.000    1.875    0.000    0.000    0.000    0.000 
#    0.000    0.000    0.000    0.000    0.000    0.000 
#
# Total GULP energy -89235.395236 kJ/mol
# GULP energy per Si atom -5577.212202 kJ/mol
# Density = 2.095872 g / cm^3
# Si number density = 21.006536 Si / 1000 Ang^3
#
#
#
# Elastic Constant Matrix: (Units=GPa)
#
#
# Indices 1 2 3 4 5 6 
#
# 1 144.0207 41.6266 52.5143 -9.9021 16.4107 16.6527
# 2 41.6266 108.8980 31.9321 -17.9228 12.9104 7.8813
# 3 52.5143 31.9321 122.5700 -16.0206 33.1145 1.3298
# 4 -9.9021 -17.9228 -16.0206 46.9379 -7.7820 -0.6245
# 5 16.4107 12.9104 33.1145 -7.7820 53.0941 1.9616
# 6 16.6527 7.8813 1.3298 -0.6245 1.9616 46.9356
#
#
#
# Elastic Compliance Matrix: (Units=1/GPa)
#
#
# Indices 1 2 3 4 5 6 
#
# 1 0.009131 -0.002344 -0.003251 -0.000139 -0.000143 -0.002750
# 2 -0.002344 0.011129 -0.001284 0.003192 -0.000678 -0.000930
# 3 -0.003251 -0.001284 0.011665 0.001872 -0.005732 0.001303
# 4 -0.000139 0.003192 0.001872 0.023384 0.001537 -0.000293
# 5 -0.000143 -0.000678 -0.005732 0.001537 0.022867 -0.000608
# 6 -0.002750 -0.000930 0.001303 -0.000293 -0.000608 0.022422
#
#
# Mechanical properties :
#
#
# Convention : Reuss Voigt Hill
#
# Bulk Modulus (GPa) = 55.04768 69.73718 62.39243
# Shear Modulus (GPa) = 41.52400 46.02123 43.77262
#
# Velocity S-wave (km/s) = 4.45085 4.68568 4.56978
# Velocity P-wave (km/s) = 7.25778 7.90848 7.59011
#
# Compressibility (1/GPa) = 0.01816607
#
# Stress axis : x y z
#
# Youngs Moduli (GPa) = 109.51574 89.85928 85.72382
#
# Poissons Ratio (x) = 0.21062 0.27869
# Poissons Ratio (y) = 0.25669 0.11011
# Poissons Ratio (z) = 0.35604 0.11542
#
# Static dielectric constant tensor:
#      x y z
#    x 1.678240 0.037880 0.013510 
#    y 0.037880 1.884840 0.040980 
#    z 0.013510 0.040980 1.772780 
# 
# From -- ./inp_files/329545.got.cif
#   From: 2010.05.17/outbox.cif.g08.bks.cpg/sg2_165_cif.got.tgz:329545.got - 2010.06.03 11:33:40.
