data_PCOD9111234
_publ_section_title
;
Structure prediction by ZEFSAII (Michael W. Deem and Ramdas Pophale) SiO2 
 PCOD9111234
Probable space group: P -1
;
_chemical_formula_sum "Si O2"
_cell_formula_units_Z 15
_cell_length_a 9.342401
_cell_length_b 7.169396
_cell_length_c 23.314853
_cell_angle_alpha 146.534831
_cell_angle_beta 41.694444
_cell_angle_gamma 129.084043
_cell_volume 572.660202
_symmetry_space_group_name_H-M "P -1"
_symmetry_group_IT_number 2
_symmetry_cell_setting 'triclinic'
loop_
_space_group_symop_operation_xyz
x,y,z
-x,-y,-z
loop_
_atom_site_type_symbol
_atom_site_label
_atom_site_fract_x
_atom_site_fract_y
_atom_site_fract_z
Si Si1 0.017924 0.854558 0.840801
Si Si2 0.865263 0.154964 0.854452
Si Si3 0.507755 0.624895 0.806604
Si Si4 0.000000 0.000000 0.500000
Si Si5 0.312499 0.122957 0.919270
Si Si6 0.331906 0.354818 0.576999
Si Si7 0.318962 0.737694 0.237588
Si Si8 0.682833 0.909949 0.357246
O O1 0.230534 0.719639 0.708721
O O2 0.846476 0.541110 0.811650
O O3 0.118618 0.965291 0.899173
O O4 0.917210 0.133269 0.900945
O O5 0.087237 0.148868 0.753411
O O6 0.740605 0.808311 0.786210
O O7 0.729897 0.480464 0.962824
O O8 0.501922 0.450250 0.825204
O O9 0.473046 0.356195 0.697620
O O10 0.342308 0.919655 0.917193
O O11 0.188091 0.161621 0.524515
O O12 0.823431 0.054584 0.621937
O O13 0.538482 0.075669 0.805363
O O14 0.301114 0.179770 0.603919
O O15 0.582079 0.277773 0.471717
#
# Coordination Sequence:
#
# PCOD9111234 Si02
#       8
#     2   2   2   1   2   2   2   2
#     4  10  23  44  67 102 130 182 228 271 356 396
#     4  11  27  44  67 104 136 177 237 276 338 415
#     4  11  24  45  68 104 135 183 231 270 355 395
#     4  10  20  42  70  96 132 178 214 280 340 388
#     4  12  25  46  71 101 137 184 232 280 337 408
#     4  10  22  43  71  96 137 178 222 280 349 398
#     4  10  24  45  67  99 144 172 226 291 330 403
#     4  11  23  46  66  99 143 172 222 293 327 413
#
# _framework density 26.193542999999998
#
# number of rings (size 3 to 8) (size 9 to 14) (size 15 to 20)
#    0.000    1.333    2.667    1.600    3.733    4.267 
#    7.200    3.333    0.000    0.000    0.000    0.000 
#    0.000    0.000    0.000    0.000    0.000    0.000 
#
# Total GULP energy -83826.652940 kJ/mol
# GULP energy per Si atom -5588.443529 kJ/mol
# Density = 2.613393 g / cm^3
# Si number density = 26.193543 Si / 1000 Ang^3
#
#
#
# Elastic Constant Matrix: (Units=GPa)
#
#
# Indices 1 2 3 4 5 6 
#
# 1 135.4471 47.6902 14.4092 2.2938 18.1535 0.9111
# 2 47.6902 81.9755 29.3624 -5.9563 7.6861 12.7601
# 3 14.4092 29.3624 110.4265 -24.8920 -6.6747 3.1279
# 4 2.2938 -5.9563 -24.8920 41.6632 -0.3107 3.6293
# 5 18.1535 7.6861 -6.6747 -0.3107 59.6252 14.2585
# 6 0.9111 12.7601 3.1279 3.6293 14.2585 43.6327
#
#
#
# Elastic Compliance Matrix: (Units=1/GPa)
#
#
# Indices 1 2 3 4 5 6 
#
# 1 0.009912 -0.005897 -0.000404 -0.001885 -0.002950 0.002667
# 2 -0.005897 0.017725 -0.003511 0.001200 0.000323 -0.005014
# 3 -0.000404 -0.003511 0.011695 0.006617 0.002174 -0.001064
# 4 -0.001885 0.001200 0.006617 0.028586 0.002240 -0.003896
# 5 -0.002950 0.000323 0.002174 0.002240 0.019496 -0.006746
# 6 0.002667 -0.005014 -0.001064 -0.003896 -0.006746 0.026934
#
#
# Mechanical properties :
#
#
# Convention : Reuss Voigt Hill
#
# Bulk Modulus (GPa) = 50.74498 56.75253 53.74875
# Shear Modulus (GPa) = 35.57655 44.74336 40.15995
#
# Velocity S-wave (km/s) = 3.68940 4.13750 3.91986
# Velocity P-wave (km/s) = 6.12895 6.67374 6.40714
#
# Compressibility (1/GPa) = 0.01970638
#
# Stress axis : x y z
#
# Youngs Moduli (GPa) = 100.89129 56.41897 85.50508
#
# Poissons Ratio (x) = 0.33270 0.03455
# Poissons Ratio (y) = 0.59496 0.30025
# Poissons Ratio (z) = 0.04076 0.19811
#
# Static dielectric constant tensor:
#      x y z
#    x 1.996320 -0.031750 -0.027030 
#    y -0.031750 2.026300 -0.015850 
#    z -0.027030 -0.015850 2.117640 
# 
# From -- ./inp_files/227672.got.cif
#   From: 2010.05.17/outbox.cif.g08.bks.cpg/sg2_114_cif.got.tgz:227672.got - 2010.06.03 11:33:40.
