data_PCOD9111369
_publ_section_title
;
Structure prediction by ZEFSAII (Michael W. Deem and Ramdas Pophale) SiO2 
 PCOD9111369
Probable space group: P -1
;
_chemical_formula_sum "Si O2"
_cell_formula_units_Z 14
_cell_length_a 8.849853
_cell_length_b 8.952467
_cell_length_c 17.918682
_cell_angle_alpha 55.511501
_cell_angle_beta 29.161957
_cell_angle_gamma 63.582203
_cell_volume 565.830051
_symmetry_space_group_name_H-M "P -1"
_symmetry_group_IT_number 2
_symmetry_cell_setting 'triclinic'
loop_
_space_group_symop_operation_xyz
x,y,z
-x,-y,-z
loop_
_atom_site_type_symbol
_atom_site_label
_atom_site_fract_x
_atom_site_fract_y
_atom_site_fract_z
Si Si1 0.160881 0.061883 0.638523
Si Si2 0.845572 0.523794 0.875713
Si Si3 0.273912 0.100534 0.227577
Si Si4 0.738778 0.491666 0.678947
Si Si5 0.743691 0.884472 0.001534
Si Si6 0.336008 0.732699 0.849870
Si Si7 0.829859 0.593111 0.358563
O O1 0.210789 0.245553 0.613410
O O2 0.500000 0.000000 0.500000
O O3 0.990234 0.067149 0.630274
O O4 0.896137 0.945121 0.838639
O O5 0.923369 0.735537 0.762334
O O6 0.013316 0.380156 0.797281
O O7 0.500000 0.500000 0.000000
O O8 0.823712 0.454028 0.988298
O O9 0.429899 0.957303 0.930407
O O10 0.418019 0.155509 0.230742
O O11 0.515656 0.651460 0.726843
O O12 0.000000 0.500000 0.500000
O O13 0.936287 0.517593 0.663694
O O14 0.512065 0.297650 0.836800
O O15 0.053764 0.845251 0.922431
O O16 0.500000 0.500000 0.500000
#
# Coordination Sequence:
#
# PCOD9111369 Si02
#       7
#     2   2   2   2   2   2   2
#     4  12  27  45  76 111 146 191 249 307 364 429
#     4  10  20  42  75 102 137 190 250 288 355 432
#     4  11  22  44  74 106 145 190 246 305 356 432
#     4  12  28  49  72 107 151 196 242 300 366 439
#     4  12  27  47  73 110 152 190 242 307 373 424
#     4  11  25  45  72 109 145 198 239 298 371 441
#     4  12  26  47  75 105 144 195 251 299 357 443
#
# _framework density 24.742411000000001
#
# number of rings (size 3 to 8) (size 9 to 14) (size 15 to 20)
#    0.000    0.571    4.286    4.714    6.000    0.000 
#    0.000    1.429    0.000    0.000    0.000    0.000 
#    0.000    0.000    0.000    0.000    0.000    0.000 
#
# Total GULP energy -78093.898025 kJ/mol
# GULP energy per Si atom -5578.135573 kJ/mol
# Density = 2.468610 g / cm^3
# Si number density = 24.742411 Si / 1000 Ang^3
#
#
#
# Elastic Constant Matrix: (Units=GPa)
#
#
# Indices 1 2 3 4 5 6 
#
# 1 95.5214 41.2032 33.0711 -5.9939 -30.7405 11.6320
# 2 41.2032 145.1399 50.1926 26.9203 -17.8581 17.1625
# 3 33.0711 50.1926 129.9473 12.1734 -20.9756 15.0358
# 4 -5.9939 26.9203 12.1734 51.6532 4.3387 -4.9729
# 5 -30.7405 -17.8581 -20.9756 4.3387 49.1886 -2.0926
# 6 11.6320 17.1625 15.0358 -4.9729 -2.0926 44.4636
#
#
#
# Elastic Compliance Matrix: (Units=1/GPa)
#
#
# Indices 1 2 3 4 5 6 
#
# 1 0.015121 -0.003258 -0.001527 0.003057 0.007282 -0.001497
# 2 -0.003258 0.010005 -0.002009 -0.005490 0.001101 -0.002893
# 3 -0.001527 -0.002009 0.009692 -0.001837 0.002518 -0.002189
# 4 0.003057 -0.005490 -0.001837 0.023670 -0.002764 0.004458
# 5 0.007282 0.001101 0.002518 -0.002764 0.026503 -0.002243
# 6 -0.001497 -0.002893 -0.002189 0.004458 -0.002243 0.025132
#
#
# Mechanical properties :
#
#
# Convention : Reuss Voigt Hill
#
# Bulk Modulus (GPa) = 47.10494 68.83801 57.97148
# Shear Modulus (GPa) = 38.22987 45.47053 41.85020
#
# Velocity S-wave (km/s) = 3.93506 4.29156 4.11717
# Velocity P-wave (km/s) = 6.30283 7.24147 6.78840
#
# Compressibility (1/GPa) = 0.02122919
#
# Stress axis : x y z
#
# Youngs Moduli (GPa) = 66.13408 99.94661 103.17970
#
# Poissons Ratio (x) = 0.32567 0.15759
# Poissons Ratio (y) = 0.21549 0.20725
# Poissons Ratio (z) = 0.10101 0.20076
#
# Static dielectric constant tensor:
#      x y z
#    x 1.970580 -0.027900 0.108000 
#    y -0.027900 2.101440 -0.173870 
#    z 0.108000 -0.173870 2.239280 
# 
# From -- ./inp_files/556935.got.cif
#   From: 2010.05.17/outbox.cif.g08.bks.cpg/sg2_279_cif.got.tgz:556935.got - 2010.06.03 11:33:40.
