data_PCOD9111164
_publ_section_title
;
Structure prediction by ZEFSAII (Michael W. Deem and Ramdas Pophale) SiO2 
 PCOD9111164
Probable space group: P -1
;
_chemical_formula_sum "Si O2"
_cell_formula_units_Z 14
_cell_length_a 19.311368
_cell_length_b 13.102791
_cell_length_c 7.642216
_cell_angle_alpha 140.469274
_cell_angle_beta 126.129258
_cell_angle_gamma 27.166041
_cell_volume 529.999118
_symmetry_space_group_name_H-M "P -1"
_symmetry_group_IT_number 2
_symmetry_cell_setting 'triclinic'
loop_
_space_group_symop_operation_xyz
x,y,z
-x,-y,-z
loop_
_atom_site_type_symbol
_atom_site_label
_atom_site_fract_x
_atom_site_fract_y
_atom_site_fract_z
Si Si1 0.095297 0.674087 0.366137
Si Si2 0.450525 0.290349 0.886123
Si Si3 0.614453 0.555500 0.403949
Si Si4 0.204039 0.209061 0.128350
Si Si5 0.880787 0.308556 0.969846
Si Si6 0.676437 0.152359 0.491682
Si Si7 0.858040 0.893094 0.772317
O O1 0.258305 0.519106 0.433066
O O2 0.085004 0.666169 0.133013
O O3 0.108860 0.489856 0.247149
O O4 0.952389 0.015597 0.670514
O O5 0.305247 0.408021 0.887555
O O6 0.397770 0.553758 0.211294
O O7 0.624556 0.985963 0.821182
O O8 0.454724 0.281626 0.670810
O O9 0.470155 0.741102 0.563616
O O10 0.715286 0.234757 0.086603
O O11 0.240130 0.007956 0.780870
O O12 0.127944 0.264037 0.265856
O O13 0.987757 0.234315 0.170399
O O14 0.792621 0.941137 0.551572
#
# Coordination Sequence:
#
# PCOD9111164 Si02
#       7
#     2   2   2   2   2   2   2
#     4  10  25  43  66  98 139 174 226 273 338 401
#     4  11  22  41  74 102 128 179 230 272 336 395
#     4  10  20  42  69  98 136 173 226 280 325 402
#     4  12  24  42  74 101 130 179 227 277 333 390
#     4  10  24  46  68  93 141 179 218 277 340 404
#     4  11  22  39  70 105 133 173 226 280 327 403
#     4  10  22  44  66  97 139 174 223 274 333 402
#
# _framework density 26.415139
#
# number of rings (size 3 to 8) (size 9 to 14) (size 15 to 20)
#    0.000    1.429    2.857    2.143    6.000    8.571 
#    2.571    0.714    0.000    0.000    0.000    0.000 
#    0.000    0.000    0.000    0.000    0.000    0.000 
#
# Total GULP energy -78695.250284 kJ/mol
# GULP energy per Si atom -5621.089306 kJ/mol
# Density = 2.635502 g / cm^3
# Si number density = 26.415139 Si / 1000 Ang^3
#
#
#
# Elastic Constant Matrix: (Units=GPa)
#
#
# Indices 1 2 3 4 5 6 
#
# 1 116.8364 32.6072 26.1745 6.5032 -13.4824 -15.5589
# 2 32.6072 113.8808 18.4855 -6.4511 4.8694 -0.4742
# 3 26.1745 18.4855 80.3201 -2.4161 -7.9856 8.0975
# 4 6.5032 -6.4511 -2.4161 36.9414 13.1697 9.8155
# 5 -13.4824 4.8694 -7.9856 13.1697 31.3902 -2.7727
# 6 -15.5589 -0.4742 8.0975 9.8155 -2.7727 62.7554
#
#
#
# Elastic Compliance Matrix: (Units=1/GPa)
#
#
# Indices 1 2 3 4 5 6 
#
# 1 0.012395 -0.003836 -0.003016 -0.007489 0.008734 0.004990
# 2 -0.003836 0.010647 -0.001465 0.005011 -0.005927 -0.001727
# 3 -0.003016 -0.001465 0.014260 0.001299 0.001774 -0.002724
# 4 -0.007489 0.005011 0.001299 0.039206 -0.020911 -0.009042
# 5 0.008734 -0.005927 0.001774 -0.020911 0.046389 0.007212
# 6 0.004990 -0.001727 -0.002724 -0.009042 0.007212 0.019244
#
#
# Mechanical properties :
#
#
# Convention : Reuss Voigt Hill
#
# Bulk Modulus (GPa) = 48.38432 51.73017 50.05725
# Shear Modulus (GPa) = 30.18152 41.80206 35.99179
#
# Velocity S-wave (km/s) = 3.38388 3.98239 3.69527
# Velocity P-wave (km/s) = 5.79864 6.38529 6.09902
#
# Compressibility (1/GPa) = 0.02066785
#
# Stress axis : x y z
#
# Youngs Moduli (GPa) = 80.68025 93.91984 70.12498
#
# Poissons Ratio (x) = 0.36030 0.21151
# Poissons Ratio (y) = 0.30951 0.10271
# Poissons Ratio (z) = 0.24335 0.13757
#
# Static dielectric constant tensor:
#      x y z
#    x 1.999160 -0.017310 0.016370 
#    y -0.017310 2.023440 0.029180 
#    z 0.016370 0.029180 2.054470 
# 
# From -- ./inp_files/215139.got.cif
#   From: 2010.05.17/outbox.cif.g08.bks.cpg/sg2_108_cif.got.tgz:215139.got - 2010.06.03 11:33:40.
