data_PCOD9111240
_publ_section_title
;
Structure prediction by ZEFSAII (Michael W. Deem and Ramdas Pophale) SiO2 
 PCOD9111240
Probable space group: P -1
;
_chemical_formula_sum "Si O2"
_cell_formula_units_Z 14
_cell_length_a 16.840983
_cell_length_b 22.297338
_cell_length_c 5.739236
_cell_angle_alpha 60.313152
_cell_angle_beta 109.220207
_cell_angle_gamma 159.594962
_cell_volume 584.368288
_symmetry_space_group_name_H-M "P -1"
_symmetry_group_IT_number 2
_symmetry_cell_setting 'triclinic'
loop_
_space_group_symop_operation_xyz
x,y,z
-x,-y,-z
loop_
_atom_site_type_symbol
_atom_site_label
_atom_site_fract_x
_atom_site_fract_y
_atom_site_fract_z
Si Si1 0.139893 0.854839 0.297237
Si Si2 0.577980 0.220195 0.362607
Si Si3 0.782052 0.770031 0.501416
Si Si4 0.292708 0.242359 0.046851
Si Si5 0.744284 0.498303 0.982350
Si Si6 0.355989 0.880835 0.337215
Si Si7 0.951906 0.155942 0.181764
O O1 0.175504 0.806998 0.307387
O O2 0.921577 0.668474 0.628440
O O3 0.417303 0.086522 0.227548
O O4 0.069113 0.870201 0.063333
O O5 0.723972 0.261719 0.467601
O O6 0.335318 0.045304 0.636340
O O7 0.753150 0.423161 0.145452
O O8 0.635513 0.671305 0.794536
O O9 0.928135 0.811633 0.615615
O O10 0.662094 0.681905 0.296767
O O11 0.996039 0.995578 0.257340
O O12 0.454618 0.297823 0.066322
O O13 0.862870 0.634062 0.044589
O O14 0.500000 0.000000 0.500000
O O15 0.500000 0.000000 0.000000
#
# Coordination Sequence:
#
# PCOD9111240 Si02
#       7
#     2   2   2   2   2   2   2
#     4  10  24  41  67  97 134 169 223 271 324 398
#     4  10  22  43  68  91 134 177 215 269 332 388
#     4  10  23  41  67  91 128 175 222 268 328 394
#     4  10  23  42  64  95 127 173 222 271 327 394
#     4  11  25  41  64 101 131 171 222 272 330 392
#     4  10  20  42  70  97 130 178 221 264 332 392
#     4  11  23  41  65  97 130 174 218 272 326 398
#
# _framework density 23.957495999999999
#
# number of rings (size 3 to 8) (size 9 to 14) (size 15 to 20)
#    0.000    1.714    2.857    0.000    6.000    4.000 
#    0.000    0.714    0.000    0.000    0.000    0.000 
#    0.000    0.000    0.000    0.000    0.000    0.000 
#
# Total GULP energy -77941.660132 kJ/mol
# GULP energy per Si atom -5567.261438 kJ/mol
# Density = 2.390297 g / cm^3
# Si number density = 23.957496 Si / 1000 Ang^3
#
#
#
# Elastic Constant Matrix: (Units=GPa)
#
#
# Indices 1 2 3 4 5 6 
#
# 1 96.4583 23.7062 23.2683 17.8426 11.9605 -7.7875
# 2 23.7062 -3.0007 71.2624 7.3764 -4.5162 10.2105
# 3 23.2683 71.2624 52.5411 42.2981 35.2435 -23.7026
# 4 17.8426 7.3764 42.2981 47.5049 -6.5743 13.4564
# 5 11.9605 -4.5162 35.2435 -6.5743 42.6830 -4.8888
# 6 -7.7875 10.2105 -23.7026 13.4564 -4.8888 21.6563
#
#
#
# Elastic Compliance Matrix: (Units=1/GPa)
#
#
# Indices 1 2 3 4 5 6 
#
# 1 0.011570 0.000021 -0.003831 -0.001140 -0.000181 0.000625
# 2 0.000021 0.014003 0.013426 -0.020906 -0.010691 0.018677
# 3 -0.003831 0.013426 0.002559 -0.001894 -0.000347 -0.003808
# 4 -0.001140 -0.020906 -0.001894 0.029795 0.003064 -0.010448
# 5 -0.000181 -0.010691 -0.000347 0.003064 0.024036 0.008118
# 6 0.000625 0.018677 -0.003808 -0.010448 0.008118 0.041752
#
#
# Mechanical properties :
#
#
# Convention : Reuss Voigt Hill
#
# Bulk Modulus (GPa) = 21.11340 42.49697 31.80518
# Shear Modulus (GPa) = 41.57235 24.21964 32.89599
#
# Velocity S-wave (km/s) = 4.17016 3.18298 3.70955
# Velocity P-wave (km/s) = 5.65853 5.59334 5.62603
#
# Compressibility (1/GPa) = 0.04736328
#
# Stress axis : x y z
#
# Youngs Moduli (GPa) = 86.43070 71.41318 390.71389
#
# Poissons Ratio (x) = -0.00147 1.49685
# Poissons Ratio (y) = -0.00178 -5.24569
# Poissons Ratio (z) = 0.33112 -0.95879
#
# Static dielectric constant tensor:
#      x y z
#    x 1.962420 -0.076730 -0.024810 
#    y -0.076730 1.944200 0.009250 
#    z -0.024810 0.009250 1.826350 
# 
# From -- ./inp_files/47177.got.cif
#   From: 2010.05.17/outbox.cif.g08.bks.cpg/sg2_24_cif.got.tgz:47177.got - 2010.06.03 11:33:40.
