data_PCOD9111788
_publ_section_title
;
Structure prediction by ZEFSAII (Michael W. Deem and Ramdas Pophale) SiO2 
 PCOD9111788
Probable space group: P -1
;
_chemical_formula_sum "Si O2"
_cell_formula_units_Z 16
_cell_length_a 11.373410
_cell_length_b 11.175808
_cell_length_c 14.642984
_cell_angle_alpha 30.448509
_cell_angle_beta 118.078504
_cell_angle_gamma 128.379499
_cell_volume 729.561973
_symmetry_space_group_name_H-M "P -1"
_symmetry_group_IT_number 2
_symmetry_cell_setting 'triclinic'
loop_
_space_group_symop_operation_xyz
x,y,z
-x,-y,-z
loop_
_atom_site_type_symbol
_atom_site_label
_atom_site_fract_x
_atom_site_fract_y
_atom_site_fract_z
Si Si1 0.565920 0.309756 0.682108
Si Si2 0.770123 0.365409 0.561962
Si Si3 0.535144 0.994189 0.411078
Si Si4 0.981247 0.559539 0.113542
Si Si5 0.748970 0.496686 0.805560
Si Si6 0.052359 0.918063 0.255120
Si Si7 0.339422 0.731070 0.897607
Si Si8 0.860276 0.056544 0.518155
O O1 0.500000 0.500000 0.500000
O O2 0.718673 0.380214 0.635388
O O3 0.618205 0.368602 0.766793
O O4 0.438052 0.014658 0.798316
O O5 0.839282 0.161542 0.711451
O O6 0.889835 0.650796 0.376912
O O7 0.614241 0.248393 0.525676
O O8 0.579876 0.236289 0.193051
O O9 0.688031 0.974409 0.481655
O O10 0.500000 0.000000 0.500000
O O11 0.837052 0.365920 0.124895
O O12 0.958520 0.365215 0.318894
O O13 0.143859 0.642714 0.073185
O O14 0.960258 0.821016 0.951762
O O15 0.871146 0.812594 0.633661
O O16 0.673544 0.470774 0.894369
O O17 0.112915 0.956183 0.356321
#
# Coordination Sequence:
#
# PCOD9111788 Si02
#       8
#     2   2   2   2   2   2   2   2
#     4  11  24  44  70  98 143 182 231 289 353 413
#     4  10  23  43  68  99 133 186 225 291 350 403
#     4  10  20  43  70  96 134 177 230 283 348 409
#     4  11  24  42  68 104 138 184 230 285 346 417
#     4  12  23  43  68 103 144 181 233 283 352 416
#     4  11  23  44  70  95 143 176 238 286 343 415
#     4  10  23  40  66 103 135 179 233 278 343 417
#     4  11  23  42  70 100 135 184 231 284 351 409
#
# _framework density 21.930968
#
# number of rings (size 3 to 8) (size 9 to 14) (size 15 to 20)
#    0.000    1.250    2.500    4.125    1.750    0.000 
#    2.250   16.875    0.000    0.000    0.000    0.000 
#    0.000    0.000    0.000    0.000    0.000    0.000 
#
# Total GULP energy -89229.207858 kJ/mol
# GULP energy per Si atom -5576.825491 kJ/mol
# Density = 2.188105 g / cm^3
# Si number density = 21.930968 Si / 1000 Ang^3
#
#
#
# Elastic Constant Matrix: (Units=GPa)
#
#
# Indices 1 2 3 4 5 6 
#
# 1 85.0084 32.1985 44.8239 -2.2928 4.4755 1.8429
# 2 32.1985 96.4405 32.3439 11.2107 -9.9155 13.7690
# 3 44.8239 32.3439 124.9034 -10.1408 1.2672 -17.3829
# 4 -2.2928 11.2107 -10.1408 32.1176 -6.4951 -7.5108
# 5 4.4755 -9.9155 1.2672 -6.4951 29.9831 -1.0825
# 6 1.8429 13.7690 -17.3829 -7.5108 -1.0825 38.5295
#
#
#
# Elastic Compliance Matrix: (Units=1/GPa)
#
#
# Indices 1 2 3 4 5 6 
#
# 1 0.016056 -0.003733 -0.005043 -0.000298 -0.003550 -0.001867
# 2 -0.003733 0.015988 -0.004851 -0.008791 0.003808 -0.009330
# 3 -0.005043 -0.004851 0.012999 0.007753 0.000617 0.009368
# 4 -0.000298 -0.008791 0.007753 0.041392 0.006314 0.014900
# 5 -0.003550 0.003808 0.000617 0.006314 0.036532 0.001344
# 6 -0.001867 -0.009330 0.009368 0.014900 0.001344 0.036547
#
#
# Mechanical properties :
#
#
# Convention : Reuss Voigt Hill
#
# Bulk Modulus (GPa) = 56.21727 58.34276 57.28001
# Shear Modulus (GPa) = 25.94724 33.25844 29.60284
#
# Velocity S-wave (km/s) = 3.44340 3.89846 3.67797
# Velocity P-wave (km/s) = 6.44195 6.85016 6.64919
#
# Compressibility (1/GPa) = 0.01778813
#
# Stress axis : x y z
#
# Youngs Moduli (GPa) = 62.28141 62.54713 76.92678
#
# Poissons Ratio (x) = 0.23349 0.38797
# Poissons Ratio (y) = 0.23250 0.37319
# Poissons Ratio (z) = 0.31411 0.30343
#
# Static dielectric constant tensor:
#      x y z
#    x 1.879280 -0.072530 -0.015920 
#    y -0.072530 1.896280 -0.028010 
#    z -0.015920 -0.028010 1.911660 
# 
# From -- ./inp_files/518586.got.cif
#   From: 2010.05.17/outbox.cif.g08.bks.cpg/sg2_260_cif.got.tgz:518586.got - 2010.06.03 11:33:40.
