data_PCOD9111576
_publ_section_title
;
Structure prediction by ZEFSAII (Michael W. Deem and Ramdas Pophale) SiO2 
 PCOD9111576
Probable space group: P -1
;
_chemical_formula_sum "Si O2"
_cell_formula_units_Z 16
_cell_length_a 11.445347
_cell_length_b 14.311729
_cell_length_c 12.599019
_cell_angle_alpha 158.043281
_cell_angle_beta 116.629132
_cell_angle_gamma 70.779008
_cell_volume 666.304133
_symmetry_space_group_name_H-M "P -1"
_symmetry_group_IT_number 2
_symmetry_cell_setting 'triclinic'
loop_
_space_group_symop_operation_xyz
x,y,z
-x,-y,-z
loop_
_atom_site_type_symbol
_atom_site_label
_atom_site_fract_x
_atom_site_fract_y
_atom_site_fract_z
Si Si1 0.490895 0.482284 0.602102
Si Si2 0.894485 0.986278 0.349224
Si Si3 0.236876 0.582435 0.329859
Si Si4 0.411226 0.897422 0.122480
Si Si5 0.559366 0.266255 0.739742
Si Si6 0.946691 0.719487 0.887849
Si Si7 0.788580 0.838104 0.753982
Si Si8 0.783649 0.466475 0.179928
O O1 0.500000 0.500000 0.500000
O O2 0.602743 0.327979 0.507650
O O3 0.341378 0.344820 0.433552
O O4 0.508877 0.763454 0.957018
O O5 0.830849 0.226931 0.561282
O O6 0.000000 0.000000 0.500000
O O7 0.791340 0.707418 0.033706
O O8 0.957953 0.947511 0.219163
O O9 0.167182 0.513927 0.346337
O O10 0.495390 0.165367 0.493062
O O11 0.274878 0.918119 0.026822
O O12 0.341524 0.703135 0.982374
O O13 0.500000 0.000000 0.500000
O O14 0.500000 0.500000 0.000000
O O15 0.720691 0.392463 0.958281
O O16 0.907098 0.814037 0.856995
O O17 0.083231 0.629329 0.848933
O O18 0.807817 0.741672 0.540312
#
# Coordination Sequence:
#
# PCOD9111576 Si02
#       8
#     2   2   2   2   2   2   2   2
#     4  11  23  41  64  95 135 177 223 282 336 398
#     4  10  23  45  66  96 133 177 223 276 330 398
#     4  10  24  43  67  96 134 173 225 276 333 391
#     4  10  24  38  67  98 131 177 226 282 340 401
#     4  10  20  43  66  94 131 168 219 276 330 394
#     4  10  24  39  66  97 133 180 217 272 334 408
#     4  11  22  40  65  95 134 174 226 275 341 399
#     4  10  22  42  62  97 134 173 221 277 338 404
#
# _framework density 24.013058000000001
#
# number of rings (size 3 to 8) (size 9 to 14) (size 15 to 20)
#    0.750    1.000    2.500    0.750    3.500    3.000 
#    0.000    0.000    0.000    0.000    0.000    0.000 
#    0.000    0.000    0.000    0.000    0.000    0.000 
#
# Total GULP energy -89157.313958 kJ/mol
# GULP energy per Si atom -5572.332122 kJ/mol
# Density = 2.395840 g / cm^3
# Si number density = 24.013058 Si / 1000 Ang^3
#
#
#
# Elastic Constant Matrix: (Units=GPa)
#
#
# Indices 1 2 3 4 5 6 
#
# 1 75.9696 33.4843 33.9787 -1.7259 -17.4391 -22.0470
# 2 33.4843 154.7027 25.0579 17.7456 -9.2383 -31.2716
# 3 33.9787 25.0579 69.6176 15.6320 -16.6017 -6.2107
# 4 -1.7259 17.7456 15.6320 41.7047 -3.7776 0.3508
# 5 -17.4391 -9.2383 -16.6017 -3.7776 21.6407 11.5180
# 6 -22.0470 -31.2716 -6.2107 0.3508 11.5180 44.8355
#
#
#
# Elastic Compliance Matrix: (Units=1/GPa)
#
#
# Indices 1 2 3 4 5 6 
#
# 1 0.021650 -0.002310 -0.008673 0.005781 0.007727 0.005803
# 2 -0.002310 0.008494 -0.001308 -0.003508 -0.002685 0.005325
# 3 -0.008673 -0.001308 0.023005 -0.007351 0.011406 -0.004863
# 4 0.005781 -0.003508 -0.007351 0.028795 0.003474 -0.001740
# 5 0.007727 -0.002685 0.011406 0.003474 0.068106 -0.014016
# 6 0.005803 0.005325 -0.004863 -0.001740 -0.014016 0.031812
#
#
# Mechanical properties :
#
#
# Convention : Reuss Voigt Hill
#
# Bulk Modulus (GPa) = 35.00422 53.92574 44.46498
# Shear Modulus (GPa) = 23.15204 35.48746 29.31975
#
# Velocity S-wave (km/s) = 3.10843 3.84844 3.49806
# Velocity P-wave (km/s) = 5.24328 6.50022 5.90529
#
# Compressibility (1/GPa) = 0.02856798
#
# Stress axis : x y z
#
# Youngs Moduli (GPa) = 46.19043 117.72892 43.46955
#
# Poissons Ratio (x) = 0.27192 0.37700
# Poissons Ratio (y) = 0.10669 0.05684
# Poissons Ratio (z) = 0.40060 0.15394
#
# Static dielectric constant tensor:
#      x y z
#    x 1.976950 0.110890 0.022850 
#    y 0.110890 1.900800 -0.050990 
#    z 0.022850 -0.050990 2.066640 
# 
# From -- ./inp_files/523521.got.cif
#   From: 2010.05.17/outbox.cif.g08.bks.cpg/sg2_262_cif.got.tgz:523521.got - 2010.06.03 11:33:40.
