data_PCOD9111273
_publ_section_title
;
Structure prediction by ZEFSAII (Michael W. Deem and Ramdas Pophale) SiO2 
 PCOD9111273
Probable space group: P -1
;
_chemical_formula_sum "Si O2"
_cell_formula_units_Z 16
_cell_length_a 8.600183
_cell_length_b 5.744685
_cell_length_c 17.272269
_cell_angle_alpha 111.231702
_cell_angle_beta 117.305641
_cell_angle_gamma 103.568795
_cell_volume 618.552815
_symmetry_space_group_name_H-M "P -1"
_symmetry_group_IT_number 2
_symmetry_cell_setting 'triclinic'
loop_
_space_group_symop_operation_xyz
x,y,z
-x,-y,-z
loop_
_atom_site_type_symbol
_atom_site_label
_atom_site_fract_x
_atom_site_fract_y
_atom_site_fract_z
Si Si1 0.205770 0.749779 0.805659
Si Si2 0.864053 0.741993 0.519393
Si Si3 0.555223 0.885850 0.420903
Si Si4 0.989015 0.296531 0.806016
Si Si5 0.099142 0.347864 0.058551
Si Si6 0.230785 0.331004 0.344950
Si Si7 0.679920 0.719560 0.017074
Si Si8 0.280609 0.838734 0.664803
O O1 0.335304 0.867193 0.771597
O O2 0.149567 0.445675 0.792097
O O3 0.983623 0.693993 0.726352
O O4 0.299980 0.973039 0.924957
O O5 0.780447 0.945230 0.495893
O O6 0.734783 0.580513 0.546783
O O7 0.816044 0.497860 0.416596
O O8 0.092371 0.894249 0.616380
O O9 0.402482 0.547345 0.354214
O O10 0.500000 0.000000 0.500000
O O11 0.564855 0.994286 0.348482
O O12 0.913233 0.509656 0.846993
O O13 0.115353 0.241672 0.893560
O O14 0.810300 0.992657 0.705505
O O15 0.312668 0.407417 0.079885
O O16 0.000000 0.500000 0.000000
O O17 0.000000 0.000000 0.000000
O O18 0.500000 0.500000 0.000000
#
# Coordination Sequence:
#
# PCOD9111273 Si02
#       8
#     2   2   2   2   2   2   2   2
#     4  10  22  43  64  92 132 173 217 265 340 407
#     4  10  22  41  63  90 129 177 221 264 337 396
#     4  12  24  40  66  95 131 174 228 286 328 388
#     4  10  22  41  72  92 131 177 221 271 335 409
#     4  10  20  42  71  98 127 175 223 270 337 417
#     4  10  23  39  65  95 127 174 225 278 331 387
#     4  10  22  43  67 100 131 164 217 276 341 407
#     4  10  23  41  66  95 128 175 221 270 333 402
#
# _framework density 25.866828999999999
#
# number of rings (size 3 to 8) (size 9 to 14) (size 15 to 20)
#    0.000    1.750    2.500    0.750    1.750    3.500 
#    4.500    0.000    0.000    0.000    0.000    0.000 
#    0.000    0.000    0.000    0.000    0.000    0.000 
#
# Total GULP energy -89314.584780 kJ/mol
# GULP energy per Si atom -5582.161549 kJ/mol
# Density = 2.580795 g / cm^3
# Si number density = 25.866829 Si / 1000 Ang^3
#
#
#
# Elastic Constant Matrix: (Units=GPa)
#
#
# Indices 1 2 3 4 5 6 
#
# 1 102.2844 39.2864 28.7031 0.9264 -20.9739 13.1015
# 2 39.2864 142.8983 28.9221 9.5257 -26.5211 32.6622
# 3 28.7031 28.9221 52.7534 5.4836 -25.5295 -6.0709
# 4 0.9264 9.5257 5.4836 50.3214 -1.3717 -1.8866
# 5 -20.9739 -26.5211 -25.5295 -1.3717 41.3205 -6.6570
# 6 13.1015 32.6622 -6.0709 -1.8866 -6.6570 54.4183
#
#
#
# Elastic Compliance Matrix: (Units=1/GPa)
#
#
# Indices 1 2 3 4 5 6 
#
# 1 0.012566 -0.001485 -0.005626 0.000610 0.001559 -0.002550
# 2 -0.001485 0.010135 -0.004256 -0.001595 0.002103 -0.005999
# 3 -0.005626 -0.004256 0.033785 -0.001953 0.016779 0.009663
# 4 0.000610 -0.001595 -0.001953 0.020391 -0.001055 0.001171
# 5 0.001559 0.002103 0.016779 -0.001055 0.037443 0.004778
# 6 -0.002550 -0.005999 0.009663 0.001171 0.004778 0.024294
#
#
# Mechanical properties :
#
#
# Convention : Reuss Voigt Hill
#
# Bulk Modulus (GPa) = 29.62549 54.63992 42.13270
# Shear Modulus (GPa) = 28.96907 42.61370 35.79138
#
# Velocity S-wave (km/s) = 3.35017 4.06325 3.72382
# Velocity P-wave (km/s) = 5.14225 6.57136 5.90024
#
# Compressibility (1/GPa) = 0.03375472
#
# Stress axis : x y z
#
# Youngs Moduli (GPa) = 79.57717 98.66621 29.59896
#
# Poissons Ratio (x) = 0.14648 0.16651
# Poissons Ratio (y) = 0.11814 0.12596
# Poissons Ratio (z) = 0.44767 0.41990
#
# Static dielectric constant tensor:
#      x y z
#    x 2.110370 -0.012080 -0.054710 
#    y -0.012080 2.153760 -0.033320 
#    z -0.054710 -0.033320 2.083150 
# 
# From -- ./inp_files/39004.got.cif
#   From: 2010.05.17/outbox.cif.g08.bks.cpg/sg2_20_cif.got.tgz:39004.got - 2010.06.03 11:33:40.
