data_PCOD9111501
_publ_section_title
;
Structure prediction by ZEFSAII (Michael W. Deem and Ramdas Pophale) SiO2 
 PCOD9111501
Probable space group: P -1
;
_chemical_formula_sum "Si O2"
_cell_formula_units_Z 14
_cell_length_a 7.255713
_cell_length_b 18.487655
_cell_length_c 9.248962
_cell_angle_alpha 30.739484
_cell_angle_beta 107.333051
_cell_angle_gamma 117.954367
_cell_volume 544.804020
_symmetry_space_group_name_H-M "P -1"
_symmetry_group_IT_number 2
_symmetry_cell_setting 'triclinic'
loop_
_space_group_symop_operation_xyz
x,y,z
-x,-y,-z
loop_
_atom_site_type_symbol
_atom_site_label
_atom_site_fract_x
_atom_site_fract_y
_atom_site_fract_z
Si Si1 0.772787 0.948465 0.682476
Si Si2 0.012764 0.176689 0.568037
Si Si3 0.116257 0.590249 0.053783
Si Si4 0.676948 0.153626 0.097956
Si Si5 0.872047 0.263941 0.661516
Si Si6 0.567854 0.543713 0.778222
Si Si7 0.296943 0.395136 0.730388
O O1 0.566309 0.932523 0.755604
O O2 0.963542 0.033235 0.695031
O O3 0.788462 0.048950 0.370500
O O4 0.722204 0.772557 0.936045
O O5 0.885482 0.150248 0.734467
O O6 0.260479 0.275117 0.499053
O O7 0.944462 0.292006 0.256845
O O8 0.911223 0.422496 0.311367
O O9 0.299528 0.549814 0.093088
O O10 0.207996 0.682181 0.068464
O O11 0.695606 0.180301 0.885727
O O12 0.085864 0.342667 0.676625
O O13 0.357745 0.499326 0.708239
O O14 0.500000 0.500000 0.000000
O O15 0.500000 0.500000 0.500000
#
# Coordination Sequence:
#
# PCOD9111501 Si02
#       7
#     2   2   2   2   2   2   2
#     4  10  23  43  64  88 133 173 205 267 323 375
#     4  10  23  44  65  97 131 166 213 269 317 366
#     4  10  20  43  65  91 132 166 212 267 312 373
#     4  10  21  41  66  92 124 171 220 255 318 378
#     4  11  22  38  64  99 128 166 217 260 313 381
#     4  11  23  41  63  97 127 169 210 256 320 381
#     4  12  23  44  65  92 132 170 210 262 322 385
#
# _framework density 25.697315
#
# number of rings (size 3 to 8) (size 9 to 14) (size 15 to 20)
#    0.000    1.429    4.286    2.143    4.000    1.714 
#    5.143    0.000    0.000    0.000    0.000    0.000 
#    0.000    0.000    0.000    0.000    0.000    0.000 
#
# Total GULP energy -78354.202573 kJ/mol
# GULP energy per Si atom -5596.728755 kJ/mol
# Density = 2.563883 g / cm^3
# Si number density = 25.697315 Si / 1000 Ang^3
#
#
#
# Elastic Constant Matrix: (Units=GPa)
#
#
# Indices 1 2 3 4 5 6 
#
# 1 45.2369 4.0547 6.2020 5.2144 -10.8545 -7.1569
# 2 4.0547 136.3523 12.3066 8.6837 -24.1113 3.5978
# 3 6.2020 12.3066 105.9430 8.2691 -11.2922 -21.3391
# 4 5.2144 8.6837 8.2691 54.5302 -5.3949 -13.1319
# 5 -10.8545 -24.1113 -11.2922 -5.3949 31.1986 18.3657
# 6 -7.1569 3.5978 -21.3391 -13.1319 18.3657 39.2163
#
#
#
# Elastic Compliance Matrix: (Units=1/GPa)
#
#
# Indices 1 2 3 4 5 6 
#
# 1 0.024392 0.001130 -0.000617 -0.001722 0.009410 -0.000972
# 2 0.001130 0.009799 -0.001325 -0.002141 0.011556 -0.007542
# 3 -0.000617 -0.001325 0.010800 0.000070 -0.001099 0.006424
# 4 -0.001722 -0.002141 0.000070 0.020520 -0.003697 0.008523
# 5 0.009410 0.011556 -0.001099 -0.003697 0.060629 -0.029572
# 6 -0.000972 -0.007542 0.006424 0.008523 -0.029572 0.046213
#
#
# Mechanical properties :
#
#
# Convention : Reuss Voigt Hill
#
# Bulk Modulus (GPa) = 23.05958 36.96209 30.01084
# Shear Modulus (GPa) = 26.53459 42.65362 34.59411
#
# Velocity S-wave (km/s) = 3.21687 4.07854 3.67306
# Velocity P-wave (km/s) = 4.77396 6.04931 5.44908
#
# Compressibility (1/GPa) = 0.04336592
#
# Stress axis : x y z
#
# Youngs Moduli (GPa) = 40.99721 102.05396 92.58960
#
# Poissons Ratio (x) = -0.11529 0.05717
# Poissons Ratio (y) = -0.04631 0.12266
# Poissons Ratio (z) = 0.02531 0.13520
#
# Static dielectric constant tensor:
#      x y z
#    x 2.097320 0.010090 0.035860 
#    y 0.010090 2.003840 0.040460 
#    z 0.035860 0.040460 2.074810 
# 
# From -- ./inp_files/211696.got.cif
#   From: 2010.05.17/outbox.cif.g08.bks.cpg/sg2_106_cif.got.tgz:211696.got - 2010.06.03 11:33:40.
