data_PCOD9111860
_publ_section_title
;
Structure prediction by ZEFSAII (Michael W. Deem and Ramdas Pophale) SiO2 
 PCOD9111860
Probable space group: P -1
;
_chemical_formula_sum "Si O2"
_cell_formula_units_Z 14
_cell_length_a 18.322856
_cell_length_b 24.020360
_cell_length_c 9.071769
_cell_angle_alpha 149.813782
_cell_angle_beta 149.081114
_cell_angle_gamma 20.638511
_cell_volume 680.055309
_symmetry_space_group_name_H-M "P -1"
_symmetry_group_IT_number 2
_symmetry_cell_setting 'triclinic'
loop_
_space_group_symop_operation_xyz
x,y,z
-x,-y,-z
loop_
_atom_site_type_symbol
_atom_site_label
_atom_site_fract_x
_atom_site_fract_y
_atom_site_fract_z
Si Si1 0.734757 0.592427 0.406323
Si Si2 0.468890 0.512978 0.150232
Si Si3 0.534010 0.098257 0.713533
Si Si4 0.877871 0.253341 0.472783
Si Si5 0.612847 0.037019 0.364662
Si Si6 0.802929 0.141101 0.372735
Si Si7 0.149492 0.471243 0.881996
O O1 0.509600 0.781568 0.488968
O O2 0.793621 0.576127 0.300242
O O3 0.924892 0.547168 0.711659
O O4 0.712214 0.475454 0.117109
O O5 0.687463 0.347175 0.236538
O O6 0.376160 0.681033 0.442840
O O7 0.500000 0.500000 0.000000
O O8 0.551672 0.065716 0.495723
O O9 0.335292 0.290529 0.862212
O O10 0.500000 0.000000 0.500000
O O11 0.730172 0.062001 0.014332
O O12 0.846510 0.189828 0.412713
O O13 0.846798 0.400761 0.795065
O O14 0.130034 0.100126 0.515142
O O15 0.500000 0.000000 0.000000
O O16 0.000000 0.000000 0.500000
#
# Coordination Sequence:
#
# PCOD9111860 Si02
#       7
#     2   2   2   2   2   2   2
#     4  10  22  40  69 100 136 180 235 284 353 419
#     4  12  28  46  71 106 143 186 244 296 358 428
#     4  11  27  45  70 103 147 188 242 292 362 430
#     4  12  24  49  75  98 149 189 242 293 360 428
#     4  11  25  42  71 109 139 187 240 298 356 418
#     4  12  29  47  74 106 145 193 239 299 366 428
#     4  10  20  43  72  96 131 194 233 283 348 425
#
# _framework density 20.586561
#
# number of rings (size 3 to 8) (size 9 to 14) (size 15 to 20)
#    0.000    0.857    4.286    2.143    8.000    1.143 
#    0.000    1.429    0.000    0.000    0.000    0.000 
#    0.000    0.000    0.000    0.000    0.000    0.000 
#
# Total GULP energy -78084.862906 kJ/mol
# GULP energy per Si atom -5577.490208 kJ/mol
# Density = 2.053970 g / cm^3
# Si number density = 20.586561 Si / 1000 Ang^3
#
#
#
# Elastic Constant Matrix: (Units=GPa)
#
#
# Indices 1 2 3 4 5 6 
#
# 1 103.4236 63.1580 59.6540 -12.9705 4.9453 2.0900
# 2 63.1580 121.1039 41.3647 -7.6893 2.8264 6.4149
# 3 59.6540 41.3647 161.4463 -8.1735 20.2015 12.6767
# 4 -12.9705 -7.6893 -8.1735 34.8739 0.1469 -5.7272
# 5 4.9453 2.8264 20.2015 0.1469 34.8653 3.0900
# 6 2.0900 6.4149 12.6767 -5.7272 3.0900 25.6521
#
#
#
# Elastic Compliance Matrix: (Units=1/GPa)
#
#
# Indices 1 2 3 4 5 6 
#
# 1 0.017274 -0.007359 -0.004624 0.004311 0.000487 0.003622
# 2 -0.007359 0.012292 -0.000318 -0.000511 0.000454 -0.002486
# 3 -0.004624 -0.000318 0.008751 -0.000287 -0.004082 -0.003440
# 4 0.004311 -0.000511 -0.000287 0.031259 -0.001159 0.007037
# 5 0.000487 0.000454 -0.004082 -0.001159 0.031136 -0.002145
# 6 0.003622 -0.002486 -0.003440 0.007037 -0.002145 0.042839
#
#
# Mechanical properties :
#
#
# Convention : Reuss Voigt Hill
#
# Bulk Modulus (GPa) = 72.91270 79.36970 76.14120
# Shear Modulus (GPa) = 28.94757 33.86473 31.40615
#
# Velocity S-wave (km/s) = 3.75392 4.06025 3.91009
# Velocity P-wave (km/s) = 7.36775 7.78580 7.57966
#
# Compressibility (1/GPa) = 0.01371503
#
# Stress axis : x y z
#
# Youngs Moduli (GPa) = 57.88912 81.35120 114.27775
#
# Poissons Ratio (x) = 0.59865 0.52847
# Poissons Ratio (y) = 0.42600 0.03632
# Poissons Ratio (z) = 0.26770 0.02586
#
# Static dielectric constant tensor:
#      x y z
#    x 1.722950 0.008030 -0.009960 
#    y 0.008030 1.796400 -0.031250 
#    z -0.009960 -0.031250 1.780300 
# 
# From -- ./inp_files/156589.got.cif
#   From: 2010.05.17/outbox.cif.g08.bks.cpg/sg2_79_cif.got.tgz:156589.got - 2010.06.03 11:33:40.
