data_PCOD9111148
_publ_section_title
;
Structure prediction by ZEFSAII (Michael W. Deem and Ramdas Pophale) SiO2 
 PCOD9111148
Probable space group: P -1
;
_chemical_formula_sum "Si O2"
_cell_formula_units_Z 16
_cell_length_a 7.478623
_cell_length_b 13.134244
_cell_length_c 8.516541
_cell_angle_alpha 85.191981
_cell_angle_beta 126.388099
_cell_angle_gamma 104.019455
_cell_volume 651.450515
_symmetry_space_group_name_H-M "P -1"
_symmetry_group_IT_number 2
_symmetry_cell_setting 'triclinic'
loop_
_space_group_symop_operation_xyz
x,y,z
-x,-y,-z
loop_
_atom_site_type_symbol
_atom_site_label
_atom_site_fract_x
_atom_site_fract_y
_atom_site_fract_z
Si Si1 0.785256 0.861106 0.473065
Si Si2 0.506687 0.792624 0.839447
Si Si3 0.395877 0.986013 0.249507
Si Si4 0.066874 0.668946 0.164236
Si Si5 0.993565 0.854281 0.263313
Si Si6 0.400039 0.414772 0.218062
Si Si7 0.158298 0.835814 0.903582
Si Si8 0.548671 0.623982 0.396191
O O1 0.596806 0.926791 0.385474
O O2 0.951337 0.894655 0.407211
O O3 0.654619 0.741025 0.378852
O O4 0.931440 0.853357 0.703712
O O5 0.492250 0.679555 0.771264
O O6 0.306709 0.793157 0.857860
O O7 0.513093 0.889220 0.712014
O O8 0.751784 0.827165 0.049653
O O9 0.300242 0.946552 0.032210
O O10 0.816247 0.061701 0.742381
O O11 0.279556 0.616807 0.285824
O O12 0.063355 0.742081 0.305142
O O13 0.107453 0.754062 0.031167
O O14 0.824703 0.592248 0.004053
O O15 0.560452 0.532006 0.292664
O O16 0.343050 0.392062 0.376619
#
# Coordination Sequence:
#
# PCOD9111148 Si02
#       8
#     2   2   2   2   2   2   2   2
#     4  12  24  43  70 105 136 181 230 280 339 405
#     4  11  23  45  70  99 141 178 233 278 341 407
#     4  11  24  48  70  98 144 182 219 289 341 402
#     4  10  20  42  69  96 135 180 220 281 340 398
#     4  10  22  42  70 102 134 178 226 280 339 404
#     4  10  24  41  68 105 130 182 226 283 338 406
#     4  11  23  41  70  99 140 182 224 277 343 406
#     4  11  21  44  70  95 143 175 225 284 345 394
#
# _framework density 24.560576999999999
#
# number of rings (size 3 to 8) (size 9 to 14) (size 15 to 20)
#    0.000    1.250    5.000    1.125    1.750    0.500 
#    0.000    8.750    0.000    0.000    0.000    0.000 
#    0.000    0.000    0.000    0.000    0.000    0.000 
#
# Total GULP energy -89715.037211 kJ/mol
# GULP energy per Si atom -5607.189826 kJ/mol
# Density = 2.450468 g / cm^3
# Si number density = 24.560577 Si / 1000 Ang^3
#
#
#
# Elastic Constant Matrix: (Units=GPa)
#
#
# Indices 1 2 3 4 5 6 
#
# 1 91.3886 27.2878 21.2091 1.4131 8.8657 -19.5834
# 2 27.2878 133.0160 42.6428 22.2996 13.4971 -36.3221
# 3 21.2091 42.6428 100.1973 13.9248 13.2898 -18.4839
# 4 1.4131 22.2996 13.9248 45.1494 -6.2067 -4.4148
# 5 8.8657 13.4971 13.2898 -6.2067 32.2566 -1.2870
# 6 -19.5834 -36.3221 -18.4839 -4.4148 -1.2870 31.6374
#
#
#
# Elastic Compliance Matrix: (Units=1/GPa)
#
#
# Indices 1 2 3 4 5 6 
#
# 1 0.013038 -0.000138 -0.001046 0.000312 -0.002746 0.007232
# 2 -0.000138 0.013062 -0.001696 -0.005378 -0.005246 0.012955
# 3 -0.001046 -0.001696 0.012792 -0.003314 -0.004742 0.004223
# 4 0.000312 -0.005378 -0.003314 0.026608 0.008496 -0.003859
# 5 -0.002746 -0.005246 -0.004742 0.008496 0.037229 -0.007794
# 6 0.007232 0.012955 0.004223 -0.003859 -0.007794 0.052571
#
#
# Mechanical properties :
#
#
# Convention : Reuss Voigt Hill
#
# Bulk Modulus (GPa) = 30.18350 56.32014 43.25182
# Shear Modulus (GPa) = 29.05225 37.37283 33.21254
#
# Velocity S-wave (km/s) = 3.44304 3.90508 3.68131
# Velocity P-wave (km/s) = 5.30303 6.58132 5.97645
#
# Compressibility (1/GPa) = 0.03313069
#
# Stress axis : x y z
#
# Youngs Moduli (GPa) = 76.70096 76.55975 78.17178
#
# Poissons Ratio (x) = 0.01058 0.08176
# Poissons Ratio (y) = 0.01060 0.13261
# Poissons Ratio (z) = 0.08022 0.12988
#
# Static dielectric constant tensor:
#      x y z
#    x 1.913190 0.016370 -0.017140 
#    y 0.016370 1.994760 0.016250 
#    z -0.017140 0.016250 1.973720 
# 
# From -- ./inp_files/188074.got.cif
#   From: 2010.05.17/outbox.cif.g08.bks.cpg/sg2_95_cif.got.tgz:188074.got - 2010.06.03 11:33:40.
