data_PCOD9111780
_publ_section_title
;
Structure prediction by ZEFSAII (Michael W. Deem and Ramdas Pophale) SiO2 
 PCOD9111780
Probable space group: P -1
;
_chemical_formula_sum "Si O2"
_cell_formula_units_Z 16
_cell_length_a 10.855548
_cell_length_b 12.491494
_cell_length_c 18.615556
_cell_angle_alpha 23.008487
_cell_angle_beta 139.808297
_cell_angle_gamma 131.047145
_cell_volume 625.859940
_symmetry_space_group_name_H-M "P -1"
_symmetry_group_IT_number 2
_symmetry_cell_setting 'triclinic'
loop_
_space_group_symop_operation_xyz
x,y,z
-x,-y,-z
loop_
_atom_site_type_symbol
_atom_site_label
_atom_site_fract_x
_atom_site_fract_y
_atom_site_fract_z
Si Si1 0.064548 0.534195 0.889419
Si Si2 0.408815 0.178911 0.742928
Si Si3 0.075172 0.532101 0.280200
Si Si4 0.329083 0.812624 0.530043
Si Si5 0.508870 0.706563 0.811505
Si Si6 0.238449 0.057694 0.040383
Si Si7 0.894299 0.137541 0.155755
Si Si8 0.441570 0.746093 0.463399
O O1 0.989680 0.621408 0.723072
O O2 0.123662 0.748444 0.840828
O O3 0.908236 0.391345 0.951360
O O4 0.264838 0.319309 0.093692
O O5 0.252459 0.335457 0.518888
O O6 0.571446 0.959896 0.911759
O O7 0.504430 0.434108 0.656601
O O8 0.279124 0.029897 0.830704
O O9 0.127889 0.828655 0.096422
O O10 0.906951 0.656028 0.185426
O O11 0.397246 0.620219 0.747097
O O12 0.345994 0.703350 0.524273
O O13 0.500000 0.000000 0.500000
O O14 0.108528 0.955091 0.357345
O O15 0.424174 0.025554 0.600450
O O16 0.500000 0.500000 0.000000
O O17 0.308367 0.912826 0.238104
#
# Coordination Sequence:
#
# PCOD9111780 Si02
#       8
#     2   2   2   2   2   2   2   2
#     4  11  24  46  64  96 142 176 222 291 345 406
#     4  11  26  43  69 108 137 179 236 284 339 418
#     4  10  21  42  73  96 136 187 227 281 353 396
#     4  10  21  43  69  98 129 184 228 272 348 405
#     4  11  24  42  73 100 131 175 233 283 338 410
#     4  10  21  42  68 103 140 177 231 283 341 408
#     4  11  25  44  65  98 143 176 229 285 345 412
#     4  10  20  43  70  93 140 181 222 286 343 405
#
# _framework density 25.564824999999999
#
# number of rings (size 3 to 8) (size 9 to 14) (size 15 to 20)
#    0.000    1.500    3.750    1.500    3.500    5.000 
#    0.000    3.125    0.000    0.000    0.000    0.000 
#    0.000    0.000    0.000    0.000    0.000    0.000 
#
# Total GULP energy -89424.760340 kJ/mol
# GULP energy per Si atom -5589.047521 kJ/mol
# Density = 2.550664 g / cm^3
# Si number density = 25.564825 Si / 1000 Ang^3
#
#
#
# Elastic Constant Matrix: (Units=GPa)
#
#
# Indices 1 2 3 4 5 6 
#
# 1 119.7378 38.5959 36.1375 -16.3970 27.6259 14.5324
# 2 38.5959 85.6870 27.4520 -25.9148 9.7282 -6.5300
# 3 36.1375 27.4520 57.7551 -18.7603 15.4356 -2.0806
# 4 -16.3970 -25.9148 -18.7603 39.8231 0.9824 -1.8128
# 5 27.6259 9.7282 15.4356 0.9824 40.2386 -3.8483
# 6 14.5324 -6.5300 -2.0806 -1.8128 -3.8483 52.4871
#
#
#
# Elastic Compliance Matrix: (Units=1/GPa)
#
#
# Indices 1 2 3 4 5 6 
#
# 1 0.013245 -0.003870 -0.004534 0.000751 -0.006897 -0.004808
# 2 -0.003870 0.017141 -0.002795 0.008405 -0.000299 0.003362
# 3 -0.004534 -0.002795 0.026091 0.008841 -0.006264 0.001788
# 4 0.000751 0.008405 0.008841 0.035305 -0.006617 0.001923
# 5 -0.006897 -0.000299 -0.006264 -0.006617 0.032585 0.003785
# 6 -0.004808 0.003362 0.001788 0.001923 0.003785 0.021217
#
#
# Mechanical properties :
#
#
# Convention : Reuss Voigt Hill
#
# Bulk Modulus (GPa) = 29.34416 51.95008 40.64712
# Shear Modulus (GPa) = 27.87984 37.24270 32.56127
#
# Velocity S-wave (km/s) = 3.30594 3.82094 3.57273
# Velocity P-wave (km/s) = 5.10642 6.31119 5.74050
#
# Compressibility (1/GPa) = 0.03407833
#
# Stress axis : x y z
#
# Youngs Moduli (GPa) = 75.50080 58.34021 38.32792
#
# Poissons Ratio (x) = 0.22576 0.17379
# Poissons Ratio (y) = 0.29216 0.10713
# Poissons Ratio (z) = 0.34234 0.16307
#
# Static dielectric constant tensor:
#      x y z
#    x 2.061260 0.010730 -0.068390 
#    y 0.010730 2.043070 -0.012840 
#    z -0.068390 -0.012840 2.028960 
# 
# From -- ./inp_files/559580.got.cif
#   From: 2010.05.17/outbox.cif.g08.bks.cpg/sg2_280_cif.got.tgz:559580.got - 2010.06.03 11:33:40.
