data_PCOD9111762
_publ_section_title
;
Structure prediction by ZEFSAII (Michael W. Deem and Ramdas Pophale) SiO2 
 PCOD9111762
Probable space group: P -1
;
_chemical_formula_sum "Si O2"
_cell_formula_units_Z 14
_cell_length_a 20.914294
_cell_length_b 7.198301
_cell_length_c 6.774246
_cell_angle_alpha 68.157199
_cell_angle_beta 115.099660
_cell_angle_gamma 146.544708
_cell_volume 508.799548
_symmetry_space_group_name_H-M "P -1"
_symmetry_group_IT_number 2
_symmetry_cell_setting 'triclinic'
loop_
_space_group_symop_operation_xyz
x,y,z
-x,-y,-z
loop_
_atom_site_type_symbol
_atom_site_label
_atom_site_fract_x
_atom_site_fract_y
_atom_site_fract_z
Si Si1 0.465890 0.740936 0.344939
Si Si2 0.077814 0.259528 0.315111
Si Si3 0.767920 0.248742 0.155301
Si Si4 0.419594 0.289512 0.170975
Si Si5 0.281268 0.555369 0.687740
Si Si6 0.028343 0.789321 0.148713
Si Si7 0.755559 0.841901 0.504934
O O1 0.420404 0.500787 0.201748
O O2 0.528407 0.749768 0.591834
O O3 0.343682 0.523460 0.376120
O O4 0.575571 0.126693 0.266475
O O5 0.209080 0.556054 0.461969
O O6 0.082620 0.113646 0.195770
O O7 0.000000 0.000000 0.500000
O O8 0.006245 0.270878 0.102666
O O9 0.749596 0.430157 0.141933
O O10 0.903606 0.488857 0.218566
O O11 0.709591 0.958295 0.347555
O O12 0.704786 0.066692 0.938657
O O13 0.500000 0.500000 0.000000
O O14 0.227381 0.228433 0.657170
O O15 0.130082 0.871256 0.319532
#
# Coordination Sequence:
#
# PCOD9111762 Si02
#       7
#     2   2   2   2   2   2   2
#     4  11  22  44  66  98 141 177 233 289 338 402
#     4  10  20  43  70 100 131 174 237 279 335 413
#     4  12  22  45  71 100 140 184 231 282 345 408
#     4  11  21  41  70  97 129 183 233 276 341 410
#     4  11  23  42  74  96 134 189 224 287 342 403
#     4  10  23  41  68 102 136 181 227 283 345 406
#     4  11  25  43  66 107 145 175 233 285 338 421
#
# _framework density 27.515744999999999
#
# number of rings (size 3 to 8) (size 9 to 14) (size 15 to 20)
#    0.000    1.143    4.286    2.571    0.000    0.000 
#    5.143    4.286    0.000    0.000    0.000    0.000 
#    0.000    0.000    0.000    0.000    0.000    0.000 
#
# Total GULP energy -78318.642749 kJ/mol
# GULP energy per Si atom -5594.188768 kJ/mol
# Density = 2.745312 g / cm^3
# Si number density = 27.515745 Si / 1000 Ang^3
#
#
#
# Elastic Constant Matrix: (Units=GPa)
#
#
# Indices 1 2 3 4 5 6 
#
# 1 71.1815 28.0482 34.0444 9.4259 -18.0894 -4.3948
# 2 28.0482 132.4126 39.0878 34.2539 -7.5423 24.7216
# 3 34.0444 39.0878 141.8715 22.6553 -8.1720 -10.7698
# 4 9.4259 34.2539 22.6553 62.8626 -7.2565 -14.1825
# 5 -18.0894 -7.5423 -8.1720 -7.2565 38.5878 3.2808
# 6 -4.3948 24.7216 -10.7698 -14.1825 3.2808 47.5225
#
#
#
# Elastic Compliance Matrix: (Units=1/GPa)
#
#
# Indices 1 2 3 4 5 6 
#
# 1 0.018857 -0.003666 -0.003150 0.001846 0.007551 0.002967
# 2 -0.003666 0.012837 -0.002157 -0.007927 -0.000320 -0.009849
# 3 -0.003150 -0.002157 0.008722 -0.000973 -0.000451 0.002548
# 4 0.001846 -0.007927 -0.000973 0.023022 0.002524 0.010770
# 5 0.007551 -0.000320 -0.000451 0.002524 0.029818 -0.000543
# 6 0.002967 -0.009849 0.002548 0.010770 -0.000543 0.030270
#
#
# Mechanical properties :
#
#
# Convention : Reuss Voigt Hill
#
# Bulk Modulus (GPa) = 44.50469 60.86961 52.68715
# Shear Modulus (GPa) = 33.56587 46.08026 39.82306
#
# Velocity S-wave (km/s) = 3.49646 4.09673 3.80844
# Velocity P-wave (km/s) = 5.70173 6.67438 6.20714
#
# Compressibility (1/GPa) = 0.02246954
#
# Stress axis : x y z
#
# Youngs Moduli (GPa) = 53.02975 77.90173 114.65762
#
# Poissons Ratio (x) = 0.28559 0.36114
# Poissons Ratio (y) = 0.19441 0.24735
# Poissons Ratio (z) = 0.16703 0.16806
#
# Static dielectric constant tensor:
#      x y z
#    x 2.254550 0.005670 0.062450 
#    y 0.005670 2.185880 -0.039780 
#    z 0.062450 -0.039780 2.180970 
# 
# From -- ./inp_files/122886.got.cif
#   From: 2010.05.17/outbox.cif.g08.bks.cpg/sg2_62_cif.got.tgz:122886.got - 2010.06.03 11:33:40.
