data_PCOD9111652
_publ_section_title
;
Structure prediction by ZEFSAII (Michael W. Deem and Ramdas Pophale) SiO2 
 PCOD9111652
Probable space group: P -1
;
_chemical_formula_sum "Si O2"
_cell_formula_units_Z 16
_cell_length_a 8.462389
_cell_length_b 13.875123
_cell_length_c 7.470631
_cell_angle_alpha 70.395656
_cell_angle_beta 51.584614
_cell_angle_gamma 65.126360
_cell_volume 620.133225
_symmetry_space_group_name_H-M "P -1"
_symmetry_group_IT_number 2
_symmetry_cell_setting 'triclinic'
loop_
_space_group_symop_operation_xyz
x,y,z
-x,-y,-z
loop_
_atom_site_type_symbol
_atom_site_label
_atom_site_fract_x
_atom_site_fract_y
_atom_site_fract_z
Si Si1 0.381037 0.028805 0.776125
Si Si2 0.463069 0.715723 0.167430
Si Si3 0.019287 0.236261 0.837182
Si Si4 0.772912 0.056993 0.702124
Si Si5 0.563755 0.616367 0.521329
Si Si6 0.859424 0.432788 0.051976
Si Si7 0.431629 0.803975 0.783912
Si Si8 0.197609 0.570643 0.308306
O O1 0.258180 0.994817 0.054134
O O2 0.221557 0.137592 0.751088
O O3 0.591257 0.042626 0.707927
O O4 0.422949 0.925711 0.683079
O O5 0.594316 0.659625 0.278596
O O6 0.278947 0.815279 0.314358
O O7 0.377262 0.626514 0.190272
O O8 0.556335 0.767404 0.906089
O O9 0.991352 0.310541 0.987561
O O10 0.809792 0.197122 0.009433
O O11 0.000000 0.000000 0.500000
O O12 0.350972 0.577098 0.693252
O O13 0.512873 0.716236 0.630077
O O14 0.759608 0.523719 0.520749
O O15 0.000040 0.676918 0.363429
O O16 0.784287 0.475005 0.877215
O O17 0.000000 0.500000 0.000000
#
# Coordination Sequence:
#
# PCOD9111652 Si02
#       8
#     2   2   2   2   2   2   2   2
#     4  10  20  43  68 101 136 192 224 286 371 401
#     4  10  21  39  64  95 134 179 227 289 344 411
#     4   8  18  34  66  90 131 183 226 272 356 413
#     4  10  24  40  66 104 141 175 243 292 340 430
#     4  11  20  38  69  95 133 188 230 279 359 407
#     4   9  20  36  59  97 127 177 230 283 336 419
#     4   9  20  38  66  98 134 185 231 287 343 422
#     4   9  20  39  61  97 129 178 231 281 342 421
#
# _framework density 25.800906999999999
#
# number of rings (size 3 to 8) (size 9 to 14) (size 15 to 20)
#    0.750    1.750    1.250    1.125    3.500    1.000 
#    4.500    1.250    5.500    0.000    0.000    0.000 
#    0.000    0.000    0.000    0.000    0.000    0.000 
#
# Total GULP energy -89527.225626 kJ/mol
# GULP energy per Si atom -5595.451602 kJ/mol
# Density = 2.574218 g / cm^3
# Si number density = 25.800907 Si / 1000 Ang^3
#
#
#
# Elastic Constant Matrix: (Units=GPa)
#
#
# Indices 1 2 3 4 5 6 
#
# 1 144.4036 93.9017 62.9618 4.0124 11.0015 -7.4397
# 2 93.9017 216.9991 53.6252 11.7720 -20.0687 -10.3988
# 3 62.9618 53.6252 103.7950 12.2784 -22.2773 -2.5964
# 4 4.0124 11.7720 12.2784 40.6524 0.7227 -4.7081
# 5 11.0015 -20.0687 -22.2773 0.7227 38.8227 -5.3123
# 6 -7.4397 -10.3988 -2.5964 -4.7081 -5.3123 63.9944
#
#
#
# Elastic Compliance Matrix: (Units=1/GPa)
#
#
# Indices 1 2 3 4 5 6 
#
# 1 0.016014 -0.005912 -0.009941 0.003329 -0.013411 -0.000371
# 2 -0.005912 0.007601 0.001326 -0.002019 0.006539 0.000996
# 3 -0.009941 0.001326 0.018710 -0.005237 0.014423 0.000631
# 4 0.003329 -0.002019 -0.005237 0.026690 -0.005302 0.001370
# 5 -0.013411 0.006539 0.014423 -0.005302 0.041747 0.003164
# 6 -0.000371 0.000996 0.000631 0.001370 0.003164 0.016134
#
#
# Mechanical properties :
#
#
# Convention : Reuss Voigt Hill
#
# Bulk Modulus (GPa) = 75.34725 98.46389 86.90557
# Shear Modulus (GPa) = 31.17741 45.67447 38.42594
#
# Velocity S-wave (km/s) = 3.47995 4.21202 3.86336
# Velocity P-wave (km/s) = 6.73895 7.86769 7.32510
#
# Compressibility (1/GPa) = 0.01327188
#
# Stress axis : x y z
#
# Youngs Moduli (GPa) = 62.44593 131.56694 53.44627
#
# Poissons Ratio (x) = 0.77777 0.53132
# Poissons Ratio (y) = 0.36916 -0.07089
# Poissons Ratio (z) = 0.62079 -0.17451
#
# Static dielectric constant tensor:
#      x y z
#    x 2.046140 -0.021760 0.047610 
#    y -0.021760 2.039510 -0.038680 
#    z 0.047610 -0.038680 2.054580 
# 
# From -- ./inp_files/395824.got.cif
#   From: 2010.05.17/outbox.cif.g08.bks.cpg/sg2_198_cif.got.tgz:395824.got - 2010.06.03 11:33:40.
