data_PCOD9111254
_publ_section_title
;
Structure prediction by ZEFSAII (Michael W. Deem and Ramdas Pophale) SiO2 
 PCOD9111254
Probable space group: P -1
;
_chemical_formula_sum "Si O2"
_cell_formula_units_Z 10
_cell_length_a 14.268801
_cell_length_b 11.347027
_cell_length_c 5.200036
_cell_angle_alpha 73.407865
_cell_angle_beta 86.951309
_cell_angle_gamma 147.260913
_cell_volume 359.731283
_symmetry_space_group_name_H-M "P -1"
_symmetry_group_IT_number 2
_symmetry_cell_setting 'triclinic'
loop_
_space_group_symop_operation_xyz
x,y,z
-x,-y,-z
loop_
_atom_site_type_symbol
_atom_site_label
_atom_site_fract_x
_atom_site_fract_y
_atom_site_fract_z
Si Si1 0.817109 0.198796 0.323526
Si Si2 0.062973 0.784857 0.192723
Si Si3 0.350679 0.443841 0.512171
Si Si4 0.250416 0.242650 0.150068
Si Si5 0.568797 0.193260 0.689361
O O1 0.850963 0.210797 0.608738
O O2 0.590195 0.984952 0.416442
O O3 0.847973 0.120178 0.169471
O O4 0.000000 0.500000 0.000000
O O5 0.814095 0.470133 0.417607
O O6 0.131934 0.991465 0.191077
O O7 0.500000 0.500000 0.500000
O O8 0.190206 0.215286 0.458877
O O9 0.445340 0.685099 0.259996
O O10 0.744432 0.646043 0.135924
O O11 0.500000 0.500000 0.000000
O O12 0.500000 0.000000 0.000000
#
# Coordination Sequence:
#
# PCOD9111254 Si02
#       5
#     2   2   2   2   2
#     4  12  26  49  73 108 159 201 247 316 383 450
#     4  12  27  48  78 113 151 202 256 315 383 451
#     4  10  22  44  71 104 147 194 243 309 372 440
#     4  10  20  42  71 100 142 190 245 302 369 440
#     4  12  28  49  78 117 153 201 259 313 380 462
#
# _framework density 27.79853
#
# number of rings (size 3 to 8) (size 9 to 14) (size 15 to 20)
#    0.000    0.800    2.000    6.600    0.000    5.600 
#    0.000    0.000    0.000    0.000    0.000    0.000 
#    0.000    0.000    0.000    0.000    0.000    0.000 
#
# Total GULP energy -56030.264459 kJ/mol
# GULP energy per Si atom -5603.026446 kJ/mol
# Density = 2.773526 g / cm^3
# Si number density = 27.798530 Si / 1000 Ang^3
#
#
#
# Elastic Constant Matrix: (Units=GPa)
#
#
# Indices 1 2 3 4 5 6 
#
# 1 152.5235 53.3785 39.3259 -5.9107 13.7954 -4.1093
# 2 53.3785 198.6446 39.1314 -1.6811 8.7938 26.5997
# 3 39.3259 39.1314 130.0051 14.7254 15.6562 7.9180
# 4 -5.9107 -1.6811 14.7254 63.6274 -1.0980 0.7127
# 5 13.7954 8.7938 15.6562 -1.0980 56.4932 -4.5017
# 6 -4.1093 26.5997 7.9180 0.7127 -4.5017 68.7864
#
#
#
# Elastic Compliance Matrix: (Units=1/GPa)
#
#
# Indices 1 2 3 4 5 6 
#
# 1 0.007867 -0.001865 -0.001906 0.001091 -0.000975 0.001335
# 2 -0.001865 0.006089 -0.001110 0.000265 -0.000368 -0.002365
# 3 -0.001906 -0.001110 0.009163 -0.002352 -0.002014 -0.000847
# 4 0.001091 0.000265 -0.002352 0.016380 0.000671 0.000108
# 5 -0.000975 -0.000368 -0.002014 0.000671 0.018690 0.001532
# 6 0.001335 -0.002365 -0.000847 0.000108 0.001532 0.015729
#
#
# Mechanical properties :
#
#
# Convention : Reuss Voigt Hill
#
# Bulk Modulus (GPa) = 74.86574 82.76054 78.81314
# Shear Modulus (GPa) = 56.73286 61.07056 58.90171
#
# Velocity S-wave (km/s) = 4.52249 4.69219 4.60812
# Velocity P-wave (km/s) = 7.36617 7.69362 7.53168
#
# Compressibility (1/GPa) = 0.01335724
#
# Stress axis : x y z
#
# Youngs Moduli (GPa) = 127.11563 164.22483 109.13072
#
# Poissons Ratio (x) = 0.30627 0.20798
# Poissons Ratio (y) = 0.23706 0.12117
# Poissons Ratio (z) = 0.24226 0.18234
#
# Static dielectric constant tensor:
#      x y z
#    x 2.440180 -0.021010 -0.224360 
#    y -0.021010 2.154130 -0.048490 
#    z -0.224360 -0.048490 2.317000 
# 
# From -- ./inp_files/41664.got.cif
#   From: 2010.05.17/outbox.cif.g08.bks.cpg/sg2_21_cif.got.tgz:41664.got - 2010.06.03 11:33:40.
