data_PCOD9111485
_publ_section_title
;
Structure prediction by ZEFSAII (Michael W. Deem and Ramdas Pophale) SiO2 
 PCOD9111485
Probable space group: P -1
;
_chemical_formula_sum "Si O2"
_cell_formula_units_Z 12
_cell_length_a 7.402249
_cell_length_b 4.950564
_cell_length_c 15.737239
_cell_angle_alpha 75.032543
_cell_angle_beta 117.972078
_cell_angle_gamma 76.795661
_cell_volume 448.851951
_symmetry_space_group_name_H-M "P -1"
_symmetry_group_IT_number 2
_symmetry_cell_setting 'triclinic'
loop_
_space_group_symop_operation_xyz
x,y,z
-x,-y,-z
loop_
_atom_site_type_symbol
_atom_site_label
_atom_site_fract_x
_atom_site_fract_y
_atom_site_fract_z
Si Si1 0.936113 0.784348 0.566494
Si Si2 0.492223 0.328585 0.423205
Si Si3 0.833357 0.923600 0.294932
Si Si4 0.621636 0.644599 0.076325
Si Si5 0.058214 0.653294 0.199794
Si Si6 0.469030 0.732389 0.228188
O O1 0.054537 0.857373 0.667523
O O2 0.667486 0.974385 0.491007
O O3 0.028060 0.419520 0.606347
O O4 0.000000 0.000000 0.500000
O O5 0.500000 0.500000 0.500000
O O6 0.246824 0.402465 0.322743
O O7 0.565642 0.500388 0.348377
O O8 0.559407 0.613525 0.163780
O O9 0.573941 0.982902 0.247917
O O10 0.889893 0.885307 0.211374
O O11 0.887419 0.542838 0.124441
O O12 0.500000 0.500000 0.000000
O O13 0.500000 0.000000 0.000000
O O14 0.206949 0.796744 0.170340
#
# Coordination Sequence:
#
# PCOD9111485 Si02
#       6
#     2   2   2   2   2   2
#     4  12  22  37  63  94 138 199 229 265 333 399
#     4  10  20  43  65 106 149 190 224 277 339 421
#     4  11  23  41  63  95 141 186 235 276 324 414
#     4  11  26  51  76 100 131 176 236 305 360 406
#     4   9  22  44  68 106 138 178 235 283 347 428
#     4   9  22  44  69 106 136 182 233 283 352 417
#
# _framework density 26.734874000000001
#
# number of rings (size 3 to 8) (size 9 to 14) (size 15 to 20)
#    1.000    0.667    3.333    0.500    0.000    7.333 
#    0.000   11.667    0.000    0.000    0.000    0.000 
#    0.000    0.000    0.000    0.000    0.000    0.000 
#
# Total GULP energy -66999.471649 kJ/mol
# GULP energy per Si atom -5583.289304 kJ/mol
# Density = 2.667402 g / cm^3
# Si number density = 26.734874 Si / 1000 Ang^3
#
#
#
# Elastic Constant Matrix: (Units=GPa)
#
#
# Indices 1 2 3 4 5 6 
#
# 1 224.4973 29.6448 73.3214 5.2963 51.7477 12.1359
# 2 29.6448 121.1913 61.7403 0.9437 13.4893 37.0391
# 3 73.3214 61.7403 149.3874 6.7726 33.8253 8.9622
# 4 5.2963 0.9437 6.7726 48.1683 1.2942 4.7581
# 5 51.7477 13.4893 33.8253 1.2942 66.2618 8.6237
# 6 12.1359 37.0391 8.9622 4.7581 8.6237 33.7360
#
#
#
# Elastic Compliance Matrix: (Units=1/GPa)
#
#
# Indices 1 2 3 4 5 6 
#
# 1 0.006000 0.000401 -0.002252 -0.000150 -0.003473 -0.001091
# 2 0.000401 0.016566 -0.006523 0.002216 0.001864 -0.017388
# 3 -0.002252 -0.006523 0.010942 -0.001682 -0.003265 0.006136
# 4 -0.000150 0.002216 -0.001682 0.021459 0.000776 -0.005157
# 5 -0.003473 0.001864 -0.003265 0.000776 0.019738 -0.005085
# 6 -0.001091 -0.017388 0.006136 -0.005157 -0.005085 0.049522
#
#
# Mechanical properties :
#
#
# Convention : Reuss Voigt Hill
#
# Bulk Modulus (GPa) = 59.66262 91.60988 75.63625
# Shear Modulus (GPa) = 34.11541 51.65785 42.88663
#
# Velocity S-wave (km/s) = 3.57608 4.40048 4.00952
# Velocity P-wave (km/s) = 6.27821 7.75625 7.05604
#
# Compressibility (1/GPa) = 0.01676091
#
# Stress axis : x y z
#
# Youngs Moduli (GPa) = 166.66718 60.36513 91.38752
#
# Poissons Ratio (x) = -0.02420 0.20580
# Poissons Ratio (y) = -0.06680 0.59608
# Poissons Ratio (z) = 0.37532 0.39374
#
# Static dielectric constant tensor:
#      x y z
#    x 2.381110 0.007670 0.054620 
#    y 0.007670 2.157250 0.017180 
#    z 0.054620 0.017180 2.344810 
# 
# From -- ./inp_files/342320.got.cif
#   From: 2010.05.17/outbox.cif.g08.bks.cpg/sg2_172_cif.got.tgz:342320.got - 2010.06.03 11:33:40.
