data_PCOD9111165
_publ_section_title
;
Structure prediction by ZEFSAII (Michael W. Deem and Ramdas Pophale) SiO2 
 PCOD9111165
Probable space group: P -1
;
_chemical_formula_sum "Si O2"
_cell_formula_units_Z 14
_cell_length_a 12.610671
_cell_length_b 7.926059
_cell_length_c 8.238552
_cell_angle_alpha 103.498786
_cell_angle_beta 47.518214
_cell_angle_gamma 82.034809
_cell_volume 537.791168
_symmetry_space_group_name_H-M "P -1"
_symmetry_group_IT_number 2
_symmetry_cell_setting 'triclinic'
loop_
_space_group_symop_operation_xyz
x,y,z
-x,-y,-z
loop_
_atom_site_type_symbol
_atom_site_label
_atom_site_fract_x
_atom_site_fract_y
_atom_site_fract_z
Si Si1 0.554538 0.388042 0.587482
Si Si2 0.647025 0.258826 0.943575
Si Si3 0.195047 0.917857 0.916218
Si Si4 0.067850 0.789054 0.590586
Si Si5 0.027353 0.469858 0.776475
Si Si6 0.705619 0.732551 0.064618
Si Si7 0.239667 0.150554 0.296064
O O1 0.500000 0.500000 0.500000
O O2 0.731629 0.234660 0.336592
O O3 0.503471 0.547192 0.817495
O O4 0.450264 0.268979 0.699615
O O5 0.772649 0.263044 0.683359
O O6 0.636363 0.063855 0.857410
O O7 0.726515 0.195362 0.025226
O O8 0.250851 0.093120 0.881848
O O9 0.010118 0.019308 0.175319
O O10 0.072087 0.615572 0.656849
O O11 0.926715 0.831842 0.611670
O O12 0.849197 0.528841 0.908882
O O13 0.173243 0.269479 0.551984
O O14 0.000000 0.500000 0.000000
O O15 0.697729 0.751216 0.883314
#
# Coordination Sequence:
#
# PCOD9111165 Si02
#       7
#     2   2   2   2   2   2   2
#     4  10  17  26  44  76 101 120 151 197 241 276
#     4   9  16  26  45  71  96 121 151 189 237 283
#     4   8  16  26  43  72  99 119 148 193 239 273
#     4   9  16  30  49  72  94 122 156 195 237 281
#     4  10  19  30  46  70  97 127 159 194 235 277
#     4   9  17  30  47  69  96 125 156 195 233 279
#     4   9  16  28  46  68  93 120 152 193 236 279
#
# _framework density 26.032408
#
# number of rings (size 3 to 8) (size 9 to 14) (size 15 to 20)
#    0.000    3.429    0.000    5.571    0.000    1.143 
#    0.000    0.714    0.000    0.000    0.000   77.000 
#    0.000    0.000    0.000    0.000    0.000    0.000 
#
# Total GULP energy -78218.775921 kJ/mol
# GULP energy per Si atom -5587.055423 kJ/mol
# Density = 2.597316 g / cm^3
# Si number density = 26.032408 Si / 1000 Ang^3
#
#
#
# Elastic Constant Matrix: (Units=GPa)
#
#
# Indices 1 2 3 4 5 6 
#
# 1 55.1746 27.7763 36.8052 7.3996 -14.0536 -14.1148
# 2 27.7763 89.3359 64.1982 17.6077 -0.8536 1.2947
# 3 36.8052 64.1982 236.2362 42.4065 13.9031 -3.2875
# 4 7.3996 17.6077 42.4065 66.7670 2.5936 -3.3452
# 5 -14.0536 -0.8536 13.9031 2.5936 31.1051 9.6345
# 6 -14.1148 1.2947 -3.2875 -3.3452 9.6345 19.6874
#
#
#
# Elastic Compliance Matrix: (Units=1/GPa)
#
#
# Indices 1 2 3 4 5 6 
#
# 1 0.031003 -0.007677 -0.003281 0.001179 0.009702 0.017636
# 2 -0.007677 0.016272 -0.003043 -0.001939 0.000938 -0.007870
# 3 -0.003281 -0.003043 0.006309 -0.002644 -0.004345 0.000578
# 4 0.001179 -0.001939 -0.002644 0.017274 -0.001005 0.003959
# 5 0.009702 0.000938 -0.004345 -0.001005 0.043288 -0.015186
# 6 0.017636 -0.007870 0.000578 0.003959 -0.015186 0.072157
#
#
# Mechanical properties :
#
#
# Convention : Reuss Voigt Hill
#
# Bulk Modulus (GPa) = 39.08860 70.92292 55.00576
# Shear Modulus (GPa) = 22.43838 40.30969 31.37404
#
# Velocity S-wave (km/s) = 2.93907 3.93929 3.47535
# Velocity P-wave (km/s) = 5.15417 6.92777 6.10571
#
# Compressibility (1/GPa) = 0.02558290
#
# Stress axis : x y z
#
# Youngs Moduli (GPa) = 32.25534 61.45442 158.49292
#
# Poissons Ratio (x) = 0.47177 0.52005
# Poissons Ratio (y) = 0.24762 0.48225
# Poissons Ratio (z) = 0.10584 0.18699
#
# Static dielectric constant tensor:
#      x y z
#    x 2.165920 0.085260 0.020220 
#    y 0.085260 2.059150 0.067290 
#    z 0.020220 0.067290 2.030460 
# 
# From -- ./inp_files/326126.got.cif
#   From: 2010.05.17/outbox.cif.g08.bks.cpg/sg2_164_cif.got.tgz:326126.got - 2010.06.03 11:33:40.
