data_PCOD9111938
_publ_section_title
;
Structure prediction by ZEFSAII (Michael W. Deem and Ramdas Pophale) SiO2 
 PCOD9111938
Probable space group: P -1
;
_chemical_formula_sum "Si O2"
_cell_formula_units_Z 14
_cell_length_a 9.050581
_cell_length_b 12.565167
_cell_length_c 11.634929
_cell_angle_alpha 74.821650
_cell_angle_beta 143.259868
_cell_angle_gamma 118.011947
_cell_volume 682.134076
_symmetry_space_group_name_H-M "P -1"
_symmetry_group_IT_number 2
_symmetry_cell_setting 'triclinic'
loop_
_space_group_symop_operation_xyz
x,y,z
-x,-y,-z
loop_
_atom_site_type_symbol
_atom_site_label
_atom_site_fract_x
_atom_site_fract_y
_atom_site_fract_z
Si Si1 0.894179 0.998588 0.806502
Si Si2 0.869252 0.436669 0.556255
Si Si3 0.774205 0.722703 0.807388
Si Si4 0.805237 0.605988 0.632217
Si Si5 0.255350 0.035974 0.811351
Si Si6 0.288692 0.187254 0.574771
Si Si7 0.812028 0.224143 0.738282
O O1 0.743853 0.086315 0.693095
O O2 0.143014 0.061604 0.853283
O O3 0.761654 0.852275 0.739161
O O4 0.000000 0.000000 0.000000
O O5 0.538874 0.380534 0.347771
O O6 0.961882 0.537425 0.688735
O O7 0.903630 0.321023 0.663127
O O8 0.000000 0.500000 0.500000
O O9 0.905011 0.684835 0.789723
O O10 0.948904 0.737178 0.026912
O O11 0.500000 0.500000 0.500000
O O12 0.774016 0.696432 0.494213
O O13 0.349199 0.144997 0.746784
O O14 0.987674 0.924118 0.618121
O O15 0.500000 0.000000 0.000000
O O16 0.549892 0.220765 0.644632
#
# Coordination Sequence:
#
# PCOD9111938 Si02
#       7
#     2   2   2   2   2   2   2
#     4  10  21  40  65  96 128 161 205 257 318 378
#     4  11  25  43  62  92 128 166 213 261 308 373
#     4  10  21  43  65  90 125 164 210 258 315 372
#     4  10  20  44  63  89 122 164 218 255 302 373
#     4  11  23  41  62  95 130 161 208 260 311 377
#     4  11  23  40  65  94 122 167 215 255 313 369
#     4  11  23  42  67  94 125 169 209 257 322 370
#
# _framework density 20.523824000000001
#
# number of rings (size 3 to 8) (size 9 to 14) (size 15 to 20)
#    0.000    1.429    4.286    1.714    2.000    3.429 
#    7.714    0.000    0.000    0.000    0.000    0.000 
#    0.000    0.000    0.000    0.000    0.000    0.000 
#
# Total GULP energy -78090.218601 kJ/mol
# GULP energy per Si atom -5577.872757 kJ/mol
# Density = 2.047711 g / cm^3
# Si number density = 20.523824 Si / 1000 Ang^3
#
#
#
# Elastic Constant Matrix: (Units=GPa)
#
#
# Indices 1 2 3 4 5 6 
#
# 1 88.0297 39.8138 16.3517 0.1220 -25.9411 10.0437
# 2 39.8138 116.6189 28.9617 -16.5551 -19.2893 3.8999
# 3 16.3517 28.9617 98.6088 -9.2629 -20.6794 6.8772
# 4 0.1220 -16.5551 -9.2629 30.5088 3.2423 -12.4292
# 5 -25.9411 -19.2893 -20.6794 3.2423 34.3437 -7.9674
# 6 10.0437 3.8999 6.8772 -12.4292 -7.9674 42.6866
#
#
#
# Elastic Compliance Matrix: (Units=1/GPa)
#
#
# Indices 1 2 3 4 5 6 
#
# 1 0.016729 -0.004762 0.000482 -0.004839 0.009984 -0.003124
# 2 -0.004762 0.011848 -0.001835 0.006772 0.001932 0.002666
# 3 0.000482 -0.001835 0.012141 0.001951 0.006428 -0.000134
# 4 -0.004839 0.006772 0.001951 0.042139 0.000250 0.012522
# 5 0.009984 0.001932 0.006428 0.000250 0.042627 0.004468
# 6 -0.003124 0.002666 -0.000134 0.012522 0.004468 0.028420
#
#
# Mechanical properties :
#
#
# Convention : Reuss Voigt Hill
#
# Bulk Modulus (GPa) = 35.10296 52.61242 43.85769
# Shear Modulus (GPa) = 28.46894 36.04983 32.25939
#
# Velocity S-wave (km/s) = 3.72844 4.19559 3.96890
# Velocity P-wave (km/s) = 5.97291 7.01150 6.51294
#
# Compressibility (1/GPa) = 0.02848763
#
# Stress axis : x y z
#
# Youngs Moduli (GPa) = 59.77537 84.40157 82.36689
#
# Poissons Ratio (x) = 0.40192 -0.03967
# Poissons Ratio (y) = 0.28465 0.15113
# Poissons Ratio (z) = -0.02879 0.15486
#
# Static dielectric constant tensor:
#      x y z
#    x 1.731670 -0.013410 -0.009670 
#    y -0.013410 1.727930 0.002470 
#    z -0.009670 0.002470 1.743410 
# 
# From -- ./inp_files/259735.got.cif
#   From: 2010.05.17/outbox.cif.g08.bks.cpg/sg2_130_cif.got.tgz:259735.got - 2010.06.03 11:33:40.
