data_PCOD9111502
_publ_section_title
;
Structure prediction by ZEFSAII (Michael W. Deem and Ramdas Pophale) SiO2 
 PCOD9111502
Probable space group: P -1
;
_chemical_formula_sum "Si O2"
_cell_formula_units_Z 16
_cell_length_a 16.822259
_cell_length_b 21.655476
_cell_length_c 11.131790
_cell_angle_alpha 38.558777
_cell_angle_beta 156.598701
_cell_angle_gamma 155.967246
_cell_volume 615.042484
_symmetry_space_group_name_H-M "P -1"
_symmetry_group_IT_number 2
_symmetry_cell_setting 'triclinic'
loop_
_space_group_symop_operation_xyz
x,y,z
-x,-y,-z
loop_
_atom_site_type_symbol
_atom_site_label
_atom_site_fract_x
_atom_site_fract_y
_atom_site_fract_z
Si Si1 0.633109 0.884246 0.697900
Si Si2 0.697139 0.304468 0.725771
Si Si3 0.800140 0.118836 0.900158
Si Si4 0.782984 0.568779 0.381864
Si Si5 0.321498 0.493840 0.001255
Si Si6 0.781175 0.351571 0.297319
Si Si7 0.042955 0.011446 0.399794
Si Si8 0.136753 0.838292 0.793243
O O1 0.439876 0.779358 0.468053
O O2 0.545985 0.964978 0.475793
O O3 0.476047 0.772311 0.766696
O O4 0.000000 0.000000 0.000000
O O5 0.754791 0.444450 0.580449
O O6 0.410244 0.178607 0.616288
O O7 0.942424 0.310539 0.095009
O O8 0.094444 0.307552 0.980820
O O9 0.840328 0.132444 0.077754
O O10 0.849288 0.029610 0.052265
O O11 0.147294 0.700075 0.630675
O O12 0.500000 0.500000 0.000000
O O13 0.686313 0.604703 0.302088
O O14 0.272020 0.552890 0.951301
O O15 0.137098 0.479170 0.659755
O O16 0.951101 0.865313 0.450728
O O17 0.000000 0.000000 0.500000
O O18 0.500000 0.000000 0.000000
#
# Coordination Sequence:
#
# PCOD9111502 Si02
#       8
#     2   2   2   2   2   2   2   2
#     4  10  20  32  44  60  93 140 172 188 215 273
#     4  10  17  29  46  68 101 127 151 190 240 285
#     4   9  15  27  44  64  95 120 151 192 241 279
#     4  10  17  26  47  70  95 128 153 189 248 297
#     4   9  15  26  44  66  89 119 149 191 245 287
#     4   9  17  28  42  63  90 125 163 189 229 277
#     4   9  16  27  45  70  97 120 145 193 249 301
#     4   8  15  24  40  65  93 122 146 185 239 297
#
# _framework density 26.014461000000001
#
# number of rings (size 3 to 8) (size 9 to 14) (size 15 to 20)
#    0.000    2.750    1.250    3.750    0.000    0.000 
#    0.000    0.625    0.000    0.000    0.000    0.000 
#    0.000  126.000    0.000    0.000    0.000    0.000 
#
# Total GULP energy -89107.767427 kJ/mol
# GULP energy per Si atom -5569.235464 kJ/mol
# Density = 2.595525 g / cm^3
# Si number density = 26.014461 Si / 1000 Ang^3
#
#
#
# Elastic Constant Matrix: (Units=GPa)
#
#
# Indices 1 2 3 4 5 6 
#
# 1 81.9420 38.5416 49.8855 -1.2517 41.7328 13.8997
# 2 38.5416 117.7556 60.8895 -27.7798 29.0192 17.4932
# 3 49.8855 60.8895 173.1077 -37.0736 64.9021 -10.9022
# 4 -1.2517 -27.7798 -37.0736 52.6808 -5.2914 11.7193
# 5 41.7328 29.0192 64.9021 -5.2914 64.5634 -0.8657
# 6 13.8997 17.4932 -10.9022 11.7193 -0.8657 39.1672
#
#
#
# Elastic Compliance Matrix: (Units=1/GPa)
#
#
# Indices 1 2 3 4 5 6 
#
# 1 0.021262 -0.002808 -0.001921 -0.001971 -0.010799 -0.006475
# 2 -0.002808 0.013984 -0.002549 0.007181 -0.001429 -0.008139
# 3 -0.001921 -0.002549 0.012072 0.005431 -0.009258 0.003351
# 4 -0.001971 0.007181 0.005431 0.028138 -0.005234 -0.009531
# 5 -0.010799 -0.001429 -0.009258 -0.005234 0.032045 0.004168
# 6 -0.006475 -0.008139 0.003351 -0.009531 0.004168 0.035341
#
#
# Mechanical properties :
#
#
# Convention : Reuss Voigt Hill
#
# Bulk Modulus (GPa) = 30.52155 74.60428 52.56292
# Shear Modulus (GPa) = 29.70567 46.18152 37.94360
#
# Velocity S-wave (km/s) = 3.38285 4.21791 3.82325
# Velocity P-wave (km/s) = 5.19772 7.24302 6.30387
#
# Compressibility (1/GPa) = 0.03276374
#
# Stress axis : x y z
#
# Youngs Moduli (GPa) = 47.03277 71.50821 82.83720
#
# Poissons Ratio (x) = 0.20078 0.15911
# Poissons Ratio (y) = 0.13206 0.21112
# Poissons Ratio (z) = 0.09034 0.18224
#
# Static dielectric constant tensor:
#      x y z
#    x 2.153490 -0.041440 0.026960 
#    y -0.041440 2.075110 -0.047570 
#    z 0.026960 -0.047570 2.127150 
# 
# From -- ./inp_files/316974.got.cif
#   From: 2010.05.17/outbox.cif.g08.bks.cpg/sg2_159_cif.got.tgz:316974.got - 2010.06.03 11:33:40.
