data_PCOD9111480
_publ_section_title
;
Structure prediction by ZEFSAII (Michael W. Deem and Ramdas Pophale) SiO2 
 PCOD9111480
Probable space group: P -1
;
_chemical_formula_sum "Si O2"
_cell_formula_units_Z 16
_cell_length_a 20.294656
_cell_length_b 17.870638
_cell_length_c 9.684850
_cell_angle_alpha 36.300047
_cell_angle_beta 36.680464
_cell_angle_gamma 19.111233
_cell_volume 665.809580
_symmetry_space_group_name_H-M "P -1"
_symmetry_group_IT_number 2
_symmetry_cell_setting 'triclinic'
loop_
_space_group_symop_operation_xyz
x,y,z
-x,-y,-z
loop_
_atom_site_type_symbol
_atom_site_label
_atom_site_fract_x
_atom_site_fract_y
_atom_site_fract_z
Si Si1 0.917948 0.816030 0.831126
Si Si2 0.461005 0.964442 0.260217
Si Si3 0.908224 0.430546 0.385397
Si Si4 0.505772 0.312934 0.871448
Si Si5 0.267918 0.653012 0.504128
Si Si6 0.406468 0.739512 0.680245
Si Si7 0.692690 0.439084 0.897678
Si Si8 0.092271 0.441613 0.283585
O O1 0.977590 0.693369 0.768504
O O2 0.032352 0.841960 0.596593
O O3 0.025907 0.640679 0.038622
O O4 0.674259 0.055781 0.907808
O O5 0.680194 0.707056 0.329785
O O6 0.337686 0.950445 0.466153
O O7 0.334199 0.176783 0.260919
O O8 0.500000 0.000000 0.000000
O O9 0.871439 0.332139 0.669679
O O10 0.003824 0.434872 0.325266
O O11 0.364362 0.506162 0.701711
O O12 0.658225 0.274732 0.731338
O O13 0.357089 0.431637 0.074074
O O14 0.395639 0.461906 0.452376
O O15 0.488249 0.643906 0.840783
O O16 0.274903 0.741931 0.859685
O O17 0.000000 0.500000 0.500000
#
# Coordination Sequence:
#
# PCOD9111480 Si02
#       8
#     2   2   2   2   2   2   2   2
#     4  12  24  43  66  96 130 174 219 270 322 394
#     4  11  22  44  71  95 130 180 215 268 325 394
#     4  11  25  46  69  92 130 178 221 267 336 395
#     4  10  24  37  69  98 134 168 212 269 322 388
#     4  10  20  43  64  99 132 171 213 258 332 393
#     4   9  18  36  69  92 125 171 213 258 320 390
#     4   9  19  41  63  96 129 167 212 264 325 386
#     4  12  30  45  63 101 130 165 230 281 324 393
#
# _framework density 24.030895999999998
#
# number of rings (size 3 to 8) (size 9 to 14) (size 15 to 20)
#    0.000    1.500    3.750    0.750    7.000    1.500 
#    0.000    0.625    0.000    0.000    0.000    0.000 
#    0.000    0.000    0.000    0.000    0.000    0.000 
#
# Total GULP energy -89452.954814 kJ/mol
# GULP energy per Si atom -5590.809676 kJ/mol
# Density = 2.397620 g / cm^3
# Si number density = 24.030896 Si / 1000 Ang^3
#
#
#
# Elastic Constant Matrix: (Units=GPa)
#
#
# Indices 1 2 3 4 5 6 
#
# 1 72.6841 12.9569 19.9216 21.5242 9.9791 -3.9680
# 2 12.9569 85.8894 20.7924 16.2277 13.2862 20.1502
# 3 19.9216 20.7924 119.3474 16.4156 7.5170 13.2597
# 4 21.5242 16.2277 16.4156 25.2192 14.5871 7.3863
# 5 9.9791 13.2862 7.5170 14.5871 53.9209 20.2460
# 6 -3.9680 20.1502 13.2597 7.3863 20.2460 24.4840
#
#
#
# Elastic Compliance Matrix: (Units=1/GPa)
#
#
# Indices 1 2 3 4 5 6 
#
# 1 0.021290 -0.002330 -0.002190 -0.017333 -0.004055 0.015136
# 2 -0.002330 0.016061 -0.000176 -0.006038 0.003650 -0.014698
# 3 -0.002190 -0.000176 0.009891 -0.004062 0.002609 -0.006499
# 4 -0.017333 -0.006038 -0.004062 0.069381 -0.010566 -0.007833
# 5 -0.004055 0.003650 0.002609 -0.010566 0.031326 -0.027790
# 6 0.015136 -0.014698 -0.006499 -0.007833 -0.027790 0.084255
#
#
# Mechanical properties :
#
#
# Convention : Reuss Voigt Hill
#
# Bulk Modulus (GPa) = 26.41953 42.80694 34.61324
# Shear Modulus (GPa) = 19.66850 35.67484 27.67167
#
# Velocity S-wave (km/s) = 2.86399 3.85715 3.39706
# Velocity P-wave (km/s) = 4.68556 6.13912 5.46092
#
# Compressibility (1/GPa) = 0.03785079
#
# Stress axis : x y z
#
# Youngs Moduli (GPa) = 46.97087 62.26130 101.09732
#
# Poissons Ratio (x) = 0.14510 0.22139
# Poissons Ratio (y) = 0.10946 0.01775
# Poissons Ratio (z) = 0.10286 0.01093
#
# Static dielectric constant tensor:
#      x y z
#    x 1.993640 -0.005590 -0.089380 
#    y -0.005590 1.972770 -0.024790 
#    z -0.089380 -0.024790 1.934520 
# 
# From -- ./inp_files/307980.got.cif
#   From: 2010.05.17/outbox.cif.g08.bks.cpg/sg2_154_cif.got.tgz:307980.got - 2010.06.03 11:33:40.
