data_PCOD9111438
_publ_section_title
;
Structure prediction by ZEFSAII (Michael W. Deem and Ramdas Pophale) SiO2 
 PCOD9111438
Probable space group: P -1
;
_chemical_formula_sum "Si O2"
_cell_formula_units_Z 12
_cell_length_a 9.796843
_cell_length_b 8.363341
_cell_length_c 10.855075
_cell_angle_alpha 124.555750
_cell_angle_beta 137.779563
_cell_angle_gamma 79.620179
_cell_volume 443.580728
_symmetry_space_group_name_H-M "P -1"
_symmetry_group_IT_number 2
_symmetry_cell_setting 'triclinic'
loop_
_space_group_symop_operation_xyz
x,y,z
-x,-y,-z
loop_
_atom_site_type_symbol
_atom_site_label
_atom_site_fract_x
_atom_site_fract_y
_atom_site_fract_z
Si Si1 0.775145 0.754512 0.425793
Si Si2 0.028911 0.191402 0.940494
Si Si3 0.284132 0.644942 0.651339
Si Si4 0.304378 0.627332 0.171104
Si Si5 0.469946 0.197577 0.342426
Si Si6 0.670120 0.940897 0.215484
O O1 0.832052 0.571195 0.444933
O O2 0.785540 0.824354 0.321337
O O3 0.502689 0.650957 0.223422
O O4 0.895509 0.972813 0.680419
O O5 0.857246 0.262634 0.928309
O O6 0.149096 0.384335 0.005744
O O7 0.219751 0.169028 0.140234
O O8 0.362937 0.609346 0.552451
O O9 0.185331 0.820853 0.641576
O O10 0.516173 0.789821 0.940917
O O11 0.434202 0.751845 0.435670
O O12 0.511045 0.001492 0.227392
#
# Coordination Sequence:
#
# PCOD9111438 Si02
#       6
#     2   2   2   2   2   2
#     4  12  22  41  67  95 128 168 213 261 321 381
#     4  11  23  37  65  97 127 171 213 249 331 385
#     4   9  20  40  69  87 129 172 205 268 318 363
#     4  11  23  42  60  99 136 159 210 274 310 382
#     4  10  20  43  63  90 134 163 205 269 315 370
#     4   9  20  41  67  89 128 172 205 267 321 361
#
# _framework density 27.052572000000001
#
# number of rings (size 3 to 8) (size 9 to 14) (size 15 to 20)
#    1.000    0.667    3.333    1.500    0.000    0.667 
#    0.000    1.667    0.000    0.000    0.000    0.000 
#    0.000    0.000    0.000    0.000    0.000    0.000 
#
# Total GULP energy -67224.849686 kJ/mol
# GULP energy per Si atom -5602.070807 kJ/mol
# Density = 2.699100 g / cm^3
# Si number density = 27.052572 Si / 1000 Ang^3
#
#
#
# Elastic Constant Matrix: (Units=GPa)
#
#
# Indices 1 2 3 4 5 6 
#
# 1 67.0943 38.4273 19.2857 -6.2443 13.7336 22.6776
# 2 38.4273 204.5799 51.5508 -15.6452 9.6511 -8.9829
# 3 19.2857 51.5508 75.4807 12.7575 19.8070 -1.4668
# 4 -6.2443 -15.6452 12.7575 44.2147 -0.6722 7.4343
# 5 13.7336 9.6511 19.8070 -0.6722 28.6302 -1.5271
# 6 22.6776 -8.9829 -1.4668 7.4343 -1.5271 56.1170
#
#
#
# Elastic Compliance Matrix: (Units=1/GPa)
#
#
# Indices 1 2 3 4 5 6 
#
# 1 0.023563 -0.003611 -0.002117 0.004369 -0.009104 -0.010982
# 2 -0.003611 0.007074 -0.005237 0.003196 0.003158 0.002117
# 3 -0.002117 -0.005237 0.022265 -0.009013 -0.012757 0.001446
# 4 0.004369 0.003196 -0.009013 0.027874 0.003446 -0.005088
# 5 -0.009104 0.003158 -0.012757 0.003446 0.047387 0.004684
# 6 -0.010982 0.002117 0.001446 -0.005088 0.004684 0.023436
#
#
# Mechanical properties :
#
#
# Convention : Reuss Voigt Hill
#
# Bulk Modulus (GPa) = 32.28642 62.85361 47.57001
# Shear Modulus (GPa) = 27.19557 41.65178 34.42368
#
# Velocity S-wave (km/s) = 3.17406 3.92811 3.57104
# Velocity P-wave (km/s) = 5.03920 6.62251 5.88435
#
# Compressibility (1/GPa) = 0.03097277
#
# Stress axis : x y z
#
# Youngs Moduli (GPa) = 42.43903 141.35581 44.91359
#
# Poissons Ratio (x) = 0.51046 0.09508
# Poissons Ratio (y) = 0.15325 0.23520
# Poissons Ratio (z) = 0.08984 0.74024
#
# Static dielectric constant tensor:
#      x y z
#    x 2.213480 0.001220 0.031770 
#    y 0.001220 2.153230 0.036490 
#    z 0.031770 0.036490 1.998000 
# 
# From -- ./inp_files/527033.got.cif
#   From: 2010.05.17/outbox.cif.g08.bks.cpg/sg2_264_cif.got.tgz:527033.got - 2010.06.03 11:33:40.
