data_PCOD9111987
_publ_section_title
;
Structure prediction by ZEFSAII (Michael W. Deem and Ramdas Pophale) SiO2 
 PCOD9111987
Probable space group: P -1
;
_chemical_formula_sum "Si O2"
_cell_formula_units_Z 16
_cell_length_a 15.067170
_cell_length_b 26.971906
_cell_length_c 18.995340
_cell_angle_alpha 15.121911
_cell_angle_beta 161.398840
_cell_angle_gamma 152.820020
_cell_volume 611.788537
_symmetry_space_group_name_H-M "P -1"
_symmetry_group_IT_number 2
_symmetry_cell_setting 'triclinic'
loop_
_space_group_symop_operation_xyz
x,y,z
-x,-y,-z
loop_
_atom_site_type_symbol
_atom_site_label
_atom_site_fract_x
_atom_site_fract_y
_atom_site_fract_z
Si Si1 0.130859 0.059302 0.193874
Si Si2 0.652613 0.384632 0.572068
Si Si3 0.613176 0.280829 0.835958
Si Si4 0.757380 0.820822 0.189753
Si Si5 0.321833 0.272988 0.257873
Si Si6 0.280616 0.560368 0.602323
Si Si7 0.762950 0.833664 0.503683
Si Si8 0.228463 0.113796 0.038047
O O1 0.141269 0.169401 0.976561
O O2 0.436047 0.018631 0.517768
O O3 0.866104 0.199542 0.846617
O O4 0.047823 0.863491 0.378126
O O5 0.588666 0.518647 0.267879
O O6 0.465359 0.232027 0.624494
O O7 0.574836 0.424944 0.541811
O O8 0.006710 0.315086 0.928702
O O9 0.348840 0.301141 0.663196
O O10 0.894042 0.247283 0.144835
O O11 0.679738 0.065356 0.143114
O O12 0.787621 0.746948 0.232848
O O13 0.527968 0.049569 0.699281
O O14 0.492491 0.441090 0.160907
O O15 0.242042 0.268750 0.285075
O O16 0.000000 0.500000 0.500000
O O17 0.000000 0.000000 0.000000
#
# Coordination Sequence:
#
# PCOD9111987 Si02
#       8
#     2   2   2   2   2   2   2   2
#     4   9  18  31  46  66  91 120 152 182 221 265
#     4  10  17  27  41  57  88 123 148 182 221 256
#     4   9  16  24  37  62  89 116 148 173 213 276
#     4   9  16  26  42  65  92 117 142 177 220 268
#     4   8  16  28  40  61  88 116 152 182 214 268
#     4  10  20  32  46  65  89 120 157 191 221 258
#     4   8  15  24  36  57  88 120 146 174 212 264
#     4   9  17  30  47  65  90 118 146 185 225 263
#
# _framework density 26.152828
#
# number of rings (size 3 to 8) (size 9 to 14) (size 15 to 20)
#    0.000    3.000    0.000    2.625    0.000    1.500 
#    0.000    0.000    0.000    0.000    0.000    0.875 
#    0.000   18.000    0.000    0.500    0.000    0.000 
#
# Total GULP energy -89129.947263 kJ/mol
# GULP energy per Si atom -5570.621704 kJ/mol
# Density = 2.609330 g / cm^3
# Si number density = 26.152828 Si / 1000 Ang^3
#
#
#
# Elastic Constant Matrix: (Units=GPa)
#
#
# Indices 1 2 3 4 5 6 
#
# 1 157.8102 46.7180 35.5229 8.1022 -27.3128 3.6405
# 2 46.7180 145.4103 62.8856 36.6402 -16.2877 16.0866
# 3 35.5229 62.8856 77.5474 26.1626 2.4315 -16.6352
# 4 8.1022 36.6402 26.1626 42.2490 -5.1589 -9.2621
# 5 -27.3128 -16.2877 2.4315 -5.1589 30.1419 6.4518
# 6 3.6405 16.0866 -16.6352 -9.2621 6.4518 44.3709
#
#
#
# Elastic Compliance Matrix: (Units=1/GPa)
#
#
# Indices 1 2 3 4 5 6 
#
# 1 0.009832 0.002265 -0.008643 0.001635 0.012467 -0.006339
# 2 0.002265 0.021241 -0.020218 -0.008495 0.017956 -0.019851
# 3 -0.008643 -0.020218 0.041224 -0.003937 -0.028496 0.026816
# 4 0.001635 -0.008495 -0.003937 0.035221 0.001392 0.008619
# 5 0.012467 0.017956 -0.028496 0.001392 0.062495 -0.027013
# 6 -0.006339 -0.019851 0.026816 0.008619 -0.027013 0.046035
#
#
# Mechanical properties :
#
#
# Convention : Reuss Voigt Hill
#
# Bulk Modulus (GPa) = 52.34163 74.55786 63.44974
# Shear Modulus (GPa) = 18.14186 39.06179 28.60182
#
# Velocity S-wave (km/s) = 2.63665 3.86890 3.31061
# Velocity P-wave (km/s) = 5.41539 6.96622 6.23918
#
# Compressibility (1/GPa) = 0.01910525
#
# Stress axis : x y z
#
# Youngs Moduli (GPa) = 101.71219 47.07901 24.25785
#
# Poissons Ratio (x) = -0.10662 0.20965
# Poissons Ratio (y) = -0.23034 0.49044
# Poissons Ratio (z) = 0.87905 0.95183
#
# Static dielectric constant tensor:
#      x y z
#    x 2.047830 0.022770 -0.007570 
#    y 0.022770 2.266800 0.037310 
#    z -0.007570 0.037310 2.087570 
# 
# From -- ./inp_files/97061.got.cif
#   From: 2010.05.17/outbox.cif.g08.bks.cpg/sg2_49_cif.got.tgz:97061.got - 2010.06.03 11:33:40.
