data_PCOD9111896
_publ_section_title
;
Structure prediction by ZEFSAII (Michael W. Deem and Ramdas Pophale) SiO2 
 PCOD9111896
Probable space group: P -1
;
_chemical_formula_sum "Si O2"
_cell_formula_units_Z 12
_cell_length_a 13.085165
_cell_length_b 6.766378
_cell_length_c 13.638155
_cell_angle_alpha 100.686641
_cell_angle_beta 158.039869
_cell_angle_gamma 83.036489
_cell_volume 439.479270
_symmetry_space_group_name_H-M "P -1"
_symmetry_group_IT_number 2
_symmetry_cell_setting 'triclinic'
loop_
_space_group_symop_operation_xyz
x,y,z
-x,-y,-z
loop_
_atom_site_type_symbol
_atom_site_label
_atom_site_fract_x
_atom_site_fract_y
_atom_site_fract_z
Si Si1 0.829858 0.666195 0.312405
Si Si2 0.975111 0.930958 0.806829
Si Si3 0.634124 0.389966 0.427601
Si Si4 0.735561 0.424611 0.021530
Si Si5 0.180891 0.316355 0.161134
Si Si6 0.270973 0.976852 0.611010
O O1 0.036795 0.835935 0.453004
O O2 0.000000 0.500000 0.500000
O O3 0.661742 0.535204 0.065507
O O4 0.308752 0.189399 0.722360
O O5 0.837484 0.777275 0.754859
O O6 0.202766 0.806207 0.949068
O O7 0.810958 0.983576 0.570174
O O8 0.060151 0.133643 0.963490
O O9 0.494916 0.361421 0.406334
O O10 0.532252 0.193659 0.249806
O O11 0.961951 0.449111 0.723251
O O12 0.488182 0.557801 0.258224
O O13 0.000000 0.500000 0.000000
#
# Coordination Sequence:
#
# PCOD9111896 Si02
#       6
#     2   2   2   2   2   2
#     4  10  20  43  74 107 144 194 242 297 371 439
#     4  11  24  45  74 110 146 196 247 307 366 435
#     4  11  25  48  74 107 152 199 242 306 366 436
#     4  11  24  47  76 108 152 190 247 306 367 437
#     4  11  24  46  74 110 148 200 248 304 369 442
#     4  10  23  41  71 107 146 192 245 303 363 441
#
# _framework density 27.305043000000001
#
# number of rings (size 3 to 8) (size 9 to 14) (size 15 to 20)
#    0.000    1.333    3.333    2.000    0.000    3.333 
#    0.000    5.000    0.000    0.000    0.000    0.000 
#    0.000    0.000    0.000    0.000    0.000    0.000 
#
# Total GULP energy -67166.800258 kJ/mol
# GULP energy per Si atom -5597.233355 kJ/mol
# Density = 2.724290 g / cm^3
# Si number density = 27.305043 Si / 1000 Ang^3
#
#
#
# Elastic Constant Matrix: (Units=GPa)
#
#
# Indices 1 2 3 4 5 6 
#
# 1 194.5732 41.6931 48.2123 16.3783 -5.0549 -27.3146
# 2 41.6931 189.8559 38.4750 26.1376 -11.3447 -23.1589
# 3 48.2123 38.4750 79.2885 -8.2463 -13.5826 15.3577
# 4 16.3783 26.1376 -8.2463 50.0341 -3.1100 -11.7920
# 5 -5.0549 -11.3447 -13.5826 -3.1100 48.6293 -3.6044
# 6 -27.3146 -23.1589 15.3577 -11.7920 -3.6044 68.2476
#
#
#
# Elastic Compliance Matrix: (Units=1/GPa)
#
#
# Indices 1 2 3 4 5 6 
#
# 1 0.007205 0.000352 -0.005669 -0.002623 -0.000639 0.003792
# 2 0.000352 0.007003 -0.004503 -0.003810 0.000383 0.002892
# 3 -0.005669 -0.004503 0.020991 0.006217 0.004085 -0.007230
# 4 -0.002623 -0.003810 0.006217 0.024121 0.002158 0.000540
# 5 -0.000639 0.000383 0.004085 0.002158 0.021902 0.000485
# 6 0.003792 0.002892 -0.007230 0.000540 0.000485 0.018898
#
#
# Mechanical properties :
#
#
# Convention : Reuss Voigt Hill
#
# Bulk Modulus (GPa) = 64.26905 80.05315 72.16110
# Shear Modulus (GPa) = 40.01771 55.73799 47.87785
#
# Velocity S-wave (km/s) = 3.83244 4.52298 4.19196
# Velocity P-wave (km/s) = 6.57054 7.52717 7.06506
#
# Compressibility (1/GPa) = 0.01555959
#
# Stress axis : x y z
#
# Youngs Moduli (GPa) = 138.79051 142.80363 47.63967
#
# Poissons Ratio (x) = -0.05025 0.27005
# Poissons Ratio (y) = -0.04884 0.21451
# Poissons Ratio (z) = 0.78675 0.64302
#
# Static dielectric constant tensor:
#      x y z
#    x 2.218810 0.035590 0.093470 
#    y 0.035590 2.173360 0.143090 
#    z 0.093470 0.143090 2.139260 
# 
# From -- ./inp_files/574658.got.cif
#   From: 2010.05.17/outbox.cif.g08.bks.cpg/sg2_288_cif.got.tgz:574658.got - 2010.06.03 11:33:40.
