data_PCOD9111182
_publ_section_title
;
Structure prediction by ZEFSAII (Michael W. Deem and Ramdas Pophale) SiO2 
 PCOD9111182
Probable space group: P -1
;
_chemical_formula_sum "Si O2"
_cell_formula_units_Z 13
_cell_length_a 12.224955
_cell_length_b 8.669313
_cell_length_c 12.047179
_cell_angle_alpha 61.519251
_cell_angle_beta 76.593169
_cell_angle_gamma 128.878419
_cell_volume 550.753087
_symmetry_space_group_name_H-M "P -1"
_symmetry_group_IT_number 2
_symmetry_cell_setting 'triclinic'
loop_
_space_group_symop_operation_xyz
x,y,z
-x,-y,-z
loop_
_atom_site_type_symbol
_atom_site_label
_atom_site_fract_x
_atom_site_fract_y
_atom_site_fract_z
Si Si1 0.500000 0.500000 0.000000
Si Si2 0.444308 0.842741 0.901582
Si Si3 0.054568 0.751976 0.727680
Si Si4 0.084187 0.548708 0.342996
Si Si5 0.802184 0.800485 0.267702
Si Si6 0.193296 0.057196 0.021398
Si Si7 0.575452 0.994892 0.377447
O O1 0.552177 0.360872 0.016542
O O2 0.407772 0.391190 0.929520
O O3 0.676389 0.218616 0.772424
O O4 0.448240 0.906512 0.751969
O O5 0.212339 0.608117 0.078134
O O6 0.086066 0.797670 0.570529
O O7 0.139932 0.024531 0.691495
O O8 0.178925 0.750781 0.748831
O O9 0.111697 0.762113 0.191055
O O10 0.000000 0.500000 0.500000
O O11 0.584671 0.387407 0.471186
O O12 0.005132 0.945280 0.137913
O O13 0.772882 0.887733 0.137668
O O14 0.500000 0.000000 0.500000
#
# Coordination Sequence:
#
# PCOD9111182 Si02
#       7
#     1   2   2   2   2   2   2
#     4  10  20  42  70 102 138 194 228 288 356 438
#     4  11  24  45  74 106 144 192 247 292 369 436
#     4  12  26  46  74 108 145 190 253 310 357 433
#     4  11  25  46  72 105 146 195 243 300 373 439
#     4  11  24  44  70 112 143 190 244 304 363 427
#     4  10  22  41  73 100 148 187 240 290 374 435
#     4  12  26  45  74 106 148 193 241 305 368 433
#
# _framework density 23.604042
#
# number of rings (size 3 to 8) (size 9 to 14) (size 15 to 20)
#    0.000    0.923    1.538    5.077    6.462    1.231 
#    0.000    3.077    3.385    0.000    0.000    0.000 
#    0.000    0.000    0.000    0.000    0.000    0.000 
#
# Total GULP energy -72478.679510 kJ/mol
# GULP energy per Si atom -5575.283039 kJ/mol
# Density = 2.355032 g / cm^3
# Si number density = 23.604042 Si / 1000 Ang^3
#
#
#
# Elastic Constant Matrix: (Units=GPa)
#
#
# Indices 1 2 3 4 5 6 
#
# 1 150.1177 48.9168 49.3142 4.8635 -2.6154 32.2655
# 2 48.9168 201.3796 38.8495 20.0318 -17.3410 19.9355
# 3 49.3142 38.8495 71.6098 8.9023 -6.4698 14.2461
# 4 4.8635 20.0318 8.9023 18.8275 2.6225 -3.9860
# 5 -2.6154 -17.3410 -6.4698 2.6225 13.4909 -2.7151
# 6 32.2655 19.9355 14.2461 -3.9860 -2.7151 45.1207
#
#
#
# Elastic Compliance Matrix: (Units=1/GPa)
#
#
# Indices 1 2 3 4 5 6 
#
# 1 0.009849 -0.001216 -0.005568 0.000832 -0.003469 -0.004883
# 2 -0.001216 0.007430 -0.000633 -0.009239 0.010322 -0.002408
# 3 -0.005568 -0.000633 0.020676 -0.009507 0.009359 -0.002543
# 4 0.000832 -0.009239 -0.009507 0.073555 -0.028301 0.011283
# 5 -0.003469 0.010322 0.009359 -0.028301 0.096359 -0.001737
# 6 -0.004883 -0.002408 -0.002543 0.011283 -0.001737 0.028414
#
#
# Mechanical properties :
#
#
# Convention : Reuss Voigt Hill
#
# Bulk Modulus (GPa) = 43.25334 77.47424 60.36379
# Shear Modulus (GPa) = 19.31823 34.55626 26.93725
#
# Velocity S-wave (km/s) = 2.86392 3.83037 3.38185
# Velocity P-wave (km/s) = 5.41298 7.24265 6.39361
#
# Compressibility (1/GPa) = 0.02311960
#
# Stress axis : x y z
#
# Youngs Moduli (GPa) = 101.53289 134.59850 48.36586
#
# Poissons Ratio (x) = 0.16372 0.26931
# Poissons Ratio (y) = 0.12350 0.03061
# Poissons Ratio (z) = 0.56535 0.08518
#
# Static dielectric constant tensor:
#      x y z
#    x 1.814200 -0.012240 -0.036840 
#    y -0.012240 2.013060 0.010050 
#    z -0.036840 0.010050 1.956890 
# 
# From -- ./inp_files/155146.got.cif
#   From: 2010.05.17/outbox.cif.g08.bks.cpg/sg2_78_cif.got.tgz:155146.got - 2010.06.03 11:33:40.
