data_PCOD9111118
_publ_section_title
;
Structure prediction by ZEFSAII (Michael W. Deem and Ramdas Pophale) SiO2 
 PCOD9111118
Probable space group: P -1
;
_chemical_formula_sum "Si O2"
_cell_formula_units_Z 12
_cell_length_a 10.435496
_cell_length_b 10.967484
_cell_length_c 12.915863
_cell_angle_alpha 33.475948
_cell_angle_beta 34.410150
_cell_angle_gamma 40.749471
_cell_volume 449.209258
_symmetry_space_group_name_H-M "P -1"
_symmetry_group_IT_number 2
_symmetry_cell_setting 'triclinic'
loop_
_space_group_symop_operation_xyz
x,y,z
-x,-y,-z
loop_
_atom_site_type_symbol
_atom_site_label
_atom_site_fract_x
_atom_site_fract_y
_atom_site_fract_z
Si Si1 0.050727 0.480119 0.859896
Si Si2 0.247573 0.846858 0.402247
Si Si3 0.918727 0.755466 0.555439
Si Si4 0.485150 0.848556 0.516339
Si Si5 0.708134 0.956484 0.091294
Si Si6 0.656031 0.467310 0.814290
O O1 0.178081 0.794568 0.368378
O O2 0.101126 0.222936 0.970378
O O3 0.000000 0.500000 0.000000
O O4 0.741028 0.204740 0.918137
O O5 0.466272 0.953461 0.195632
O O6 0.268093 0.604705 0.616093
O O7 0.000000 0.000000 0.500000
O O8 0.744799 0.999917 0.489810
O O9 0.857923 0.598848 0.616569
O O10 0.500000 0.500000 0.000000
O O11 0.888445 0.621654 0.777768
O O12 0.500000 0.000000 0.500000
O O13 0.679450 0.848019 0.300527
O O14 0.508508 0.601575 0.722713
#
# Coordination Sequence:
#
# PCOD9111118 Si02
#       6
#     2   2   2   2   2   2
#     4  10  25  47  72 107 151 200 252 309 357 438
#     4  10  20  45  69 100 151 188 241 306 364 436
#     4   9  21  43  68 104 153 190 236 303 373 436
#     4  10  20  42  69 106 151 194 231 311 372 438
#     4  12  22  44  77 112 147 196 250 298 375 446
#     4  11  21  41  76 110 145 194 245 304 374 447
#
# _framework density 26.713608000000001
#
# number of rings (size 3 to 8) (size 9 to 14) (size 15 to 20)
#    1.000    0.667    5.000    0.500    0.000    2.000 
#    3.000    7.500    0.000    0.000    0.000    0.000 
#    0.000    0.000    0.000    0.000    0.000    0.000 
#
# Total GULP energy -67080.985261 kJ/mol
# GULP energy per Si atom -5590.082105 kJ/mol
# Density = 2.665281 g / cm^3
# Si number density = 26.713608 Si / 1000 Ang^3
#
#
#
# Elastic Constant Matrix: (Units=GPa)
#
#
# Indices 1 2 3 4 5 6 
#
# 1 139.8529 33.2038 44.8159 -10.7071 15.7453 4.6705
# 2 33.2038 160.9032 77.0152 -23.0205 25.3711 33.5300
# 3 44.8159 77.0152 142.8984 -21.0283 29.1324 3.7240
# 4 -10.7071 -23.0205 -21.0283 53.9102 10.8703 2.7240
# 5 15.7453 25.3711 29.1324 10.8703 56.2537 -11.2033
# 6 4.6705 33.5300 3.7240 2.7240 -11.2033 42.9771
#
#
#
# Elastic Compliance Matrix: (Units=1/GPa)
#
#
# Indices 1 2 3 4 5 6 
#
# 1 0.008116 -0.000034 -0.001962 0.001241 -0.001722 -0.001213
# 2 -0.000034 0.012544 -0.004213 0.005675 -0.006866 -0.011567
# 3 -0.001962 -0.004213 0.010945 0.002700 -0.003445 0.001483
# 4 0.001241 0.005675 0.002700 0.024950 -0.010966 -0.009236
# 5 -0.001722 -0.006866 -0.003445 -0.010966 0.028015 0.013840
# 6 -0.001213 -0.011567 0.001483 -0.009236 0.013840 0.036489
#
#
# Mechanical properties :
#
#
# Convention : Reuss Voigt Hill
#
# Bulk Modulus (GPa) = 52.12027 83.74714 67.93370
# Shear Modulus (GPa) = 35.74645 49.86951 42.80798
#
# Velocity S-wave (km/s) = 3.66202 4.32536 4.00744
# Velocity P-wave (km/s) = 6.11831 7.50753 6.84824
#
# Compressibility (1/GPa) = 0.01918639
#
# Stress axis : x y z
#
# Youngs Moduli (GPa) = 123.20591 79.72169 91.36426
#
# Poissons Ratio (x) = 0.00272 0.17925
# Poissons Ratio (y) = 0.00421 0.38495
# Poissons Ratio (z) = 0.24172 0.33590
#
# Static dielectric constant tensor:
#      x y z
#    x 2.216420 -0.012930 -0.034820 
#    y -0.012930 2.137940 0.015710 
#    z -0.034820 0.015710 2.148180 
# 
# From -- ./inp_files/424875.got.cif
#   From: 2010.05.17/outbox.cif.g08.bks.cpg/sg2_213_cif.got.tgz:424875.got - 2010.06.03 11:33:40.
