data_PCOD9111378
_publ_section_title
;
Structure prediction by ZEFSAII (Michael W. Deem and Ramdas Pophale) SiO2 
 PCOD9111378
Probable space group: P -1
;
_chemical_formula_sum "Si O2"
_cell_formula_units_Z 16
_cell_length_a 25.462727
_cell_length_b 7.420712
_cell_length_c 5.916099
_cell_angle_alpha 57.223675
_cell_angle_beta 103.560788
_cell_angle_gamma 134.817206
_cell_volume 646.118151
_symmetry_space_group_name_H-M "P -1"
_symmetry_group_IT_number 2
_symmetry_cell_setting 'triclinic'
loop_
_space_group_symop_operation_xyz
x,y,z
-x,-y,-z
loop_
_atom_site_type_symbol
_atom_site_label
_atom_site_fract_x
_atom_site_fract_y
_atom_site_fract_z
Si Si1 0.585796 0.699607 0.368122
Si Si2 0.603314 0.357992 0.269963
Si Si3 0.182376 0.437943 0.273748
Si Si4 0.865437 0.301388 0.643012
Si Si5 0.984533 0.069606 0.689639
Si Si6 0.254168 0.829358 0.677050
Si Si7 0.536177 0.830861 0.877524
Si Si8 0.229726 0.298554 0.798991
O O1 0.500000 0.500000 0.500000
O O2 0.591454 0.502217 0.356312
O O3 0.657310 0.880939 0.483854
O O4 0.594772 0.938643 0.060750
O O5 0.538812 0.235604 0.103848
O O6 0.691494 0.600621 0.134934
O O7 0.579514 0.066627 0.556635
O O8 0.151378 0.522618 0.364871
O O9 0.221062 0.345748 0.498327
O O10 0.106544 0.147801 0.261945
O O11 0.240404 0.748701 0.981462
O O12 0.805528 0.160391 0.473066
O O13 0.954271 0.565867 0.494865
O O14 0.840558 0.037770 0.955686
O O15 0.000000 0.000000 0.500000
O O16 0.000000 0.000000 0.000000
O O17 0.234448 0.539229 0.762525
O O18 0.500000 0.500000 0.000000
#
# Coordination Sequence:
#
# PCOD9111378 Si02
#       8
#     2   2   2   2   2   2   2   2
#     4  11  25  39  62  92 124 168 225 283 349 408
#     4  10  22  42  63  85 126 170 220 278 353 410
#     4  10  22  44  68  94 141 174 225 281 346 413
#     4  10  23  42  68  98 132 182 225 274 355 417
#     4  10  20  42  76 105 142 192 239 290 357 430
#     4  11  24  41  63  94 135 172 224 290 342 422
#     4   9  21  39  62  85 117 163 219 276 342 405
#     4  11  25  40  66  98 131 178 226 280 347 423
#
# _framework density 24.763272000000001
#
# number of rings (size 3 to 8) (size 9 to 14) (size 15 to 20)
#    0.000    1.750    1.250    1.500    7.000    6.000 
#    0.000    0.625    0.000    0.000    0.000    0.000 
#    0.000    0.000    0.000    0.000    0.000    0.000 
#
# Total GULP energy -89293.506974 kJ/mol
# GULP energy per Si atom -5580.844186 kJ/mol
# Density = 2.470691 g / cm^3
# Si number density = 24.763272 Si / 1000 Ang^3
#
#
#
# Elastic Constant Matrix: (Units=GPa)
#
#
# Indices 1 2 3 4 5 6 
#
# 1 67.2529 14.9244 -1.7579 6.2371 -10.3113 -3.2058
# 2 14.9244 83.2923 19.9073 -10.0784 3.3048 14.3380
# 3 -1.7579 19.9073 96.5103 -5.3879 7.8501 8.0546
# 4 6.2371 -10.0784 -5.3879 41.5866 9.6905 3.6052
# 5 -10.3113 3.3048 7.8501 9.6905 32.7878 -4.0431
# 6 -3.2058 14.3380 8.0546 3.6052 -4.0431 38.1065
#
#
#
# Elastic Compliance Matrix: (Units=1/GPa)
#
#
# Indices 1 2 3 4 5 6 
#
# 1 0.018238 -0.005263 -0.000091 -0.006525 0.008844 0.005089
# 2 -0.005263 0.015596 -0.001931 0.006206 -0.005471 -0.007070
# 3 -0.000091 -0.001931 0.011334 0.002003 -0.003414 -0.002228
# 4 -0.006525 0.006206 0.002003 0.030500 -0.013106 -0.007584
# 5 0.008844 -0.005471 -0.003414 -0.013106 0.039629 0.008969
# 6 0.005089 -0.007070 -0.002228 -0.007584 0.008969 0.031471
#
#
# Mechanical properties :
#
#
# Convention : Reuss Voigt Hill
#
# Bulk Modulus (GPa) = 32.68123 34.80033 33.74078
# Shear Modulus (GPa) = 29.14845 36.76162 32.95504
#
# Velocity S-wave (km/s) = 3.43459 3.85713 3.65197
# Velocity P-wave (km/s) = 5.38095 5.82411 5.60691
#
# Compressibility (1/GPa) = 0.03059860
#
# Stress axis : x y z
#
# Youngs Moduli (GPa) = 54.82940 64.12070 88.23189
#
# Poissons Ratio (x) = 0.33745 0.00799
# Poissons Ratio (y) = 0.28855 0.17040
# Poissons Ratio (z) = 0.00497 0.12383
#
# Static dielectric constant tensor:
#      x y z
#    x 1.972530 -0.043310 -0.086780 
#    y -0.043310 2.082600 0.144890 
#    z -0.086780 0.144890 2.106750 
# 
# From -- ./inp_files/128200.got.cif
#   From: 2010.05.17/outbox.cif.g08.bks.cpg/sg2_65_cif.got.tgz:128200.got - 2010.06.03 11:33:40.
