data_PCOD9111445
_publ_section_title
;
Structure prediction by ZEFSAII (Michael W. Deem and Ramdas Pophale) SiO2 
 PCOD9111445
Probable space group: P -1
;
_chemical_formula_sum "Si O2"
_cell_formula_units_Z 14
_cell_length_a 14.318371
_cell_length_b 7.408426
_cell_length_c 20.052718
_cell_angle_alpha 72.212488
_cell_angle_beta 24.759149
_cell_angle_gamma 56.684317
_cell_volume 620.628069
_symmetry_space_group_name_H-M "P -1"
_symmetry_group_IT_number 2
_symmetry_cell_setting 'triclinic'
loop_
_space_group_symop_operation_xyz
x,y,z
-x,-y,-z
loop_
_atom_site_type_symbol
_atom_site_label
_atom_site_fract_x
_atom_site_fract_y
_atom_site_fract_z
Si Si1 0.501366 0.278946 0.317903
Si Si2 0.715233 0.210894 0.952889
Si Si3 0.477785 0.548708 0.191510
Si Si4 0.805144 0.734830 0.360025
Si Si5 0.021007 0.697878 0.997474
Si Si6 0.150719 0.670604 0.688491
Si Si7 0.695035 0.072252 0.847577
O O1 0.324011 0.516969 0.353852
O O2 0.278153 0.316131 0.511012
O O3 0.752876 0.278129 0.187470
O O4 0.704796 0.994504 0.182887
O O5 0.966809 0.227135 0.785809
O O6 0.576073 0.273322 0.962436
O O7 0.907879 0.903200 0.870118
O O8 0.796457 0.416792 0.036876
O O9 0.343075 0.809952 0.212329
O O10 0.514574 0.376679 0.127242
O O11 0.907507 0.513563 0.267836
O O12 0.500000 0.000000 0.500000
O O13 0.000000 0.500000 0.000000
O O14 0.500000 0.500000 0.500000
O O15 0.045508 0.835011 0.669059
O O16 0.500000 0.000000 0.000000
#
# Coordination Sequence:
#
# PCOD9111445 Si02
#       7
#     2   2   2   2   2   2   2
#     4   9  23  38  60  92 130 167 221 268 333 389
#     4  10  23  39  67  94 133 166 220 272 332 391
#     4  10  20  43  63  94 130 170 221 279 331 381
#     4  12  21  41  60  92 132 172 214 272 335 396
#     4   9  20  40  61  92 129 169 226 269 328 385
#     4  10  23  39  63  96 133 170 220 266 338 389
#     4  10  22  41  67 100 130 174 227 273 332 400
#
# _framework density 22.557794999999999
#
# number of rings (size 3 to 8) (size 9 to 14) (size 15 to 20)
#    1.714    0.286    1.429    2.143    0.000    2.286 
#    7.714    1.429    0.000    0.000    0.000    0.000 
#    0.000    0.000    0.000    0.000    0.000    0.000 
#
# Total GULP energy -77968.307539 kJ/mol
# GULP energy per Si atom -5569.164824 kJ/mol
# Density = 2.250645 g / cm^3
# Si number density = 22.557795 Si / 1000 Ang^3
#
#
#
# Elastic Constant Matrix: (Units=GPa)
#
#
# Indices 1 2 3 4 5 6 
#
# 1 96.0585 41.4695 -8.7509 -8.5617 -4.3657 16.6082
# 2 41.4695 139.5390 12.8206 -4.5144 2.4299 -8.4196
# 3 -8.7509 12.8206 32.0055 -16.7041 5.0662 0.8077
# 4 -8.5617 -4.5144 -16.7041 40.9599 -9.1933 3.4215
# 5 -4.3657 2.4299 5.0662 -9.1933 18.5855 -0.3145
# 6 16.6082 -8.4196 0.8077 3.4215 -0.3145 76.3513
#
#
#
# Elastic Compliance Matrix: (Units=1/GPa)
#
#
# Indices 1 2 3 4 5 6 
#
# 1 0.015551 -0.005647 0.010109 0.008407 0.005719 -0.004466
# 2 -0.005647 0.009562 -0.007002 -0.003749 -0.002480 0.002515
# 3 0.010109 -0.007002 0.048006 0.021457 0.000742 -0.004437
# 4 0.008407 -0.003749 0.021457 0.038334 0.015508 -0.004123
# 5 0.005719 -0.002480 0.000742 0.015508 0.062908 -0.001961
# 6 -0.004466 0.002515 -0.004437 -0.004123 -0.001961 0.014570
#
#
# Mechanical properties :
#
#
# Convention : Reuss Voigt Hill
#
# Bulk Modulus (GPa) = 14.69732 39.85349 27.27541
# Shear Modulus (GPa) = 23.07449 41.98360 32.52904
#
# Velocity S-wave (km/s) = 3.20176 4.31879 3.80153
# Velocity P-wave (km/s) = 4.49421 6.52495 5.60236
#
# Compressibility (1/GPa) = 0.06803962
#
# Stress axis : x y z
#
# Youngs Moduli (GPa) = 64.30599 104.58353 20.83055
#
# Poissons Ratio (x) = 0.59062 -0.21059
# Poissons Ratio (y) = 0.36316 0.14585
# Poissons Ratio (z) = -0.65010 0.73226
#
# Static dielectric constant tensor:
#      x y z
#    x 1.833720 -0.020090 0.032510 
#    y -0.020090 1.947790 0.035050 
#    z 0.032510 0.035050 1.846090 
# 
# From -- ./inp_files/511745.got.cif
#   From: 2010.05.17/outbox.cif.g08.bks.cpg/sg2_256_cif.got.tgz:511745.got - 2010.06.03 11:33:40.
