data_PCOD9111754
_publ_section_title
;
Structure prediction by ZEFSAII (Michael W. Deem and Ramdas Pophale) SiO2 
 PCOD9111754
Probable space group: P -1
;
_chemical_formula_sum "Si O2"
_cell_formula_units_Z 14
_cell_length_a 8.116743
_cell_length_b 14.016779
_cell_length_c 10.638973
_cell_angle_alpha 27.259078
_cell_angle_beta 85.639007
_cell_angle_gamma 80.371908
_cell_volume 539.455428
_symmetry_space_group_name_H-M "P -1"
_symmetry_group_IT_number 2
_symmetry_cell_setting 'triclinic'
loop_
_space_group_symop_operation_xyz
x,y,z
-x,-y,-z
loop_
_atom_site_type_symbol
_atom_site_label
_atom_site_fract_x
_atom_site_fract_y
_atom_site_fract_z
Si Si1 0.939104 0.258847 0.715126
Si Si2 0.685907 0.752224 0.267695
Si Si3 0.533664 0.234997 0.212386
Si Si4 0.876781 0.355218 0.077755
Si Si5 0.183833 0.488284 0.830333
Si Si6 0.634024 0.746322 0.552108
Si Si7 0.370871 0.833626 0.061640
O O1 0.868457 0.378615 0.449842
O O2 0.780456 0.286449 0.787295
O O3 0.114126 0.319676 0.675678
O O4 0.000000 0.000000 0.000000
O O5 0.618836 0.676532 0.491445
O O6 0.563291 0.713381 0.210447
O O7 0.660731 0.009171 0.996592
O O8 0.497937 0.300270 0.285785
O O9 0.638196 0.993721 0.249297
O O10 0.379845 0.368610 0.980425
O O11 0.726457 0.251100 0.155875
O O12 0.809163 0.605118 0.753818
O O13 0.065159 0.311613 0.061414
O O14 0.865975 0.355035 0.229272
O O15 0.500000 0.000000 0.500000
#
# Coordination Sequence:
#
# PCOD9111754 Si02
#       7
#     2   2   2   2   2   2   2
#     4  10  17  26  49  85 112 122 159 215 286 316
#     4   8  15  25  43  78 109 121 159 209 271 309
#     4  11  25  37  52  75 109 154 184 212 264 320
#     4  10  20  34  57  80 104 134 182 233 272 306
#     4  10  20  34  57  84 106 134 179 229 271 311
#     4   9  16  34  53  80 105 131 179 226 263 313
#     4   8  16  25  47  78 109 129 155 212 277 311
#
# _framework density 25.952100999999999
#
# number of rings (size 3 to 8) (size 9 to 14) (size 15 to 20)
#    0.857    1.714    1.429    1.714    4.000    0.571 
#    0.000    0.000    0.000    0.857    0.000    5.000 
#    0.000    0.000    0.000    0.000    0.000    0.000 
#
# Total GULP energy -78095.578025 kJ/mol
# GULP energy per Si atom -5578.255573 kJ/mol
# Density = 2.589303 g / cm^3
# Si number density = 25.952101 Si / 1000 Ang^3
#
#
#
# Elastic Constant Matrix: (Units=GPa)
#
#
# Indices 1 2 3 4 5 6 
#
# 1 254.5634 34.0439 87.1166 -2.1349 -12.3312 -10.7745
# 2 34.0439 67.2157 38.9671 9.1022 2.0796 1.2781
# 3 87.1166 38.9671 155.8213 18.6042 0.6421 -4.6335
# 4 -2.1349 9.1022 18.6042 39.0715 -6.8745 -0.4813
# 5 -12.3312 2.0796 0.6421 -6.8745 41.8566 1.9758
# 6 -10.7745 1.2781 -4.6335 -0.4813 1.9758 17.5051
#
#
#
# Elastic Compliance Matrix: (Units=1/GPa)
#
#
# Indices 1 2 3 4 5 6 
#
# 1 0.005308 -0.001484 -0.002811 0.002348 0.001949 0.002476
# 2 -0.001484 0.018132 -0.003431 -0.002997 -0.001634 -0.003043
# 3 -0.002811 -0.003431 0.009371 -0.004071 -0.001520 0.001060
# 4 0.002348 -0.002997 -0.004071 0.029369 0.005691 0.000751
# 5 0.001949 -0.001634 -0.001520 0.005691 0.025590 -0.001815
# 6 0.002476 -0.003043 0.001060 0.000751 -0.001815 0.059378
#
#
# Mechanical properties :
#
#
# Convention : Reuss Voigt Hill
#
# Bulk Modulus (GPa) = 57.60570 88.65063 73.12817
# Shear Modulus (GPa) = 29.69354 40.85149 35.27252
#
# Velocity S-wave (km/s) = 3.38622 3.97181 3.69065
# Velocity P-wave (km/s) = 6.12648 7.43419 6.81179
#
# Compressibility (1/GPa) = 0.01735939
#
# Stress axis : x y z
#
# Youngs Moduli (GPa) = 188.40838 55.15049 106.71249
#
# Poissons Ratio (x) = 0.08184 0.29997
# Poissons Ratio (y) = 0.27958 0.36611
# Poissons Ratio (z) = 0.52962 0.18921
#
# Static dielectric constant tensor:
#      x y z
#    x 2.088570 -0.025320 -0.019070 
#    y -0.025320 2.222510 -0.035570 
#    z -0.019070 -0.035570 2.052230 
# 
# From -- ./inp_files/250257.got.cif
#   From: 2010.05.17/outbox.cif.g08.bks.cpg/sg2_126_cif.got.tgz:250257.got - 2010.06.03 11:33:40.
