data_PCOD9111507
_publ_section_title
;
Structure prediction by ZEFSAII (Michael W. Deem and Ramdas Pophale) SiO2 
 PCOD9111507
Probable space group: P -1
;
_chemical_formula_sum "Si O2"
_cell_formula_units_Z 16
_cell_length_a 14.979751
_cell_length_b 9.798344
_cell_length_c 5.602336
_cell_angle_alpha 124.599106
_cell_angle_beta 85.276559
_cell_angle_gamma 84.988074
_cell_volume 665.490813
_symmetry_space_group_name_H-M "P -1"
_symmetry_group_IT_number 2
_symmetry_cell_setting 'triclinic'
loop_
_space_group_symop_operation_xyz
x,y,z
-x,-y,-z
loop_
_atom_site_type_symbol
_atom_site_label
_atom_site_fract_x
_atom_site_fract_y
_atom_site_fract_z
Si Si1 0.773020 0.870790 0.440697
Si Si2 0.595607 0.050683 0.467429
Si Si3 0.107112 0.950401 0.662632
Si Si4 0.717189 0.072770 0.079510
Si Si5 0.016447 0.740691 0.806470
Si Si6 0.868952 0.582846 0.393259
Si Si7 0.603212 0.424996 0.956692
Si Si8 0.305272 0.544117 0.547016
O O1 0.682463 0.902127 0.331195
O O2 0.835352 0.690379 0.271822
O O3 0.843826 0.006949 0.548010
O O4 0.723002 0.922002 0.749009
O O5 0.500000 0.000000 0.500000
O O6 0.616007 0.099776 0.241721
O O7 0.611348 0.220561 0.770658
O O8 0.193075 0.979437 0.831822
O O9 0.077391 0.784055 0.611015
O O10 0.020966 0.093487 0.870347
O O11 0.729615 0.259873 0.192406
O O12 0.070265 0.599951 0.826048
O O13 0.930328 0.680040 0.643000
O O14 0.778307 0.554081 0.517596
O O15 0.656483 0.461410 0.737871
O O16 0.500000 0.500000 0.000000
O O17 0.631711 0.502291 0.277499
#
# Coordination Sequence:
#
# PCOD9111507 Si02
#       8
#     2   2   2   2   2   2   2   2
#     4  11  23  41  66  95 129 177 228 274 353 403
#     4  10  24  42  67  98 131 173 225 282 335 412
#     4  10  21  42  68  87 133 180 223 281 338 418
#     4  10  20  43  65  93 130 181 221 268 343 418
#     4  10  22  42  63  97 135 171 234 288 339 416
#     4  11  24  39  65 101 135 173 228 293 345 394
#     4  11  25  46  71 101 133 183 231 278 348 422
#     4  11  24  45  70  97 143 182 225 283 350 418
#
# _framework density 24.042404999999999
#
# number of rings (size 3 to 8) (size 9 to 14) (size 15 to 20)
#    0.000    1.500    3.750    0.375    1.750    3.500 
#    0.000    2.500    0.000    0.000    0.000    0.000 
#    0.000    0.000    0.000    0.000    0.000    0.000 
#
# Total GULP energy -89130.940547 kJ/mol
# GULP energy per Si atom -5570.683784 kJ/mol
# Density = 2.398768 g / cm^3
# Si number density = 24.042405 Si / 1000 Ang^3
#
#
#
# Elastic Constant Matrix: (Units=GPa)
#
#
# Indices 1 2 3 4 5 6 
#
# 1 136.1097 56.3463 4.0583 -15.8704 -7.5721 18.0621
# 2 56.3463 80.1105 14.7491 -1.1637 -15.8937 -1.8889
# 3 4.0583 14.7491 23.5642 -6.1124 -1.5383 11.8353
# 4 -15.8704 -1.1637 -6.1124 18.2742 -7.9903 -10.6587
# 5 -7.5721 -15.8937 -1.5383 -7.9903 17.5434 1.7411
# 6 18.0621 -1.8889 11.8353 -10.6587 1.7411 55.8271
#
#
#
# Elastic Compliance Matrix: (Units=1/GPa)
#
#
# Indices 1 2 3 4 5 6 
#
# 1 0.014043 -0.010963 0.010674 0.014107 0.003947 -0.004607
# 2 -0.010963 0.026885 -0.018238 -0.002588 0.016120 0.007326
# 3 0.010674 -0.018238 0.065709 0.025175 0.006642 -0.013402
# 4 0.014107 -0.002588 0.025175 0.102561 0.051872 0.007975
# 5 0.003947 0.016120 0.006642 0.051872 0.097047 0.004737
# 6 -0.004607 0.007326 -0.013402 0.007975 0.004737 0.023867
#
#
# Mechanical properties :
#
#
# Convention : Reuss Voigt Hill
#
# Bulk Modulus (GPa) = 14.37126 43.34354 28.85740
# Shear Modulus (GPa) = 12.80865 29.30430 21.05648
#
# Velocity S-wave (km/s) = 2.31065 3.49500 2.96261
# Velocity P-wave (km/s) = 3.62067 5.86121 4.87150
#
# Compressibility (1/GPa) = 0.06958331
#
# Stress axis : x y z
#
# Youngs Moduli (GPa) = 71.20953 37.19564 15.21854
#
# Poissons Ratio (x) = 0.40778 -0.16245
# Poissons Ratio (y) = 0.78068 0.27756
# Poissons Ratio (z) = -0.76011 0.67838
#
# Static dielectric constant tensor:
#      x y z
#    x 1.880590 -0.049900 0.015920 
#    y -0.049900 2.334880 -0.153040 
#    z 0.015920 -0.153040 2.042470 
# 
# From -- ./inp_files/90930.got.cif
#   From: 2010.05.17/outbox.cif.g08.bks.cpg/sg2_46_cif.got.tgz:90930.got - 2010.06.03 11:33:40.
