data_PCOD9111848
_publ_section_title
;
Structure prediction by ZEFSAII (Michael W. Deem and Ramdas Pophale) SiO2 
 PCOD9111848
Probable space group: P -1
;
_chemical_formula_sum "Si O2"
_cell_formula_units_Z 16
_cell_length_a 5.421944
_cell_length_b 8.384166
_cell_length_c 17.368084
_cell_angle_alpha 56.660003
_cell_angle_beta 103.614081
_cell_angle_gamma 84.223028
_cell_volume 614.794418
_symmetry_space_group_name_H-M "P -1"
_symmetry_group_IT_number 2
_symmetry_cell_setting 'triclinic'
loop_
_space_group_symop_operation_xyz
x,y,z
-x,-y,-z
loop_
_atom_site_type_symbol
_atom_site_label
_atom_site_fract_x
_atom_site_fract_y
_atom_site_fract_z
Si Si1 0.253759 0.735161 0.289163
Si Si2 0.600639 0.131993 0.033005
Si Si3 0.347000 0.739602 0.685520
Si Si4 0.300986 0.370970 0.544870
Si Si5 0.878097 0.486118 0.078165
Si Si6 0.243936 0.665203 0.141757
Si Si7 0.779686 0.713492 0.598383
Si Si8 0.801895 0.061796 0.223870
O O1 0.555359 0.712938 0.342596
O O2 0.201499 0.797442 0.179898
O O3 0.180943 0.525991 0.339123
O O4 0.070130 0.885461 0.295701
O O5 0.800457 0.205534 0.973282
O O6 0.393611 0.341448 0.983825
O O7 0.664352 0.016508 0.148299
O O8 0.500000 0.000000 0.000000
O O9 0.477385 0.506140 0.781425
O O10 0.533095 0.780131 0.620597
O O11 0.348991 0.874363 0.724800
O O12 0.045838 0.763828 0.630211
O O13 0.500000 0.500000 0.500000
O O14 0.294225 0.226533 0.511553
O O15 0.000000 0.500000 0.500000
O O16 0.046095 0.532747 0.149193
O O17 0.864575 0.264747 0.148454
O O18 0.000000 0.500000 0.000000
#
# Coordination Sequence:
#
# PCOD9111848 Si02
#       8
#     2   2   2   2   2   2   2   2
#     4  10  24  40  69 103 132 172 231 287 344 406
#     4  12  27  41  65  93 132 181 236 287 344 401
#     4  11  23  42  70  99 135 184 231 280 344 418
#     4  10  20  43  72 104 138 176 223 283 349 417
#     4  12  24  43  65  87 132 189 236 282 346 411
#     4  11  23  44  63  92 132 181 235 282 340 409
#     4  10  22  45  72  98 135 181 227 281 350 423
#     4  12  24  44  64 101 137 179 234 288 349 405
#
# _framework density 26.024961999999999
#
# number of rings (size 3 to 8) (size 9 to 14) (size 15 to 20)
#    0.000    1.000    2.500    5.625    3.500    1.000 
#    0.000    1.250    0.000    0.000    0.000    0.875 
#    0.000    0.000    0.000    0.000    0.000    0.000 
#
# Total GULP energy -89576.312791 kJ/mol
# GULP energy per Si atom -5598.519549 kJ/mol
# Density = 2.596573 g / cm^3
# Si number density = 26.024962 Si / 1000 Ang^3
#
#
#
# Elastic Constant Matrix: (Units=GPa)
#
#
# Indices 1 2 3 4 5 6 
#
# 1 112.4867 44.3284 36.9650 18.0476 4.3979 -17.5258
# 2 44.3284 144.5051 43.9417 12.8408 0.7362 -34.8420
# 3 36.9650 43.9417 118.0138 40.1401 -4.2691 -7.2368
# 4 18.0476 12.8408 40.1401 58.5989 2.6996 -4.0902
# 5 4.3979 0.7362 -4.2691 2.6996 42.0519 13.0141
# 6 -17.5258 -34.8420 -7.2368 -4.0902 13.0141 50.4278
#
#
#
# Elastic Compliance Matrix: (Units=1/GPa)
#
#
# Indices 1 2 3 4 5 6 
#
# 1 0.011083 -0.001969 -0.002261 -0.001155 -0.002088 0.002612
# 2 -0.001969 0.009950 -0.003172 0.001157 -0.002357 0.006437
# 3 -0.002261 -0.003172 0.012966 -0.007797 0.002880 -0.002492
# 4 -0.001155 0.001157 -0.007797 0.022761 -0.002718 0.001827
# 5 -0.002088 -0.002357 0.002880 -0.002718 0.027361 -0.009222
# 6 0.002612 0.006437 -0.002492 0.001827 -0.009222 0.027356
#
#
# Mechanical properties :
#
#
# Convention : Reuss Voigt Hill
#
# Bulk Modulus (GPa) = 52.09725 69.49731 60.79728
# Shear Modulus (GPa) = 37.68475 46.86709 42.27592
#
# Velocity S-wave (km/s) = 3.80942 4.24825 4.03480
# Velocity P-wave (km/s) = 6.27778 7.12920 6.71700
#
# Compressibility (1/GPa) = 0.01919487
#
# Stress axis : x y z
#
# Youngs Moduli (GPa) = 90.23014 100.50098 77.12362
#
# Poissons Ratio (x) = 0.19791 0.17436
# Poissons Ratio (y) = 0.17769 0.24464
# Poissons Ratio (z) = 0.20399 0.31879
#
# Static dielectric constant tensor:
#      x y z
#    x 2.142560 0.028390 -0.029790 
#    y 0.028390 2.021270 -0.040140 
#    z -0.029790 -0.040140 2.343250 
# 
# From -- ./inp_files/547983.got.cif
#   From: 2010.05.17/outbox.cif.g08.bks.cpg/sg2_274_cif.got.tgz:547983.got - 2010.06.03 11:33:40.
