data_PCOD9111533
_publ_section_title
;
Structure prediction by ZEFSAII (Michael W. Deem and Ramdas Pophale) SiO2 
 PCOD9111533
Probable space group: P -1
;
_chemical_formula_sum "Si O2"
_cell_formula_units_Z 13
_cell_length_a 6.397767
_cell_length_b 11.726035
_cell_length_c 11.947376
_cell_angle_alpha 134.363051
_cell_angle_beta 49.684797
_cell_angle_gamma 121.372231
_cell_volume 484.755057
_symmetry_space_group_name_H-M "P -1"
_symmetry_group_IT_number 2
_symmetry_cell_setting 'triclinic'
loop_
_space_group_symop_operation_xyz
x,y,z
-x,-y,-z
loop_
_atom_site_type_symbol
_atom_site_label
_atom_site_fract_x
_atom_site_fract_y
_atom_site_fract_z
Si Si1 0.764744 0.031080 0.349121
Si Si2 0.104735 0.631621 0.146943
Si Si3 0.283774 0.275391 0.368366
Si Si4 0.696501 0.830051 0.027191
Si Si5 0.875510 0.508738 0.703373
Si Si6 0.451969 0.299496 0.567215
Si Si7 0.500000 0.000000 0.000000
O O1 0.647940 0.163775 0.405205
O O2 0.053852 0.114898 0.356538
O O3 0.500000 0.000000 0.500000
O O4 0.807202 0.890530 0.152879
O O5 0.393814 0.734148 0.090944
O O6 0.120031 0.548906 0.207410
O O7 0.863701 0.748363 0.316752
O O8 0.000000 0.500000 0.000000
O O9 0.422552 0.342933 0.479575
O O10 0.493228 0.195549 0.163269
O O11 0.100028 0.415136 0.497742
O O12 0.651463 0.967590 0.047318
O O13 0.882500 0.698720 0.827816
O O14 0.585689 0.431997 0.697831
#
# Coordination Sequence:
#
# PCOD9111533 Si02
#       7
#     2   2   2   2   2   2   1
#     4  11  24  40  72 105 139 179 233 301 363 412
#     4  11  23  39  74 108 141 175 233 305 361 406
#     4  10  24  47  68  96 141 188 239 281 350 421
#     4  12  25  44  71 108 145 187 236 287 357 423
#     4  10  23  44  72 105 136 179 239 304 353 409
#     4  10  20  43  66 103 139 174 233 298 359 408
#     4  12  28  48  68 102 148 198 238 274 344 444
#
# _framework density 26.817667
#
# number of rings (size 3 to 8) (size 9 to 14) (size 15 to 20)
#    0.000    1.231    3.077    3.231    4.308    2.462 
#    0.000    0.769    0.000    0.000    0.000    0.000 
#    0.000    0.000    0.000    0.000    0.000    0.000 
#
# Total GULP energy -72525.492535 kJ/mol
# GULP energy per Si atom -5578.884041 kJ/mol
# Density = 2.675663 g / cm^3
# Si number density = 26.817667 Si / 1000 Ang^3
#
#
#
# Elastic Constant Matrix: (Units=GPa)
#
#
# Indices 1 2 3 4 5 6 
#
# 1 128.4894 41.1536 43.6057 3.8696 26.9208 3.1478
# 2 41.1536 96.0291 28.6807 -4.5594 0.4403 4.7909
# 3 43.6057 28.6807 167.5296 24.4661 17.1534 2.1432
# 4 3.8696 -4.5594 24.4661 42.1631 -7.5714 -9.1112
# 5 26.9208 0.4403 17.1534 -7.5714 55.1191 2.0328
# 6 3.1478 4.7909 2.1432 -9.1112 2.0328 54.5798
#
#
#
# Elastic Compliance Matrix: (Units=1/GPa)
#
#
# Indices 1 2 3 4 5 6 
#
# 1 0.010682 -0.004230 -0.001302 -0.001640 -0.004993 -0.000281
# 2 -0.004230 0.012963 -0.001916 0.003367 0.003035 -0.000370
# 3 -0.001302 -0.001916 0.007642 -0.005131 -0.002401 -0.000824
# 4 -0.001640 0.003367 -0.005131 0.029336 0.006229 0.004666
# 5 -0.004993 0.003035 -0.002401 0.006229 0.022148 0.000331
# 6 -0.000281 -0.000370 -0.000824 0.004666 0.000331 0.019169
#
#
# Mechanical properties :
#
#
# Convention : Reuss Voigt Hill
#
# Bulk Modulus (GPa) = 61.00869 68.76979 64.88924
# Shear Modulus (GPa) = 40.88358 48.94627 44.91493
#
# Velocity S-wave (km/s) = 3.90872 4.27681 4.09690
# Velocity P-wave (km/s) = 6.57036 7.07724 6.82850
#
# Compressibility (1/GPa) = 0.01639111
#
# Stress axis : x y z
#
# Youngs Moduli (GPa) = 93.61801 77.14380 130.85981
#
# Poissons Ratio (x) = 0.32630 0.17036
# Poissons Ratio (y) = 0.39598 0.25072
# Poissons Ratio (z) = 0.12188 0.14780
#
# Static dielectric constant tensor:
#      x y z
#    x 2.074780 0.047550 0.008720 
#    y 0.047550 2.141440 -0.065480 
#    z 0.008720 -0.065480 2.139710 
# 
# From -- ./inp_files/59277.got.cif
#   From: 2010.05.17/outbox.cif.g08.bks.cpg/sg2_30_cif.got.tgz:59277.got - 2010.06.03 11:33:40.
