data_PCOD9111266
_publ_section_title
;
Structure prediction by ZEFSAII (Michael W. Deem and Ramdas Pophale) SiO2 
 PCOD9111266
Probable space group: P -1
;
_chemical_formula_sum "Si O2"
_cell_formula_units_Z 12
_cell_length_a 14.039395
_cell_length_b 9.821167
_cell_length_c 10.564011
_cell_angle_alpha 62.030420
_cell_angle_beta 31.415007
_cell_angle_gamma 49.688709
_cell_volume 566.145896
_symmetry_space_group_name_H-M "P -1"
_symmetry_group_IT_number 2
_symmetry_cell_setting 'triclinic'
loop_
_space_group_symop_operation_xyz
x,y,z
-x,-y,-z
loop_
_atom_site_type_symbol
_atom_site_label
_atom_site_fract_x
_atom_site_fract_y
_atom_site_fract_z
Si Si1 0.737360 0.443556 0.594444
Si Si2 0.705205 0.324015 0.405547
Si Si3 0.930708 0.635731 0.400811
Si Si4 0.822786 0.898748 0.090027
Si Si5 0.393151 0.968189 0.448065
Si Si6 0.757553 0.262893 0.908946
O O1 0.730046 0.360085 0.507434
O O2 0.883206 0.532428 0.390912
O O3 0.802112 0.303690 0.698845
O O4 0.495781 0.609510 0.830083
O O5 0.500000 0.500000 0.500000
O O6 0.664644 0.160641 0.502790
O O7 0.932605 0.268644 0.108015
O O8 0.000000 0.500000 0.500000
O O9 0.116260 0.680193 0.163574
O O10 0.711385 0.833576 0.585217
O O11 0.647263 0.871744 0.230255
O O12 0.725147 0.978802 0.303962
O O13 0.830418 0.056631 0.937757
#
# Coordination Sequence:
#
# PCOD9111266 Si02
#       6
#     2   2   2   2   2   2
#     4  10  23  41  66  99 130 163 217 269 322 379
#     4  12  27  42  62 100 135 168 214 275 328 371
#     4  10  21  40  70  97 122 169 218 260 316 390
#     4  11  24  43  67  92 130 177 219 264 318 388
#     4  11  24  44  69  93 129 175 224 257 322 390
#     4  10  20  42  71  91 126 175 215 259 320 393
#
# _framework density 21.195951999999998
#
# number of rings (size 3 to 8) (size 9 to 14) (size 15 to 20)
#    0.000    1.333    3.333    1.500    4.667    2.667 
#    0.000    0.833    0.000    0.000    0.000    0.000 
#    0.000    0.000    0.000    0.000    0.000    0.000 
#
# Total GULP energy -67066.880124 kJ/mol
# GULP energy per Si atom -5588.906677 kJ/mol
# Density = 2.114771 g / cm^3
# Si number density = 21.195952 Si / 1000 Ang^3
#
#
#
# Elastic Constant Matrix: (Units=GPa)
#
#
# Indices 1 2 3 4 5 6 
#
# 1 167.0292 62.2206 56.8897 -6.2864 -19.1766 26.8582
# 2 62.2206 77.4994 40.8721 10.5095 -11.3778 5.4572
# 3 56.8897 40.8721 91.7265 -2.6539 -25.9606 -0.6786
# 4 -6.2864 10.5095 -2.6539 18.8593 0.8994 -14.5758
# 5 -19.1766 -11.3778 -25.9606 0.8994 35.0174 1.0986
# 6 26.8582 5.4572 -0.6786 -14.5758 1.0986 43.4202
#
#
#
# Elastic Compliance Matrix: (Units=1/GPa)
#
#
# Indices 1 2 3 4 5 6 
#
# 1 0.010606 -0.006756 -0.003126 0.003129 0.001364 -0.004744
# 2 -0.006756 0.026461 -0.008502 -0.023765 -0.000568 -0.007243
# 3 -0.003126 -0.008502 0.019740 0.011320 0.009654 0.006867
# 4 0.003129 -0.023765 0.011320 0.094422 -0.001075 0.032953
# 5 0.001364 -0.000568 0.009654 -0.001075 0.036364 -0.001902
# 6 -0.004744 -0.007243 0.006867 0.032953 -0.001902 0.038093
#
#
# Mechanical properties :
#
#
# Convention : Reuss Voigt Hill
#
# Bulk Modulus (GPa) = 49.90617 72.91335 61.40976
# Shear Modulus (GPa) = 18.57817 31.21089 24.89453
#
# Velocity S-wave (km/s) = 2.96378 3.84147 3.43081
# Velocity P-wave (km/s) = 5.94207 7.35868 6.68799
#
# Compressibility (1/GPa) = 0.02003760
#
# Stress axis : x y z
#
# Youngs Moduli (GPa) = 94.28983 37.79175 50.65943
#
# Poissons Ratio (x) = 0.25533 0.15835
# Poissons Ratio (y) = 0.63704 0.43072
# Poissons Ratio (z) = 0.29473 0.32131
#
# Static dielectric constant tensor:
#      x y z
#    x 1.775380 -0.037460 -0.018740 
#    y -0.037460 1.773060 -0.009890 
#    z -0.018740 -0.009890 1.772410 
# 
# From -- ./inp_files/276362.got.cif
#   From: 2010.05.17/outbox.cif.g08.bks.cpg/sg2_139_cif.got.tgz:276362.got - 2010.06.03 11:33:40.
