data_PCOD9111655
_publ_section_title
;
Structure prediction by ZEFSAII (Michael W. Deem and Ramdas Pophale) SiO2 
 PCOD9111655
Probable space group: P -1
;
_chemical_formula_sum "Si O2"
_cell_formula_units_Z 14
_cell_length_a 12.837106
_cell_length_b 17.872505
_cell_length_c 13.105649
_cell_angle_alpha 150.548411
_cell_angle_beta 30.771517
_cell_angle_gamma 156.506572
_cell_volume 560.467669
_symmetry_space_group_name_H-M "P -1"
_symmetry_group_IT_number 2
_symmetry_cell_setting 'triclinic'
loop_
_space_group_symop_operation_xyz
x,y,z
-x,-y,-z
loop_
_atom_site_type_symbol
_atom_site_label
_atom_site_fract_x
_atom_site_fract_y
_atom_site_fract_z
Si Si1 0.231800 0.485282 0.277191
Si Si2 0.340937 0.103015 0.228561
Si Si3 0.647313 0.317273 0.795797
Si Si4 0.882856 0.772091 0.579632
Si Si5 0.744701 0.843316 0.401980
Si Si6 0.093519 0.867663 0.730058
Si Si7 0.917653 0.441450 0.116529
O O1 0.338699 0.553436 0.153303
O O2 0.477740 0.643841 0.336458
O O3 0.000000 0.500000 0.500000
O O4 0.077480 0.258012 0.174899
O O5 0.336537 0.238232 0.308749
O O6 0.318744 0.150405 0.419832
O O7 0.652068 0.197860 0.065085
O O8 0.029035 0.888248 0.212705
O O9 0.788251 0.234567 0.532979
O O10 0.818550 0.460202 0.918407
O O11 0.345418 0.104691 0.820098
O O12 0.834409 0.569192 0.374618
O O13 0.920317 0.835135 0.739803
O O14 0.163213 0.959063 0.504265
O O15 0.000000 0.500000 0.000000
#
# Coordination Sequence:
#
# PCOD9111655 Si02
#       7
#     2   2   2   2   2   2   2
#     4  10  17  26  48  79 107 129 164 226 277 298
#     4   9  18  33  53  75 106 141 173 216 266 307
#     4   9  17  31  45  72 109 129 169 215 263 308
#     4   9  17  32  54  77 105 132 176 216 262 306
#     4   9  17  30  54  81 107 129 172 229 265 308
#     4   9  16  27  52  79  98 130 168 223 266 301
#     4  11  22  34  50  76 109 144 177 209 259 322
#
# _framework density 24.979137000000001
#
# number of rings (size 3 to 8) (size 9 to 14) (size 15 to 20)
#    0.857    1.714    1.429    3.000    2.000    0.000 
#    0.000    0.714    0.000    3.429    0.000    3.000 
#    0.000    0.000    0.000    0.000    0.000    0.000 
#
# Total GULP energy -78203.601666 kJ/mol
# GULP energy per Si atom -5585.971548 kJ/mol
# Density = 2.492228 g / cm^3
# Si number density = 24.979137 Si / 1000 Ang^3
#
#
#
# Elastic Constant Matrix: (Units=GPa)
#
#
# Indices 1 2 3 4 5 6 
#
# 1 139.7573 73.7883 46.2877 0.7375 45.4283 12.8750
# 2 73.7883 220.9764 54.6429 -9.4982 41.4267 11.3072
# 3 46.2877 54.6429 73.5370 -7.7267 16.6712 8.4993
# 4 0.7375 -9.4982 -7.7267 32.5222 -8.4532 10.5697
# 5 45.4283 41.4267 16.6712 -8.4532 50.1991 -1.7398
# 6 12.8750 11.3072 8.4993 10.5697 -1.7398 48.8635
#
#
#
# Elastic Compliance Matrix: (Units=1/GPa)
#
#
# Indices 1 2 3 4 5 6 
#
# 1 0.012817 -0.001300 -0.005149 -0.003817 -0.009518 -0.001694
# 2 -0.001300 0.006341 -0.003057 0.000659 -0.002960 -0.000841
# 3 -0.005149 -0.003057 0.019587 0.005025 0.001441 -0.002379
# 4 -0.003817 0.000659 0.005025 0.036571 0.007133 -0.007678
# 5 -0.009518 -0.002960 0.001441 0.007133 0.031787 0.002531
# 6 -0.001694 -0.000841 -0.002379 -0.007678 0.002531 0.023271
#
#
# Mechanical properties :
#
#
# Convention : Reuss Voigt Hill
#
# Bulk Modulus (GPa) = 50.67248 87.07874 68.87561
# Shear Modulus (GPa) = 32.05884 43.62040 37.83962
#
# Velocity S-wave (km/s) = 3.58638 4.18338 3.89633
# Velocity P-wave (km/s) = 6.12205 7.63351 6.91917
#
# Compressibility (1/GPa) = 0.01973458
#
# Stress axis : x y z
#
# Youngs Moduli (GPa) = 78.02270 157.69150 51.05346
#
# Poissons Ratio (x) = 0.20492 0.26290
# Poissons Ratio (y) = 0.10139 0.15605
# Poissons Ratio (z) = 0.40177 0.48199
#
# Static dielectric constant tensor:
#      x y z
#    x 1.995150 -0.010590 -0.100420 
#    y -0.010590 2.025860 0.027040 
#    z -0.100420 0.027040 2.051890 
# 
# From -- ./inp_files/457315.got.cif
#   From: 2010.05.17/outbox.cif.g08.bks.cpg/sg2_229_cif.got.tgz:457315.got - 2010.06.03 11:33:40.
