data_PCOD9111370
_publ_section_title
;
Structure prediction by ZEFSAII (Michael W. Deem and Ramdas Pophale) SiO2 
 PCOD9111370
Probable space group: P -1
;
_chemical_formula_sum "Si O2"
_cell_formula_units_Z 15
_cell_length_a 15.647080
_cell_length_b 9.486221
_cell_length_c 8.597765
_cell_angle_alpha 46.991422
_cell_angle_beta 137.176435
_cell_angle_gamma 123.256368
_cell_volume 631.366066
_symmetry_space_group_name_H-M "P -1"
_symmetry_group_IT_number 2
_symmetry_cell_setting 'triclinic'
loop_
_space_group_symop_operation_xyz
x,y,z
-x,-y,-z
loop_
_atom_site_type_symbol
_atom_site_label
_atom_site_fract_x
_atom_site_fract_y
_atom_site_fract_z
Si Si1 0.600381 0.874331 0.811621
Si Si2 0.152769 0.597088 0.472771
Si Si3 0.803092 0.213935 0.924906
Si Si4 0.382469 0.792374 0.791926
Si Si5 0.963815 0.810645 0.268140
Si Si6 0.266235 0.183994 0.254226
Si Si7 0.641145 0.441987 0.749913
Si Si8 0.000000 0.000000 0.500000
O O1 0.526904 0.794238 0.925861
O O2 0.644923 0.744822 0.828562
O O3 0.500000 0.000000 0.500000
O O4 0.723400 0.014911 0.915001
O O5 0.298476 0.659976 0.657506
O O6 0.114254 0.370678 0.611096
O O7 0.077401 0.712332 0.412438
O O8 0.129078 0.672144 0.213312
O O9 0.697128 0.342334 0.752398
O O10 0.899040 0.162134 0.224498
O O11 0.330465 0.004131 0.548619
O O12 0.361312 0.707420 0.997957
O O13 0.997146 0.968356 0.326565
O O14 0.871465 0.871487 0.961227
O O15 0.268856 0.364547 0.235245
O O16 0.500000 0.500000 0.500000
#
# Coordination Sequence:
#
# PCOD9111370 Si02
#       8
#     2   2   2   2   2   2   2   1
#     4  10  20  42  75 104 138 190 255 297 367 453
#     4  11  24  47  76 104 147 204 248 305 378 452
#     4  12  26  48  70 114 152 195 255 313 375 443
#     4  11  23  45  79 101 147 199 244 312 375 446
#     4  11  25  47  74 109 145 195 258 306 372 453
#     4  11  23  46  73 107 143 199 251 302 376 455
#     4  12  28  46  70 114 154 191 252 315 371 445
#     4  12  26  48  74 110 152 188 252 326 360 444
#
# _framework density 23.758009000000001
#
# number of rings (size 3 to 8) (size 9 to 14) (size 15 to 20)
#    0.000    0.800    5.333    2.400    1.867    7.467 
#    4.800    0.000    0.000    0.000    0.000    0.000 
#    0.000    0.000    0.000    0.000    0.000    0.000 
#
# Total GULP energy -83722.115178 kJ/mol
# GULP energy per Si atom -5581.474345 kJ/mol
# Density = 2.370393 g / cm^3
# Si number density = 23.758009 Si / 1000 Ang^3
#
#
#
# Elastic Constant Matrix: (Units=GPa)
#
#
# Indices 1 2 3 4 5 6 
#
# 1 49.7840 11.4491 20.4547 -4.7219 -2.5422 -2.8096
# 2 11.4491 59.4518 9.6849 -9.2624 -8.7682 -9.0409
# 3 20.4547 9.6849 128.3963 -5.3525 -10.0261 5.1328
# 4 -4.7219 -9.2624 -5.3525 31.8587 -0.9038 -5.7774
# 5 -2.5422 -8.7682 -10.0261 -0.9038 35.0515 -8.5977
# 6 -2.8096 -9.0409 5.1328 -5.7774 -8.5977 39.8236
#
#
#
# Elastic Compliance Matrix: (Units=1/GPa)
#
#
# Indices 1 2 3 4 5 6 
#
# 1 0.022484 -0.003140 -0.003292 0.002185 0.000376 0.001696
# 2 -0.003140 0.020629 -0.000526 0.006897 0.006670 0.006970
# 3 -0.003292 -0.000526 0.008564 0.000678 0.001863 -0.000955
# 4 0.002185 0.006897 0.000678 0.035390 0.004910 0.007827
# 5 0.000376 0.006670 0.001863 0.004910 0.033133 0.009166
# 6 0.001696 0.006970 -0.000955 0.007827 0.009166 0.030050
#
#
# Mechanical properties :
#
#
# Convention : Reuss Voigt Hill
#
# Bulk Modulus (GPa) = 26.48288 35.64549 31.06419
# Shear Modulus (GPa) = 28.28797 34.41632 31.35214
#
# Velocity S-wave (km/s) = 3.45435 3.81020 3.63663
# Velocity P-wave (km/s) = 5.20396 5.86455 5.54411
#
# Compressibility (1/GPa) = 0.03776024
#
# Stress axis : x y z
#
# Youngs Moduli (GPa) = 44.47664 48.47578 116.76170
#
# Poissons Ratio (x) = 0.15221 0.38443
# Poissons Ratio (y) = 0.13965 0.06143
# Poissons Ratio (z) = 0.14643 0.02550
#
# Static dielectric constant tensor:
#      x y z
#    x 1.926090 0.034360 0.032800 
#    y 0.034360 1.901390 -0.014200 
#    z 0.032800 -0.014200 1.897900 
# 
# From -- ./inp_files/327238.got.cif
#   From: 2010.05.17/outbox.cif.g08.bks.cpg/sg2_164_cif.got.tgz:327238.got - 2010.06.03 11:33:40.
