data_PCOD9111602
_publ_section_title
;
Structure prediction by ZEFSAII (Michael W. Deem and Ramdas Pophale) SiO2 
 PCOD9111602
Probable space group: P -1
;
_chemical_formula_sum "Si O2"
_cell_formula_units_Z 16
_cell_length_a 11.349131
_cell_length_b 5.259769
_cell_length_c 30.456563
_cell_angle_alpha 53.752381
_cell_angle_beta 28.266325
_cell_angle_gamma 68.632300
_cell_volume 633.450993
_symmetry_space_group_name_H-M "P -1"
_symmetry_group_IT_number 2
_symmetry_cell_setting 'triclinic'
loop_
_space_group_symop_operation_xyz
x,y,z
-x,-y,-z
loop_
_atom_site_type_symbol
_atom_site_label
_atom_site_fract_x
_atom_site_fract_y
_atom_site_fract_z
Si Si1 0.694847 0.756323 0.744761
Si Si2 0.529764 0.310784 0.425162
Si Si3 0.178149 0.176670 0.790372
Si Si4 0.968378 0.533131 0.417822
Si Si5 0.678782 0.862247 0.924623
Si Si6 0.030038 0.396292 0.691634
Si Si7 0.905285 0.813311 0.003350
Si Si8 0.240696 0.871314 0.397883
O O1 0.908807 0.682254 0.712988
O O2 0.418364 0.413925 0.873367
O O3 0.754927 0.817683 0.666232
O O4 0.735060 0.148598 0.703474
O O5 0.718235 0.441707 0.306094
O O6 0.244086 0.315367 0.507840
O O7 0.708826 0.610370 0.369442
O O8 0.500000 0.000000 0.500000
O O9 0.453103 0.109053 0.708651
O O10 0.940780 0.915996 0.863330
O O11 0.042610 0.096310 0.891128
O O12 0.837486 0.157621 0.522218
O O13 0.917924 0.536774 0.382892
O O14 0.788933 0.067398 0.822563
O O15 0.500000 0.500000 0.000000
O O16 0.500000 0.000000 0.000000
O O17 0.000000 0.500000 0.000000
O O18 0.000000 0.000000 0.000000
O O19 0.000000 0.500000 0.500000
#
# Coordination Sequence:
#
# PCOD9111602 Si02
#       8
#     2   2   2   2   2   2   2   2
#     4  11  23  42  68  97 142 185 239 296 359 428
#     4  10  20  43  67 102 141 184 238 295 369 431
#     4  10  23  45  72 107 147 193 242 309 366 436
#     4  10  22  40  69  96 142 181 239 293 361 432
#     4  11  27  48  75 109 147 192 245 299 371 439
#     4  11  24  38  68 105 134 186 235 300 357 433
#     4  12  28  48  72 104 144 190 245 294 361 432
#     4   9  20  42  68  99 142 190 242 298 363 438
#
# _framework density 25.258464
#
# number of rings (size 3 to 8) (size 9 to 14) (size 15 to 20)
#    0.000    1.500    2.500    1.125    5.250    1.500 
#    2.250    1.250    0.000    0.000    0.000    0.000 
#    0.000    0.000    0.000    0.000    0.000    0.000 
#
# Total GULP energy -89080.517058 kJ/mol
# GULP energy per Si atom -5567.532316 kJ/mol
# Density = 2.520097 g / cm^3
# Si number density = 25.258464 Si / 1000 Ang^3
#
#
#
# Elastic Constant Matrix: (Units=GPa)
#
#
# Indices 1 2 3 4 5 6 
#
# 1 143.0302 17.2719 67.4789 2.0754 5.1727 -8.4357
# 2 17.2719 52.6758 23.9280 -12.9769 -4.3476 8.1930
# 3 67.4789 23.9280 183.0632 -10.6637 24.0308 -4.6135
# 4 2.0754 -12.9769 -10.6637 32.1924 -3.7989 8.8159
# 5 5.1727 -4.3476 24.0308 -3.7989 78.0931 0.3020
# 6 -8.4357 8.1930 -4.6135 8.8159 0.3020 32.9673
#
#
#
# Elastic Compliance Matrix: (Units=1/GPa)
#
#
# Indices 1 2 3 4 5 6 
#
# 1 0.009095 -0.003123 -0.003072 -0.003884 -0.000034 0.003712
# 2 -0.003123 0.026353 -0.002189 0.013556 0.003051 -0.011308
# 3 -0.003072 -0.002189 0.007244 0.001352 -0.002083 0.000429
# 4 -0.003884 0.013556 0.001352 0.041750 0.002686 -0.015362
# 5 -0.000034 0.003051 -0.002083 0.002686 0.013756 -0.001903
# 6 0.003712 -0.011308 0.000429 -0.015362 -0.001903 0.038279
#
#
# Mechanical properties :
#
#
# Convention : Reuss Voigt Hill
#
# Bulk Modulus (GPa) = 38.57728 66.23632 52.40680
# Shear Modulus (GPa) = 30.88579 46.65660 38.77120
#
# Velocity S-wave (km/s) = 3.50063 4.30253 3.92213
# Velocity P-wave (km/s) = 5.62543 7.13882 6.42682
#
# Compressibility (1/GPa) = 0.02592199
#
# Stress axis : x y z
#
# Youngs Moduli (GPa) = 109.95390 37.94697 138.04009
#
# Poissons Ratio (x) = 0.11853 0.42411
# Poissons Ratio (y) = 0.34344 0.30217
# Poissons Ratio (z) = 0.33781 0.08306
#
# Static dielectric constant tensor:
#      x y z
#    x 2.167600 -0.172690 -0.036160 
#    y -0.172690 3.589240 0.639550 
#    z -0.036160 0.639550 2.397350 
# 
# From -- ./inp_files/622858.got.cif
#   From: 2010.05.17/outbox.cif.g08.bks.cpg/sg2_312_cif.got.tgz:622858.got - 2010.06.03 11:33:40.
