data_PCOD9111494
_publ_section_title
;
Structure prediction by ZEFSAII (Michael W. Deem and Ramdas Pophale) SiO2 
 PCOD9111494
Probable space group: P -1
;
_chemical_formula_sum "Si O2"
_cell_formula_units_Z 15
_cell_length_a 12.337207
_cell_length_b 13.793339
_cell_length_c 12.143361
_cell_angle_alpha 33.428566
_cell_angle_beta 41.488051
_cell_angle_gamma 32.260968
_cell_volume 601.010357
_symmetry_space_group_name_H-M "P -1"
_symmetry_group_IT_number 2
_symmetry_cell_setting 'triclinic'
loop_
_space_group_symop_operation_xyz
x,y,z
-x,-y,-z
loop_
_atom_site_type_symbol
_atom_site_label
_atom_site_fract_x
_atom_site_fract_y
_atom_site_fract_z
Si Si1 0.619291 0.120100 0.999795
Si Si2 0.298564 0.432643 0.102893
Si Si3 0.018741 0.314507 0.502113
Si Si4 0.628716 0.756811 0.273623
Si Si5 0.500000 0.500000 0.500000
Si Si6 0.974472 0.204526 0.877954
Si Si7 0.036464 0.309670 0.074992
Si Si8 0.861695 0.143663 0.616272
O O1 0.522533 0.282025 0.023272
O O2 0.507263 0.005495 0.178716
O O3 0.848536 0.909990 0.055715
O O4 0.645930 0.233120 0.766756
O O5 0.218476 0.296814 0.336593
O O6 0.235646 0.609223 0.078309
O O7 0.152244 0.562951 0.987076
O O8 0.812063 0.556950 0.398625
O O9 0.003305 0.147484 0.596182
O O10 0.014795 0.293783 0.655228
O O11 0.492129 0.682452 0.413840
O O12 0.748029 0.775073 0.066217
O O13 0.754569 0.363528 0.418130
O O14 0.000000 0.000000 0.000000
O O15 0.000000 0.500000 0.000000
O O16 0.067003 0.078824 0.285523
#
# Coordination Sequence:
#
# PCOD9111494 Si02
#       8
#     2   2   2   2   1   2   2   2
#     4  11  23  41  66  94 128 167 217 261 318 391
#     4  11  24  40  64  98 126 164 221 261 320 390
#     4  10  20  43  65  88 131 168 206 272 327 372
#     4   9  21  41  59  92 129 168 207 265 322 372
#     4  10  22  36  64  92 120 168 218 254 320 374
#     4  12  22  44  69  89 129 176 204 272 325 376
#     4  10  21  39  63  87 127 178 210 257 324 381
#     4  10  21  43  64  91 132 170 215 267 321 382
#
# _framework density 24.957972000000002
#
# number of rings (size 3 to 8) (size 9 to 14) (size 15 to 20)
#    0.000    1.600    5.333    0.400    3.733    2.133 
#    2.400    3.333    0.000    0.000    0.000    0.000 
#    0.000    0.000    0.000    0.000    0.000    0.000 
#
# Total GULP energy -83533.638905 kJ/mol
# GULP energy per Si atom -5568.909260 kJ/mol
# Density = 2.490117 g / cm^3
# Si number density = 24.957972 Si / 1000 Ang^3
#
#
#
# Elastic Constant Matrix: (Units=GPa)
#
#
# Indices 1 2 3 4 5 6 
#
# 1 54.6604 11.2980 4.2244 -9.3252 -15.7593 23.0588
# 2 11.2980 159.8259 19.3741 -9.8941 -11.0189 33.7510
# 3 4.2244 19.3741 85.6331 -16.1031 -18.4116 13.6525
# 4 -9.3252 -9.8941 -16.1031 34.2274 17.7691 -13.8399
# 5 -15.7593 -11.0189 -18.4116 17.7691 35.0888 -19.2157
# 6 23.0588 33.7510 13.6525 -13.8399 -19.2157 37.0652
#
#
#
# Elastic Compliance Matrix: (Units=1/GPa)
#
#
# Indices 1 2 3 4 5 6 
#
# 1 0.025802 0.001626 0.001794 -0.000477 0.004498 -0.016040
# 2 0.001626 0.008032 -0.000945 -0.000290 -0.002128 -0.009190
# 3 0.001794 -0.000945 0.013795 0.003427 0.005293 -0.001314
# 4 -0.000477 -0.000290 0.003427 0.041547 -0.015969 0.006533
# 5 0.004498 -0.002128 0.005293 -0.015969 0.050148 0.017226
# 6 -0.016040 -0.009190 -0.001314 0.006533 0.017226 0.057180
#
#
# Mechanical properties :
#
#
# Convention : Reuss Voigt Hill
#
# Bulk Modulus (GPa) = 19.01866 41.10138 30.06002
# Shear Modulus (GPa) = 23.91441 38.95781 31.43611
#
# Velocity S-wave (km/s) = 3.09882 3.95516 3.55288
# Velocity P-wave (km/s) = 4.52110 6.11242 5.37597
#
# Compressibility (1/GPa) = 0.05257994
#
# Stress axis : x y z
#
# Youngs Moduli (GPa) = 38.75691 124.49796 72.49151
#
# Poissons Ratio (x) = -0.20248 -0.13003
# Poissons Ratio (y) = -0.06303 0.06847
# Poissons Ratio (z) = -0.06952 0.11760
#
# Static dielectric constant tensor:
#      x y z
#    x 2.151570 0.087530 0.015150 
#    y 0.087530 2.011620 0.101780 
#    z 0.015150 0.101780 1.925980 
# 
# From -- ./inp_files/424897.got.cif
#   From: 2010.05.17/outbox.cif.g08.bks.cpg/sg2_213_cif.got.tgz:424897.got - 2010.06.03 11:33:40.
