data_PCOD9111383
_publ_section_title
;
Structure prediction by ZEFSAII (Michael W. Deem and Ramdas Pophale) SiO2 
 PCOD9111383
Probable space group: P -1
;
_chemical_formula_sum "Si O2"
_cell_formula_units_Z 14
_cell_length_a 11.366247
_cell_length_b 11.367343
_cell_length_c 16.102625
_cell_angle_alpha 140.826877
_cell_angle_beta 156.456311
_cell_angle_gamma 46.242516
_cell_volume 523.447064
_symmetry_space_group_name_H-M "P -1"
_symmetry_group_IT_number 2
_symmetry_cell_setting 'triclinic'
loop_
_space_group_symop_operation_xyz
x,y,z
-x,-y,-z
loop_
_atom_site_type_symbol
_atom_site_label
_atom_site_fract_x
_atom_site_fract_y
_atom_site_fract_z
Si Si1 0.795653 0.927308 0.078442
Si Si2 0.972095 0.346456 0.790996
Si Si3 0.501036 0.273306 0.878349
Si Si4 0.993167 0.291528 0.346935
Si Si5 0.836578 0.214533 0.451860
Si Si6 0.358577 0.381065 0.488620
Si Si7 0.909728 0.259469 0.989168
O O1 0.848159 0.787161 0.110306
O O2 0.447684 0.917534 0.829293
O O3 0.978732 0.858368 0.079381
O O4 0.930953 0.138163 0.293202
O O5 0.831600 0.241220 0.562663
O O6 0.699939 0.406165 0.702444
O O7 0.137674 0.533514 0.963494
O O8 0.176467 0.184447 0.638269
O O9 0.500000 0.500000 0.000000
O O10 0.727984 0.246385 0.085049
O O11 0.633691 0.201883 0.838662
O O12 0.282034 0.279363 0.469929
O O13 0.000000 0.500000 0.500000
O O14 0.771413 0.417055 0.483298
O O15 0.181352 0.280333 0.242419
#
# Coordination Sequence:
#
# PCOD9111383 Si02
#       7
#     2   2   2   2   2   2   2
#     4  12  26  45  79 117 151 201 252 318 373 448
#     4  11  21  42  76 116 158 195 243 313 383 454
#     4  11  22  46  80 107 150 216 240 307 392 440
#     4  11  28  51  71 109 157 200 262 314 378 455
#     4  11  22  46  76 117 151 197 253 305 376 457
#     4  10  20  42  77 106 153 204 244 308 382 447
#     4  10  20  42  78 114 151 197 259 298 377 460
#
# _framework density 26.74578
#
# number of rings (size 3 to 8) (size 9 to 14) (size 15 to 20)
#    0.000    1.143    7.143    1.286    0.000    5.714 
#    2.571    3.571    0.000    1.714    0.000    0.000 
#    0.000    0.000    0.000    0.000    0.000    0.000 
#
# Total GULP energy -78595.291780 kJ/mol
# GULP energy per Si atom -5613.949413 kJ/mol
# Density = 2.668491 g / cm^3
# Si number density = 26.745780 Si / 1000 Ang^3
#
#
#
# Elastic Constant Matrix: (Units=GPa)
#
#
# Indices 1 2 3 4 5 6 
#
# 1 164.9831 38.9294 49.8502 -7.4314 24.8473 -3.0298
# 2 38.9294 95.4622 43.7535 6.4141 6.6024 9.3315
# 3 49.8502 43.7535 114.5425 -6.7010 11.9958 3.0535
# 4 -7.4314 6.4141 -6.7010 39.6327 -0.7418 -2.2991
# 5 24.8473 6.6024 11.9958 -0.7418 51.6097 -2.3829
# 6 -3.0298 9.3315 3.0535 -2.2991 -2.3829 39.3265
#
#
#
# Elastic Compliance Matrix: (Units=1/GPa)
#
#
# Indices 1 2 3 4 5 6 
#
# 1 0.007756 -0.002174 -0.002191 0.001451 -0.002871 0.001195
# 2 -0.002174 0.014006 -0.004538 -0.003634 0.000103 -0.003345
# 3 -0.002191 -0.004538 0.011658 0.002279 -0.001038 0.000073
# 4 0.001451 -0.003634 0.002279 0.026608 -0.000273 0.002336
# 5 -0.002871 0.000103 -0.001038 -0.000273 0.021033 0.001093
# 6 0.001195 -0.003345 0.000073 0.002336 0.001093 0.026511
#
#
# Mechanical properties :
#
#
# Convention : Reuss Voigt Hill
#
# Bulk Modulus (GPa) = 64.05164 71.11710 67.58437
# Shear Modulus (GPa) = 38.29007 42.27743 40.28375
#
# Velocity S-wave (km/s) = 3.78779 3.98013 3.88515
# Velocity P-wave (km/s) = 6.56735 6.91156 6.74166
#
# Compressibility (1/GPa) = 0.01561240
#
# Stress axis : x y z
#
# Youngs Moduli (GPa) = 128.93240 71.39851 85.78107
#
# Poissons Ratio (x) = 0.15524 0.18797
# Poissons Ratio (y) = 0.28034 0.38927
# Poissons Ratio (z) = 0.28252 0.32401
#
# Static dielectric constant tensor:
#      x y z
#    x 2.079130 -0.000160 -0.053980 
#    y -0.000160 2.096070 0.011120 
#    z -0.053980 0.011120 2.052160 
# 
# From -- ./inp_files/157656.got.cif
#   From: 2010.05.17/outbox.cif.g08.bks.cpg/sg2_79_cif.got.tgz:157656.got - 2010.06.03 11:33:40.
