data_PCOD9111138
_publ_section_title
;
Structure prediction by ZEFSAII (Michael W. Deem and Ramdas Pophale) SiO2 
 PCOD9111138
Probable space group: P -1
;
_chemical_formula_sum "Si O2"
_cell_formula_units_Z 16
_cell_length_a 20.183027
_cell_length_b 8.711025
_cell_length_c 11.798846
_cell_angle_alpha 71.024634
_cell_angle_beta 137.670632
_cell_angle_gamma 141.267350
_cell_volume 701.171739
_symmetry_space_group_name_H-M "P -1"
_symmetry_group_IT_number 2
_symmetry_cell_setting 'triclinic'
loop_
_space_group_symop_operation_xyz
x,y,z
-x,-y,-z
loop_
_atom_site_type_symbol
_atom_site_label
_atom_site_fract_x
_atom_site_fract_y
_atom_site_fract_z
Si Si1 0.752911 0.094728 0.065749
Si Si2 0.007886 0.635326 0.079211
Si Si3 0.283269 0.710396 0.830113
Si Si4 0.393944 0.729396 0.616392
Si Si5 0.042631 0.233126 0.443086
Si Si6 0.390317 0.653883 0.168806
Si Si7 0.221795 0.396755 0.262912
Si Si8 0.641112 0.749162 0.518553
O O1 0.863304 0.371519 0.054315
O O2 0.749188 0.172358 0.166641
O O3 0.862270 0.079249 0.211262
O O4 0.543499 0.802136 0.823928
O O5 0.959206 0.745011 0.941257
O O6 0.209814 0.920738 0.319631
O O7 0.000000 0.500000 0.000000
O O8 0.148471 0.493567 0.607154
O O9 0.260081 0.530553 0.933321
O O10 0.500000 0.000000 0.000000
O O11 0.191669 0.419188 0.487079
O O12 0.363649 0.691092 0.452884
O O13 0.479602 0.011904 0.711418
O O14 0.000000 0.000000 0.500000
O O15 0.282132 0.467724 0.191902
O O16 0.516846 0.676965 0.291938
O O17 0.240616 0.241156 0.372535
O O18 0.500000 0.500000 0.500000
#
# Coordination Sequence:
#
# PCOD9111138 Si02
#       8
#     2   2   2   2   2   2   2   2
#     4  11  25  45  75  99 132 185 237 275 346 404
#     4  12  24  41  70  98 133 183 232 273 330 422
#     4  11  22  47  75  93 135 183 235 281 331 415
#     4  11  23  45  70 102 139 183 227 281 343 412
#     4  12  27  47  68 105 138 174 234 295 344 398
#     4  10  20  42  69  95 129 182 223 267 338 407
#     4  11  22  41  67  99 142 170 220 280 344 404
#     4  10  24  39  62 100 142 174 216 275 348 401
#
# _framework density 22.818944999999999
#
# number of rings (size 3 to 8) (size 9 to 14) (size 15 to 20)
#    0.000    1.000    5.000    3.375    3.500    2.500 
#    9.000    0.000    0.000    0.000    0.000    0.000 
#    0.000    0.000    0.000    0.000    0.000    0.000 
#
# Total GULP energy -89408.482523 kJ/mol
# GULP energy per Si atom -5588.030158 kJ/mol
# Density = 2.276701 g / cm^3
# Si number density = 22.818945 Si / 1000 Ang^3
#
#
#
# Elastic Constant Matrix: (Units=GPa)
#
#
# Indices 1 2 3 4 5 6 
#
# 1 85.8820 21.5532 27.3171 4.5695 16.3707 11.3990
# 2 21.5532 45.5132 1.0558 -4.8839 19.2447 -5.2658
# 3 27.3171 1.0558 108.3601 -22.6257 30.2376 -2.3013
# 4 4.5695 -4.8839 -22.6257 31.2632 -9.4798 7.5963
# 5 16.3707 19.2447 30.2376 -9.4798 50.4066 -11.8641
# 6 11.3990 -5.2658 -2.3013 7.5963 -11.8641 18.7073
#
#
#
# Elastic Compliance Matrix: (Units=1/GPa)
#
#
# Indices 1 2 3 4 5 6 
#
# 1 0.018559 -0.009243 -0.004868 -0.005286 -0.004094 -0.014959
# 2 -0.009243 0.031983 0.006352 0.006273 -0.010356 0.006301
# 3 -0.004868 0.006352 0.014944 0.010699 -0.008543 -0.003170
# 4 -0.005286 0.006273 0.010699 0.044024 -0.001811 -0.012722
# 5 -0.004094 -0.010356 -0.008543 -0.001811 0.034950 0.021429
# 6 -0.014959 0.006301 -0.003170 -0.012722 0.021429 0.082710
#
#
# Mechanical properties :
#
#
# Convention : Reuss Voigt Hill
#
# Bulk Modulus (GPa) = 20.01255 37.73416 28.87335
# Shear Modulus (GPa) = 19.27957 32.73071 26.00514
#
# Velocity S-wave (km/s) = 2.90986 3.79141 3.37950
# Velocity P-wave (km/s) = 4.48095 5.97818 5.28287
#
# Compressibility (1/GPa) = 0.04996866
#
# Stress axis : x y z
#
# Youngs Moduli (GPa) = 53.88295 31.26710 66.91568
#
# Poissons Ratio (x) = 0.28899 0.32572
# Poissons Ratio (y) = 0.49803 -0.42505
# Poissons Ratio (z) = 0.26228 -0.19861
#
# Static dielectric constant tensor:
#      x y z
#    x 1.863000 -0.009700 0.032960 
#    y -0.009700 1.886250 -0.010690 
#    z 0.032960 -0.010690 1.827670 
# 
# From -- ./inp_files/469957.got.cif
#   From: 2010.05.17/outbox.cif.g08.bks.cpg/sg2_235_cif.got.tgz:469957.got - 2010.06.03 11:33:40.
