data_PCOD9111353
_publ_section_title
;
Structure prediction by ZEFSAII (Michael W. Deem and Ramdas Pophale) SiO2 
 PCOD9111353
Probable space group: P -1
;
_chemical_formula_sum "Si O2"
_cell_formula_units_Z 12
_cell_length_a 10.242242
_cell_length_b 11.261892
_cell_length_c 8.791142
_cell_angle_alpha 134.432958
_cell_angle_beta 132.869618
_cell_angle_gamma 52.722992
_cell_volume 514.214137
_symmetry_space_group_name_H-M "P -1"
_symmetry_group_IT_number 2
_symmetry_cell_setting 'triclinic'
loop_
_space_group_symop_operation_xyz
x,y,z
-x,-y,-z
loop_
_atom_site_type_symbol
_atom_site_label
_atom_site_fract_x
_atom_site_fract_y
_atom_site_fract_z
Si Si1 0.772972 0.391295 0.019544
Si Si2 0.125055 0.863178 0.865374
Si Si3 0.819887 0.757492 0.324004
Si Si4 0.455744 0.642661 0.463651
Si Si5 0.046745 0.807899 0.297428
Si Si6 0.454090 0.017356 0.156958
O O1 0.590550 0.416956 0.793602
O O2 0.925464 0.258872 0.914990
O O3 0.803985 0.579877 0.223644
O O4 0.775505 0.299109 0.098742
O O5 0.979627 0.816365 0.593025
O O6 0.000000 0.000000 0.000000
O O7 0.900685 0.721712 0.185068
O O8 0.629862 0.904870 0.290475
O O9 0.500000 0.500000 0.500000
O O10 0.575901 0.779446 0.656392
O O11 0.257122 0.746705 0.459909
O O12 0.720723 0.055327 0.012176
O O13 0.000000 0.000000 0.500000
O O14 0.500000 0.000000 0.000000
#
# Coordination Sequence:
#
# PCOD9111353 Si02
#       6
#     2   2   2   2   2   2
#     4  10  25  43  72 108 146 197 248 308 380 444
#     4  12  28  47  74 109 150 200 247 315 385 439
#     4  12  24  47  75 105 151 197 252 311 375 455
#     4  10  22  42  70 109 147 189 254 309 370 445
#     4  10  20  42  74 103 143 197 251 301 371 446
#     4  12  27  45  77 107 148 197 256 308 372 458
#
# _framework density 23.336580000000001
#
# number of rings (size 3 to 8) (size 9 to 14) (size 15 to 20)
#    1.000    0.000    1.667    5.000    2.333    4.667 
#    0.000    1.667    0.000    0.000    0.000    0.000 
#    0.000    0.000    0.000    0.000    0.000    0.000 
#
# Total GULP energy -67006.980890 kJ/mol
# GULP energy per Si atom -5583.915074 kJ/mol
# Density = 2.328347 g / cm^3
# Si number density = 23.336580 Si / 1000 Ang^3
#
#
#
# Elastic Constant Matrix: (Units=GPa)
#
#
# Indices 1 2 3 4 5 6 
#
# 1 96.8880 53.9797 56.0271 4.1813 21.8219 18.6893
# 2 53.9797 182.6412 77.4946 -0.8959 15.6437 30.2579
# 3 56.0271 77.4946 171.7243 -2.2719 27.1541 27.3957
# 4 4.1813 -0.8959 -2.2719 38.9691 10.4258 5.8862
# 5 21.8219 15.6437 27.1541 10.4258 31.8975 6.3170
# 6 18.6893 30.2579 27.3957 5.8862 6.3170 45.0963
#
#
#
# Elastic Compliance Matrix: (Units=1/GPa)
#
#
# Indices 1 2 3 4 5 6 
#
# 1 0.014990 -0.002491 -0.002349 0.000325 -0.006701 -0.002218
# 2 -0.002491 0.007598 -0.002177 0.000702 0.000168 -0.002858
# 3 -0.002349 -0.002177 0.008821 0.002474 -0.005143 -0.002527
# 4 0.000325 0.000702 0.002474 0.029509 -0.011455 -0.004356
# 5 -0.006701 0.000168 -0.005143 -0.011455 0.043746 0.001156
# 6 -0.002218 -0.002858 -0.002527 -0.004356 0.001156 0.026953
#
#
# Mechanical properties :
#
#
# Convention : Reuss Voigt Hill
#
# Bulk Modulus (GPa) = 57.55323 91.80625 74.67974
# Shear Modulus (GPa) = 33.01556 40.77605 36.89581
#
# Velocity S-wave (km/s) = 3.76540 4.18461 3.98053
# Velocity P-wave (km/s) = 6.60455 7.92297 7.29361
#
# Compressibility (1/GPa) = 0.01737522
#
# Stress axis : x y z
#
# Youngs Moduli (GPa) = 66.70987 131.61838 113.36137
#
# Poissons Ratio (x) = 0.32782 0.26629
# Poissons Ratio (y) = 0.16615 0.24683
# Poissons Ratio (z) = 0.15670 0.28658
#
# Static dielectric constant tensor:
#      x y z
#    x 1.916950 0.020760 -0.025340 
#    y 0.020760 1.954820 -0.006320 
#    z -0.025340 -0.006320 1.963060 
# 
# From -- ./inp_files/211547.got.cif
#   From: 2010.05.17/outbox.cif.g08.bks.cpg/sg2_106_cif.got.tgz:211547.got - 2010.06.03 11:33:40.
