data_PCOD9111056
_publ_section_title
;
Structure prediction by ZEFSAII (Michael W. Deem and Ramdas Pophale) SiO2 
 PCOD9111056
Probable space group: P -1
;
_chemical_formula_sum "Si O2"
_cell_formula_units_Z 13
_cell_length_a 8.123169
_cell_length_b 12.218841
_cell_length_c 9.215663
_cell_angle_alpha 51.200128
_cell_angle_beta 131.443359
_cell_angle_gamma 97.801576
_cell_volume 469.498866
_symmetry_space_group_name_H-M "P -1"
_symmetry_group_IT_number 2
_symmetry_cell_setting 'triclinic'
loop_
_space_group_symop_operation_xyz
x,y,z
-x,-y,-z
loop_
_atom_site_type_symbol
_atom_site_label
_atom_site_fract_x
_atom_site_fract_y
_atom_site_fract_z
Si Si1 0.115972 0.366977 0.393473
Si Si2 0.304797 0.145993 0.431626
Si Si3 0.500000 0.500000 0.500000
Si Si4 0.018550 0.995792 0.781792
Si Si5 0.146867 0.733702 0.316299
Si Si6 0.300610 0.330910 0.000662
Si Si7 0.516176 0.132262 0.049384
O O1 0.115753 0.279482 0.319053
O O2 0.256047 0.472111 0.357205
O O3 0.307995 0.233765 0.726261
O O4 0.846176 0.482093 0.207629
O O5 0.374704 0.234105 0.274825
O O6 0.181003 0.050914 0.361629
O O7 0.514690 0.006199 0.768629
O O8 0.391117 0.574688 0.540343
O O9 0.223601 0.957651 0.809036
O O10 0.145505 0.858919 0.091810
O O11 0.901440 0.169146 0.643109
O O12 0.913013 0.703141 0.170683
O O13 0.511559 0.256955 0.063237
#
# Coordination Sequence:
#
# PCOD9111056 Si02
#       7
#     2   2   1   2   2   2   2
#     4  11  24  44  73  97 136 180 234 275 340 406
#     4  11  25  44  68 101 141 177 223 289 340 398
#     4  10  20  42  68  96 126 182 222 270 328 414
#     4  10  22  42  64  99 136 176 224 280 332 402
#     4   9  20  39  68  93 133 177 227 266 339 399
#     4  10  24  43  67 100 139 181 223 281 342 403
#     4  12  24  43  69 104 135 179 233 278 336 404
#
# _framework density 27.689097
#
# number of rings (size 3 to 8) (size 9 to 14) (size 15 to 20)
#    0.000    1.538    1.538    2.308    4.308    2.462 
#    0.000    0.769    0.000    0.000    0.000    0.000 
#    0.000    0.000    0.000    0.000    0.000    0.000 
#
# Total GULP energy -72606.084070 kJ/mol
# GULP energy per Si atom -5585.083390 kJ/mol
# Density = 2.762607 g / cm^3
# Si number density = 27.689097 Si / 1000 Ang^3
#
#
#
# Elastic Constant Matrix: (Units=GPa)
#
#
# Indices 1 2 3 4 5 6 
#
# 1 77.7428 41.4933 35.0376 -4.5231 0.4797 -43.4988
# 2 41.4933 179.5029 36.6774 -18.6184 -2.8945 -61.1642
# 3 35.0376 36.6774 115.8753 -12.7141 -21.7640 -17.7616
# 4 -4.5231 -18.6184 -12.7141 25.9982 -8.7528 5.3590
# 5 0.4797 -2.8945 -21.7640 -8.7528 31.1654 -5.0154
# 6 -43.4988 -61.1642 -17.7616 5.3590 -5.0154 74.7314
#
#
#
# Elastic Compliance Matrix: (Units=1/GPa)
#
#
# Indices 1 2 3 4 5 6 
#
# 1 0.021558 -0.000495 -0.005634 -0.002704 -0.003338 0.010774
# 2 -0.000495 0.008601 -0.000367 0.005628 0.003172 0.006473
# 3 -0.005634 -0.000367 0.013825 0.009730 0.012414 -0.000159
# 4 -0.002704 0.005628 0.009730 0.053897 0.022982 0.003022
# 5 -0.003338 0.003172 0.012414 0.022982 0.048394 0.005204
# 6 0.010774 0.006473 -0.000159 0.003022 0.005204 0.025045
#
#
# Mechanical properties :
#
#
# Convention : Reuss Voigt Hill
#
# Bulk Modulus (GPa) = 32.26778 66.61528 49.44153
# Shear Modulus (GPa) = 25.68815 43.70650 34.69733
#
# Velocity S-wave (km/s) = 3.04918 3.97731 3.54376
# Velocity P-wave (km/s) = 4.90669 6.72328 5.88549
#
# Compressibility (1/GPa) = 0.03099066
#
# Stress axis : x y z
#
# Youngs Moduli (GPa) = 46.38704 116.26493 72.33480
#
# Poissons Ratio (x) = 0.05759 0.40753
# Poissons Ratio (y) = 0.02298 0.02656
# Poissons Ratio (z) = 0.26134 0.04268
#
# Static dielectric constant tensor:
#      x y z
#    x 2.133440 0.013170 -0.000180 
#    y 0.013170 2.153380 -0.023500 
#    z -0.000180 -0.023500 2.225030 
# 
# From -- ./inp_files/175607.got.cif
#   From: 2010.05.17/outbox.cif.g08.bks.cpg/sg2_88_cif.got.tgz:175607.got - 2010.06.03 11:33:40.
