data_PCOD9111521
_publ_section_title
;
Structure prediction by ZEFSAII (Michael W. Deem and Ramdas Pophale) SiO2 
 PCOD9111521
Probable space group: P -1
;
_chemical_formula_sum "Si O2"
_cell_formula_units_Z 16
_cell_length_a 11.475823
_cell_length_b 16.534024
_cell_length_c 12.209831
_cell_angle_alpha 155.658230
_cell_angle_beta 130.511095
_cell_angle_gamma 59.121611
_cell_volume 702.765284
_symmetry_space_group_name_H-M "P -1"
_symmetry_group_IT_number 2
_symmetry_cell_setting 'triclinic'
loop_
_space_group_symop_operation_xyz
x,y,z
-x,-y,-z
loop_
_atom_site_type_symbol
_atom_site_label
_atom_site_fract_x
_atom_site_fract_y
_atom_site_fract_z
Si Si1 0.136722 0.455161 0.687319
Si Si2 0.265187 0.939064 0.390438
Si Si3 0.604549 0.731520 0.277545
Si Si4 0.438151 0.783614 0.466931
Si Si5 0.191023 0.503252 0.382616
Si Si6 0.174316 0.644519 0.308830
Si Si7 0.051247 0.024541 0.687362
Si Si8 0.353485 0.443019 0.610709
O O1 0.241100 0.344782 0.690660
O O2 0.191235 0.411468 0.543837
O O3 0.953373 0.405698 0.548974
O O4 0.196224 0.698021 0.038832
O O5 0.370375 0.965250 0.598417
O O6 0.348522 0.041903 0.459892
O O7 0.116830 0.034984 0.428744
O O8 0.496208 0.280733 0.688262
O O9 0.492377 0.600228 0.955238
O O10 0.290563 0.655712 0.290364
O O11 0.586652 0.764898 0.610395
O O12 0.232436 0.573413 0.370770
O O13 0.329483 0.540405 0.601310
O O14 0.130137 0.259031 0.045073
O O15 0.154748 0.871264 0.590368
O O16 0.000000 0.500000 0.000000
O O17 0.000000 0.000000 0.500000
#
# Coordination Sequence:
#
# PCOD9111521 Si02
#       8
#     2   2   2   2   2   2   2   2
#     4  10  20  43  65  97 127 168 219 254 309 382
#     4  11  20  37  67  98 121 162 221 266 303 367
#     4  11  22  38  69  98 126 166 215 259 321 375
#     4  11  22  40  62  96 127 166 215 257 311 381
#     4  11  25  43  65  95 132 168 207 265 321 371
#     4  12  24  42  68  92 122 166 219 264 305 378
#     4  11  22  41  66  96 119 165 227 260 304 373
#     4  11  23  40  64  96 137 164 201 264 328 377
#
# _framework density 22.767204
#
# number of rings (size 3 to 8) (size 9 to 14) (size 15 to 20)
#    0.000    1.000    5.000    3.000    1.750    0.500 
#    2.250    0.625    0.000    6.000    0.000    0.000 
#    0.000    0.000    0.000    0.000    0.000    0.000 
#
# Total GULP energy -89239.077642 kJ/mol
# GULP energy per Si atom -5577.442353 kJ/mol
# Density = 2.271538 g / cm^3
# Si number density = 22.767204 Si / 1000 Ang^3
#
#
#
# Elastic Constant Matrix: (Units=GPa)
#
#
# Indices 1 2 3 4 5 6 
#
# 1 125.3505 64.5727 20.0563 7.6968 -3.3778 1.5123
# 2 64.5727 176.5744 28.5288 -5.0157 10.1271 33.2530
# 3 20.0563 28.5288 15.6830 0.7539 2.3531 4.2548
# 4 7.6968 -5.0157 0.7539 29.1775 1.9367 -3.4232
# 5 -3.3778 10.1271 2.3531 1.9367 12.0456 4.4416
# 6 1.5123 33.2530 4.2548 -3.4232 4.4416 36.8738
#
#
#
# Elastic Compliance Matrix: (Units=1/GPa)
#
#
# Indices 1 2 3 4 5 6 
#
# 1 0.012006 -0.003859 -0.010143 -0.003779 0.008159 0.002825
# 2 -0.003859 0.010773 -0.011990 0.002698 -0.005556 -0.007254
# 3 -0.010143 -0.011990 0.100185 -0.001012 -0.012574 0.001089
# 4 -0.003779 0.002698 -0.001012 0.036706 -0.009932 0.002443
# 5 0.008159 -0.005556 -0.012574 -0.009932 0.096393 -0.006406
# 6 0.002825 -0.007254 0.001089 0.002443 -0.006406 0.034418
#
#
# Mechanical properties :
#
#
# Convention : Reuss Voigt Hill
#
# Bulk Modulus (GPa) = 14.08842 60.43593 37.26217
# Shear Modulus (GPa) = 13.65651 29.24937 21.45294
#
# Velocity S-wave (km/s) = 2.45180 3.58818 3.07298
# Velocity P-wave (km/s) = 3.77049 6.61585 5.38452
#
# Compressibility (1/GPa) = 0.07098029
#
# Stress axis : x y z
#
# Youngs Moduli (GPa) = 83.28984 92.82326 9.98148
#
# Poissons Ratio (x) = 0.35821 0.10124
# Poissons Ratio (y) = 0.32142 0.11968
# Poissons Ratio (z) = 0.84481 1.11297
#
# Static dielectric constant tensor:
#      x y z
#    x 1.916860 -0.050830 -0.019540 
#    y -0.050830 1.898660 -0.013420 
#    z -0.019540 -0.013420 1.937130 
# 
# From -- ./inp_files/433578.got.cif
#   From: 2010.05.17/outbox.cif.g08.bks.cpg/sg2_217_cif.got.tgz:433578.got - 2010.06.03 11:33:40.
