data_PCOD9111113
_publ_section_title
;
Structure prediction by ZEFSAII (Michael W. Deem and Ramdas Pophale) SiO2 
 PCOD9111113
Probable space group: P -1
;
_chemical_formula_sum "Si O2"
_cell_formula_units_Z 14
_cell_length_a 8.719576
_cell_length_b 11.871299
_cell_length_c 7.326110
_cell_angle_alpha 110.232924
_cell_angle_beta 85.682378
_cell_angle_gamma 126.274092
_cell_volume 565.203590
_symmetry_space_group_name_H-M "P -1"
_symmetry_group_IT_number 2
_symmetry_cell_setting 'triclinic'
loop_
_space_group_symop_operation_xyz
x,y,z
-x,-y,-z
loop_
_atom_site_type_symbol
_atom_site_label
_atom_site_fract_x
_atom_site_fract_y
_atom_site_fract_z
Si Si1 0.833861 0.054379 0.925948
Si Si2 0.639373 0.131355 0.706836
Si Si3 0.610454 0.782214 0.288951
Si Si4 0.369425 0.544749 0.449475
Si Si5 0.980767 0.085359 0.319003
Si Si6 0.233323 0.373410 0.988057
Si Si7 0.934701 0.627837 0.342756
O O1 0.681597 0.060309 0.829245
O O2 0.034075 0.207594 0.930704
O O3 0.849605 0.069840 0.151601
O O4 0.862017 0.929006 0.793663
O O5 0.522871 0.194488 0.805806
O O6 0.839152 0.271906 0.672421
O O7 0.500000 0.000000 0.500000
O O8 0.508121 0.713563 0.453692
O O9 0.624096 0.660980 0.119453
O O10 0.822131 0.940980 0.374558
O O11 0.500000 0.500000 0.500000
O O12 0.191803 0.502019 0.568981
O O13 0.276468 0.446710 0.220179
O O14 0.074812 0.239421 0.504355
O O15 0.186548 0.443894 0.871616
#
# Coordination Sequence:
#
# PCOD9111113 Si02
#       7
#     2   2   2   2   2   2   2
#     4   9  21  38  68  99 137 170 233 275 337 396
#     4  11  24  42  62 103 144 178 216 278 345 403
#     4  11  24  41  65 101 138 173 225 276 339 396
#     4  12  25  45  72 100 132 178 233 282 330 398
#     4  10  20  42  69 103 123 180 230 288 326 387
#     4  10  22  43  70  99 131 174 231 281 326 396
#     4  11  23  43  73  95 139 177 225 281 336 396
#
# _framework density 24.769835
#
# number of rings (size 3 to 8) (size 9 to 14) (size 15 to 20)
#    0.000    1.429    4.286    0.429    2.000    2.857 
#    0.000    2.857    0.000    0.000    0.000    0.000 
#    0.000    0.000    0.000    0.000    0.000    0.000 
#
# Total GULP energy -78308.141253 kJ/mol
# GULP energy per Si atom -5593.438661 kJ/mol
# Density = 2.471346 g / cm^3
# Si number density = 24.769835 Si / 1000 Ang^3
#
#
#
# Elastic Constant Matrix: (Units=GPa)
#
#
# Indices 1 2 3 4 5 6 
#
# 1 101.8343 15.2682 23.7295 -9.8491 32.1563 8.8365
# 2 15.2682 78.6657 15.2048 -21.3057 7.5406 10.4891
# 3 23.7295 15.2048 130.7578 -11.3480 34.9220 5.3466
# 4 -9.8491 -21.3057 -11.3480 42.5220 0.5537 -3.1930
# 5 32.1563 7.5406 34.9220 0.5537 34.9979 -10.4694
# 6 8.8365 10.4891 5.3466 -3.1930 -10.4694 27.5189
#
#
#
# Elastic Compliance Matrix: (Units=1/GPa)
#
#
# Indices 1 2 3 4 5 6 
#
# 1 0.019936 0.002136 0.005448 0.006108 -0.029987 -0.018974
# 2 0.002136 0.016702 0.001622 0.008657 -0.010404 -0.010321
# 3 0.005448 0.001622 0.013554 0.005004 -0.022886 -0.013127
# 4 0.006108 0.008657 0.005004 0.030158 -0.015533 -0.008643
# 5 -0.029987 -0.010404 -0.022886 -0.015533 0.097390 0.053290
# 6 -0.018974 -0.010321 -0.013127 -0.008643 0.053290 0.068187
#
#
# Mechanical properties :
#
#
# Convention : Reuss Voigt Hill
#
# Bulk Modulus (GPa) = 14.57625 46.62922 30.60274
# Shear Modulus (GPa) = 19.96953 38.14479 29.05716
#
# Velocity S-wave (km/s) = 2.84245 3.92850 3.42875
# Velocity P-wave (km/s) = 4.08291 6.28040 5.29686
#
# Compressibility (1/GPa) = 0.06860475
#
# Stress axis : x y z
#
# Youngs Moduli (GPa) = 50.16035 59.87319 73.78115
#
# Poissons Ratio (x) = -0.12789 -0.40197
# Poissons Ratio (y) = -0.10715 -0.11969
# Poissons Ratio (z) = -0.27328 -0.09713
#
# Static dielectric constant tensor:
#      x y z
#    x 2.059600 -0.008400 0.041100 
#    y -0.008400 2.064990 -0.032380 
#    z 0.041100 -0.032380 1.955720 
# 
# From -- ./inp_files/165067.got.cif
#   From: 2010.05.17/outbox.cif.g08.bks.cpg/sg2_83_cif.got.tgz:165067.got - 2010.06.03 11:33:40.
