data_PCOD9111150
_publ_section_title
;
Structure prediction by ZEFSAII (Michael W. Deem and Ramdas Pophale) SiO2 
 PCOD9111150
Probable space group: P -1
;
_chemical_formula_sum "Si O2"
_cell_formula_units_Z 14
_cell_length_a 5.553473
_cell_length_b 18.039577
_cell_length_c 10.021038
_cell_angle_alpha 136.693419
_cell_angle_beta 60.274736
_cell_angle_gamma 105.842632
_cell_volume 591.451607
_symmetry_space_group_name_H-M "P -1"
_symmetry_group_IT_number 2
_symmetry_cell_setting 'triclinic'
loop_
_space_group_symop_operation_xyz
x,y,z
-x,-y,-z
loop_
_atom_site_type_symbol
_atom_site_label
_atom_site_fract_x
_atom_site_fract_y
_atom_site_fract_z
Si Si1 0.079437 0.335539 0.032603
Si Si2 0.809714 0.451570 0.799284
Si Si3 0.919544 0.667492 0.665465
Si Si4 0.816837 0.115170 0.162128
Si Si5 0.712705 0.063565 0.606237
Si Si6 0.318140 0.767864 0.377391
Si Si7 0.396317 0.803107 0.941716
O O1 0.008264 0.448555 0.115567
O O2 0.120429 0.366287 0.216741
O O3 0.865542 0.249522 0.994928
O O4 0.371435 0.277978 0.818124
O O5 0.861864 0.332484 0.697074
O O6 0.848716 0.411403 0.582486
O O7 0.500000 0.500000 0.000000
O O8 0.619556 0.694389 0.710408
O O9 0.004664 0.788170 0.795948
O O10 0.660699 0.167082 0.405262
O O11 0.642973 0.120649 0.078841
O O12 0.000000 0.000000 0.000000
O O13 0.811468 0.148056 0.586221
O O14 0.500000 0.000000 0.500000
O O15 0.540570 0.122910 0.854498
O O16 0.000000 0.000000 0.500000
#
# Coordination Sequence:
#
# PCOD9111150 Si02
#       7
#     2   2   2   2   2   2   2
#     4  10  20  42  69  96 137 186 232 296 351 431
#     4   9  20  40  70  99 136 185 227 296 364 420
#     4  10  21  40  65  97 139 174 239 286 353 431
#     4  10  23  42  65  95 139 186 235 293 359 413
#     4  12  26  45  74 103 143 195 243 294 359 431
#     4  10  21  43  67 102 138 180 244 295 352 425
#     4  11  24  42  66 100 139 183 237 291 353 434
#
# _framework density 23.670577000000002
#
# number of rings (size 3 to 8) (size 9 to 14) (size 15 to 20)
#    0.000    1.714    1.429    2.143    4.000    1.143 
#   10.286    0.714    0.000    0.000    0.000    0.000 
#    0.000    0.000    0.000    0.000    0.000    0.000 
#
# Total GULP energy -78057.000448 kJ/mol
# GULP energy per Si atom -5575.500032 kJ/mol
# Density = 2.361670 g / cm^3
# Si number density = 23.670577 Si / 1000 Ang^3
#
#
#
# Elastic Constant Matrix: (Units=GPa)
#
#
# Indices 1 2 3 4 5 6 
#
# 1 54.7794 35.9119 39.2744 -2.5635 9.9612 -12.7250
# 2 35.9119 180.1388 58.9985 8.4279 11.5984 -21.0075
# 3 39.2744 58.9985 172.5639 -25.4007 5.8892 -0.7230
# 4 -2.5635 8.4279 -25.4007 42.1782 2.7968 3.2815
# 5 9.9612 11.5984 5.8892 2.7968 28.8328 -11.7979
# 6 -12.7250 -21.0075 -0.7230 3.2815 -11.7979 12.9592
#
#
#
# Elastic Compliance Matrix: (Units=1/GPa)
#
#
# Indices 1 2 3 4 5 6 
#
# 1 0.031721 0.001349 -0.008902 -0.007558 0.008398 0.042397
# 2 0.001349 0.009735 -0.004878 -0.007342 0.007929 0.025910
# 3 -0.008902 -0.004878 0.011139 0.009844 -0.009196 -0.026892
# 4 -0.007558 -0.007342 0.009844 0.035248 -0.017848 -0.043949
# 5 0.008398 0.007929 -0.009196 -0.017848 0.067690 0.086729
# 6 0.042397 0.025910 -0.026892 -0.043949 0.086729 0.249384
#
#
# Mechanical properties :
#
#
# Convention : Reuss Voigt Hill
#
# Bulk Modulus (GPa) = 36.05922 75.09462 55.57692
# Shear Modulus (GPa) = 11.38894 35.01386 23.20140
#
# Velocity S-wave (km/s) = 2.19588 3.85023 3.13418
# Velocity P-wave (km/s) = 4.65790 7.18049 6.05208
#
# Compressibility (1/GPa) = 0.02773216
#
# Stress axis : x y z
#
# Youngs Moduli (GPa) = 31.52481 102.72647 89.77518
#
# Poissons Ratio (x) = -0.13858 0.79920
# Poissons Ratio (y) = -0.04253 0.43793
# Poissons Ratio (z) = 0.28064 0.50110
#
# Static dielectric constant tensor:
#      x y z
#    x 2.347760 -0.021600 -0.008260 
#    y -0.021600 1.921320 0.035110 
#    z -0.008260 0.035110 1.955410 
# 
# From -- ./inp_files/57017.got.cif
#   From: 2010.05.17/outbox.cif.g08.bks.cpg/sg2_29_cif.got.tgz:57017.got - 2010.06.03 11:33:40.
