data_PCOD9111613
_publ_section_title
;
Structure prediction by ZEFSAII (Michael W. Deem and Ramdas Pophale) SiO2 
 PCOD9111613
Probable space group: P -1
;
_chemical_formula_sum "Si O2"
_cell_formula_units_Z 14
_cell_length_a 8.302304
_cell_length_b 12.192422
_cell_length_c 10.054476
_cell_angle_alpha 37.315917
_cell_angle_beta 93.263245
_cell_angle_gamma 86.093305
_cell_volume 605.069259
_symmetry_space_group_name_H-M "P -1"
_symmetry_group_IT_number 2
_symmetry_cell_setting 'triclinic'
loop_
_space_group_symop_operation_xyz
x,y,z
-x,-y,-z
loop_
_atom_site_type_symbol
_atom_site_label
_atom_site_fract_x
_atom_site_fract_y
_atom_site_fract_z
Si Si1 0.369218 0.305645 0.994309
Si Si2 0.111566 0.495582 0.139513
Si Si3 0.637766 0.812861 0.459323
Si Si4 0.857970 0.367053 0.436702
Si Si5 0.357446 0.385493 0.626837
Si Si6 0.746169 0.046118 0.629061
Si Si7 0.266987 0.832558 0.782908
O O1 0.540634 0.264634 0.116962
O O2 0.242901 0.173479 0.154477
O O3 0.284938 0.519561 0.777672
O O4 0.403168 0.263235 0.879061
O O5 0.279631 0.346089 0.282135
O O6 0.018385 0.421477 0.329533
O O7 0.162116 0.691995 0.972286
O O8 0.000000 0.500000 0.000000
O O9 0.652904 0.730459 0.392378
O O10 0.447863 0.882858 0.419969
O O11 0.731818 0.982272 0.314121
O O12 0.803141 0.466707 0.477341
O O13 0.844720 0.154420 0.630360
O O14 0.500000 0.500000 0.500000
O O15 0.789994 0.106152 0.426831
#
# Coordination Sequence:
#
# PCOD9111613 Si02
#       7
#     2   2   2   2   2   2   2
#     4   9  22  39  64  94 121 157 207 256 310 351
#     4  12  26  41  62  91 130 171 198 253 314 376
#     4  11  24  41  63  95 123 161 214 253 305 368
#     4  10  23  41  62  91 125 163 208 248 313 361
#     4  10  20  43  67  91 124 161 206 261 301 366
#     4  11  21  39  66  94 124 158 205 268 302 358
#     4  11  24  39  65  96 124 163 205 259 312 362
#
# _framework density 23.137848000000002
#
# number of rings (size 3 to 8) (size 9 to 14) (size 15 to 20)
#    0.857    0.571    2.857    3.429    4.000    5.714 
#    2.571    0.714    0.000    0.000    0.000    0.000 
#    0.000    0.000    0.000    0.000    0.000    0.000 
#
# Total GULP energy -78249.101836 kJ/mol
# GULP energy per Si atom -5589.221560 kJ/mol
# Density = 2.308518 g / cm^3
# Si number density = 23.137848 Si / 1000 Ang^3
#
#
#
# Elastic Constant Matrix: (Units=GPa)
#
#
# Indices 1 2 3 4 5 6 
#
# 1 73.1775 27.7497 13.0279 -7.3010 -28.4886 -6.1305
# 2 27.7497 125.3491 13.5625 -26.5764 -22.6558 3.5856
# 3 13.0279 13.5625 69.2271 -17.2931 -21.1531 16.4081
# 4 -7.3010 -26.5764 -17.2931 35.1101 16.2634 -9.6639
# 5 -28.4886 -22.6558 -21.1531 16.2634 36.2415 -5.4340
# 6 -6.1305 3.5856 16.4081 -9.6639 -5.4340 19.8006
#
#
#
# Elastic Compliance Matrix: (Units=1/GPa)
#
#
# Indices 1 2 3 4 5 6 
#
# 1 0.023019 -0.002558 -0.001943 -0.003282 0.018745 0.012743
# 2 -0.002558 0.010236 0.000551 0.006889 0.001728 0.000735
# 3 -0.001943 0.000551 0.021296 0.002825 0.007753 -0.014842
# 4 -0.003282 0.006889 0.002825 0.044903 -0.014787 0.013252
# 5 0.018745 0.001728 0.007753 -0.014787 0.055637 0.007117
# 6 0.012743 0.000735 -0.014842 0.013252 0.007117 0.075036
#
#
# Mechanical properties :
#
#
# Convention : Reuss Voigt Hill
#
# Bulk Modulus (GPa) = 21.43607 41.82601 31.63104
# Shear Modulus (GPa) = 19.71778 32.45798 26.08788
#
# Velocity S-wave (km/s) = 2.92239 3.74947 3.36147
# Velocity P-wave (km/s) = 4.54662 6.07131 5.36342
#
# Compressibility (1/GPa) = 0.04665034
#
# Stress axis : x y z
#
# Youngs Moduli (GPa) = 43.44218 97.68971 46.95801
#
# Poissons Ratio (x) = 0.24990 0.09125
# Poissons Ratio (y) = 0.11113 -0.02587
# Poissons Ratio (z) = 0.08442 -0.05382
#
# Static dielectric constant tensor:
#      x y z
#    x 1.910590 -0.030090 0.038570 
#    y -0.030090 1.851170 -0.003260 
#    z 0.038570 -0.003260 1.870980 
# 
# From -- ./inp_files/388859.got.cif
#   From: 2010.05.17/outbox.cif.g08.bks.cpg/sg2_195_cif.got.tgz:388859.got - 2010.06.03 11:33:40.
