data_PCOD9111715
_publ_section_title
;
Structure prediction by ZEFSAII (Michael W. Deem and Ramdas Pophale) SiO2 
 PCOD9111715
Probable space group: P -1
;
_chemical_formula_sum "Si O2"
_cell_formula_units_Z 16
_cell_length_a 9.181577
_cell_length_b 14.923946
_cell_length_c 17.671653
_cell_angle_alpha 155.663486
_cell_angle_beta 36.627621
_cell_angle_gamma 144.153454
_cell_volume 563.467363
_symmetry_space_group_name_H-M "P -1"
_symmetry_group_IT_number 2
_symmetry_cell_setting 'triclinic'
loop_
_space_group_symop_operation_xyz
x,y,z
-x,-y,-z
loop_
_atom_site_type_symbol
_atom_site_label
_atom_site_fract_x
_atom_site_fract_y
_atom_site_fract_z
Si Si1 0.329955 0.150779 0.794523
Si Si2 0.212958 0.990567 0.076162
Si Si3 0.025618 0.051644 0.370449
Si Si4 0.517849 0.182149 0.360887
Si Si5 0.788819 0.431135 0.917486
Si Si6 0.261669 0.508089 0.682174
Si Si7 0.455790 0.739171 0.412188
Si Si8 0.422315 0.257198 0.059340
O O1 0.587119 0.229752 0.797523
O O2 0.320316 0.918778 0.576247
O O3 0.301091 0.358937 0.916625
O O4 0.070839 0.080493 0.897065
O O5 0.385460 0.210931 0.128373
O O6 0.147160 0.005730 0.204384
O O7 0.312675 0.775892 0.853852
O O8 0.223367 0.047913 0.353746
O O9 0.056700 0.323174 0.571152
O O10 0.755635 0.866645 0.364208
O O11 0.512906 0.424843 0.513978
O O12 0.566490 0.242652 0.474223
O O13 0.663441 0.005621 0.137945
O O14 0.080924 0.463629 0.799375
O O15 0.704874 0.375203 0.995517
O O16 0.321189 0.469313 0.242210
#
# Coordination Sequence:
#
# PCOD9111715 Si02
#       8
#     2   2   2   2   2   2   2   2
#     4  10  21  43  70  92 131 165 223 268 319 386
#     4  11  26  44  61 100 133 179 212 256 327 392
#     4  10  23  42  68  95 128 169 218 263 325 379
#     4  10  24  42  69  97 130 167 219 273 321 377
#     4  10  20  43  69 101 121 168 219 275 325 368
#     4   9  21  44  70  92 126 171 217 271 317 376
#     4  12  23  43  69 103 122 170 219 276 324 371
#     4  12  27  40  62 102 139 167 215 259 329 396
#
# _framework density 28.395613000000001
#
# number of rings (size 3 to 8) (size 9 to 14) (size 15 to 20)
#    0.750    0.750    2.500    1.875    3.500    5.500 
#    0.000    0.000    0.000    0.000    0.000    0.000 
#    0.000    0.000    0.000    0.000    0.000    0.000 
#
# Total GULP energy -89237.805941 kJ/mol
# GULP energy per Si atom -5577.362871 kJ/mol
# Density = 2.833098 g / cm^3
# Si number density = 28.395613 Si / 1000 Ang^3
#
#
#
# Elastic Constant Matrix: (Units=GPa)
#
#
# Indices 1 2 3 4 5 6 
#
# 1 59.1679 21.0436 22.5384 -5.8051 8.8101 -9.3899
# 2 21.0436 142.1039 45.7791 6.8394 -0.8272 -22.5070
# 3 22.5384 45.7791 213.5094 35.6290 -8.3115 -24.3959
# 4 -5.8051 6.8394 35.6290 35.7490 -11.5173 -8.8833
# 5 8.8101 -0.8272 -8.3115 -11.5173 50.6810 0.5104
# 6 -9.3899 -22.5070 -24.3959 -8.8833 0.5104 36.6547
#
#
#
# Elastic Compliance Matrix: (Units=1/GPa)
#
#
# Indices 1 2 3 4 5 6 
#
# 1 0.020095 -0.001895 -0.002395 0.006163 -0.002556 0.003919
# 2 -0.001895 0.008302 -0.001180 0.000352 0.000312 0.003908
# 3 -0.002395 -0.001180 0.006380 -0.006161 0.000029 0.001415
# 4 0.006163 0.000352 -0.006161 0.038957 0.006706 0.007042
# 5 -0.002556 0.000312 0.000029 0.006706 0.021700 0.000879
# 6 0.003919 0.003908 0.001415 0.007042 0.000879 0.033321
#
#
# Mechanical properties :
#
#
# Convention : Reuss Voigt Hill
#
# Bulk Modulus (GPa) = 41.95213 65.94485 53.94849
# Shear Modulus (GPa) = 33.86595 46.31159 40.08877
#
# Velocity S-wave (km/s) = 3.45722 4.04287 3.76146
# Velocity P-wave (km/s) = 5.54461 6.71321 6.15670
#
# Compressibility (1/GPa) = 0.02383669
#
# Stress axis : x y z
#
# Youngs Moduli (GPa) = 49.76478 120.45820 156.72995
#
# Poissons Ratio (x) = 0.22826 0.37538
# Poissons Ratio (y) = 0.09430 0.18494
# Poissons Ratio (z) = 0.11919 0.14214
#
# Static dielectric constant tensor:
#      x y z
#    x 2.311260 -0.042720 0.030650 
#    y -0.042720 2.180450 0.026650 
#    z 0.030650 0.026650 2.373610 
# 
# From -- ./inp_files/596032.got.cif
#   From: 2010.05.17/outbox.cif.g08.bks.cpg/sg2_299_cif.got.tgz:596032.got - 2010.06.03 11:33:40.
