data_PCOD9111862
_publ_section_title
;
Structure prediction by ZEFSAII (Michael W. Deem and Ramdas Pophale) SiO2 
 PCOD9111862
Probable space group: P -1
;
_chemical_formula_sum "Si O2"
_cell_formula_units_Z 15
_cell_length_a 5.303031
_cell_length_b 11.701767
_cell_length_c 9.692489
_cell_angle_alpha 83.927331
_cell_angle_beta 79.417303
_cell_angle_gamma 76.112293
_cell_volume 572.751032
_symmetry_space_group_name_H-M "P -1"
_symmetry_group_IT_number 2
_symmetry_cell_setting 'triclinic'
loop_
_space_group_symop_operation_xyz
x,y,z
-x,-y,-z
loop_
_atom_site_type_symbol
_atom_site_label
_atom_site_fract_x
_atom_site_fract_y
_atom_site_fract_z
Si Si1 0.977069 0.170532 0.874191
Si Si2 0.166177 0.238552 0.391837
Si Si3 0.704337 0.565634 0.042761
Si Si4 0.000000 0.500000 0.500000
Si Si5 0.534624 0.201050 0.120299
Si Si6 0.807366 0.961450 0.763369
Si Si7 0.379082 0.631323 0.310124
Si Si8 0.430077 0.163322 0.642392
O O1 0.939333 0.047296 0.828986
O O2 0.806716 0.281111 0.789915
O O3 0.273060 0.173967 0.802811
O O4 0.831470 0.184864 0.035155
O O5 0.441889 0.232691 0.282395
O O6 0.227848 0.169125 0.538696
O O7 0.031798 0.371105 0.427773
O O8 0.035342 0.156881 0.313870
O O9 0.643129 0.573001 0.209847
O O10 0.500000 0.500000 0.000000
O O11 0.641978 0.693504 0.963892
O O12 0.000000 0.500000 0.000000
O O13 0.758646 0.467714 0.612745
O O14 0.418304 0.085282 0.124829
O O15 0.654929 0.047372 0.647977
O O16 0.459074 0.719366 0.400702
#
# Coordination Sequence:
#
# PCOD9111862 Si02
#       8
#     2   2   2   1   2   2   2   2
#     4  10  20  43  72  96 147 184 242 312 387 449
#     4  10  23  41  68 101 147 187 251 304 376 442
#     4  11  25  47  78 108 156 202 256 318 382 455
#     4  12  22  48  64  94 142 188 244 314 356 458
#     4   9  22  43  67 110 143 186 250 309 379 448
#     4   9  22  43  67 105 144 186 251 308 374 462
#     4  10  25  42  72  99 144 194 254 309 387 449
#     4  11  22  43  71 104 140 200 240 311 387 451
#
# _framework density 26.189387
#
# number of rings (size 3 to 8) (size 9 to 14) (size 15 to 20)
#    0.800    1.067    1.333    1.600    3.733    2.667 
#    4.800    2.667    0.000    0.000    0.000    0.000 
#    0.000    0.000    0.000    0.000    0.000    0.000 
#
# Total GULP energy -83652.566472 kJ/mol
# GULP energy per Si atom -5576.837765 kJ/mol
# Density = 2.612978 g / cm^3
# Si number density = 26.189387 Si / 1000 Ang^3
#
#
#
# Elastic Constant Matrix: (Units=GPa)
#
#
# Indices 1 2 3 4 5 6 
#
# 1 74.8664 51.9681 21.1742 -5.8008 -19.9514 2.1160
# 2 51.9681 148.4072 50.6193 22.6206 -12.9898 15.2537
# 3 21.1742 50.6193 120.3545 11.7080 -21.1700 -5.3904
# 4 -5.8008 22.6206 11.7080 51.5079 3.0731 -9.1873
# 5 -19.9514 -12.9898 -21.1700 3.0731 39.7894 -1.0823
# 6 2.1160 15.2537 -5.3904 -9.1873 -1.0823 38.9906
#
#
#
# Elastic Compliance Matrix: (Units=1/GPa)
#
#
# Indices 1 2 3 4 5 6 
#
# 1 0.021509 -0.008424 0.000753 0.006167 0.008065 0.003910
# 2 -0.008424 0.012493 -0.003736 -0.006650 -0.001798 -0.006564
# 3 0.000753 -0.003736 0.010813 -0.000509 0.005030 0.002935
# 4 0.006167 -0.006650 -0.000509 0.024629 -0.001035 0.007971
# 5 0.008065 -0.001798 0.005030 -0.001035 0.031389 0.001589
# 6 0.003910 -0.006564 0.002935 0.007971 0.001589 0.030331
#
#
# Mechanical properties :
#
#
# Convention : Reuss Voigt Hill
#
# Bulk Modulus (GPa) = 45.45287 65.68348 55.56817
# Shear Modulus (GPa) = 30.99594 40.71535 35.85564
#
# Velocity S-wave (km/s) = 3.44398 3.94718 3.70414
# Velocity P-wave (km/s) = 5.76262 6.77557 6.28952
#
# Compressibility (1/GPa) = 0.02200081
#
# Stress axis : x y z
#
# Youngs Moduli (GPa) = 46.49293 80.04350 92.47865
#
# Poissons Ratio (x) = 0.67432 -0.06964
# Poissons Ratio (y) = 0.39168 0.34547
# Poissons Ratio (z) = -0.03501 0.29902
#
# Static dielectric constant tensor:
#      x y z
#    x 2.072670 -0.028430 0.021860 
#    y -0.028430 2.030330 0.002500 
#    z 0.021860 0.002500 2.058970 
# 
# From -- ./inp_files/362073.got.cif
#   From: 2010.05.17/outbox.cif.g08.bks.cpg/sg2_182_cif.got.tgz:362073.got - 2010.06.03 11:33:40.
