data_PCOD9111320
_publ_section_title
;
Structure prediction by ZEFSAII (Michael W. Deem and Ramdas Pophale) SiO2 
 PCOD9111320
Probable space group: P -1
;
_chemical_formula_sum "Si O2"
_cell_formula_units_Z 16
_cell_length_a 21.376110
_cell_length_b 7.719155
_cell_length_c 12.242424
_cell_angle_alpha 106.385931
_cell_angle_beta 145.254288
_cell_angle_gamma 47.200652
_cell_volume 634.324237
_symmetry_space_group_name_H-M "P -1"
_symmetry_group_IT_number 2
_symmetry_cell_setting 'triclinic'
loop_
_space_group_symop_operation_xyz
x,y,z
-x,-y,-z
loop_
_atom_site_type_symbol
_atom_site_label
_atom_site_fract_x
_atom_site_fract_y
_atom_site_fract_z
Si Si1 0.186972 0.513458 0.968624
Si Si2 0.088515 0.075608 0.160975
Si Si3 0.429733 0.801262 0.521466
Si Si4 0.304614 0.885148 0.890565
Si Si5 0.912386 0.316277 0.395296
Si Si6 0.572706 0.160509 0.727374
Si Si7 0.666263 0.538244 0.259563
Si Si8 0.214355 0.450571 0.353642
O O1 0.995452 0.769303 0.812756
O O2 0.343951 0.463829 0.199714
O O3 0.296888 0.185173 0.107640
O O4 0.136342 0.599617 0.785126
O O5 0.975975 0.331512 0.948092
O O6 0.000000 0.000000 0.000000
O O7 0.313158 0.801524 0.416003
O O8 0.380667 0.855346 0.332235
O O9 0.326671 0.115940 0.480581
O O10 0.312003 0.699405 0.790157
O O11 0.447164 0.841683 0.038216
O O12 0.082719 0.225684 0.647378
O O13 0.386156 0.744573 0.104398
O O14 0.730067 0.575096 0.257508
O O15 0.000000 0.000000 0.500000
O O16 0.360957 0.363159 0.471268
O O17 0.798478 0.415895 0.530276
#
# Coordination Sequence:
#
# PCOD9111320 Si02
#       8
#     2   2   2   2   2   2   2   2
#     4  11  24  45  63 101 137 168 233 280 319 403
#     4  12  27  39  65 107 136 171 220 277 335 403
#     4  11  23  45  71  98 133 184 214 272 350 389
#     4   9  20  37  61  94 122 176 215 268 325 378
#     4  10  23  40  61  86 129 179 219 267 325 393
#     4  10  20  42  72  95 136 176 224 273 334 398
#     4   9  20  38  62  91 127 170 222 263 324 396
#     4  10  20  43  70  97 135 175 222 273 331 399
#
# _framework density 25.223694999999999
#
# number of rings (size 3 to 8) (size 9 to 14) (size 15 to 20)
#    0.000    1.750    2.500    1.125    5.250    3.000 
#    9.000    5.625    0.000    0.000    0.000    0.000 
#    0.000    0.000    0.000    0.000    0.000    0.000 
#
# Total GULP energy -89422.255287 kJ/mol
# GULP energy per Si atom -5588.890955 kJ/mol
# Density = 2.516628 g / cm^3
# Si number density = 25.223695 Si / 1000 Ang^3
#
#
#
# Elastic Constant Matrix: (Units=GPa)
#
#
# Indices 1 2 3 4 5 6 
#
# 1 185.3706 25.8506 96.5244 5.9420 12.3395 -36.5228
# 2 25.8506 63.2079 7.8995 12.7871 -4.7000 -5.4180
# 3 96.5244 7.8995 136.3166 9.3980 2.3267 -22.0731
# 4 5.9420 12.7871 9.3980 20.7590 -3.0380 -6.6289
# 5 12.3395 -4.7000 2.3267 -3.0380 42.1366 1.7295
# 6 -36.5228 -5.4180 -22.0731 -6.6289 1.7295 47.6230
#
#
#
# Elastic Compliance Matrix: (Units=1/GPa)
#
#
# Indices 1 2 3 4 5 6 
#
# 1 0.010459 -0.003979 -0.006537 0.003609 -0.003097 0.005154
# 2 -0.003979 0.019671 0.002220 -0.012126 0.002427 -0.001561
# 3 -0.006537 0.002220 0.012175 -0.004786 0.001137 0.000175
# 4 0.003609 -0.012126 -0.004786 0.059397 0.001835 0.007371
# 5 -0.003097 0.002427 0.001137 0.001835 0.025071 -0.002227
# 6 0.005154 -0.001561 0.000175 0.007371 -0.002227 0.025961
#
#
# Mechanical properties :
#
#
# Convention : Reuss Voigt Hill
#
# Bulk Modulus (GPa) = 38.89344 71.71602 55.30473
# Shear Modulus (GPa) = 28.10613 39.07842 33.59228
#
# Velocity S-wave (km/s) = 3.34170 3.94035 3.65331
# Velocity P-wave (km/s) = 5.50837 7.01395 6.30625
#
# Compressibility (1/GPa) = 0.02571127
#
# Stress axis : x y z
#
# Youngs Moduli (GPa) = 95.60898 50.83739 82.13682
#
# Poissons Ratio (x) = 0.20230 0.53692
# Poissons Ratio (y) = 0.38046 -0.18231
# Poissons Ratio (z) = 0.62499 -0.11284
#
# Static dielectric constant tensor:
#      x y z
#    x 2.071340 0.044570 -0.000970 
#    y 0.044570 2.133070 -0.039580 
#    z -0.000970 -0.039580 2.015280 
# 
# From -- ./inp_files/470032.got.cif
#   From: 2010.05.17/outbox.cif.g08.bks.cpg/sg2_236_cif.got.tgz:470032.got - 2010.06.03 11:33:40.
