data_PCOD9111927
_publ_section_title
;
Structure prediction by ZEFSAII (Michael W. Deem and Ramdas Pophale) SiO2 
 PCOD9111927
Probable space group: P -1
;
_chemical_formula_sum "Si O2"
_cell_formula_units_Z 14
_cell_length_a 15.569755
_cell_length_b 5.270261
_cell_length_c 11.804850
_cell_angle_alpha 81.111639
_cell_angle_beta 140.388307
_cell_angle_gamma 114.189002
_cell_volume 541.318443
_symmetry_space_group_name_H-M "P -1"
_symmetry_group_IT_number 2
_symmetry_cell_setting 'triclinic'
loop_
_space_group_symop_operation_xyz
x,y,z
-x,-y,-z
loop_
_atom_site_type_symbol
_atom_site_label
_atom_site_fract_x
_atom_site_fract_y
_atom_site_fract_z
Si Si1 0.669245 0.786776 0.979458
Si Si2 0.096633 0.352732 0.724973
Si Si3 0.172405 0.816231 0.098193
Si Si4 0.192400 0.916828 0.663329
Si Si5 0.561360 0.284970 0.622458
Si Si6 0.101884 0.620003 0.271644
Si Si7 0.397658 0.902333 0.688297
O O1 0.733653 0.558775 0.062383
O O2 0.769962 0.957982 0.180721
O O3 0.505312 0.757911 0.837552
O O4 0.725408 0.938868 0.904109
O O5 0.141669 0.577982 0.652376
O O6 0.948280 0.068957 0.543441
O O7 0.012872 0.384795 0.749000
O O8 0.258352 0.613160 0.199827
O O9 0.156271 0.865289 0.211288
O O10 0.004384 0.668837 0.885330
O O11 0.337109 0.017942 0.722822
O O12 0.500000 0.500000 0.500000
O O13 0.500000 0.000000 0.500000
O O14 0.489494 0.168105 0.679373
O O15 0.252541 0.670317 0.486881
#
# Coordination Sequence:
#
# PCOD9111927 Si02
#       7
#     2   2   2   2   2   2   2
#     4  11  22  40  64  98 124 177 225 285 347 406
#     4  10  22  39  68  89 133 173 221 289 337 419
#     4  10  22  40  69  93 140 175 228 284 342 424
#     4  10  21  44  60  95 133 170 226 275 350 414
#     4  11  24  48  70 105 142 184 228 295 355 418
#     4  10  20  44  61  98 130 182 221 279 350 411
#     4  10  23  43  68  95 137 173 230 284 343 422
#
# _framework density 25.862779
#
# number of rings (size 3 to 8) (size 9 to 14) (size 15 to 20)
#    0.000    1.714    2.857    0.857    0.000    3.429 
#   12.857    0.000    0.000    0.000    0.000    0.000 
#    0.000    0.000    0.000    0.000    0.000    0.000 
#
# Total GULP energy -78085.982586 kJ/mol
# GULP energy per Si atom -5577.570185 kJ/mol
# Density = 2.580391 g / cm^3
# Si number density = 25.862779 Si / 1000 Ang^3
#
#
#
# Elastic Constant Matrix: (Units=GPa)
#
#
# Indices 1 2 3 4 5 6 
#
# 1 122.6030 1.4319 5.4458 -10.6652 -27.5966 21.2705
# 2 1.4319 29.9800 8.7797 -14.4238 2.6499 0.5750
# 3 5.4458 8.7797 171.2267 -11.4650 6.3510 -16.2806
# 4 -10.6652 -14.4238 -11.4650 35.4571 -6.3539 -0.2329
# 5 -27.5966 2.6499 6.3510 -6.3539 44.1467 -5.9603
# 6 21.2705 0.5750 -16.2806 -0.2329 -5.9603 19.4906
#
#
#
# Elastic Compliance Matrix: (Units=1/GPa)
#
#
# Indices 1 2 3 4 5 6 
#
# 1 0.012432 0.002013 -0.001626 0.005185 0.006901 -0.012813
# 2 0.002013 0.042051 -0.001490 0.017360 0.000879 -0.004206
# 3 -0.001626 -0.001490 0.006751 0.000996 -0.000778 0.007231
# 4 0.005185 0.017360 0.000996 0.038424 0.007226 -0.002670
# 5 0.006901 0.000879 -0.000778 0.007226 0.028130 0.000481
# 6 -0.012813 -0.004206 0.007231 -0.002670 0.000481 0.071570
#
#
# Mechanical properties :
#
#
# Convention : Reuss Voigt Hill
#
# Bulk Modulus (GPa) = 16.94107 39.45830 28.19969
# Shear Modulus (GPa) = 22.59985 40.36236 31.48110
#
# Velocity S-wave (km/s) = 2.95928 3.95477 3.49268
# Velocity P-wave (km/s) = 4.27095 6.01195 5.21462
#
# Compressibility (1/GPa) = 0.05902814
#
# Stress axis : x y z
#
# Youngs Moduli (GPa) = 80.43478 23.78081 148.11598
#
# Poissons Ratio (x) = -0.04786 0.24079
# Poissons Ratio (y) = -0.16189 0.22074
# Poissons Ratio (z) = 0.13076 0.03544
#
# Static dielectric constant tensor:
#      x y z
#    x 2.095470 -0.160470 0.089300 
#    y -0.160470 2.307130 -0.037020 
#    z 0.089300 -0.037020 2.201620 
# 
# From -- ./inp_files/97840.got.cif
#   From: 2010.05.17/outbox.cif.g08.bks.cpg/sg2_49_cif.got.tgz:97840.got - 2010.06.03 11:33:40.
