data_PCOD9111027
_publ_section_title
;
Structure prediction by ZEFSAII (Michael W. Deem and Ramdas Pophale) SiO2 
 PCOD9111027
Probable space group: P -1
;
_chemical_formula_sum "Si O2"
_cell_formula_units_Z 16
_cell_length_a 8.037674
_cell_length_b 14.234094
_cell_length_c 13.150173
_cell_angle_alpha 137.369306
_cell_angle_beta 40.975858
_cell_angle_gamma 121.406769
_cell_volume 666.165879
_symmetry_space_group_name_H-M "P -1"
_symmetry_group_IT_number 2
_symmetry_cell_setting 'triclinic'
loop_
_space_group_symop_operation_xyz
x,y,z
-x,-y,-z
loop_
_atom_site_type_symbol
_atom_site_label
_atom_site_fract_x
_atom_site_fract_y
_atom_site_fract_z
Si Si1 0.592726 0.349732 0.447588
Si Si2 0.808180 0.264976 0.491174
Si Si3 0.955170 0.533820 0.164223
Si Si4 0.681251 0.794414 0.916003
Si Si5 0.512940 0.924267 0.824187
Si Si6 0.121954 0.439392 0.213800
Si Si7 0.146121 0.803950 0.217403
Si Si8 0.111080 0.950299 0.547499
O O1 0.637866 0.274106 0.475806
O O2 0.336121 0.447646 0.652676
O O3 0.576648 0.228078 0.274772
O O4 0.833357 0.436581 0.385535
O O5 0.100344 0.245802 0.299038
O O6 0.775100 0.415975 0.681029
O O7 0.769364 0.137032 0.483133
O O8 0.112754 0.439100 0.096460
O O9 0.053420 0.686056 0.238094
O O10 0.000000 0.500000 0.000000
O O11 0.743925 0.698279 0.908139
O O12 0.389870 0.761513 0.001813
O O13 0.661543 0.961485 0.069028
O O14 0.813429 0.914785 0.654419
O O15 0.500000 0.000000 0.000000
O O16 0.232219 0.905648 0.348234
O O17 0.930876 0.882004 0.307914
#
# Coordination Sequence:
#
# PCOD9111027 Si02
#       8
#     2   2   2   2   2   2   2   2
#     4  11  25  44  68 101 134 169 226 278 325 393
#     4  11  22  43  69  98 133 174 221 275 331 392
#     4  12  27  44  65  98 134 178 224 269 331 401
#     4  10  23  38  68 102 123 172 224 264 333 394
#     4  11  21  41  70  96 133 168 221 273 325 389
#     4  11  25  45  67  94 140 175 221 275 331 390
#     4  10  22  40  67  91 134 170 224 263 327 400
#     4  10  20  42  68  93 124 180 215 270 331 383
#
# _framework density 24.018042999999999
#
# number of rings (size 3 to 8) (size 9 to 14) (size 15 to 20)
#    0.000    1.250    3.750    1.875    3.500    5.500 
#    2.250    0.625    0.000    0.000    0.000    0.000 
#    0.000    0.000    0.000    0.000    0.000    0.000 
#
# Total GULP energy -89319.486833 kJ/mol
# GULP energy per Si atom -5582.467927 kJ/mol
# Density = 2.396338 g / cm^3
# Si number density = 24.018043 Si / 1000 Ang^3
#
#
#
# Elastic Constant Matrix: (Units=GPa)
#
#
# Indices 1 2 3 4 5 6 
#
# 1 86.8430 25.5957 29.9067 11.3360 9.7666 -45.0194
# 2 25.5957 67.3979 -2.8872 8.3940 -3.2106 -40.0934
# 3 29.9067 -2.8872 90.5291 7.7041 6.6635 -8.0641
# 4 11.3360 8.3940 7.7041 25.9511 -6.1846 -10.8282
# 5 9.7666 -3.2106 6.6635 -6.1846 32.4906 -0.1307
# 6 -45.0194 -40.0934 -8.0641 -10.8282 -0.1307 57.8570
#
#
#
# Elastic Compliance Matrix: (Units=1/GPa)
#
#
# Indices 1 2 3 4 5 6 
#
# 1 0.023246 0.001702 -0.005300 -0.003143 -0.006259 0.017926
# 2 0.001702 0.026065 0.002002 -0.001311 0.001482 0.019424
# 3 -0.005300 0.002002 0.013111 -0.003218 -0.001517 -0.001515
# 4 -0.003143 -0.001311 -0.003218 0.045708 0.010195 0.004775
# 5 -0.006259 0.001482 -0.001517 0.010195 0.035049 -0.002067
# 6 0.017926 0.019424 -0.001515 0.004775 -0.002067 0.045371
#
#
# Mechanical properties :
#
#
# Convention : Reuss Voigt Hill
#
# Bulk Modulus (GPa) = 16.88328 38.88894 27.88611
# Shear Modulus (GPa) = 23.64209 36.07007 29.85608
#
# Velocity S-wave (km/s) = 3.14083 3.87950 3.52954
# Velocity P-wave (km/s) = 4.49420 6.02445 5.31469
#
# Compressibility (1/GPa) = 0.05923020
#
# Stress axis : x y z
#
# Youngs Moduli (GPa) = 43.01870 38.36501 76.26918
#
# Poissons Ratio (x) = -0.06530 0.40423
# Poissons Ratio (y) = -0.07323 -0.15267
# Poissons Ratio (z) = 0.22800 -0.07679
#
# Static dielectric constant tensor:
#      x y z
#    x 0.000000 0.000000 0.000000 
#    y 0.000000 0.000000 0.000000 
#    z 0.000000 0.000000 0.000000 
# 
# From -- ./inp_files/504324.got.cif
#   From: 2010.05.17/outbox.cif.g08.bks.cpg/sg2_253_cif.got.tgz:504324.got - 2010.06.03 11:33:40.
