data_PCOD9111566
_publ_section_title
;
Structure prediction by ZEFSAII (Michael W. Deem and Ramdas Pophale) SiO2 
 PCOD9111566
Probable space group: P -1
;
_chemical_formula_sum "Si O2"
_cell_formula_units_Z 16
_cell_length_a 22.668651
_cell_length_b 11.577228
_cell_length_c 8.318290
_cell_angle_alpha 120.187698
_cell_angle_beta 34.999622
_cell_angle_gamma 141.824258
_cell_volume 709.955200
_symmetry_space_group_name_H-M "P -1"
_symmetry_group_IT_number 2
_symmetry_cell_setting 'triclinic'
loop_
_space_group_symop_operation_xyz
x,y,z
-x,-y,-z
loop_
_atom_site_type_symbol
_atom_site_label
_atom_site_fract_x
_atom_site_fract_y
_atom_site_fract_z
Si Si1 0.385623 0.039933 0.153560
Si Si2 0.811455 0.821711 0.824214
Si Si3 0.835729 0.633706 0.208657
Si Si4 0.175223 0.961468 0.814163
Si Si5 0.824431 0.362507 0.857842
Si Si6 0.953494 0.353267 0.860653
Si Si7 0.333133 0.269533 0.248957
Si Si8 0.266513 0.550687 0.331823
O O1 0.353263 0.148227 0.206608
O O2 0.299658 0.985762 0.474948
O O3 0.304737 0.838690 0.100731
O O4 0.571560 0.213318 0.878412
O O5 0.747988 0.831489 0.812782
O O6 0.731682 0.598361 0.839074
O O7 0.000000 0.000000 0.500000
O O8 0.769910 0.843455 0.104611
O O9 0.764364 0.712750 0.423005
O O10 0.775513 0.510918 0.427486
O O11 0.799564 0.494223 0.048879
O O12 0.024196 0.824884 0.940963
O O13 0.116064 0.840343 0.028137
O O14 0.834458 0.299111 0.964638
O O15 0.000000 0.500000 0.500000
O O16 0.124124 0.479276 0.503389
O O17 0.000000 0.500000 0.000000
O O18 0.500000 0.500000 0.000000
#
# Coordination Sequence:
#
# PCOD9111566 Si02
#       8
#     2   2   2   2   2   2   2   2
#     4  12  25  42  68  98 143 165 220 284 331 380
#     4  11  19  40  68  87 126 171 225 253 325 396
#     4  10  20  43  66  93 136 166 228 264 325 396
#     4  11  22  40  66  97 127 172 221 268 320 398
#     4  12  24  44  71 102 128 174 228 277 323 397
#     4  11  20  42  70  89 126 179 219 256 329 400
#     4  11  22  43  66 101 134 174 215 281 335 386
#     4  10  22  41  65  96 129 171 214 275 321 395
#
# _framework density 22.536632999999998
#
# number of rings (size 3 to 8) (size 9 to 14) (size 15 to 20)
#    0.000    1.000   10.000    0.750    0.000    1.500 
#    2.250    2.500    0.000    0.000    0.000    0.000 
#    0.000    0.000    0.000    0.000    0.000    0.000 
#
# Total GULP energy -89418.387045 kJ/mol
# GULP energy per Si atom -5588.649190 kJ/mol
# Density = 2.248534 g / cm^3
# Si number density = 22.536633 Si / 1000 Ang^3
#
#
#
# Elastic Constant Matrix: (Units=GPa)
#
#
# Indices 1 2 3 4 5 6 
#
# 1 54.1793 9.9040 0.0162 -1.6806 -10.5191 4.4027
# 2 9.9040 157.9117 42.2079 21.7535 13.3848 23.7281
# 3 0.0162 42.2079 65.9963 6.9246 6.2777 15.2862
# 4 -1.6806 21.7535 6.9246 50.9754 1.3392 -3.1076
# 5 -10.5191 13.3848 6.2777 1.3392 16.2542 3.2554
# 6 4.4027 23.7281 15.2862 -3.1076 3.2554 30.4720
#
#
#
# Elastic Compliance Matrix: (Units=1/GPa)
#
#
# Indices 1 2 3 4 5 6 
#
# 1 0.022583 -0.002746 0.000741 0.001170 0.017136 -0.003208
# 2 -0.002746 0.009293 -0.003868 -0.003632 -0.006725 -0.004551
# 3 0.000741 -0.003868 0.019569 -0.001334 -0.002424 -0.006789
# 4 0.001170 -0.003632 -0.001334 0.021679 0.001397 0.005389
# 5 0.017136 -0.006725 -0.002424 0.001397 0.079855 -0.004412
# 6 -0.003208 -0.004551 -0.006789 0.005389 -0.004412 0.041251
#
#
# Mechanical properties :
#
#
# Convention : Reuss Voigt Hill
#
# Bulk Modulus (GPa) = 25.18974 42.48261 33.83618
# Shear Modulus (GPa) = 22.80945 34.60428 28.70686
#
# Velocity S-wave (km/s) = 3.18481 3.92276 3.57289
# Velocity P-wave (km/s) = 4.97248 6.27764 5.66279
#
# Compressibility (1/GPa) = 0.03969870
#
# Stress axis : x y z
#
# Youngs Moduli (GPa) = 44.28120 107.61002 51.10196
#
# Poissons Ratio (x) = 0.29551 -0.03786
# Poissons Ratio (y) = 0.12160 0.19764
# Poissons Ratio (z) = -0.03281 0.41620
#
# Static dielectric constant tensor:
#      x y z
#    x 1.895090 -0.055760 0.011990 
#    y -0.055760 1.833300 0.029990 
#    z 0.011990 0.029990 1.889210 
# 
# From -- ./inp_files/357338.got.cif
#   From: 2010.05.17/outbox.cif.g08.bks.cpg/sg2_179_cif.got.tgz:357338.got - 2010.06.03 11:33:40.
