data_PCOD9111792
_publ_section_title
;
Structure prediction by ZEFSAII (Michael W. Deem and Ramdas Pophale) SiO2 
 PCOD9111792
Probable space group: P -1
;
_chemical_formula_sum "Si O2"
_cell_formula_units_Z 16
_cell_length_a 12.571703
_cell_length_b 9.972234
_cell_length_c 8.836736
_cell_angle_alpha 63.706289
_cell_angle_beta 138.816250
_cell_angle_gamma 104.435199
_cell_volume 647.342004
_symmetry_space_group_name_H-M "P -1"
_symmetry_group_IT_number 2
_symmetry_cell_setting 'triclinic'
loop_
_space_group_symop_operation_xyz
x,y,z
-x,-y,-z
loop_
_atom_site_type_symbol
_atom_site_label
_atom_site_fract_x
_atom_site_fract_y
_atom_site_fract_z
Si Si1 0.181270 0.504134 0.113369
Si Si2 0.168800 0.432883 0.788944
Si Si3 0.221194 0.091856 0.918657
Si Si4 0.597959 0.640156 0.349782
Si Si5 0.312393 0.634901 0.608458
Si Si6 0.428324 0.872194 0.833865
Si Si7 0.872178 0.207540 0.930727
Si Si8 0.843881 0.857872 0.493574
O O1 0.337359 0.388615 0.396730
O O2 0.224449 0.668202 0.122862
O O3 0.164800 0.483135 0.931177
O O4 0.000000 0.500000 0.000000
O O5 0.198469 0.252778 0.895213
O O6 0.289128 0.517808 0.775359
O O7 0.000000 0.500000 0.500000
O O8 0.102298 0.097584 0.640013
O O9 0.404619 0.067337 0.062567
O O10 0.191951 0.952483 0.060737
O O11 0.586607 0.477486 0.346772
O O12 0.762586 0.708104 0.436756
O O13 0.461122 0.762404 0.070092
O O14 0.383836 0.771057 0.696612
O O15 0.154490 0.711833 0.302164
O O16 0.291852 0.009196 0.659879
O O17 0.040520 0.176739 0.220322
#
# Coordination Sequence:
#
# PCOD9111792 Si02
#       8
#     2   2   2   2   2   2   2   2
#     4  11  23  45  73 106 142 181 239 301 357 419
#     4  12  25  42  74 108 141 184 240 298 359 419
#     4  11  25  46  68 108 147 191 239 294 358 425
#     4  10  20  43  70  96 137 188 231 288 350 421
#     4  11  25  45  72 104 144 186 243 293 359 418
#     4  11  25  44  73  98 151 197 237 284 361 435
#     4  11  25  44  73 108 146 182 240 307 353 420
#     4  11  22  43  73 101 146 191 238 289 363 422
#
# _framework density 24.716456000000001
#
# number of rings (size 3 to 8) (size 9 to 14) (size 15 to 20)
#    0.000    1.000    3.750    4.500    3.500    2.000 
#    0.000    1.875    0.000    0.000    0.000    0.000 
#    0.000    0.000    0.000    0.000    0.000    0.000 
#
# Total GULP energy -89365.303117 kJ/mol
# GULP energy per Si atom -5585.331445 kJ/mol
# Density = 2.466020 g / cm^3
# Si number density = 24.716456 Si / 1000 Ang^3
#
#
#
# Elastic Constant Matrix: (Units=GPa)
#
#
# Indices 1 2 3 4 5 6 
#
# 1 63.3784 26.9075 32.0083 -0.7121 -23.3923 -3.6870
# 2 26.9075 147.3074 44.4286 -0.7729 -16.0070 -2.3141
# 3 32.0083 44.4286 193.4680 -0.8885 -22.8918 -16.8410
# 4 -0.7121 -0.7729 -0.8885 51.6042 -9.9237 -1.9938
# 5 -23.3923 -16.0070 -22.8918 -9.9237 34.8259 4.9975
# 6 -3.6870 -2.3141 -16.8410 -1.9938 4.9975 26.0216
#
#
#
# Elastic Compliance Matrix: (Units=1/GPa)
#
#
# Indices 1 2 3 4 5 6 
#
# 1 0.022719 -0.002115 -0.001632 0.002951 0.014130 -0.000513
# 2 -0.002115 0.007719 -0.001311 0.000317 0.001459 -0.000718
# 3 -0.001632 -0.001311 0.006286 0.000604 0.002123 0.003359
# 4 0.002951 0.000317 0.000604 0.021084 0.008413 0.000837
# 5 0.014130 0.001459 0.002123 0.008413 0.043265 -0.004159
# 6 -0.000513 -0.000718 0.003359 0.000837 -0.004159 0.041330
#
#
# Mechanical properties :
#
#
# Convention : Reuss Voigt Hill
#
# Bulk Modulus (GPa) = 37.58281 67.87140 52.72711
# Shear Modulus (GPa) = 30.98094 42.54431 36.76263
#
# Velocity S-wave (km/s) = 3.54426 4.15335 3.86083
# Velocity P-wave (km/s) = 5.65576 7.10775 6.42291
#
# Compressibility (1/GPa) = 0.02660791
#
# Stress axis : x y z
#
# Youngs Moduli (GPa) = 44.01630 129.54745 159.07394
#
# Poissons Ratio (x) = 0.27396 0.25966
# Poissons Ratio (y) = 0.09308 0.20858
# Poissons Ratio (z) = 0.07185 0.16986
#
# Static dielectric constant tensor:
#      x y z
#    x 2.095800 0.104590 0.018110 
#    y 0.104590 1.958940 -0.005810 
#    z 0.018110 -0.005810 2.006980 
# 
# From -- ./inp_files/298019.got.cif
#   From: 2010.05.17/outbox.cif.g08.bks.cpg/sg2_150_cif.got.tgz:298019.got - 2010.06.03 11:33:40.
