data_PCOD9111236
_publ_section_title
;
Structure prediction by ZEFSAII (Michael W. Deem and Ramdas Pophale) SiO2 
 PCOD9111236
Probable space group: P -1
;
_chemical_formula_sum "Si O2"
_cell_formula_units_Z 14
_cell_length_a 13.104029
_cell_length_b 22.043341
_cell_length_c 11.766361
_cell_angle_alpha 157.047487
_cell_angle_beta 150.850133
_cell_angle_gamma 23.210973
_cell_volume 514.216303
_symmetry_space_group_name_H-M "P -1"
_symmetry_group_IT_number 2
_symmetry_cell_setting 'triclinic'
loop_
_space_group_symop_operation_xyz
x,y,z
-x,-y,-z
loop_
_atom_site_type_symbol
_atom_site_label
_atom_site_fract_x
_atom_site_fract_y
_atom_site_fract_z
Si Si1 0.500000 0.500000 0.000000
Si Si2 0.712862 0.560731 0.553121
Si Si3 0.066232 0.228253 0.969452
Si Si4 0.829407 0.099549 0.335812
Si Si5 0.948624 0.730578 0.428501
Si Si6 0.500000 0.500000 0.500000
Si Si7 0.422272 0.836299 0.132708
Si Si8 0.319196 0.771124 0.146469
O O1 0.410648 0.728696 0.290784
O O2 0.797160 0.405116 0.070838
O O3 0.456124 0.701357 0.627126
O O4 0.655548 0.433410 0.196089
O O5 0.944576 0.413604 0.608721
O O6 0.775890 0.690331 0.773968
O O7 0.975300 0.164920 0.664300
O O8 0.202592 0.044542 0.871216
O O9 0.022181 0.964305 0.188596
O O10 0.662684 0.794645 0.222351
O O11 0.176624 0.608172 0.345705
O O12 0.832022 0.942068 0.733472
O O13 0.387867 0.677045 0.785118
O O14 0.481296 0.788369 0.241573
#
# Coordination Sequence:
#
# PCOD9111236 Si02
#       8
#     1   2   2   2   2   1   2   2
#     4  10  20  42  70  96 134 186 218 282 342 412
#     4  12  24  44  70 105 137 188 232 293 351 422
#     4  10  22  45  67  98 143 182 237 288 349 417
#     4  10  24  44  66 102 139 187 232 293 346 420
#     4  11  27  45  74 102 145 182 242 290 363 420
#     4  12  24  48  78  98 142 182 238 300 352 424
#     4  11  26  51  68 108 141 190 234 298 355 428
#     4  11  24  44  71  99 146 181 233 288 351 416
#
# _framework density 27.225897
#
# number of rings (size 3 to 8) (size 9 to 14) (size 15 to 20)
#    0.000    1.143    2.857    2.143    2.000    2.286 
#   15.429    0.000    0.000    0.000    0.000    0.000 
#    0.000    0.000    0.000    0.000    0.000    0.000 
#
# Total GULP energy -77935.298172 kJ/mol
# GULP energy per Si atom -5566.807012 kJ/mol
# Density = 2.716393 g / cm^3
# Si number density = 27.225897 Si / 1000 Ang^3
#
#
#
# Elastic Constant Matrix: (Units=GPa)
#
#
# Indices 1 2 3 4 5 6 
#
# 1 85.9814 40.1963 22.9658 5.1615 1.2493 -28.0545
# 2 40.1963 163.8815 48.1392 58.2442 -9.8068 -40.5746
# 3 22.9658 48.1392 112.8272 27.5387 15.9110 -11.6725
# 4 5.1615 58.2442 27.5387 47.2957 -6.7272 -10.7636
# 5 1.2493 -9.8068 15.9110 -6.7272 25.0331 5.6195
# 6 -28.0545 -40.5746 -11.6725 -10.7636 5.6195 59.2394
#
#
#
# Elastic Compliance Matrix: (Units=1/GPa)
#
#
# Indices 1 2 3 4 5 6 
#
# 1 0.015393 -0.003746 -0.002206 0.005343 -0.000591 0.005317
# 2 -0.003746 0.013831 -0.001300 -0.014600 0.001464 0.004651
# 3 -0.002206 -0.001300 0.013221 -0.007315 -0.010851 0.000370
# 4 0.005343 -0.014600 -0.007315 0.043902 0.010903 -0.001968
# 5 -0.000591 0.001464 -0.010851 0.010903 0.051344 -0.004305
# 6 0.005317 0.004651 0.000370 -0.001968 -0.004305 0.022708
#
#
# Mechanical properties :
#
#
# Convention : Reuss Voigt Hill
#
# Bulk Modulus (GPa) = 35.78985 65.03251 50.41118
# Shear Modulus (GPa) = 27.14201 43.07290 35.10745
#
# Velocity S-wave (km/s) = 3.16083 3.98182 3.59484
# Velocity P-wave (km/s) = 5.14734 6.71402 5.98219
#
# Compressibility (1/GPa) = 0.02794088
#
# Stress axis : x y z
#
# Youngs Moduli (GPa) = 64.96317 72.30329 75.63711
#
# Poissons Ratio (x) = 0.27083 0.16685
# Poissons Ratio (y) = 0.24333 0.09836
# Poissons Ratio (z) = 0.14330 0.09403
#
# Static dielectric constant tensor:
#      x y z
#    x 2.998140 0.916620 -0.682420 
#    y 0.916620 2.910410 -0.507060 
#    z -0.682420 -0.507060 2.339170 
# 
# From -- ./inp_files/535699.got.cif
#   From: 2010.05.17/outbox.cif.g08.bks.cpg/sg2_268_cif.got.tgz:535699.got - 2010.06.03 11:33:40.
