data_PCOD9111342
_publ_section_title
;
Structure prediction by ZEFSAII (Michael W. Deem and Ramdas Pophale) SiO2 
 PCOD9111342
Probable space group: P -1
;
_chemical_formula_sum "Si O2"
_cell_formula_units_Z 14
_cell_length_a 14.595844
_cell_length_b 6.839315
_cell_length_c 10.273543
_cell_angle_alpha 142.399949
_cell_angle_beta 73.841092
_cell_angle_gamma 104.833183
_cell_volume 599.917410
_symmetry_space_group_name_H-M "P -1"
_symmetry_group_IT_number 2
_symmetry_cell_setting 'triclinic'
loop_
_space_group_symop_operation_xyz
x,y,z
-x,-y,-z
loop_
_atom_site_type_symbol
_atom_site_label
_atom_site_fract_x
_atom_site_fract_y
_atom_site_fract_z
Si Si1 0.288572 0.456002 0.402165
Si Si2 0.022590 0.665939 0.229946
Si Si3 0.502971 0.765551 0.494061
Si Si4 0.849220 0.283968 0.190097
Si Si5 0.268645 0.322249 0.064282
Si Si6 0.770240 0.284545 0.937515
Si Si7 0.557638 0.106638 0.158528
O O1 0.396220 0.592566 0.455702
O O2 0.210830 0.582248 0.597164
O O3 0.277658 0.071622 0.219035
O O4 0.266650 0.550199 0.310890
O O5 0.135601 0.720918 0.194009
O O6 0.958859 0.410179 0.205886
O O7 0.000000 0.000000 0.500000
O O8 0.000000 0.500000 0.000000
O O9 0.576224 0.486383 0.322303
O O10 0.512780 0.952158 0.722806
O O11 0.500000 0.000000 0.500000
O O12 0.828844 0.902496 0.011212
O O13 0.802936 0.384177 0.122693
O O14 0.352305 0.088887 0.944681
O O15 0.289261 0.475044 0.996571
O O16 0.500000 0.000000 0.000000
#
# Coordination Sequence:
#
# PCOD9111342 Si02
#       7
#     2   2   2   2   2   2   2
#     4  11  22  45  64 100 132 176 228 290 344 421
#     4  10  20  42  73 108 143 193 240 294 360 424
#     4  11  26  45  67  96 129 176 233 290 356 416
#     4  10  22  43  70  96 144 175 232 286 344 420
#     4  11  24  43  66 103 133 182 230 285 354 421
#     4  10  24  42  72  99 139 185 227 281 359 420
#     4  11  24  48  64  94 133 172 228 291 341 420
#
# _framework density 23.336545999999998
#
# number of rings (size 3 to 8) (size 9 to 14) (size 15 to 20)
#    0.000    1.429    4.286    0.000    0.000    6.857 
#    0.000    0.714    0.000    0.000    0.000    0.000 
#    0.000    0.000    0.000    0.000    0.000    0.000 
#
# Total GULP energy -77969.203417 kJ/mol
# GULP energy per Si atom -5569.228815 kJ/mol
# Density = 2.328343 g / cm^3
# Si number density = 23.336546 Si / 1000 Ang^3
#
#
#
# Elastic Constant Matrix: (Units=GPa)
#
#
# Indices 1 2 3 4 5 6 
#
# 1 60.0236 26.1933 10.2758 4.0765 -6.0952 9.2461
# 2 26.1933 129.9255 27.3282 -27.0331 6.3802 -22.1131
# 3 10.2758 27.3282 107.7951 -25.8826 -0.9135 -15.3093
# 4 4.0765 -27.0331 -25.8826 28.5121 5.8996 8.3042
# 5 -6.0952 6.3802 -0.9135 5.8996 35.1583 -2.7803
# 6 9.2461 -22.1131 -15.3093 8.3042 -2.7803 38.9351
#
#
#
# Elastic Compliance Matrix: (Units=1/GPa)
#
#
# Indices 1 2 3 4 5 6 
#
# 1 0.024784 -0.009147 -0.005059 -0.015743 0.007743 -0.009159
# 2 -0.009147 0.013837 0.002033 0.015463 -0.006077 0.007098
# 3 -0.005059 0.002033 0.013189 0.013954 -0.002900 0.004359
# 4 -0.015743 0.015463 0.013954 0.067291 -0.016267 0.002494
# 5 0.007743 -0.006077 -0.002900 -0.016267 0.033497 -0.000569
# 6 -0.009159 0.007098 0.004359 0.002494 -0.000569 0.033032
#
#
# Mechanical properties :
#
#
# Convention : Reuss Voigt Hill
#
# Bulk Modulus (GPa) = 36.41033 47.25987 41.83510
# Shear Modulus (GPa) = 22.81750 36.11756 29.46753
#
# Velocity S-wave (km/s) = 3.13030 3.93833 3.55733
# Velocity P-wave (km/s) = 5.35735 6.40125 5.90242
#
# Compressibility (1/GPa) = 0.02746473
#
# Stress axis : x y z
#
# Youngs Moduli (GPa) = 40.34836 72.26996 75.82330
#
# Poissons Ratio (x) = 0.66106 0.38358
# Poissons Ratio (y) = 0.36907 -0.15418
# Poissons Ratio (z) = 0.20412 -0.14696
#
# Static dielectric constant tensor:
#      x y z
#    x 1.931340 -0.025820 0.020980 
#    y -0.025820 1.881310 0.008360 
#    z 0.020980 0.008360 2.084080 
# 
# From -- ./inp_files/323090.got.cif
#   From: 2010.05.17/outbox.cif.g08.bks.cpg/sg2_162_cif.got.tgz:323090.got - 2010.06.03 11:33:40.
