data_PCOD9111913
_publ_section_title
;
Structure prediction by ZEFSAII (Michael W. Deem and Ramdas Pophale) SiO2 
 PCOD9111913
Probable space group: P -1
;
_chemical_formula_sum "Si O2"
_cell_formula_units_Z 16
_cell_length_a 11.490843
_cell_length_b 8.398600
_cell_length_c 10.514386
_cell_angle_alpha 138.180024
_cell_angle_beta 80.252934
_cell_angle_gamma 81.599407
_cell_volume 606.914488
_symmetry_space_group_name_H-M "P -1"
_symmetry_group_IT_number 2
_symmetry_cell_setting 'triclinic'
loop_
_space_group_symop_operation_xyz
x,y,z
-x,-y,-z
loop_
_atom_site_type_symbol
_atom_site_label
_atom_site_fract_x
_atom_site_fract_y
_atom_site_fract_z
Si Si1 0.584783 0.879001 0.289195
Si Si2 0.039026 0.489349 0.167516
Si Si3 0.516298 0.781414 0.971195
Si Si4 0.195821 0.945418 0.726799
Si Si5 0.861509 0.549395 0.611397
Si Si6 0.382829 0.582753 0.677553
Si Si7 0.754884 0.794548 0.523753
Si Si8 0.740478 0.363475 0.826832
O O1 0.500000 0.000000 0.500000
O O2 0.687694 0.008283 0.334881
O O3 0.503471 0.910977 0.190632
O O4 0.671663 0.567020 0.074908
O O5 0.128700 0.356547 0.194840
O O6 0.000000 0.500000 0.500000
O O7 0.893098 0.636466 0.330094
O O8 0.076229 0.232867 0.920762
O O9 0.430582 0.656007 0.843159
O O10 0.654820 0.534737 0.825049
O O11 0.500000 0.000000 0.000000
O O12 0.233364 0.247211 0.349793
O O13 0.153200 0.724982 0.550129
O O14 0.262657 0.817638 0.772605
O O15 0.889090 0.327389 0.778776
O O16 0.500000 0.500000 0.500000
O O17 0.330312 0.364409 0.587531
O O18 0.726160 0.094091 0.677947
#
# Coordination Sequence:
#
# PCOD9111913 Si02
#       8
#     2   2   2   2   2   2   2   2
#     4   9  20  41  76 112 163 214 268 334 400 479
#     4  10  20  43  78 110 151 206 272 335 399 490
#     4  10  20  43  80 116 155 220 278 327 400 494
#     4  10  21  42  75 112 148 207 273 329 406 475
#     4   9  21  38  69 107 147 202 266 328 390 479
#     4  11  24  42  72 112 163 218 267 337 402 490
#     4  10  22  41  70 117 159 207 263 337 421 476
#     4   9  21  39  78 116 157 208 263 342 413 476
#
# _framework density 26.362857999999999
#
# number of rings (size 3 to 8) (size 9 to 14) (size 15 to 20)
#    0.750    1.500    1.250    0.375    3.500    5.000 
#    0.000    3.750    0.000   28.500    0.000    3.500 
#    0.000   13.000    0.000    0.000    0.000    0.000 
#
# Total GULP energy -89419.512496 kJ/mol
# GULP energy per Si atom -5588.719531 kJ/mol
# Density = 2.630286 g / cm^3
# Si number density = 26.362858 Si / 1000 Ang^3
#
#
#
# Elastic Constant Matrix: (Units=GPa)
#
#
# Indices 1 2 3 4 5 6 
#
# 1 161.5181 86.2614 87.6411 9.2643 25.4987 34.2050
# 2 86.2614 159.8519 83.7324 26.9174 1.5887 44.3713
# 3 87.6411 83.7324 171.7275 12.5472 9.7091 41.9053
# 4 9.2643 26.9174 12.5472 54.9736 -8.9933 11.8077
# 5 25.4987 1.5887 9.7091 -8.9933 35.0946 -4.3309
# 6 34.2050 44.3713 41.9053 11.8077 -4.3309 52.3628
#
#
#
# Elastic Compliance Matrix: (Units=1/GPa)
#
#
# Indices 1 2 3 4 5 6 
#
# 1 0.011696 -0.003958 -0.002971 -0.000092 -0.007833 -0.002536
# 2 -0.003958 0.011308 -0.002308 -0.003147 0.001665 -0.004302
# 3 -0.002971 -0.002308 0.009406 0.000161 -0.000758 -0.003730
# 4 -0.000092 -0.003147 0.000161 0.020943 0.005323 -0.001685
# 5 -0.007833 0.001665 -0.000758 0.005323 0.036441 0.006126
# 6 -0.002536 -0.004302 -0.003730 -0.001685 0.006126 0.028272
#
#
# Mechanical properties :
#
#
# Convention : Reuss Voigt Hill
#
# Bulk Modulus (GPa) = 71.75482 112.04081 91.89782
# Shear Modulus (GPa) = 35.41450 44.18372 39.79911
#
# Velocity S-wave (km/s) = 3.66915 4.09832 3.88966
# Velocity P-wave (km/s) = 6.72513 8.06143 7.42341
#
# Compressibility (1/GPa) = 0.01393635
#
# Stress axis : x y z
#
# Youngs Moduli (GPa) = 85.49835 88.42978 106.31488
#
# Poissons Ratio (x) = 0.35004 0.31583
# Poissons Ratio (y) = 0.33843 0.24538
# Poissons Ratio (z) = 0.25399 0.20410
#
# Static dielectric constant tensor:
#      x y z
#    x 2.297240 0.290060 0.084300 
#    y 0.290060 2.888150 0.282050 
#    z 0.084300 0.282050 2.224970 
# 
# From -- ./inp_files/446461.got.cif
#   From: 2010.05.17/outbox.cif.g08.bks.cpg/sg2_224_cif.got.tgz:446461.got - 2010.06.03 11:33:40.
