data_PCOD9111209
_publ_section_title
;
Structure prediction by ZEFSAII (Michael W. Deem and Ramdas Pophale) SiO2 
 PCOD9111209
Probable space group: P -1
;
_chemical_formula_sum "Si O2"
_cell_formula_units_Z 15
_cell_length_a 15.936905
_cell_length_b 8.378580
_cell_length_c 6.301991
_cell_angle_alpha 120.484976
_cell_angle_beta 107.352217
_cell_angle_gamma 57.954517
_cell_volume 614.186593
_symmetry_space_group_name_H-M "P -1"
_symmetry_group_IT_number 2
_symmetry_cell_setting 'triclinic'
loop_
_space_group_symop_operation_xyz
x,y,z
-x,-y,-z
loop_
_atom_site_type_symbol
_atom_site_label
_atom_site_fract_x
_atom_site_fract_y
_atom_site_fract_z
Si Si1 0.917658 0.486199 0.075098
Si Si2 0.792730 0.781914 0.528962
Si Si3 0.132353 0.649494 0.449656
Si Si4 0.689069 0.292598 0.285675
Si Si5 0.962711 0.862181 0.751143
Si Si6 0.627037 0.988619 0.268995
Si Si7 0.500000 0.500000 0.000000
Si Si8 0.576580 0.668059 0.775416
O O1 0.867260 0.376284 0.820341
O O2 0.834824 0.687486 0.263146
O O3 0.000000 0.500000 0.000000
O O4 0.981732 0.354604 0.229594
O O5 0.823145 0.586836 0.578901
O O6 0.848415 0.919036 0.713253
O O7 0.677173 0.917353 0.488726
O O8 0.197971 0.747264 0.668683
O O9 0.017931 0.799504 0.525972
O O10 0.680206 0.096375 0.244025
O O11 0.619664 0.383483 0.089671
O O12 0.645885 0.477340 0.553682
O O13 0.000000 0.000000 0.000000
O O14 0.513765 0.166659 0.325012
O O15 0.624873 0.798264 0.012194
O O16 0.472088 0.410832 0.132982
#
# Coordination Sequence:
#
# PCOD9111209 Si02
#       8
#     2   2   2   2   2   2   1   2
#     4  11  20  41  67  83 121 175 210 263 324 373
#     4  11  22  42  62  94 128 165 222 265 319 389
#     4  11  23  43  66  91 127 175 215 262 326 384
#     4  11  24  43  66  96 129 171 216 261 325 385
#     4  11  25  41  60  95 132 165 215 272 320 382
#     4  10  22  41  67  95 129 165 211 269 313 383
#     4  10  20  42  70  90 128 168 204 260 320 380
#     4  10  22  46  66  94 134 166 212 267 324 378
#
# _framework density 24.422549
#
# number of rings (size 3 to 8) (size 9 to 14) (size 15 to 20)
#    0.000    1.333    2.667    4.000    1.867    2.667 
#    4.800   19.333    0.000    0.000    0.000    0.000 
#    0.000    0.000    0.000    0.000    0.000    0.000 
#
# Total GULP energy -83646.169252 kJ/mol
# GULP energy per Si atom -5576.411283 kJ/mol
# Density = 2.436696 g / cm^3
# Si number density = 24.422549 Si / 1000 Ang^3
#
#
#
# Elastic Constant Matrix: (Units=GPa)
#
#
# Indices 1 2 3 4 5 6 
#
# 1 71.1219 0.2248 6.4883 2.1038 26.9874 -0.3200
# 2 0.2248 54.3656 11.9955 -8.9046 1.7787 -4.6496
# 3 6.4883 11.9955 74.9328 9.1869 16.3864 0.4559
# 4 2.1038 -8.9046 9.1869 33.4116 -4.1603 16.0174
# 5 26.9874 1.7787 16.3864 -4.1603 46.1406 -6.6957
# 6 -0.3200 -4.6496 0.4559 16.0174 -6.6957 24.3991
#
#
#
# Elastic Compliance Matrix: (Units=1/GPa)
#
#
# Indices 1 2 3 4 5 6 
#
# 1 0.018433 -0.000512 0.001341 -0.002394 -0.011673 -0.001512
# 2 -0.000512 0.020457 -0.004460 0.006994 0.001704 -0.000149
# 3 0.001341 -0.004460 0.016348 -0.007551 -0.006816 0.001949
# 4 -0.002394 0.006994 -0.007551 0.048595 0.003931 -0.029380
# 5 -0.011673 0.001704 -0.006816 0.003931 0.032160 0.006544
# 6 -0.001512 -0.000149 0.001949 -0.029380 0.006544 0.061984
#
#
# Mechanical properties :
#
#
# Convention : Reuss Voigt Hill
#
# Bulk Modulus (GPa) = 20.84300 26.42638 23.63469
# Shear Modulus (GPa) = 22.60103 32.90437 27.75270
#
# Velocity S-wave (km/s) = 3.04537 3.67453 3.37464
# Velocity P-wave (km/s) = 4.57368 5.37093 4.98826
#
# Compressibility (1/GPa) = 0.04797773
#
# Stress axis : x y z
#
# Youngs Moduli (GPa) = 54.25005 48.88262 61.17119
#
# Poissons Ratio (x) = 0.02502 -0.08205
# Poissons Ratio (y) = 0.02776 0.27280
# Poissons Ratio (z) = -0.07277 0.21800
#
# Static dielectric constant tensor:
#      x y z
#    x 2.209730 0.089130 -0.006530 
#    y 0.089130 1.876450 0.051590 
#    z -0.006530 0.051590 1.958130 
# 
# From -- ./inp_files/55106.got.cif
#   From: 2010.05.17/outbox.cif.g08.bks.cpg/sg2_28_cif.got.tgz:55106.got - 2010.06.03 11:33:40.
