data_PCOD9111066
_publ_section_title
;
Structure prediction by ZEFSAII (Michael W. Deem and Ramdas Pophale) SiO2 
 PCOD9111066
Probable space group: P -1
;
_chemical_formula_sum "Si O2"
_cell_formula_units_Z 14
_cell_length_a 9.525527
_cell_length_b 18.095601
_cell_length_c 6.985435
_cell_angle_alpha 84.417541
_cell_angle_beta 119.134334
_cell_angle_gamma 140.640084
_cell_volume 576.122651
_symmetry_space_group_name_H-M "P -1"
_symmetry_group_IT_number 2
_symmetry_cell_setting 'triclinic'
loop_
_space_group_symop_operation_xyz
x,y,z
-x,-y,-z
loop_
_atom_site_type_symbol
_atom_site_label
_atom_site_fract_x
_atom_site_fract_y
_atom_site_fract_z
Si Si1 0.822844 0.092982 0.210047
Si Si2 0.825184 0.459191 0.581889
Si Si3 0.802639 0.202740 0.748005
Si Si4 0.085441 0.096899 0.679166
Si Si5 0.306304 0.702177 0.115239
Si Si6 0.292041 0.010842 0.204906
Si Si7 0.325605 0.379718 0.270811
O O1 0.935196 0.112212 0.484800
O O2 0.067593 0.243114 0.257790
O O3 0.625490 0.156570 0.450151
O O4 0.797244 0.013657 0.066663
O O5 0.735034 0.359199 0.697263
O O6 0.543637 0.398193 0.349373
O O7 0.000000 0.500000 0.500000
O O8 0.028288 0.588205 0.821701
O O9 0.654218 0.198177 0.812307
O O10 0.749769 0.094402 0.764674
O O11 0.148270 0.347179 0.981719
O O12 0.432087 0.232705 0.849628
O O13 0.935416 0.035709 0.799110
O O14 0.000000 0.000000 0.500000
O O15 0.500000 0.000000 0.000000
O O16 0.500000 0.500000 0.500000
#
# Coordination Sequence:
#
# PCOD9111066 Si02
#       7
#     2   2   2   2   2   2   2
#     4  11  25  45  72 102 140 183 236 289 348 415
#     4  11  26  48  67  97 136 184 232 290 347 420
#     4  10  20  42  68  96 139 176 228 282 338 412
#     4  12  24  42  70 101 139 182 226 289 350 407
#     4  11  24  45  67  98 141 176 229 292 350 405
#     4  10  23  43  68 100 142 180 232 278 345 426
#     4  11  22  44  71 100 135 182 231 283 350 414
#
# _framework density 24.300381999999999
#
# number of rings (size 3 to 8) (size 9 to 14) (size 15 to 20)
#    0.000    1.143    4.286    2.571    4.000    0.571 
#    7.714    0.714    0.000    0.000    0.000    0.000 
#    0.000    0.000    0.000    0.000    0.000    0.000 
#
# Total GULP energy -78223.348182 kJ/mol
# GULP energy per Si atom -5587.382013 kJ/mol
# Density = 2.424507 g / cm^3
# Si number density = 24.300382 Si / 1000 Ang^3
#
#
#
# Elastic Constant Matrix: (Units=GPa)
#
#
# Indices 1 2 3 4 5 6 
#
# 1 158.8817 45.2169 37.5655 -1.3803 1.9292 31.0136
# 2 45.2169 63.0339 42.4778 7.9332 10.5314 22.9038
# 3 37.5655 42.4778 133.1137 8.8411 6.2454 8.2773
# 4 -1.3803 7.9332 8.8411 46.2691 6.1179 -1.6917
# 5 1.9292 10.5314 6.2454 6.1179 46.7919 9.3994
# 6 31.0136 22.9038 8.2773 -1.6917 9.3994 35.2302
#
#
#
# Elastic Compliance Matrix: (Units=1/GPa)
#
#
# Indices 1 2 3 4 5 6 
#
# 1 0.008671 -0.004065 -0.000954 0.000734 0.001626 -0.005165
# 2 -0.004065 0.029217 -0.006974 -0.003986 -0.002272 -0.013363
# 3 -0.000954 -0.006974 0.009864 -0.000571 -0.000255 0.003097
# 4 0.000734 -0.003986 -0.000571 0.022948 -0.002849 0.003942
# 5 0.001626 -0.002272 -0.000255 -0.002849 0.023487 -0.006298
# 6 -0.005165 -0.013363 0.003097 0.003942 -0.006298 0.042761
#
#
# Mechanical properties :
#
#
# Convention : Reuss Voigt Hill
#
# Bulk Modulus (GPa) = 42.07466 67.28328 54.67897
# Shear Modulus (GPa) = 29.61109 40.97621 35.29365
#
# Velocity S-wave (km/s) = 3.49455 4.11084 3.81516
# Velocity P-wave (km/s) = 5.79953 7.09086 6.47745
#
# Compressibility (1/GPa) = 0.02376727
#
# Stress axis : x y z
#
# Youngs Moduli (GPa) = 115.32416 34.22714 101.37542
#
# Poissons Ratio (x) = 0.13912 0.09670
# Poissons Ratio (y) = 0.46875 0.70699
# Poissons Ratio (z) = 0.11000 0.23870
#
# Static dielectric constant tensor:
#      x y z
#    x 2.013690 -0.016430 0.033930 
#    y -0.016430 2.044540 -0.021280 
#    z 0.033930 -0.021280 1.983900 
# 
# From -- ./inp_files/53493.got.cif
#   From: 2010.05.17/outbox.cif.g08.bks.cpg/sg2_27_cif.got.tgz:53493.got - 2010.06.03 11:33:40.
