data_PCOD9111422
_publ_section_title
;
Structure prediction by ZEFSAII (Michael W. Deem and Ramdas Pophale) SiO2 
 PCOD9111422
Probable space group: P -1
;
_chemical_formula_sum "Si O2"
_cell_formula_units_Z 16
_cell_length_a 29.066901
_cell_length_b 9.046288
_cell_length_c 6.272511
_cell_angle_alpha 128.854891
_cell_angle_beta 111.629329
_cell_angle_gamma 39.400689
_cell_volume 792.427126
_symmetry_space_group_name_H-M "P -1"
_symmetry_group_IT_number 2
_symmetry_cell_setting 'triclinic'
loop_
_space_group_symop_operation_xyz
x,y,z
-x,-y,-z
loop_
_atom_site_type_symbol
_atom_site_label
_atom_site_fract_x
_atom_site_fract_y
_atom_site_fract_z
Si Si1 0.039167 0.270117 0.550405
Si Si2 0.685976 0.308865 0.491892
Si Si3 0.098726 0.401095 0.087651
Si Si4 0.196322 0.193948 0.436353
Si Si5 0.139035 0.625644 0.049477
Si Si6 0.329963 0.905473 0.117242
Si Si7 0.688405 0.744124 0.956208
Si Si8 0.582944 0.306911 0.537441
O O1 0.000000 0.500000 0.500000
O O2 0.979533 0.367675 0.711390
O O3 0.084817 0.960259 0.260671
O O4 0.091526 0.264333 0.767739
O O5 0.678155 0.553166 0.726895
O O6 0.617472 0.388484 0.547791
O O7 0.759185 0.036541 0.505660
O O8 0.687982 0.224826 0.179044
O O9 0.156477 0.184235 0.178880
O O10 0.121409 0.534234 0.134119
O O11 0.260390 0.122564 0.354607
O O12 0.136061 0.504972 0.722998
O O13 0.224552 0.452778 0.043735
O O14 0.403707 0.683467 0.184276
O O15 0.335310 0.068055 0.120037
O O16 0.636206 0.977300 0.264350
O O17 0.500000 0.500000 0.500000
#
# Coordination Sequence:
#
# PCOD9111422 Si02
#       8
#     2   2   2   2   2   2   2   2
#     4  11  28  46  65  94 129 172 216 266 326 389
#     4  10  23  40  63 100 132 161 220 265 312 382
#     4  11  25  46  64  93 127 171 214 263 334 380
#     4  11  21  42  66  93 130 166 208 274 319 374
#     4  12  24  43  67  94 130 166 216 271 320 383
#     4  10  20  43  62  96 128 167 211 261 321 375
#     4  11  23  40  66 101 125 167 220 263 318 377
#     4  10  23  45  66  94 138 173 207 261 321 380
#
# _framework density 20.191130000000001
#
# number of rings (size 3 to 8) (size 9 to 14) (size 15 to 20)
#    0.000    1.250    5.000    1.125    5.250    8.500 
#    0.000    1.250    0.000    0.000    0.000    0.000 
#    0.000    0.000    0.000    0.000    0.000    0.000 
#
# Total GULP energy -89352.057071 kJ/mol
# GULP energy per Si atom -5584.503567 kJ/mol
# Density = 2.014517 g / cm^3
# Si number density = 20.191130 Si / 1000 Ang^3
#
#
#
# Elastic Constant Matrix: (Units=GPa)
#
#
# Indices 1 2 3 4 5 6 
#
# 1 85.6951 33.7524 51.4748 8.1972 24.1699 -13.7517
# 2 33.7524 79.6008 59.3172 -19.4957 14.7719 -19.4907
# 3 51.4748 59.3172 129.7620 -12.2444 26.5690 6.6738
# 4 8.1972 -19.4957 -12.2444 36.6709 3.9214 6.8801
# 5 24.1699 14.7719 26.5690 3.9214 28.4536 3.7123
# 6 -13.7517 -19.4907 6.6738 6.8801 3.7123 26.6075
#
#
#
# Elastic Compliance Matrix: (Units=1/GPa)
#
#
# Indices 1 2 3 4 5 6 
#
# 1 0.025888 0.002738 -0.010617 -0.010561 -0.015027 0.022876
# 2 0.002738 0.033774 -0.015100 0.007932 -0.010687 0.029383
# 3 -0.010617 -0.015100 0.020551 0.005555 -0.000079 -0.023128
# 4 -0.010561 0.007932 0.005555 0.038088 -0.004240 -0.010299
# 5 -0.015027 -0.010687 -0.000079 -0.004240 0.057044 -0.022438
# 6 0.022876 0.029383 -0.023128 -0.010299 -0.022438 0.082525
#
#
# Mechanical properties :
#
#
# Convention : Reuss Voigt Hill
#
# Bulk Modulus (GPa) = 29.19286 64.90517 47.04901
# Shear Modulus (GPa) = 15.86064 28.38062 22.12063
#
# Velocity S-wave (km/s) = 2.80576 3.75320 3.31352
# Velocity P-wave (km/s) = 4.99861 7.14123 6.16373
#
# Compressibility (1/GPa) = 0.03425495
#
# Stress axis : x y z
#
# Youngs Moduli (GPa) = 38.62819 29.60829 48.66034
#
# Poissons Ratio (x) = -0.08107 0.51665
# Poissons Ratio (y) = -0.10577 0.73476
# Poissons Ratio (z) = 0.41013 0.44708
#
# Static dielectric constant tensor:
#      x y z
#    x 1.725380 -0.025060 -0.017640 
#    y -0.025060 1.726460 -0.030090 
#    z -0.017640 -0.030090 1.744930 
# 
# From -- ./inp_files/55440.got.cif
#   From: 2010.05.17/outbox.cif.g08.bks.cpg/sg2_28_cif.got.tgz:55440.got - 2010.06.03 11:33:40.
