data_PCOD9111748
_publ_section_title
;
Structure prediction by ZEFSAII (Michael W. Deem and Ramdas Pophale) SiO2 
 PCOD9111748
Probable space group: P -1
;
_chemical_formula_sum "Si O2"
_cell_formula_units_Z 16
_cell_length_a 5.473159
_cell_length_b 10.985854
_cell_length_c 11.159371
_cell_angle_alpha 69.343825
_cell_angle_beta 97.208811
_cell_angle_gamma 83.346225
_cell_volume 613.548057
_symmetry_space_group_name_H-M "P -1"
_symmetry_group_IT_number 2
_symmetry_cell_setting 'triclinic'
loop_
_space_group_symop_operation_xyz
x,y,z
-x,-y,-z
loop_
_atom_site_type_symbol
_atom_site_label
_atom_site_fract_x
_atom_site_fract_y
_atom_site_fract_z
Si Si1 0.264223 0.058307 0.882104
Si Si2 0.778263 0.985878 0.582324
Si Si3 0.322377 0.623634 0.893977
Si Si4 0.753262 0.259013 0.543115
Si Si5 0.041910 0.547785 0.672871
Si Si6 0.855284 0.208472 0.978199
Si Si7 0.575570 0.706910 0.271172
Si Si8 0.369105 0.277474 0.296588
O O1 0.343489 0.149907 0.751044
O O2 0.072323 0.161168 0.913564
O O3 0.500000 0.000000 0.000000
O O4 0.157495 0.925139 0.901367
O O5 0.813396 0.103573 0.635907
O O6 0.500000 0.000000 0.500000
O O7 0.806861 0.833643 0.677936
O O8 0.000000 0.000000 0.500000
O O9 0.210878 0.581108 0.780512
O O10 0.501076 0.723050 0.823843
O O11 0.500000 0.500000 0.000000
O O12 0.122604 0.681324 0.961222
O O13 0.947318 0.345854 0.470559
O O14 0.592991 0.329856 0.617735
O O15 0.578679 0.246617 0.422270
O O16 0.180626 0.404128 0.692585
O O17 0.775576 0.581581 0.710672
O O18 0.604662 0.265370 0.866311
#
# Coordination Sequence:
#
# PCOD9111748 Si02
#       8
#     2   2   2   2   2   2   2   2
#     4   9  22  42  63  91 123 166 215 266 324 391
#     4  10  20  43  69  96 138 176 229 287 342 413
#     4  11  24  42  66  93 129 173 218 274 340 400
#     4  10  23  41  61  94 129 168 217 271 338 404
#     4  11  23  41  63  94 129 166 217 269 334 403
#     4  10  22  45  62  90 131 164 215 271 323 398
#     4  11  23  39  66  91 128 170 212 265 333 407
#     4  10  24  41  64  96 129 171 223 278 332 405
#
# _framework density 26.077825000000001
#
# number of rings (size 3 to 8) (size 9 to 14) (size 15 to 20)
#    0.000    1.750    2.500    0.375    3.500    4.000 
#    4.500    0.000    0.000    0.000    0.000    0.000 
#    0.000    0.000    0.000    0.000    0.000    0.000 
#
# Total GULP energy -89397.138037 kJ/mol
# GULP energy per Si atom -5587.321127 kJ/mol
# Density = 2.601847 g / cm^3
# Si number density = 26.077825 Si / 1000 Ang^3
#
#
#
# Elastic Constant Matrix: (Units=GPa)
#
#
# Indices 1 2 3 4 5 6 
#
# 1 71.7846 7.7291 9.8676 1.0242 3.5200 -14.6940
# 2 7.7291 106.0003 26.9183 3.3628 3.7842 -23.9020
# 3 9.8676 26.9183 88.1415 -3.8648 1.2781 5.9593
# 4 1.0242 3.3628 -3.8648 28.3227 -7.4037 -5.7542
# 5 3.5200 3.7842 1.2781 -7.4037 36.9674 2.6409
# 6 -14.6940 -23.9020 5.9593 -5.7542 2.6409 42.3139
#
#
#
# Elastic Compliance Matrix: (Units=1/GPa)
#
#
# Indices 1 2 3 4 5 6 
#
# 1 0.015578 0.001020 -0.002472 -0.000241 -0.002010 0.006427
# 2 0.001020 0.012389 -0.004452 -0.001016 -0.001984 0.007965
# 3 -0.002472 -0.004452 0.013385 0.001651 0.000923 -0.005091
# 4 -0.000241 -0.001016 0.001651 0.038404 0.007485 0.003865
# 5 -0.002010 -0.001984 0.000923 0.007485 0.029109 -0.002747
# 6 0.006427 0.007965 -0.005091 0.003865 -0.002747 0.031778
#
#
# Mechanical properties :
#
#
# Convention : Reuss Voigt Hill
#
# Bulk Modulus (GPa) = 33.84621 39.43961 36.64291
# Shear Modulus (GPa) = 30.80743 36.28158 33.54451
#
# Velocity S-wave (km/s) = 3.44083 3.73403 3.59043
# Velocity P-wave (km/s) = 5.36590 5.80924 5.59197
#
# Compressibility (1/GPa) = 0.02954540
#
# Stress axis : x y z
#
# Youngs Moduli (GPa) = 64.19337 80.71457 74.71032
#
# Poissons Ratio (x) = -0.08235 0.18465
# Poissons Ratio (y) = -0.06550 0.33263
# Poissons Ratio (z) = 0.15866 0.35936
#
# Static dielectric constant tensor:
#      x y z
#    x 2.208400 -0.091660 0.101630 
#    y -0.091660 2.223670 -0.159630 
#    z 0.101630 -0.159630 2.081280 
# 
# From -- ./inp_files/70760.got.cif
#   From: 2010.05.17/outbox.cif.g08.bks.cpg/sg2_36_cif.got.tgz:70760.got - 2010.06.03 11:33:40.
