data_PCOD9111845
_publ_section_title
;
Structure prediction by ZEFSAII (Michael W. Deem and Ramdas Pophale) SiO2 
 PCOD9111845
Probable space group: P -1
;
_chemical_formula_sum "Si O2"
_cell_formula_units_Z 16
_cell_length_a 10.483321
_cell_length_b 14.049047
_cell_length_c 5.315636
_cell_angle_alpha 74.390961
_cell_angle_beta 114.263861
_cell_angle_gamma 97.415570
_cell_volume 687.257145
_symmetry_space_group_name_H-M "P -1"
_symmetry_group_IT_number 2
_symmetry_cell_setting 'triclinic'
loop_
_space_group_symop_operation_xyz
x,y,z
-x,-y,-z
loop_
_atom_site_type_symbol
_atom_site_label
_atom_site_fract_x
_atom_site_fract_y
_atom_site_fract_z
Si Si1 0.625359 0.531680 0.389310
Si Si2 0.821148 0.679671 0.701090
Si Si3 0.356685 0.006567 0.726367
Si Si4 0.597342 0.348651 0.168040
Si Si5 0.786535 0.201602 0.261629
Si Si6 0.585725 0.805305 0.686274
Si Si7 0.965910 0.215359 0.901299
Si Si8 0.192201 0.149357 0.802895
O O1 0.500000 0.500000 0.500000
O O2 0.758320 0.579356 0.605873
O O3 0.662666 0.438921 0.312687
O O4 0.547044 0.610351 0.091929
O O5 0.688514 0.733199 0.675042
O O6 0.863885 0.757998 0.463683
O O7 0.944753 0.687317 0.000869
O O8 0.398741 0.086051 0.491250
O O9 0.225007 0.054304 0.733217
O O10 0.306352 0.897086 0.693278
O O11 0.500000 0.000000 0.000000
O O12 0.694662 0.299272 0.075278
O O13 0.557694 0.255492 0.379403
O O14 0.870825 0.224023 0.571934
O O15 0.876858 0.183528 0.096037
O O16 0.652849 0.817684 0.006037
O O17 0.087792 0.139837 0.962173
#
# Coordination Sequence:
#
# PCOD9111845 Si02
#       8
#     2   2   2   2   2   2   2   2
#     4  11  23  42  74 112 136 177 235 304 373 438
#     4  10  20  43  72 102 139 183 239 290 352 428
#     4  11  27  42  70 110 145 190 239 298 369 418
#     4  11  25  41  70 109 146 179 235 300 377 424
#     4  12  29  47  71 103 150 193 244 296 348 428
#     4  10  21  40  69 103 143 181 232 296 363 425
#     4  11  26  48  71  99 143 205 242 286 348 419
#     4  10  21  44  70 100 137 197 240 288 345 426
#
# _framework density 23.280951999999999
#
# number of rings (size 3 to 8) (size 9 to 14) (size 15 to 20)
#    0.000    1.250    3.750    0.750    7.000    2.000 
#    0.000    1.250    0.000    0.000    0.000    0.000 
#    0.000    0.000    0.000    0.000    0.000    0.000 
#
# Total GULP energy -89322.126868 kJ/mol
# GULP energy per Si atom -5582.632929 kJ/mol
# Density = 2.322796 g / cm^3
# Si number density = 23.280952 Si / 1000 Ang^3
#
#
#
# Elastic Constant Matrix: (Units=GPa)
#
#
# Indices 1 2 3 4 5 6 
#
# 1 98.1521 59.5816 34.0956 1.0364 -5.6108 6.7885
# 2 59.5816 162.3097 31.4584 16.6255 0.7220 -3.6408
# 3 34.0956 31.4584 76.5814 24.1295 -1.1034 -0.0939
# 4 1.0364 16.6255 24.1295 27.4981 6.7309 5.2034
# 5 -5.6108 0.7220 -1.1034 6.7309 31.0284 5.7778
# 6 6.7885 -3.6408 -0.0939 5.2034 5.7778 13.3786
#
#
#
# Elastic Compliance Matrix: (Units=1/GPa)
#
#
# Indices 1 2 3 4 5 6 
#
# 1 0.019777 -0.007262 -0.010853 0.016054 0.003578 -0.019877
# 2 -0.007262 0.009577 0.002128 -0.009004 -0.001450 0.010435
# 3 -0.010853 0.002128 0.025453 -0.026638 0.001714 0.015885
# 4 0.016054 -0.009004 -0.026638 0.073136 -0.006954 -0.036225
# 5 0.003578 -0.001450 0.001714 -0.006954 0.037391 -0.015641
# 6 -0.019877 0.010435 0.015885 -0.036225 -0.015641 0.108628
#
#
# Mechanical properties :
#
#
# Convention : Reuss Voigt Hill
#
# Bulk Modulus (GPa) = 43.79790 65.25714 54.52752
# Shear Modulus (GPa) = 15.94650 28.50820 22.22735
#
# Velocity S-wave (km/s) = 2.62001 3.50312 3.09325
# Velocity P-wave (km/s) = 5.29209 6.66735 6.01913
#
# Compressibility (1/GPa) = 0.02283215
#
# Stress axis : x y z
#
# Youngs Moduli (GPa) = 50.56469 104.41318 39.28786
#
# Poissons Ratio (x) = 0.75830 0.42639
# Poissons Ratio (y) = 0.36723 -0.08360
# Poissons Ratio (z) = 0.54878 -0.22219
#
# Static dielectric constant tensor:
#      x y z
#    x 1.976770 -0.010960 -0.043700 
#    y -0.010960 1.879260 -0.025340 
#    z -0.043700 -0.025340 2.015970 
# 
# From -- ./inp_files/70138.got.cif
#   From: 2010.05.17/outbox.cif.g08.bks.cpg/sg2_36_cif.got.tgz:70138.got - 2010.06.03 11:33:40.
