data_PCOD9111034
_publ_section_title
;
Structure prediction by ZEFSAII (Michael W. Deem and Ramdas Pophale) SiO2 
 PCOD9111034
Probable space group: P -1
;
_chemical_formula_sum "Si O2"
_cell_formula_units_Z 16
_cell_length_a 9.669171
_cell_length_b 10.178287
_cell_length_c 22.840019
_cell_angle_alpha 153.032157
_cell_angle_beta 56.939764
_cell_angle_gamma 127.738552
_cell_volume 806.123598
_symmetry_space_group_name_H-M "P -1"
_symmetry_group_IT_number 2
_symmetry_cell_setting 'triclinic'
loop_
_space_group_symop_operation_xyz
x,y,z
-x,-y,-z
loop_
_atom_site_type_symbol
_atom_site_label
_atom_site_fract_x
_atom_site_fract_y
_atom_site_fract_z
Si Si1 0.645213 0.743056 0.772100
Si Si2 0.847847 0.803211 0.999977
Si Si3 0.090502 0.692052 0.999987
Si Si4 0.595201 0.184592 0.245493
Si Si5 0.354802 0.345239 0.772082
Si Si6 0.703740 0.160810 0.500001
Si Si7 0.595210 0.202488 0.754465
Si Si8 0.797196 0.918093 0.499980
O O1 0.546930 0.871451 0.796289
O O2 0.500044 0.540439 0.770239
O O3 0.732422 0.517823 0.630905
O O4 0.785193 0.986205 0.875860
O O5 0.947311 0.722355 0.999970
O O6 0.728806 0.004899 0.127115
O O7 0.728851 0.496368 0.872827
O O8 0.000000 0.000000 0.000000
O O9 0.214836 0.517181 0.875841
O O10 0.000000 0.500000 0.000000
O O11 0.695991 0.551605 0.372495
O O12 0.499958 0.046440 0.273210
O O13 0.453010 0.313494 0.796255
O O14 0.267586 0.005750 0.630892
O O15 0.500000 0.000000 0.500000
O O16 0.797418 0.076089 0.499988
O O17 0.695944 0.061445 0.627443
O O18 0.000000 0.000000 0.500000
#
# Coordination Sequence:
#
# PCOD9111034 Si02
#       8
#     2   2   2   2   2   2   2   2
#     4  11  21  43  70  89 124 174 221 250 310 393
#     4  12  26  42  64 100 136 166 220 268 322 378
#     4  12  26  42  62  98 134 164 210 274 322 366
#     4  12  24  43  67  97 132 173 213 265 326 389
#     4  11  21  43  70  89 124 174 221 250 310 393
#     4  10  20  42  68  94 119 165 222 260 297 395
#     4  12  24  43  67  97 132 173 213 265 326 389
#     4  12  25  42  68 100 131 164 217 274 326 376
#
# _framework density 19.848074
#
# number of rings (size 3 to 8) (size 9 to 14) (size 15 to 20)
#    0.000    0.500    5.000    5.625    3.500    0.000 
#    0.000    0.625    0.000    0.000    0.000    0.000 
#    0.000    0.000    0.000    0.000    0.000    0.000 
#
# Total GULP energy -89464.560454 kJ/mol
# GULP energy per Si atom -5591.535028 kJ/mol
# Density = 1.980290 g / cm^3
# Si number density = 19.848074 Si / 1000 Ang^3
#
#
#
# Elastic Constant Matrix: (Units=GPa)
#
#
# Indices 1 2 3 4 5 6 
#
# 1 181.8496 26.8758 66.4129 8.5278 5.0632 -38.5662
# 2 26.8758 75.0927 6.5333 1.9592 1.1074 -20.2954
# 3 66.4129 6.5333 173.0464 -2.0635 -5.9964 5.3726
# 4 8.5278 1.9592 -2.0635 38.6804 28.9529 1.5671
# 5 5.0632 1.1074 -5.9964 28.9529 81.5169 6.6167
# 6 -38.5662 -20.2954 5.3726 1.5671 6.6167 38.6571
#
#
#
# Elastic Compliance Matrix: (Units=1/GPa)
#
#
# Indices 1 2 3 4 5 6 
#
# 1 0.009125 -0.000229 -0.003853 -0.001872 -0.000975 0.009761
# 2 -0.000229 0.015735 -0.000795 -0.000583 -0.000724 0.008290
# 3 -0.003853 -0.000795 0.007501 0.000788 0.000969 -0.005501
# 4 -0.001872 -0.000583 0.000788 0.035644 -0.012347 -0.001614
# 5 -0.000975 -0.000724 0.000969 -0.012347 0.017112 -0.003915
# 6 0.009761 0.008290 -0.005501 -0.001614 -0.003915 0.041459
#
#
# Mechanical properties :
#
#
# Convention : Reuss Voigt Hill
#
# Bulk Modulus (GPa) = 44.23578 69.95919 57.09748
# Shear Modulus (GPa) = 34.75442 53.78200 44.26821
#
# Velocity S-wave (km/s) = 4.18906 5.21111 4.72778
# Velocity P-wave (km/s) = 6.76263 8.45762 7.65717
#
# Compressibility (1/GPa) = 0.02260614
#
# Stress axis : x y z
#
# Youngs Moduli (GPa) = 109.58962 63.55418 133.31315
#
# Poissons Ratio (x) = 0.01457 0.51359
# Poissons Ratio (y) = 0.02513 0.10605
# Poissons Ratio (z) = 0.42220 0.05056
#
# Static dielectric constant tensor:
#      x y z
#    x 1.714470 0.011700 -0.000500 
#    y 0.011700 1.660210 0.000640 
#    z -0.000500 0.000640 1.713240 
# 
# From -- ./inp_files/588273.got.cif
#   From: 2010.05.17/outbox.cif.g08.bks.cpg/sg2_295_cif.got.tgz:588273.got - 2010.06.03 11:33:40.
