data_PCOD9111196
_publ_section_title
;
Structure prediction by ZEFSAII (Michael W. Deem and Ramdas Pophale) SiO2 
 PCOD9111196
Probable space group: P -1
;
_chemical_formula_sum "Si O2"
_cell_formula_units_Z 13
_cell_length_a 21.446595
_cell_length_b 9.913827
_cell_length_c 9.412996
_cell_angle_alpha 150.869984
_cell_angle_beta 35.708753
_cell_angle_gamma 144.695739
_cell_volume 526.933160
_symmetry_space_group_name_H-M "P -1"
_symmetry_group_IT_number 2
_symmetry_cell_setting 'triclinic'
loop_
_space_group_symop_operation_xyz
x,y,z
-x,-y,-z
loop_
_atom_site_type_symbol
_atom_site_label
_atom_site_fract_x
_atom_site_fract_y
_atom_site_fract_z
Si Si1 0.754241 0.999396 0.945061
Si Si2 0.465763 0.657150 0.574847
Si Si3 0.789567 0.586398 0.279556
Si Si4 0.407443 0.674144 0.116198
Si Si5 0.156528 0.244291 0.177097
Si Si6 0.979954 0.362146 0.254533
Si Si7 0.500000 0.500000 0.000000
O O1 0.792102 0.886828 0.624810
O O2 0.820256 0.922809 0.882921
O O3 0.619896 0.802704 0.029836
O O4 0.783516 0.347455 0.192179
O O5 0.500000 0.500000 0.500000
O O6 0.330060 0.556089 0.717213
O O7 0.531391 0.011739 0.782327
O O8 0.515936 0.537533 0.234537
O O9 0.901485 0.631260 0.023073
O O10 0.280299 0.491020 0.129609
O O11 0.416174 0.690063 0.282334
O O12 0.074801 0.424207 0.525841
O O13 0.106487 0.983135 0.913306
O O14 0.000000 0.500000 0.500000
#
# Coordination Sequence:
#
# PCOD9111196 Si02
#       7
#     2   2   2   2   2   2   1
#     4  11  24  43  76 109 149 183 239 306 371 440
#     4  12  25  44  70 105 147 193 239 301 361 445
#     4  12  25  46  73 108 143 197 243 303 368 426
#     4  11  24  44  72 105 146 185 241 296 373 434
#     4  11  26  48  72 112 137 197 241 306 364 432
#     4  12  28  50  74  98 150 197 251 298 358 443
#     4  10  20  42  70 106 150 182 224 292 374 448
#
# _framework density 24.671061999999999
#
# number of rings (size 3 to 8) (size 9 to 14) (size 15 to 20)
#    0.000    0.615    3.077    3.692    2.154    8.615 
#    5.538    0.000    0.000    0.000    0.000    0.000 
#    0.000    0.000    0.000    0.000    0.000    0.000 
#
# Total GULP energy -72669.105348 kJ/mol
# GULP energy per Si atom -5589.931181 kJ/mol
# Density = 2.461491 g / cm^3
# Si number density = 24.671062 Si / 1000 Ang^3
#
#
#
# Elastic Constant Matrix: (Units=GPa)
#
#
# Indices 1 2 3 4 5 6 
#
# 1 96.4589 50.8208 30.8396 6.7900 -12.4043 18.4861
# 2 50.8208 104.8926 49.4011 5.3197 -2.2588 33.5592
# 3 30.8396 49.4011 121.4734 -3.6160 4.7672 23.2211
# 4 6.7900 5.3197 -3.6160 43.2242 -3.8117 -8.3674
# 5 -12.4043 -2.2588 4.7672 -3.8117 39.1963 2.4071
# 6 18.4861 33.5592 23.2211 -8.3674 2.4071 38.4004
#
#
#
# Elastic Compliance Matrix: (Units=1/GPa)
#
#
# Indices 1 2 3 4 5 6 
#
# 1 0.014914 -0.005804 -0.001272 -0.001725 0.004495 -0.001996
# 2 -0.005804 0.017986 -0.003759 -0.003841 -0.000011 -0.011487
# 3 -0.001272 -0.003759 0.010598 0.000976 -0.001679 -0.002193
# 4 -0.001725 -0.003841 0.000976 0.025827 0.001063 0.009158
# 5 0.004495 -0.000011 -0.001679 0.001063 0.027403 -0.002625
# 6 -0.001996 -0.011487 -0.002193 0.009158 -0.002625 0.040528
#
#
# Mechanical properties :
#
#
# Convention : Reuss Voigt Hill
#
# Bulk Modulus (GPa) = 45.81360 64.99421 55.40391
# Shear Modulus (GPa) = 30.08410 36.94841 33.51625
#
# Velocity S-wave (km/s) = 3.49579 3.87414 3.68982
# Velocity P-wave (km/s) = 5.90797 6.81274 6.37642
#
# Compressibility (1/GPa) = 0.02182758
#
# Stress axis : x y z
#
# Youngs Moduli (GPa) = 67.05315 55.59993 94.35596
#
# Poissons Ratio (x) = 0.32269 0.12004
# Poissons Ratio (y) = 0.38916 0.35468
# Poissons Ratio (z) = 0.08531 0.20900
#
# Static dielectric constant tensor:
#      x y z
#    x 1.512150 0.109500 -0.267480 
#    y 0.109500 1.893400 0.050910 
#    z -0.267480 0.050910 1.805530 
# 
# From -- ./inp_files/474806.got.cif
#   From: 2010.05.17/outbox.cif.g08.bks.cpg/sg2_238_cif.got.tgz:474806.got - 2010.06.03 11:33:40.
