data_PCOD9111586
_publ_section_title
;
Structure prediction by ZEFSAII (Michael W. Deem and Ramdas Pophale) SiO2 
 PCOD9111586
Probable space group: P -1
;
_chemical_formula_sum "Si O2"
_cell_formula_units_Z 16
_cell_length_a 12.407755
_cell_length_b 9.211999
_cell_length_c 11.527879
_cell_angle_alpha 52.513927
_cell_angle_beta 128.959665
_cell_angle_gamma 93.486426
_cell_volume 693.646858
_symmetry_space_group_name_H-M "P -1"
_symmetry_group_IT_number 2
_symmetry_cell_setting 'triclinic'
loop_
_space_group_symop_operation_xyz
x,y,z
-x,-y,-z
loop_
_atom_site_type_symbol
_atom_site_label
_atom_site_fract_x
_atom_site_fract_y
_atom_site_fract_z
Si Si1 0.608318 0.838857 0.251908
Si Si2 0.429121 0.792104 0.806940
Si Si3 0.012022 0.428037 0.341998
Si Si4 0.954129 0.213346 0.931892
Si Si5 0.447513 0.248193 0.345770
Si Si6 0.924907 0.373072 0.068996
Si Si7 0.255869 0.597694 0.688160
Si Si8 0.353654 0.582000 0.505189
O O1 0.802537 0.696661 0.427029
O O2 0.546133 0.674866 0.304236
O O3 0.601008 0.978850 0.289009
O O4 0.500000 0.000000 0.000000
O O5 0.506199 0.724334 0.765612
O O6 0.274724 0.763951 0.702860
O O7 0.568124 0.620292 0.069636
O O8 0.974054 0.655763 0.149169
O O9 0.884571 0.440186 0.343321
O O10 0.994128 0.308068 0.276082
O O11 0.976679 0.189186 0.097257
O O12 0.762128 0.360355 0.710233
O O13 0.000000 0.000000 0.000000
O O14 0.263953 0.442109 0.142824
O O15 0.552471 0.293649 0.484795
O O16 0.500000 0.000000 0.500000
O O17 0.000000 0.500000 0.000000
O O18 0.248658 0.649822 0.521741
#
# Coordination Sequence:
#
# PCOD9111586 Si02
#       8
#     2   2   2   2   2   2   2   2
#     4  11  23  42  64  99 139 173 213 283 345 400
#     4  10  22  40  68  92 135 176 225 278 339 399
#     4  10  23  42  72  96 134 179 228 278 336 406
#     4  10  24  43  66  97 141 177 219 285 338 390
#     4  11  25  42  72  96 130 190 231 275 338 400
#     4  10  23  43  65  96 133 172 232 276 320 409
#     4  10  20  43  66  96 130 178 228 278 329 412
#     4  10  24  43  66  99 141 170 227 281 338 407
#
# _framework density 23.066492
#
# number of rings (size 3 to 8) (size 9 to 14) (size 15 to 20)
#    0.000    1.750    2.500    0.000    8.750    4.000 
#    2.250    1.250    0.000    0.000    0.000    0.000 
#    0.000    0.000    0.000    0.000    0.000    0.000 
#
# Total GULP energy -89294.741284 kJ/mol
# GULP energy per Si atom -5580.921330 kJ/mol
# Density = 2.301399 g / cm^3
# Si number density = 23.066492 Si / 1000 Ang^3
#
#
#
# Elastic Constant Matrix: (Units=GPa)
#
#
# Indices 1 2 3 4 5 6 
#
# 1 94.3254 31.0780 13.9340 4.6348 15.7692 6.4545
# 2 31.0780 157.4642 6.1716 -11.0270 3.1655 9.9443
# 3 13.9340 6.1716 52.5509 2.9820 -5.2520 0.8010
# 4 4.6348 -11.0270 2.9820 39.9665 1.9612 -4.1316
# 5 15.7692 3.1655 -5.2520 1.9612 21.0221 4.6875
# 6 6.4545 9.9443 0.8010 -4.1316 4.6875 32.7004
#
#
#
# Elastic Compliance Matrix: (Units=1/GPa)
#
#
# Indices 1 2 3 4 5 6 
#
# 1 0.014007 -0.002440 -0.004434 -0.001482 -0.010992 -0.000526
# 2 -0.002440 0.007062 -0.000188 0.002045 0.000870 -0.001528
# 3 -0.004434 -0.000188 0.021245 -0.001681 0.009064 -0.001100
# 4 -0.001482 0.002045 -0.001681 0.026379 -0.002847 0.003453
# 5 -0.010992 0.000870 0.009064 -0.002847 0.059831 -0.007253
# 6 -0.000526 -0.001528 -0.001100 0.003453 -0.007253 0.032652
#
#
# Mechanical properties :
#
#
# Convention : Reuss Voigt Hill
#
# Bulk Modulus (GPa) = 35.47451 45.18977 40.33214
# Shear Modulus (GPa) = 27.07147 35.61492 31.34320
#
# Velocity S-wave (km/s) = 3.42954 3.93365 3.69022
# Velocity P-wave (km/s) = 5.57629 6.34548 5.97328
#
# Compressibility (1/GPa) = 0.02818925
#
# Stress axis : x y z
#
# Youngs Moduli (GPa) = 71.39303 141.60625 47.07008
#
# Poissons Ratio (x) = 0.34557 0.20870
# Poissons Ratio (y) = 0.17422 0.00885
# Poissons Ratio (z) = 0.31654 0.02663
#
# Static dielectric constant tensor:
#      x y z
#    x 1.879050 0.019160 -0.021490 
#    y 0.019160 1.948660 -0.048540 
#    z -0.021490 -0.048540 1.902150 
# 
# From -- ./inp_files/419203.got.cif
#   From: 2010.05.17/outbox.cif.g08.bks.cpg/sg2_210_cif.got.tgz:419203.got - 2010.06.03 11:33:40.
