data_PCOD9111091
_publ_section_title
;
Structure prediction by ZEFSAII (Michael W. Deem and Ramdas Pophale) SiO2 
 PCOD9111091
Probable space group: P -1
;
_chemical_formula_sum "Si O2"
_cell_formula_units_Z 16
_cell_length_a 13.073549
_cell_length_b 15.507303
_cell_length_c 5.536767
_cell_angle_alpha 105.770895
_cell_angle_beta 123.520237
_cell_angle_gamma 45.800894
_cell_volume 658.764879
_symmetry_space_group_name_H-M "P -1"
_symmetry_group_IT_number 2
_symmetry_cell_setting 'triclinic'
loop_
_space_group_symop_operation_xyz
x,y,z
-x,-y,-z
loop_
_atom_site_type_symbol
_atom_site_label
_atom_site_fract_x
_atom_site_fract_y
_atom_site_fract_z
Si Si1 0.401435 0.329545 0.748210
Si Si2 0.289530 0.523353 0.090446
Si Si3 0.381591 0.683079 0.325376
Si Si4 0.419192 0.138281 0.859152
Si Si5 0.029155 0.256609 0.933423
Si Si6 0.396898 0.159166 0.351551
Si Si7 0.893930 0.046533 0.646846
Si Si8 0.882207 0.851670 0.532026
O O1 0.399625 0.255712 0.901772
O O2 0.360677 0.282525 0.438641
O O3 0.285841 0.466416 0.799232
O O4 0.571941 0.290668 0.845883
O O5 0.320743 0.612538 0.144518
O O6 0.447877 0.412759 0.370837
O O7 0.119359 0.602443 0.081782
O O8 0.250584 0.807452 0.400247
O O9 0.506424 0.079902 0.670674
O O10 0.246468 0.168479 0.642313
O O11 0.488351 0.086851 0.172834
O O12 0.002982 0.226665 0.612989
O O13 0.213433 0.208226 0.132575
O O14 0.038728 0.186797 0.126390
O O15 0.819044 0.983249 0.500013
O O16 0.000000 0.000000 0.500000
O O17 0.000000 0.000000 0.000000
#
# Coordination Sequence:
#
# PCOD9111091 Si02
#       8
#     2   2   2   2   2   2   2   2
#     4  10  21  39  64  93 142 175 222 265 333 399
#     4  11  24  41  65  95 143 182 217 273 338 397
#     4  11  26  44  64 100 135 179 225 274 335 406
#     4   8  17  35  62  91 132 166 216 267 324 387
#     4  10  21  40  70 101 135 174 222 272 332 393
#     4   8  17  35  61  94 131 170 219 264 314 395
#     4  12  27  48  75  99 128 173 232 284 332 389
#     4  10  20  42  68  99 132 170 224 281 326 384
#
# _framework density 24.287875
#
# number of rings (size 3 to 8) (size 9 to 14) (size 15 to 20)
#    0.750    1.250    0.000    3.375    3.500    0.500 
#    0.000    2.500    0.000    2.250    0.000    0.000 
#    0.000    0.000    0.000    0.000    0.000    0.000 
#
# Total GULP energy -89207.809283 kJ/mol
# GULP energy per Si atom -5575.488080 kJ/mol
# Density = 2.423259 g / cm^3
# Si number density = 24.287875 Si / 1000 Ang^3
#
#
#
# Elastic Constant Matrix: (Units=GPa)
#
#
# Indices 1 2 3 4 5 6 
#
# 1 127.1684 60.8657 58.1628 2.4933 -9.2379 3.1266
# 2 60.8657 154.8968 37.0074 26.4893 -5.0462 -11.2740
# 3 58.1628 37.0074 107.9224 23.9603 -40.2890 -6.1223
# 4 2.4933 26.4893 23.9603 45.6291 -12.1858 -3.6010
# 5 -9.2379 -5.0462 -40.2890 -12.1858 41.4974 2.7404
# 6 3.1266 -11.2740 -6.1223 -3.6010 2.7404 42.8644
#
#
#
# Elastic Compliance Matrix: (Units=1/GPa)
#
#
# Indices 1 2 3 4 5 6 
#
# 1 0.013643 -0.004488 -0.008689 0.005066 -0.004278 -0.002718
# 2 -0.004488 0.009270 -0.000050 -0.005361 -0.001655 0.002414
# 3 -0.008689 -0.000050 0.021971 -0.006212 0.017427 0.002123
# 4 0.005066 -0.005361 -0.006212 0.028758 0.002919 -0.000438
# 5 -0.004278 -0.001655 0.017427 0.002919 0.040720 0.000008
# 6 -0.002718 0.002414 0.002123 -0.000438 0.000008 0.024428
#
#
# Mechanical properties :
#
#
# Convention : Reuss Voigt Hill
#
# Bulk Modulus (GPa) = 54.26457 78.00658 66.13558
# Shear Modulus (GPa) = 29.17323 41.59497 35.38410
#
# Velocity S-wave (km/s) = 3.46951 4.14282 3.82103
# Velocity P-wave (km/s) = 6.20006 7.42100 6.83784
#
# Compressibility (1/GPa) = 0.01842823
#
# Stress axis : x y z
#
# Youngs Moduli (GPa) = 73.29893 107.87186 45.51388
#
# Poissons Ratio (x) = 0.48416 0.39549
# Poissons Ratio (y) = 0.32899 0.00229
# Poissons Ratio (z) = 0.63692 0.00543
#
# Static dielectric constant tensor:
#      x y z
#    x 1.975410 0.058240 -0.053020 
#    y 0.058240 1.939130 -0.010140 
#    z -0.053020 -0.010140 2.024340 
# 
# From -- ./inp_files/111309.got.cif
#   From: 2010.05.17/outbox.cif.g08.bks.cpg/sg2_56_cif.got.tgz:111309.got - 2010.06.03 11:33:40.
