data_PCOD9111984
_publ_section_title
;
Structure prediction by ZEFSAII (Michael W. Deem and Ramdas Pophale) SiO2 
 PCOD9111984
Probable space group: P -1
;
_chemical_formula_sum "Si O2"
_cell_formula_units_Z 14
_cell_length_a 6.956231
_cell_length_b 14.571814
_cell_length_c 11.568571
_cell_angle_alpha 30.234100
_cell_angle_beta 96.263278
_cell_angle_gamma 97.262056
_cell_volume 585.731429
_symmetry_space_group_name_H-M "P -1"
_symmetry_group_IT_number 2
_symmetry_cell_setting 'triclinic'
loop_
_space_group_symop_operation_xyz
x,y,z
-x,-y,-z
loop_
_atom_site_type_symbol
_atom_site_label
_atom_site_fract_x
_atom_site_fract_y
_atom_site_fract_z
Si Si1 0.808465 0.683474 0.050043
Si Si2 0.057379 0.616576 0.761568
Si Si3 0.339702 0.467648 0.310808
Si Si4 0.372287 0.109257 0.785301
Si Si5 0.233919 0.835747 0.875818
Si Si6 0.272526 0.978731 0.480694
Si Si7 0.193105 0.392113 0.612680
O O1 0.038479 0.734889 0.020870
O O2 0.751075 0.847894 0.788923
O O3 0.797271 0.499651 0.175912
O O4 0.729337 0.649789 0.209817
O O5 0.172285 0.804691 0.597211
O O6 0.857533 0.621288 0.669235
O O7 0.000000 0.500000 0.000000
O O8 0.465653 0.291573 0.527581
O O9 0.312510 0.516420 0.392039
O O10 0.366148 0.666043 0.036718
O O11 0.201642 0.199610 0.751494
O O12 0.314119 0.969398 0.833425
O O13 0.500000 0.000000 0.000000
O O14 0.186504 0.952554 0.632754
O O15 0.500000 0.000000 0.500000
O O16 0.000000 0.500000 0.500000
#
# Coordination Sequence:
#
# PCOD9111984 Si02
#       7
#     2   2   2   2   2   2   2
#     4  11  23  42  72  98 134 184 237 292 338 422
#     4  11  21  43  72  99 127 189 238 281 347 418
#     4   9  21  41  69  99 132 175 241 285 337 415
#     4  10  24  40  66 101 142 182 223 288 367 413
#     4  11  22  43  70  98 135 189 236 284 350 421
#     4  12  28  42  65 105 145 177 231 297 355 413
#     4  10  20  44  66 104 137 171 239 298 338 409
#
# _framework density 23.901741000000001
#
# number of rings (size 3 to 8) (size 9 to 14) (size 15 to 20)
#    0.857    0.571    5.714    1.286    4.000    1.714 
#    2.571    0.000    0.000    0.000    0.000    0.000 
#    0.000    0.000    0.000    0.000    0.000    0.000 
#
# Total GULP energy -78024.802464 kJ/mol
# GULP energy per Si atom -5573.200176 kJ/mol
# Density = 2.384734 g / cm^3
# Si number density = 23.901741 Si / 1000 Ang^3
#
#
#
# Elastic Constant Matrix: (Units=GPa)
#
#
# Indices 1 2 3 4 5 6 
#
# 1 59.7911 34.1068 67.5595 -5.8836 -8.3801 7.5615
# 2 34.1068 188.6723 90.2922 -1.8337 7.4161 7.3998
# 3 67.5595 90.2922 194.4452 11.1120 30.1495 14.0683
# 4 -5.8836 -1.8337 11.1120 60.9710 -1.2801 4.5062
# 5 -8.3801 7.4161 30.1495 -1.2801 49.5283 8.6821
# 6 7.5615 7.3998 14.0683 4.5062 8.6821 14.4780
#
#
#
# Elastic Compliance Matrix: (Units=1/GPa)
#
#
# Indices 1 2 3 4 5 6 
#
# 1 0.043056 0.000766 -0.017690 0.009478 0.022012 -0.021839
# 2 0.000766 0.006938 -0.003686 0.001116 0.001663 -0.001709
# 3 -0.017690 -0.003686 0.014831 -0.005224 -0.012642 0.005918
# 4 0.009478 0.001116 -0.005224 0.019232 0.006974 -0.010612
# 5 0.022012 0.001663 -0.012642 0.006974 0.035684 -0.023632
# 6 -0.021839 -0.001709 0.005918 -0.010612 -0.023632 0.093074
#
#
# Mechanical properties :
#
#
# Convention : Reuss Voigt Hill
#
# Bulk Modulus (GPa) = 42.36273 91.86953 67.11613
# Shear Modulus (GPa) = 19.09093 41.72547 30.40820
#
# Velocity S-wave (km/s) = 2.82924 4.18270 3.57068
# Velocity P-wave (km/s) = 5.33245 7.86425 6.71868
#
# Compressibility (1/GPa) = 0.02360565
#
# Stress axis : x y z
#
# Youngs Moduli (GPa) = 23.22549 144.13034 67.42519
#
# Poissons Ratio (x) = -0.11039 1.19275
# Poissons Ratio (y) = -0.01779 0.24852
# Poissons Ratio (z) = 0.41086 0.53124
#
# Static dielectric constant tensor:
#      x y z
#    x 2.197560 -0.064930 0.015230 
#    y -0.064930 1.907400 -0.003500 
#    z 0.015230 -0.003500 1.965080 
# 
# From -- ./inp_files/395094.got.cif
#   From: 2010.05.17/outbox.cif.g08.bks.cpg/sg2_198_cif.got.tgz:395094.got - 2010.06.03 11:33:40.
