data_PCOD9111874
_publ_section_title
;
Structure prediction by ZEFSAII (Michael W. Deem and Ramdas Pophale) SiO2 
 PCOD9111874
Probable space group: P -1
;
_chemical_formula_sum "Si O2"
_cell_formula_units_Z 15
_cell_length_a 9.454914
_cell_length_b 9.780648
_cell_length_c 8.592142
_cell_angle_alpha 97.697213
_cell_angle_beta 98.588761
_cell_angle_gamma 130.254520
_cell_volume 570.952643
_symmetry_space_group_name_H-M "P -1"
_symmetry_group_IT_number 2
_symmetry_cell_setting 'triclinic'
loop_
_space_group_symop_operation_xyz
x,y,z
-x,-y,-z
loop_
_atom_site_type_symbol
_atom_site_label
_atom_site_fract_x
_atom_site_fract_y
_atom_site_fract_z
Si Si1 0.699638 0.158668 0.144503
Si Si2 0.033048 0.805330 0.182196
Si Si3 0.117206 0.433328 0.208677
Si Si4 0.162042 0.045594 0.774196
Si Si5 0.118687 0.319310 0.519749
Si Si6 0.000000 0.500000 0.000000
Si Si7 0.476192 0.371594 0.654196
Si Si8 0.474735 0.107326 0.390983
O O1 0.638896 0.188006 0.300183
O O2 0.871360 0.359904 0.123677
O O3 0.801616 0.073705 0.149062
O O4 0.500000 0.000000 0.000000
O O5 0.938996 0.893264 0.149440
O O6 0.957364 0.704927 0.322978
O O7 0.264077 0.971025 0.252439
O O8 0.953126 0.648579 0.013013
O O9 0.087861 0.408674 0.389629
O O10 0.301764 0.447324 0.241113
O O11 0.191308 0.627346 0.177630
O O12 0.361466 0.230531 0.760855
O O13 0.013550 0.895508 0.594657
O O14 0.338577 0.407279 0.586022
O O15 0.480947 0.253151 0.509980
O O16 0.500000 0.000000 0.500000
#
# Coordination Sequence:
#
# PCOD9111874 Si02
#       8
#     2   2   2   2   2   1   2   2
#     4  11  25  43  65  98 141 181 229 272 339 417
#     4  11  22  43  72  98 137 181 229 277 340 414
#     4  11  26  43  64  98 142 176 222 287 342 401
#     4  10  20  43  73 103 131 177 231 286 335 409
#     4  10  20  44  71 106 130 171 231 294 332 402
#     4  12  28  44  62  94 146 186 222 266 352 408
#     4  11  20  38  72 103 133 167 231 287 343 391
#     4  12  20  37  70 101 128 176 226 280 332 401
#
# _framework density 26.271882000000002
#
# number of rings (size 3 to 8) (size 9 to 14) (size 15 to 20)
#    0.000    1.067    4.000    3.600    1.867    2.133 
#    2.400    4.667    0.000    0.000    0.000    0.000 
#    0.000    0.000    0.000    0.000    0.000    0.000 
#
# Total GULP energy -83698.262827 kJ/mol
# GULP energy per Si atom -5579.884188 kJ/mol
# Density = 2.621209 g / cm^3
# Si number density = 26.271882 Si / 1000 Ang^3
#
#
#
# Elastic Constant Matrix: (Units=GPa)
#
#
# Indices 1 2 3 4 5 6 
#
# 1 178.0436 61.1498 80.5439 -7.0393 -5.1095 18.1995
# 2 61.1498 94.5173 53.2371 -22.5352 -5.0598 12.3208
# 3 80.5439 53.2371 148.5046 -13.8269 6.9983 10.1368
# 4 -7.0393 -22.5352 -13.8269 67.5276 -8.5655 -0.7517
# 5 -5.1095 -5.0598 6.9983 -8.5655 65.7389 -2.1661
# 6 18.1995 12.3208 10.1368 -0.7517 -2.1661 59.3201
#
#
#
# Elastic Compliance Matrix: (Units=1/GPa)
#
#
# Indices 1 2 3 4 5 6 
#
# 1 0.008480 -0.003648 -0.003320 -0.000956 0.000565 -0.001268
# 2 -0.003648 0.016248 -0.003404 0.004565 0.001873 -0.001548
# 3 -0.003320 -0.003404 0.009859 0.000343 -0.001525 -0.000011
# 4 -0.000956 0.004565 0.000343 0.016601 0.002390 -0.000416
# 5 0.000565 0.001873 -0.001525 0.002390 0.015884 0.000308
# 6 -0.001268 -0.001548 -0.000011 -0.000416 0.000308 0.017576
#
#
# Mechanical properties :
#
#
# Convention : Reuss Voigt Hill
#
# Bulk Modulus (GPa) = 72.24047 90.10303 81.17175
# Shear Modulus (GPa) = 45.45174 53.59295 49.52234
#
# Velocity S-wave (km/s) = 4.16390 4.52146 4.34636
# Velocity P-wave (km/s) = 7.11860 7.85042 7.49344
#
# Compressibility (1/GPa) = 0.01384266
#
# Stress axis : x y z
#
# Youngs Moduli (GPa) = 117.92835 61.54615 101.42663
#
# Poissons Ratio (x) = 0.22454 0.33677
# Poissons Ratio (y) = 0.43023 0.34521
# Poissons Ratio (z) = 0.39156 0.20948
#
# Static dielectric constant tensor:
#      x y z
#    x 2.273750 -0.069060 0.191410 
#    y -0.069060 2.281310 -0.016100 
#    z 0.191410 -0.016100 2.140590 
# 
# From -- ./inp_files/180422.got.cif
#   From: 2010.05.17/outbox.cif.g08.bks.cpg/sg2_91_cif.got.tgz:180422.got - 2010.06.03 11:33:40.
