data_PCOD9111096
_publ_section_title
;
Structure prediction by ZEFSAII (Michael W. Deem and Ramdas Pophale) SiO2 
 PCOD9111096
Probable space group: P -1
;
_chemical_formula_sum "Si O2"
_cell_formula_units_Z 16
_cell_length_a 13.374479
_cell_length_b 7.755514
_cell_length_c 11.898898
_cell_angle_alpha 84.182147
_cell_angle_beta 73.610435
_cell_angle_gamma 36.224451
_cell_volume 682.154437
_symmetry_space_group_name_H-M "P -1"
_symmetry_group_IT_number 2
_symmetry_cell_setting 'triclinic'
loop_
_space_group_symop_operation_xyz
x,y,z
-x,-y,-z
loop_
_atom_site_type_symbol
_atom_site_label
_atom_site_fract_x
_atom_site_fract_y
_atom_site_fract_z
Si Si1 0.993889 0.298549 0.024005
Si Si2 0.466099 0.579092 0.190813
Si Si3 0.142210 0.163674 0.763586
Si Si4 0.585921 0.762205 0.081754
Si Si5 0.156437 0.649428 0.510342
Si Si6 0.488559 0.164657 0.265964
Si Si7 0.068123 0.240587 0.258310
Si Si8 0.345525 0.632047 0.616992
O O1 0.124748 0.080536 0.892084
O O2 0.798993 0.494005 0.041243
O O3 0.031239 0.203410 0.148699
O O4 0.000000 0.500000 0.000000
O O5 0.538398 0.627346 0.081238
O O6 0.473235 0.363456 0.184185
O O7 0.570751 0.483568 0.278757
O O8 0.261396 0.911104 0.251526
O O9 0.962748 0.516083 0.775651
O O10 0.315452 0.058795 0.723967
O O11 0.179094 0.987914 0.660863
O O12 0.508408 0.958625 0.206816
O O13 0.500000 0.000000 0.000000
O O14 0.310552 0.406624 0.384393
O O15 0.055237 0.628883 0.603142
O O16 0.270320 0.567770 0.585350
O O17 0.000000 0.000000 0.500000
O O18 0.500000 0.500000 0.500000
#
# Coordination Sequence:
#
# PCOD9111096 Si02
#       8
#     2   2   2   2   2   2   2   2
#     4  10  20  42  68  99 139 174 233 285 342 415
#     4  11  25  45  68 106 138 180 235 285 348 407
#     4  10  22  42  72  98 135 187 225 291 348 405
#     4  12  25  44  72 103 141 186 232 285 345 422
#     4  12  24  44  68  98 140 181 231 287 346 410
#     4  11  24  47  68 103 142 182 231 288 354 401
#     4  11  22  43  70  98 137 185 229 286 349 411
#     4  11  22  44  67  97 141 174 231 287 339 411
#
# _framework density 23.455100000000002
#
# number of rings (size 3 to 8) (size 9 to 14) (size 15 to 20)
#    0.000    1.000    6.250    2.250    0.000    4.000 
#    2.250    5.000    0.000    0.000    0.000    0.000 
#    0.000    0.000    0.000    0.000    0.000    0.000 
#
# Total GULP energy -89276.752745 kJ/mol
# GULP energy per Si atom -5579.797047 kJ/mol
# Density = 2.340172 g / cm^3
# Si number density = 23.455100 Si / 1000 Ang^3
#
#
#
# Elastic Constant Matrix: (Units=GPa)
#
#
# Indices 1 2 3 4 5 6 
#
# 1 45.7504 1.7317 14.8395 7.2521 -12.3334 5.5407
# 2 1.7317 84.3081 17.6110 6.8729 -1.4889 -1.7881
# 3 14.8395 17.6110 120.3036 15.4078 -5.3545 1.0127
# 4 7.2521 6.8729 15.4078 42.5577 1.3185 -7.5614
# 5 -12.3334 -1.4889 -5.3545 1.3185 30.9740 -2.0541
# 6 5.5407 -1.7881 1.0127 -7.5614 -2.0541 34.5682
#
#
#
# Elastic Compliance Matrix: (Units=1/GPa)
#
#
# Indices 1 2 3 4 5 6 
#
# 1 0.026647 0.000400 -0.002221 -0.004944 0.010147 -0.004664
# 2 0.000400 0.012331 -0.001651 -0.001417 0.000550 0.000345
# 3 -0.002221 -0.001651 0.009226 -0.002819 0.000713 -0.000574
# 4 -0.004944 -0.001417 -0.002819 0.026841 -0.003237 0.006481
# 5 0.010147 0.000550 0.000713 -0.003237 0.036603 -0.000152
# 6 -0.004664 0.000345 -0.000574 0.006481 -0.000152 0.031119
#
#
# Mechanical properties :
#
#
# Convention : Reuss Voigt Hill
#
# Bulk Modulus (GPa) = 24.23775 35.41404 29.82590
# Shear Modulus (GPa) = 30.58774 36.03198 33.30986
#
# Velocity S-wave (km/s) = 3.61515 3.92370 3.77258
# Velocity P-wave (km/s) = 5.27085 5.97149 5.63208
#
# Compressibility (1/GPa) = 0.04125795
#
# Stress axis : x y z
#
# Youngs Moduli (GPa) = 37.52762 81.09936 108.39362
#
# Poissons Ratio (x) = -0.03244 0.24079
# Poissons Ratio (y) = -0.01501 0.17899
# Poissons Ratio (z) = 0.08336 0.13392
#
# Static dielectric constant tensor:
#      x y z
#    x 1.856910 0.094850 -0.002290 
#    y 0.094850 1.735830 0.021070 
#    z -0.002290 0.021070 1.965620 
# 
# From -- ./inp_files/189401.got.cif
#   From: 2010.05.17/outbox.cif.g08.bks.cpg/sg2_95_cif.got.tgz:189401.got - 2010.06.03 11:33:40.
