data_PCOD9111858
_publ_section_title
;
Structure prediction by ZEFSAII (Michael W. Deem and Ramdas Pophale) SiO2 
 PCOD9111858
Probable space group: P -1
;
_chemical_formula_sum "Si O2"
_cell_formula_units_Z 16
_cell_length_a 8.564323
_cell_length_b 12.082686
_cell_length_c 10.107426
_cell_angle_alpha 46.249933
_cell_angle_beta 87.055702
_cell_angle_gamma 94.559649
_cell_volume 744.882891
_symmetry_space_group_name_H-M "P -1"
_symmetry_group_IT_number 2
_symmetry_cell_setting 'triclinic'
loop_
_space_group_symop_operation_xyz
x,y,z
-x,-y,-z
loop_
_atom_site_type_symbol
_atom_site_label
_atom_site_fract_x
_atom_site_fract_y
_atom_site_fract_z
Si Si1 0.079202 0.501631 0.851160
Si Si2 0.106576 0.835777 0.601990
Si Si3 0.380370 0.118033 0.378016
Si Si4 0.530237 0.330239 0.687294
Si Si5 0.302993 0.199720 0.599986
Si Si6 0.858893 0.494431 0.615691
Si Si7 0.979859 0.028877 0.245978
Si Si8 0.293145 0.241112 0.012091
O O1 0.167074 0.679698 0.691524
O O2 0.940122 0.474948 0.769936
O O3 0.204139 0.387983 0.916845
O O4 0.000000 0.500000 0.000000
O O5 0.041781 0.840453 0.750568
O O6 0.225110 0.993976 0.463140
O O7 0.991938 0.873209 0.459580
O O8 0.356743 0.210597 0.435348
O O9 0.391038 0.213821 0.163324
O O10 0.500000 0.000000 0.500000
O O11 0.500000 0.500000 0.500000
O O12 0.463084 0.215401 0.666703
O O13 0.713998 0.358158 0.698055
O O14 0.415311 0.274313 0.860476
O O15 0.214158 0.345153 0.518136
O O16 0.184002 0.036734 0.766354
O O17 0.000000 0.500000 0.500000
O O18 0.144687 0.099426 0.110430
#
# Coordination Sequence:
#
# PCOD9111858 Si02
#       8
#     2   2   2   2   2   2   2   2
#     4  12  21  36  67 104 131 172 229 282 342 395
#     4   9  18  34  60  94 133 175 213 276 329 402
#     4  10  23  42  70 100 139 175 226 281 349 404
#     4  10  24  45  63  94 142 181 223 282 341 401
#     4  10  20  43  72  95 133 189 223 273 342 403
#     4  11  24  43  66  95 134 181 227 276 344 411
#     4   9  17  37  64  93 134 174 224 270 327 401
#     4  11  23  41  68 104 138 174 233 288 337 410
#
# _framework density 21.479887000000002
#
# number of rings (size 3 to 8) (size 9 to 14) (size 15 to 20)
#    0.000    1.750    2.500    3.000    0.000    4.500 
#    0.000    4.375    0.000    0.000    0.000    0.000 
#    0.000    0.000    0.000    0.000    0.000    0.000 
#
# Total GULP energy -89169.263029 kJ/mol
# GULP energy per Si atom -5573.078939 kJ/mol
# Density = 2.143100 g / cm^3
# Si number density = 21.479887 Si / 1000 Ang^3
#
#
#
# Elastic Constant Matrix: (Units=GPa)
#
#
# Indices 1 2 3 4 5 6 
#
# 1 78.5936 35.7224 37.1007 14.1422 -2.3983 22.2378
# 2 35.7224 93.2255 38.8976 6.6692 2.7869 31.9348
# 3 37.1007 38.8976 97.5962 19.7955 -8.1767 16.2099
# 4 14.1422 6.6692 19.7955 33.5324 -2.9320 14.2724
# 5 -2.3983 2.7869 -8.1767 -2.9320 34.5766 -12.7175
# 6 22.2378 31.9348 16.2099 14.2724 -12.7175 27.1410
#
#
#
# Elastic Compliance Matrix: (Units=1/GPa)
#
#
# Indices 1 2 3 4 5 6 
#
# 1 0.019481 0.001268 -0.005886 0.002169 -0.006651 -0.018195
# 2 0.001268 0.032781 -0.010532 0.020599 -0.023606 -0.055212
# 3 -0.005886 -0.010532 0.016997 -0.012369 0.010151 0.018325
# 4 0.002169 0.020599 -0.012369 0.054588 -0.020800 -0.057080
# 5 -0.006651 -0.023606 0.010151 -0.020800 0.054386 0.063583
# 6 -0.018195 -0.055212 0.018325 -0.057080 0.063583 0.165581
#
#
# Mechanical properties :
#
#
# Convention : Reuss Voigt Hill
#
# Bulk Modulus (GPa) = 25.66931 54.76187 40.21559
# Shear Modulus (GPa) = 12.91651 29.56299 21.23975
#
# Velocity S-wave (km/s) = 2.45486 3.71389 3.14796
# Velocity P-wave (km/s) = 4.47342 6.62876 5.65473
#
# Compressibility (1/GPa) = 0.03895702
#
# Stress axis : x y z
#
# Youngs Moduli (GPa) = 51.33206 30.50587 58.83278
#
# Poissons Ratio (x) = -0.03867 0.34629
# Poissons Ratio (y) = -0.06506 0.61965
# Poissons Ratio (z) = 0.30214 0.32130
#
# Static dielectric constant tensor:
#      x y z
#    x -0.140640 -0.446550 -0.146340 
#    y -0.446550 1.685770 -0.036600 
#    z -0.146340 -0.036600 1.979360 
# 
# From -- ./inp_files/184279.got.cif
#   From: 2010.05.17/outbox.cif.g08.bks.cpg/sg2_93_cif.got.tgz:184279.got - 2010.06.03 11:33:40.
