data_PCOD9111615
_publ_section_title
;
Structure prediction by ZEFSAII (Michael W. Deem and Ramdas Pophale) SiO2 
 PCOD9111615
Probable space group: P -1
;
_chemical_formula_sum "Si O2"
_cell_formula_units_Z 12
_cell_length_a 7.847623
_cell_length_b 14.573154
_cell_length_c 7.256906
_cell_angle_alpha 65.528849
_cell_angle_beta 100.391963
_cell_angle_gamma 55.475827
_cell_volume 518.270640
_symmetry_space_group_name_H-M "P -1"
_symmetry_group_IT_number 2
_symmetry_cell_setting 'triclinic'
loop_
_space_group_symop_operation_xyz
x,y,z
-x,-y,-z
loop_
_atom_site_type_symbol
_atom_site_label
_atom_site_fract_x
_atom_site_fract_y
_atom_site_fract_z
Si Si1 0.978739 0.073740 0.752046
Si Si2 0.481748 0.080401 0.150982
Si Si3 0.364651 0.595049 0.581523
Si Si4 0.971825 0.630040 0.360783
Si Si5 0.215551 0.458328 0.198715
Si Si6 0.464462 0.864367 0.482536
O O1 0.814043 0.237755 0.639768
O O2 0.805225 0.074436 0.592225
O O3 0.240251 0.002801 0.783872
O O4 0.000000 0.000000 0.000000
O O5 0.434731 0.149650 0.284413
O O6 0.452871 0.972579 0.273680
O O7 0.287292 0.205719 0.860354
O O8 0.500000 0.500000 0.500000
O O9 0.555374 0.562503 0.794960
O O10 0.156647 0.597930 0.578441
O O11 0.000000 0.500000 0.500000
O O12 0.086903 0.584891 0.215320
O O13 0.361807 0.296654 0.433751
O O14 0.000000 0.500000 0.000000
#
# Coordination Sequence:
#
# PCOD9111615 Si02
#       6
#     2   2   2   2   2   2
#     4  11  24  40  66  97 130 171 220 270 331 389
#     4  11  24  42  67  94 133 173 221 268 333 388
#     4   9  22  40  60  91 129 167 213 268 321 389
#     4  11  24  40  64  96 133 169 217 272 331 390
#     4  10  20  43  67  91 127 173 222 266 328 389
#     4  10  23  44  65  94 131 175 219 274 320 396
#
# _framework density 23.153925999999998
#
# number of rings (size 3 to 8) (size 9 to 14) (size 15 to 20)
#    0.000    1.667    1.667    1.500    9.333    1.333 
#    0.000    2.500    0.000    0.000    0.000    0.000 
#    0.000    0.000    0.000    0.000    0.000    0.000 
#
# Total GULP energy -66817.618402 kJ/mol
# GULP energy per Si atom -5568.134867 kJ/mol
# Density = 2.310123 g / cm^3
# Si number density = 23.153926 Si / 1000 Ang^3
#
#
#
# Elastic Constant Matrix: (Units=GPa)
#
#
# Indices 1 2 3 4 5 6 
#
# 1 186.1825 30.2582 80.5214 -22.5757 28.3325 27.7482
# 2 30.2582 96.9567 23.9643 -17.5700 9.3031 2.1111
# 3 80.5214 23.9643 109.8830 -15.2551 32.7078 7.9809
# 4 -22.5757 -17.5700 -15.2551 36.0080 7.0314 10.7515
# 5 28.3325 9.3031 32.7078 7.0314 48.4547 7.6705
# 6 27.7482 2.1111 7.9809 10.7515 7.6705 39.0379
#
#
#
# Elastic Compliance Matrix: (Units=1/GPa)
#
#
# Indices 1 2 3 4 5 6 
#
# 1 0.009785 -0.000284 -0.005095 0.006399 -0.002006 -0.007266
# 2 -0.000284 0.011975 -0.000734 0.006272 -0.002299 -0.001571
# 3 -0.005095 -0.000734 0.016158 0.004750 -0.008593 0.000738
# 4 0.006399 0.006272 0.004750 0.043859 -0.012052 -0.015570
# 5 -0.002006 -0.002299 -0.008593 -0.012052 0.029675 0.000795
# 6 -0.007266 -0.001571 0.000738 -0.015570 0.000795 0.034847
#
#
# Mechanical properties :
#
#
# Convention : Reuss Voigt Hill
#
# Bulk Modulus (GPa) = 38.92377 73.61223 56.26800
# Shear Modulus (GPa) = 29.92382 41.91866 35.92124
#
# Velocity S-wave (km/s) = 3.59888 4.25954 3.94307
# Velocity P-wave (km/s) = 5.84094 7.48686 6.71452
#
# Compressibility (1/GPa) = 0.02569124
#
# Stress axis : x y z
#
# Youngs Moduli (GPa) = 102.19777 83.50402 61.88850
#
# Poissons Ratio (x) = 0.02372 0.31533
# Poissons Ratio (y) = 0.02903 0.04545
# Poissons Ratio (z) = 0.52072 0.06132
#
# Static dielectric constant tensor:
#      x y z
#    x 2.042660 -0.020000 0.062620 
#    y -0.020000 0.664300 -0.213090 
#    z 0.062620 -0.213090 1.890820 
# 
# From -- ./inp_files/134845.got.cif
#   From: 2010.05.17/outbox.cif.g08.bks.cpg/sg2_68_cif.got.tgz:134845.got - 2010.06.03 11:33:40.
