data_PCOD9111226
_publ_section_title
;
Structure prediction by ZEFSAII (Michael W. Deem and Ramdas Pophale) SiO2 
 PCOD9111226
Probable space group: P -1
;
_chemical_formula_sum "Si O2"
_cell_formula_units_Z 14
_cell_length_a 22.622324
_cell_length_b 6.677988
_cell_length_c 6.961883
_cell_angle_alpha 95.805965
_cell_angle_beta 58.114892
_cell_angle_gamma 136.608337
_cell_volume 536.652396
_symmetry_space_group_name_H-M "P -1"
_symmetry_group_IT_number 2
_symmetry_cell_setting 'triclinic'
loop_
_space_group_symop_operation_xyz
x,y,z
-x,-y,-z
loop_
_atom_site_type_symbol
_atom_site_label
_atom_site_fract_x
_atom_site_fract_y
_atom_site_fract_z
Si Si1 0.794466 0.448715 0.589740
Si Si2 0.964159 0.866617 0.832228
Si Si3 0.124175 0.695015 0.864949
Si Si4 0.632039 0.412540 0.858227
Si Si5 0.747330 0.545482 0.024426
Si Si6 0.625300 0.640166 0.510915
Si Si7 0.555799 0.926705 0.556214
O O1 0.830034 0.337050 0.396910
O O2 0.703928 0.391816 0.639981
O O3 0.739604 0.318388 0.882068
O O4 0.915563 0.843956 0.453339
O O5 0.874163 0.825516 0.918213
O O6 0.903437 0.512085 0.926539
O O7 0.000000 0.000000 0.000000
O O8 0.239682 0.088853 0.747427
O O9 0.000000 0.500000 0.000000
O O10 0.718300 0.642258 0.918212
O O11 0.614503 0.540244 0.739817
O O12 0.516127 0.124707 0.157713
O O13 0.653847 0.282680 0.320432
O O14 0.603208 0.827524 0.549747
O O15 0.532200 0.337963 0.491353
#
# Coordination Sequence:
#
# PCOD9111226 Si02
#       7
#     2   2   2   2   2   2   2
#     4   9  23  41  70 101 136 179 237 292 347 413
#     4  10  20  42  70  95 137 182 235 296 345 416
#     4  11  23  43  71 101 137 186 231 292 361 415
#     4  10  24  44  73 100 144 185 241 287 346 416
#     4  10  22  43  68 103 138 183 241 288 346 419
#     4  11  25  46  68 106 146 185 239 288 352 420
#     4  11  24  45  72 104 146 192 232 288 351 420
#
# _framework density 26.087654000000001
#
# number of rings (size 3 to 8) (size 9 to 14) (size 15 to 20)
#    0.857    0.857    1.429    2.143    0.000    8.571 
#    2.571    0.714    0.000    0.000    0.000    0.000 
#    0.000    0.000    0.000    0.000    0.000    0.000 
#
# Total GULP energy -78139.698576 kJ/mol
# GULP energy per Si atom -5581.407041 kJ/mol
# Density = 2.602828 g / cm^3
# Si number density = 26.087654 Si / 1000 Ang^3
#
#
#
# Elastic Constant Matrix: (Units=GPa)
#
#
# Indices 1 2 3 4 5 6 
#
# 1 241.1206 36.4967 78.2948 -5.5572 -10.5447 4.3098
# 2 36.4967 64.4282 35.4610 -27.9120 7.9376 12.4418
# 3 78.2948 35.4610 166.3658 -8.4940 -16.8487 5.7194
# 4 -5.5572 -27.9120 -8.4940 54.6607 9.7816 -5.8975
# 5 -10.5447 7.9376 -16.8487 9.7816 55.3587 -1.5027
# 6 4.3098 12.4418 5.7194 -5.8975 -1.5027 36.7531
#
#
#
# Elastic Compliance Matrix: (Units=1/GPa)
#
#
# Indices 1 2 3 4 5 6 
#
# 1 0.005155 -0.002671 -0.001830 -0.001265 0.001043 0.000424
# 2 -0.002671 0.028059 -0.004649 0.014173 -0.008629 -0.006541
# 3 -0.001830 -0.004649 0.008072 -0.001822 0.003107 0.000367
# 4 -0.001265 0.014173 -0.001822 0.026417 -0.007507 -0.000434
# 5 0.001043 -0.008629 0.003107 -0.007507 0.021826 0.002003
# 6 0.000424 -0.006541 0.000367 -0.000434 0.002003 0.029328
#
#
# Mechanical properties :
#
#
# Convention : Reuss Voigt Hill
#
# Bulk Modulus (GPa) = 43.50636 85.82442 64.66539
# Shear Modulus (GPa) = 34.52554 50.79865 42.66209
#
# Velocity S-wave (km/s) = 3.64186 4.41753 4.04832
# Velocity P-wave (km/s) = 5.86493 7.68045 6.83325
#
# Compressibility (1/GPa) = 0.02298515
#
# Stress axis : x y z
#
# Youngs Moduli (GPa) = 193.99533 35.63862 123.88376
#
# Poissons Ratio (x) = 0.09520 0.22672
# Poissons Ratio (y) = 0.51823 0.57595
# Poissons Ratio (z) = 0.35503 0.16569
#
# Static dielectric constant tensor:
#      x y z
#    x 2.068970 0.044930 -0.021210 
#    y 0.044930 2.274570 0.079990 
#    z -0.021210 0.079990 2.100830 
# 
# From -- ./inp_files/339371.got.cif
#   From: 2010.05.17/outbox.cif.g08.bks.cpg/sg2_170_cif.got.tgz:339371.got - 2010.06.03 11:33:40.
