data_PCOD9111167
_publ_section_title
;
Structure prediction by ZEFSAII (Michael W. Deem and Ramdas Pophale) SiO2 
 PCOD9111167
Probable space group: P -1
;
_chemical_formula_sum "Si O2"
_cell_formula_units_Z 14
_cell_length_a 8.223577
_cell_length_b 10.160975
_cell_length_c 17.837671
_cell_angle_alpha 132.122191
_cell_angle_beta 48.625335
_cell_angle_gamma 148.777348
_cell_volume 558.062789
_symmetry_space_group_name_H-M "P -1"
_symmetry_group_IT_number 2
_symmetry_cell_setting 'triclinic'
loop_
_space_group_symop_operation_xyz
x,y,z
-x,-y,-z
loop_
_atom_site_type_symbol
_atom_site_label
_atom_site_fract_x
_atom_site_fract_y
_atom_site_fract_z
Si Si1 0.404706 0.715495 0.176627
Si Si2 0.719060 0.420598 0.278367
Si Si3 0.623148 0.773845 0.548262
Si Si4 0.153684 0.988146 0.710112
Si Si5 0.595381 0.881455 0.884222
Si Si6 0.582734 0.392825 0.605002
Si Si7 0.653438 0.744934 0.970707
O O1 0.694266 0.954219 0.232699
O O2 0.398921 0.497476 0.101219
O O3 0.080862 0.606555 0.264317
O O4 0.435865 0.744397 0.088157
O O5 0.476756 0.201759 0.332741
O O6 0.660166 0.286024 0.167775
O O7 0.644570 0.577236 0.336540
O O8 0.500000 0.500000 0.500000
O O9 0.428883 0.719436 0.513227
O O10 0.000000 0.000000 0.500000
O O11 0.429998 0.192234 0.642806
O O12 0.937250 0.037483 0.801773
O O13 0.911936 0.689671 0.640584
O O14 0.597929 0.746945 0.901305
O O15 0.500000 0.000000 0.000000
O O16 0.000000 0.000000 0.000000
#
# Coordination Sequence:
#
# PCOD9111167 Si02
#       7
#     2   2   2   2   2   2   2
#     4  11  24  41  63  93 137 179 226 273 337 398
#     4  10  23  40  64 101 125 174 224 279 326 403
#     4  10  20  42  69  99 134 168 218 283 343 389
#     4  11  23  43  64  96 132 181 216 276 339 398
#     4  11  23  40  64  95 131 174 229 274 326 398
#     4  10  22  43  69  95 130 173 226 278 337 392
#     4  11  23  42  62  89 136 187 221 274 336 391
#
# _framework density 25.086783
#
# number of rings (size 3 to 8) (size 9 to 14) (size 15 to 20)
#    0.000    1.429    1.429    5.143    4.000    0.571 
#    5.143    1.429    0.000    0.000    0.000    1.000 
#    0.000    0.000    0.000    0.000    0.000    0.000 
#
# Total GULP energy -78252.577173 kJ/mol
# GULP energy per Si atom -5589.469798 kJ/mol
# Density = 2.502968 g / cm^3
# Si number density = 25.086783 Si / 1000 Ang^3
#
#
#
# Elastic Constant Matrix: (Units=GPa)
#
#
# Indices 1 2 3 4 5 6 
#
# 1 78.2060 36.5650 38.5241 -1.1886 7.9781 15.5532
# 2 36.5650 143.3131 41.6036 -1.7464 19.3938 17.4521
# 3 38.5241 41.6036 101.7397 -1.1193 44.7012 10.3348
# 4 -1.1886 -1.7464 -1.1193 45.2747 7.8172 9.1353
# 5 7.9781 19.3938 44.7012 7.8172 49.4766 -6.2504
# 6 15.5532 17.4521 10.3348 9.1353 -6.2504 47.1960
#
#
#
# Elastic Compliance Matrix: (Units=1/GPa)
#
#
# Indices 1 2 3 4 5 6 
#
# 1 0.017707 -0.002681 -0.007306 -0.000059 0.004472 -0.002640
# 2 -0.002681 0.008665 -0.001198 0.001173 -0.002396 -0.002603
# 3 -0.007306 -0.001198 0.022671 0.005003 -0.020355 -0.005778
# 4 -0.000059 0.001173 0.005003 0.025549 -0.009990 -0.007778
# 5 0.004472 -0.002396 -0.020355 -0.009990 0.041831 0.011343
# 6 -0.002640 -0.002603 -0.005778 -0.007778 0.011343 0.027294
#
#
# Mechanical properties :
#
#
# Convention : Reuss Voigt Hill
#
# Bulk Modulus (GPa) = 37.49168 61.84936 49.67052
# Shear Modulus (GPa) = 28.57493 42.16053 35.36773
#
# Velocity S-wave (km/s) = 3.37863 4.10394 3.75882
# Velocity P-wave (km/s) = 5.49522 6.86762 6.21939
#
# Compressibility (1/GPa) = 0.02667258
#
# Stress axis : x y z
#
# Youngs Moduli (GPa) = 56.47417 115.40560 44.10980
#
# Poissons Ratio (x) = 0.30944 0.32225
# Poissons Ratio (y) = 0.15143 0.05285
# Poissons Ratio (z) = 0.41259 0.13827
#
# Static dielectric constant tensor:
#      x y z
#    x 2.130000 -0.084550 0.103130 
#    y -0.084550 2.076580 -0.018400 
#    z 0.103130 -0.018400 2.316720 
# 
# From -- ./inp_files/559911.got.cif
#   From: 2010.05.17/outbox.cif.g08.bks.cpg/sg2_280_cif.got.tgz:559911.got - 2010.06.03 11:33:40.
