data_PCOD9111712
_publ_section_title
;
Structure prediction by ZEFSAII (Michael W. Deem and Ramdas Pophale) SiO2 
 PCOD9111712
Probable space group: P -1
;
_chemical_formula_sum "Si O2"
_cell_formula_units_Z 15
_cell_length_a 12.730959
_cell_length_b 11.572755
_cell_length_c 7.993101
_cell_angle_alpha 123.943780
_cell_angle_beta 92.300790
_cell_angle_gamma 44.157366
_cell_volume 531.977215
_symmetry_space_group_name_H-M "P -1"
_symmetry_group_IT_number 2
_symmetry_cell_setting 'triclinic'
loop_
_space_group_symop_operation_xyz
x,y,z
-x,-y,-z
loop_
_atom_site_type_symbol
_atom_site_label
_atom_site_fract_x
_atom_site_fract_y
_atom_site_fract_z
Si Si1 0.429104 0.587737 0.826630
Si Si2 0.254977 0.230779 0.493181
Si Si3 0.269267 0.429843 0.191206
Si Si4 0.500000 0.000000 0.000000
Si Si5 0.074416 0.996877 0.335647
Si Si6 0.547212 0.732019 0.279035
Si Si7 0.122112 0.304281 0.007362
Si Si8 0.205087 0.890948 0.724263
O O1 0.435543 0.416901 0.722111
O O2 0.301550 0.783218 0.823820
O O3 0.649222 0.360143 0.589845
O O4 0.299816 0.775265 0.133377
O O5 0.343668 0.265353 0.620448
O O6 0.029793 0.506310 0.700899
O O7 0.334432 0.020668 0.450537
O O8 0.349671 0.105279 0.220381
O O9 0.056304 0.719118 0.447251
O O10 0.289296 0.233526 0.002369
O O11 0.347016 0.406950 0.005827
O O12 0.403303 0.272413 0.232217
O O13 0.993353 0.975127 0.179084
O O14 0.000000 0.000000 0.500000
O O15 0.000000 0.500000 0.000000
O O16 0.172595 0.086307 0.821564
#
# Coordination Sequence:
#
# PCOD9111712 Si02
#       8
#     2   2   2   1   2   2   2   2
#     4  11  25  47  72 101 141 188 240 283 346 428
#     4  10  22  39  69 100 139 183 228 288 348 411
#     4  11  25  44  69 104 140 180 228 290 353 407
#     4  10  26  40  62 106 142 180 222 284 358 414
#     4  12  25  48  70 103 146 184 230 288 356 417
#     4  10  20  43  69 100 132 190 231 278 342 425
#     4  12  23  45  72 104 135 179 243 288 336 418
#     4  11  28  45  74 104 137 192 236 287 347 423
#
# _framework density 28.196698000000001
#
# number of rings (size 3 to 8) (size 9 to 14) (size 15 to 20)
#    0.000    1.067    2.667    2.800    7.467    2.133 
#    4.800    0.000    0.000    0.000    0.000    0.000 
#    0.000    0.000    0.000    0.000    0.000    0.000 
#
# Total GULP energy -83820.360684 kJ/mol
# GULP energy per Si atom -5588.024046 kJ/mol
# Density = 2.813252 g / cm^3
# Si number density = 28.196698 Si / 1000 Ang^3
#
#
#
# Elastic Constant Matrix: (Units=GPa)
#
#
# Indices 1 2 3 4 5 6 
#
# 1 98.1084 32.3627 17.9641 21.1774 1.7863 1.4460
# 2 32.3627 153.5862 32.6765 8.2355 4.7961 24.5098
# 3 17.9641 32.6765 162.8098 33.7382 -27.6579 1.3987
# 4 21.1774 8.2355 33.7382 58.6870 0.5271 -1.2835
# 5 1.7863 4.7961 -27.6579 0.5271 55.9695 14.4752
# 6 1.4460 24.5098 1.3987 -1.2835 14.4752 37.6704
#
#
#
# Elastic Compliance Matrix: (Units=1/GPa)
#
#
# Indices 1 2 3 4 5 6 
#
# 1 0.011837 -0.002440 -0.000118 -0.003831 -0.000501 0.001199
# 2 -0.002440 0.008118 -0.001405 0.000437 0.000009 -0.005125
# 3 -0.000118 -0.001405 0.008153 -0.004516 0.004526 -0.001277
# 4 -0.003831 0.000437 -0.004516 0.021022 -0.002818 0.001830
# 5 -0.000501 0.000009 0.004526 -0.002818 0.022440 -0.008874
# 6 0.001199 -0.005125 -0.001277 0.001830 -0.008874 0.033354
#
#
# Mechanical properties :
#
#
# Convention : Reuss Voigt Hill
#
# Bulk Modulus (GPa) = 49.54714 64.50122 57.02418
# Shear Modulus (GPa) = 41.81405 52.56544 47.18975
#
# Velocity S-wave (km/s) = 3.85508 4.32237 4.09539
# Velocity P-wave (km/s) = 6.11765 6.91633 6.52921
#
# Compressibility (1/GPa) = 0.02018280
#
# Stress axis : x y z
#
# Youngs Moduli (GPa) = 84.47751 123.18151 122.65854
#
# Poissons Ratio (x) = 0.30050 0.01449
# Poissons Ratio (y) = 0.20608 0.17234
# Poissons Ratio (z) = 0.00998 0.17308
#
# Static dielectric constant tensor:
#      x y z
#    x 2.497910 -0.796440 -0.013300 
#    y -0.796440 4.434480 0.118070 
#    z -0.013300 0.118070 2.215520 
# 
# From -- ./inp_files/305690.got.cif
#   From: 2010.05.17/outbox.cif.g08.bks.cpg/sg2_153_cif.got.tgz:305690.got - 2010.06.03 11:33:40.
