data_PCOD9111144
_publ_section_title
;
Structure prediction by ZEFSAII (Michael W. Deem and Ramdas Pophale) SiO2 
 PCOD9111144
Probable space group: P -1
;
_chemical_formula_sum "Si O2"
_cell_formula_units_Z 16
_cell_length_a 5.819955
_cell_length_b 15.759137
_cell_length_c 18.374470
_cell_angle_alpha 22.955765
_cell_angle_beta 77.080699
_cell_angle_gamma 73.679864
_cell_volume 628.010339
_symmetry_space_group_name_H-M "P -1"
_symmetry_group_IT_number 2
_symmetry_cell_setting 'triclinic'
loop_
_space_group_symop_operation_xyz
x,y,z
-x,-y,-z
loop_
_atom_site_type_symbol
_atom_site_label
_atom_site_fract_x
_atom_site_fract_y
_atom_site_fract_z
Si Si1 0.578539 0.240802 0.880667
Si Si2 0.859838 0.840871 0.965856
Si Si3 0.764254 0.936643 0.241835
Si Si4 0.284879 0.685043 0.758122
Si Si5 0.004369 0.093214 0.532363
Si Si6 0.719853 0.572926 0.712163
Si Si7 0.645547 0.813182 0.844793
Si Si8 0.723644 0.486430 0.550851
O O1 0.312848 0.190999 0.930525
O O2 0.560912 0.472164 0.744145
O O3 0.714553 0.280762 0.767059
O O4 0.702949 0.046220 0.079325
O O5 0.090848 0.647239 0.106856
O O6 0.733353 0.802569 0.930450
O O7 0.951591 0.069861 0.769905
O O8 0.665392 0.713825 0.422185
O O9 0.632765 0.085215 0.200267
O O10 0.215300 0.886016 0.660058
O O11 0.542691 0.667488 0.715487
O O12 0.292300 0.441674 0.984116
O O13 0.088509 0.755895 0.651259
O O14 0.784710 0.978846 0.662865
O O15 0.112233 0.251186 0.455034
O O16 0.500000 0.500000 0.500000
O O17 0.000000 0.500000 0.500000
#
# Coordination Sequence:
#
# PCOD9111144 Si02
#       8
#     2   2   2   2   2   2   2   2
#     4  10  24  45  74  97 139 184 228 283 342 425
#     4  10  20  42  69  96 129 174 236 282 332 408
#     4  10  25  44  74 100 135 186 230 277 350 417
#     4  11  22  44  54  96 136 181 229 289 353 404
#     4  11  25  35  65  89 143 179 223 298 354 393
#     4  11  20  41  65  95 129 183 233 279 340 417
#     4  11  22  40  65  98 127 180 240 282 334 424
#     4  12  32  51  74 116 149 176 230 291 358 437
#
# _framework density 25.477288000000001
#
# number of rings (size 3 to 8) (size 9 to 14) (size 15 to 20)
#    0.000    1.250    5.000    0.750   12.250    1.000 
#    0.000    0.625    0.000    0.000    0.000    0.000 
#    0.000    0.000    0.000    0.000    0.000    0.000 
#
# Total GULP energy -89387.330457 kJ/mol
# GULP energy per Si atom -5586.708154 kJ/mol
# Density = 2.541930 g / cm^3
# Si number density = 25.477288 Si / 1000 Ang^3
#
#
#
# Elastic Constant Matrix: (Units=GPa)
#
#
# Indices 1 2 3 4 5 6 
#
# 1 96.4981 17.3148 26.5207 2.4757 -26.1182 -13.9307
# 2 17.3148 47.8426 19.3739 2.9266 -14.1146 -12.8779
# 3 26.5207 19.3739 130.4382 0.9352 -29.9577 8.3769
# 4 2.4757 2.9266 0.9352 38.0828 1.5743 -14.3219
# 5 -26.1182 -14.1146 -29.9577 1.5743 50.9950 -0.3617
# 6 -13.9307 -12.8779 8.3769 -14.3219 -0.3617 33.0789
#
#
#
# Elastic Compliance Matrix: (Units=1/GPa)
#
#
# Indices 1 2 3 4 5 6 
#
# 1 0.013402 -0.000849 -0.001733 0.001423 0.005613 0.006430
# 2 -0.000849 0.027282 -0.003524 0.002451 0.005058 0.012272
# 3 -0.001733 -0.003524 0.009807 -0.002064 0.003924 -0.005436
# 4 0.001423 0.002451 -0.002064 0.032054 -0.000682 0.015947
# 5 0.005613 0.005058 0.003924 -0.000682 0.026234 0.003331
# 6 0.006430 0.012272 -0.005436 0.015947 0.003331 0.046034
#
#
# Mechanical properties :
#
#
# Convention : Reuss Voigt Hill
#
# Bulk Modulus (GPa) = 26.12325 44.57753 35.35039
# Shear Modulus (GPa) = 27.81114 38.53598 33.17356
#
# Velocity S-wave (km/s) = 3.30753 3.89339 3.61235
# Velocity P-wave (km/s) = 4.98619 6.14380 5.59501
#
# Compressibility (1/GPa) = 0.03828008
#
# Stress axis : x y z
#
# Youngs Moduli (GPa) = 74.61318 36.65472 101.96581
#
# Poissons Ratio (x) = 0.03112 0.17669
# Poissons Ratio (y) = 0.06335 0.35929
# Poissons Ratio (z) = 0.12929 0.12916
#
# Static dielectric constant tensor:
#      x y z
#    x 2.109740 -0.022150 -0.019320 
#    y -0.022150 2.031950 -0.020370 
#    z -0.019320 -0.020370 2.083380 
# 
# From -- ./inp_files/44771.got.cif
#   From: 2010.05.17/outbox.cif.g08.bks.cpg/sg2_23_cif.got.tgz:44771.got - 2010.06.03 11:33:40.
