data_PCOD9111910
_publ_section_title
;
Structure prediction by ZEFSAII (Michael W. Deem and Ramdas Pophale) SiO2 
 PCOD9111910
Probable space group: P -1
;
_chemical_formula_sum "Si O2"
_cell_formula_units_Z 15
_cell_length_a 20.021582
_cell_length_b 23.013896
_cell_length_c 12.951248
_cell_angle_alpha 153.537816
_cell_angle_beta 156.015369
_cell_angle_gamma 17.234683
_cell_volume 705.960801
_symmetry_space_group_name_H-M "P -1"
_symmetry_group_IT_number 2
_symmetry_cell_setting 'triclinic'
loop_
_space_group_symop_operation_xyz
x,y,z
-x,-y,-z
loop_
_atom_site_type_symbol
_atom_site_label
_atom_site_fract_x
_atom_site_fract_y
_atom_site_fract_z
Si Si1 0.500000 0.500000 0.000000
Si Si2 0.874023 0.115382 0.398776
Si Si3 0.256353 0.242148 0.540410
Si Si4 0.008554 0.862113 0.991888
Si Si5 0.082476 0.263941 0.851004
Si Si6 0.351120 0.311213 0.001332
Si Si7 0.438578 0.999969 0.749272
Si Si8 0.556727 0.215611 0.764831
O O1 0.471688 0.621023 0.054397
O O2 0.718626 0.287970 0.909529
O O3 0.573785 0.279418 0.244825
O O4 0.963671 0.204012 0.633877
O O5 0.000000 0.000000 0.500000
O O6 0.967861 0.958687 0.195171
O O7 0.042285 0.262111 0.265051
O O8 0.316777 0.304495 0.632328
O O9 0.500000 0.000000 0.500000
O O10 0.241961 0.329049 0.765648
O O11 0.799333 0.047131 0.912540
O O12 0.866306 0.501244 0.934838
O O13 0.194140 0.165965 0.740249
O O14 0.321320 0.162924 0.096937
O O15 0.470843 0.113056 0.909623
O O16 0.415046 0.897901 0.473102
#
# Coordination Sequence:
#
# PCOD9111910 Si02
#       8
#     1   2   2   2   2   2   2   2
#     4  12  28  40  68 108 136 182 222 274 352 420
#     4  12  24  46  69  98 145 179 224 287 345 399
#     4  10  20  43  76  97 126 179 226 283 338 393
#     4  11  24  48  68 101 140 180 226 286 345 399
#     4  11  27  40  67 103 135 181 224 277 338 415
#     4  12  22  47  72  98 130 180 233 282 339 399
#     4  11  23  47  67  97 138 178 227 281 338 403
#     4  11  23  46  72  97 141 178 228 286 340 404
#
# _framework density 21.247637999999998
#
# number of rings (size 3 to 8) (size 9 to 14) (size 15 to 20)
#    0.000    0.800    6.667    2.000    1.867    1.600 
#    4.800    0.000    0.000    0.000    0.000    0.000 
#    0.000    0.000    0.000    0.000    0.000    0.000 
#
# Total GULP energy -83619.251211 kJ/mol
# GULP energy per Si atom -5574.616747 kJ/mol
# Density = 2.119928 g / cm^3
# Si number density = 21.247638 Si / 1000 Ang^3
#
#
#
# Elastic Constant Matrix: (Units=GPa)
#
#
# Indices 1 2 3 4 5 6 
#
# 1 85.2825 11.4279 -6.4419 -7.7898 4.4035 12.7726
# 2 11.4279 63.3612 1.9750 -8.1309 5.7388 -5.8718
# 3 -6.4419 1.9750 36.3395 -17.9382 -8.3438 20.0275
# 4 -7.7898 -8.1309 -17.9382 -5.4282 16.2873 12.9790
# 5 4.4035 5.7388 -8.3438 16.2873 34.1162 9.8013
# 6 12.7726 -5.8718 20.0275 12.9790 9.8013 43.4559
#
#
#
# Elastic Compliance Matrix: (Units=1/GPa)
#
#
# Indices 1 2 3 4 5 6 
#
# 1 0.011751 -0.003801 0.000699 -0.008144 0.003973 -0.002754
# 2 -0.003801 0.018263 -0.007474 0.000979 -0.007284 0.008380
# 3 0.000699 -0.007474 0.025357 -0.027436 0.023331 -0.009969
# 4 -0.008144 0.000979 -0.027436 -0.026910 0.000381 0.023122
# 5 0.003973 -0.007284 0.023331 0.000381 0.042010 -0.022493
# 6 -0.002754 0.008380 -0.009969 0.023122 -0.022493 0.027716
#
#
# Mechanical properties :
#
#
# Convention : Reuss Voigt Hill
#
# Bulk Modulus (GPa) = 29.22396 22.10060 25.66228
# Shear Modulus (GPa) = 38.24211 26.29693 32.26952
#
# Velocity S-wave (km/s) = 4.24704 3.52183 3.90132
# Velocity P-wave (km/s) = 6.15091 5.19247 5.69190
#
# Compressibility (1/GPa) = 0.03421850
#
# Stress axis : x y z
#
# Youngs Moduli (GPa) = 85.09687 54.75514 39.43738
#
# Poissons Ratio (x) = 0.20815 -0.02758
# Poissons Ratio (y) = 0.32349 0.29476
# Poissons Ratio (z) = -0.05951 0.40925
#
# Static dielectric constant tensor:
#      x y z
#    x 1.771150 -0.030130 0.035910 
#    y -0.030130 1.878100 -0.031830 
#    z 0.035910 -0.031830 1.747540 
# 
# From -- ./inp_files/281750.got.cif
#   From: 2010.05.17/outbox.cif.g08.bks.cpg/sg2_141_cif.got.tgz:281750.got - 2010.06.03 11:33:40.
