data_PCOD9111574
_publ_section_title
;
Structure prediction by ZEFSAII (Michael W. Deem and Ramdas Pophale) SiO2 
 PCOD9111574
Probable space group: P -1
;
_chemical_formula_sum "Si O2"
_cell_formula_units_Z 14
_cell_length_a 10.513816
_cell_length_b 9.265920
_cell_length_c 6.931001
_cell_angle_alpha 95.370951
_cell_angle_beta 80.004169
_cell_angle_gamma 89.463662
_cell_volume 661.824426
_symmetry_space_group_name_H-M "P -1"
_symmetry_group_IT_number 2
_symmetry_cell_setting 'triclinic'
loop_
_space_group_symop_operation_xyz
x,y,z
-x,-y,-z
loop_
_atom_site_type_symbol
_atom_site_label
_atom_site_fract_x
_atom_site_fract_y
_atom_site_fract_z
Si Si1 0.018304 0.978521 0.767418
Si Si2 0.969836 0.752629 0.460982
Si Si3 0.619026 0.604134 0.936309
Si Si4 0.694196 0.084770 0.472757
Si Si5 0.763463 0.393882 0.577960
Si Si6 0.554859 0.830674 0.668455
Si Si7 0.288763 0.377587 0.661791
O O1 0.978037 0.124685 0.682892
O O2 0.946338 0.841647 0.676894
O O3 0.168426 0.950399 0.666653
O O4 0.000000 0.000000 0.000000
O O5 0.083629 0.635140 0.449954
O O6 0.157852 0.309804 0.605985
O O7 0.712838 0.512286 0.757700
O O8 0.571512 0.749778 0.856749
O O9 0.500000 0.500000 0.000000
O O10 0.691683 0.636400 0.119171
O O11 0.702503 0.237685 0.598167
O O12 0.585399 0.104018 0.339071
O O13 0.652422 0.959235 0.612982
O O14 0.720822 0.457171 0.388799
O O15 0.593403 0.706657 0.485471
#
# Coordination Sequence:
#
# PCOD9111574 Si02
#       7
#     2   2   2   2   2   2   2
#     4  10  22  40  66  95 131 166 210 270 318 383
#     4  10  22  41  61  95 127 169 214 259 329 372
#     4  11  24  41  64  97 127 171 217 261 322 382
#     4  10  20  43  66  94 129 167 212 264 333 368
#     4  10  23  40  65  90 130 168 208 269 315 386
#     4  10  22  41  67  92 129 169 208 272 314 389
#     4  11  22  42  64  93 130 169 213 264 321 382
#
# _framework density 21.153645999999998
#
# number of rings (size 3 to 8) (size 9 to 14) (size 15 to 20)
#    0.000    1.714    1.429    2.143    0.000    8.571 
#    0.000    9.286    0.000    0.000    0.000    0.000 
#    0.000    0.000    0.000    0.000    0.000    0.000 
#
# Total GULP energy -78262.809382 kJ/mol
# GULP energy per Si atom -5590.200670 kJ/mol
# Density = 2.110550 g / cm^3
# Si number density = 21.153646 Si / 1000 Ang^3
#
#
#
# Elastic Constant Matrix: (Units=GPa)
#
#
# Indices 1 2 3 4 5 6 
#
# 1 107.3627 42.9664 30.7089 -10.6128 15.1357 -1.3609
# 2 42.9664 132.2617 38.1381 -28.0699 8.1360 -5.0668
# 3 30.7089 38.1381 120.3917 -27.9362 27.3863 0.5806
# 4 -10.6128 -28.0699 -27.9362 24.6124 -2.5883 8.4511
# 5 15.1357 8.1360 27.3863 -2.5883 19.5540 0.6591
# 6 -1.3609 -5.0668 0.5806 8.4511 0.6591 32.2328
#
#
#
# Elastic Compliance Matrix: (Units=1/GPa)
#
#
# Indices 1 2 3 4 5 6 
#
# 1 0.011744 -0.003221 -0.000204 0.000361 -0.007418 0.000050
# 2 -0.003221 0.011064 0.000325 0.012030 -0.000921 -0.001538
# 3 -0.000204 0.000325 0.018069 0.020190 -0.022439 -0.005118
# 4 0.000361 0.012030 0.020190 0.081777 -0.022081 -0.019447
# 5 -0.007418 -0.000921 -0.022439 -0.022081 0.085636 0.003985
# 6 0.000050 -0.001538 -0.005118 -0.019447 0.003985 0.035894
#
#
# Mechanical properties :
#
#
# Convention : Reuss Voigt Hill
#
# Bulk Modulus (GPa) = 28.83781 64.84921 46.84351
# Shear Modulus (GPa) = 19.08805 31.82668 25.45737
#
# Velocity S-wave (km/s) = 3.00718 3.88306 3.47284
# Velocity P-wave (km/s) = 5.07145 7.12931 6.18654
#
# Compressibility (1/GPa) = 0.03467670
#
# Stress axis : x y z
#
# Youngs Moduli (GPa) = 85.15050 90.38036 55.34254
#
# Poissons Ratio (x) = 0.29115 0.01130
# Poissons Ratio (y) = 0.27430 -0.01799
# Poissons Ratio (z) = 0.01738 -0.02938
#
# Static dielectric constant tensor:
#      x y z
#    x 1.797900 0.029540 0.007640 
#    y 0.029540 1.798710 -0.004450 
#    z 0.007640 -0.004450 1.725720 
# 
# From -- ./inp_files/90686.got.cif
#   From: 2010.05.17/outbox.cif.g08.bks.cpg/sg2_46_cif.got.tgz:90686.got - 2010.06.03 11:33:40.
