data_PCOD9111021
_publ_section_title
;
Structure prediction by ZEFSAII (Michael W. Deem and Ramdas Pophale) SiO2 
 PCOD9111021
Probable space group: P -1
;
_chemical_formula_sum "Si O2"
_cell_formula_units_Z 16
_cell_length_a 14.722111
_cell_length_b 9.653693
_cell_length_c 11.062403
_cell_angle_alpha 103.120292
_cell_angle_beta 125.207078
_cell_angle_gamma 40.023690
_cell_volume 754.176078
_symmetry_space_group_name_H-M "P -1"
_symmetry_group_IT_number 2
_symmetry_cell_setting 'triclinic'
loop_
_space_group_symop_operation_xyz
x,y,z
-x,-y,-z
loop_
_atom_site_type_symbol
_atom_site_label
_atom_site_fract_x
_atom_site_fract_y
_atom_site_fract_z
Si Si1 0.073726 0.974109 0.683849
Si Si2 0.231663 0.711334 0.286368
Si Si3 0.682842 0.739433 0.131293
Si Si4 0.008317 0.347069 0.645901
Si Si5 0.775368 0.755072 0.747957
Si Si6 0.464615 0.734862 0.395526
Si Si7 0.149833 0.527934 0.041799
Si Si8 0.298900 0.497234 0.708060
O O1 0.104927 0.111215 0.734752
O O2 0.918758 0.102767 0.689796
O O3 0.246582 0.695183 0.775479
O O4 0.000000 0.000000 0.500000
O O5 0.304778 0.781969 0.299307
O O6 0.395018 0.454436 0.427505
O O7 0.155298 0.682025 0.122959
O O8 0.838108 0.695802 0.282379
O O9 0.617586 0.698699 0.175229
O O10 0.771084 0.569797 0.050626
O O11 0.500000 0.000000 0.000000
O O12 0.867176 0.565239 0.675079
O O13 0.884434 0.400954 0.458240
O O14 0.739333 0.687444 0.820765
O O15 0.618017 0.020937 0.627901
O O16 0.940218 0.687304 0.908887
O O17 0.577751 0.597680 0.331966
#
# Coordination Sequence:
#
# PCOD9111021 Si02
#       8
#     2   2   2   2   2   2   2   2
#     4  10  20  42  68  92 128 166 216 264 318 389
#     4  11  23  43  65  97 128 169 216 266 325 373
#     4  11  25  42  62  98 134 167 217 266 321 383
#     4  10  21  42  69  93 119 177 210 266 322 379
#     4  10  21  40  66  92 129 163 219 259 322 379
#     4  11  24  40  67  98 128 162 219 275 312 373
#     4  10  22  42  62  91 128 179 209 255 323 391
#     4  11  23  44  65  96 128 173 216 262 323 379
#
# _framework density 21.215202999999999
#
# number of rings (size 3 to 8) (size 9 to 14) (size 15 to 20)
#    0.000    1.500    3.750    1.125    3.500    4.500 
#    2.250    1.250    0.000    0.000    0.000    0.000 
#    0.000    0.000    0.000    0.000    0.000    0.000 
#
# Total GULP energy -89351.169926 kJ/mol
# GULP energy per Si atom -5584.448120 kJ/mol
# Density = 2.116692 g / cm^3
# Si number density = 21.215203 Si / 1000 Ang^3
#
#
#
# Elastic Constant Matrix: (Units=GPa)
#
#
# Indices 1 2 3 4 5 6 
#
# 1 95.8839 22.4518 9.0393 11.1490 -0.2335 12.4743
# 2 22.4518 115.4011 24.7443 1.9098 16.7841 24.5786
# 3 9.0393 24.7443 18.4068 -0.3173 -12.6580 8.7237
# 4 11.1490 1.9098 -0.3173 33.1466 14.6446 -6.3389
# 5 -0.2335 16.7841 -12.6580 14.6446 7.6579 -11.6351
# 6 12.4743 24.5786 8.7237 -6.3389 -11.6351 26.3820
#
#
#
# Elastic Compliance Matrix: (Units=1/GPa)
#
#
# Indices 1 2 3 4 5 6 
#
# 1 0.012124 -0.000753 -0.002113 -0.005323 0.000545 -0.005371
# 2 -0.000753 0.004420 0.007575 -0.008505 0.019544 0.000309
# 3 -0.002113 0.007575 0.029071 0.014748 -0.046197 -0.032501
# 4 -0.005323 -0.008505 0.014748 0.030366 0.013103 0.018638
# 5 0.000545 0.019544 -0.046197 0.013103 -0.041578 -0.018378
# 6 -0.005371 0.000309 -0.032501 0.018638 -0.018378 0.047276
#
#
# Mechanical properties :
#
#
# Convention : Reuss Voigt Hill
#
# Bulk Modulus (GPa) = 18.17104 38.01806 28.09455
# Shear Modulus (GPa) = 55.18417 25.00107 40.09262
#
# Velocity S-wave (km/s) = 5.10569 3.43658 4.35191
# Velocity P-wave (km/s) = 6.58340 5.80568 6.20673
#
# Compressibility (1/GPa) = 0.05503261
#
# Stress axis : x y z
#
# Youngs Moduli (GPa) = 82.48268 226.24434 34.39802
#
# Poissons Ratio (x) = 0.17032 0.07269
# Poissons Ratio (y) = 0.06210 -0.26056
# Poissons Ratio (z) = 0.17431 -1.71377
#
# Static dielectric constant tensor:
#      x y z
#    x 1.747920 0.073530 -0.047820 
#    y 0.073530 1.696670 0.000870 
#    z -0.047820 0.000870 1.804400 
# 
# From -- ./inp_files/417819.got.cif
#   From: 2010.05.17/outbox.cif.g08.bks.cpg/sg2_209_cif.got.tgz:417819.got - 2010.06.03 11:33:40.
