data_PCOD9111634
_publ_section_title
;
Structure prediction by ZEFSAII (Michael W. Deem and Ramdas Pophale) SiO2 
 PCOD9111634
Probable space group: P -1
;
_chemical_formula_sum "Si O2"
_cell_formula_units_Z 16
_cell_length_a 7.617027
_cell_length_b 5.387269
_cell_length_c 19.010906
_cell_angle_alpha 58.161429
_cell_angle_beta 96.921994
_cell_angle_gamma 87.167787
_cell_volume 651.972785
_symmetry_space_group_name_H-M "P -1"
_symmetry_group_IT_number 2
_symmetry_cell_setting 'triclinic'
loop_
_space_group_symop_operation_xyz
x,y,z
-x,-y,-z
loop_
_atom_site_type_symbol
_atom_site_label
_atom_site_fract_x
_atom_site_fract_y
_atom_site_fract_z
Si Si1 0.443897 0.372576 0.826378
Si Si2 0.169373 0.762134 0.832265
Si Si3 0.315957 0.448494 0.307417
Si Si4 0.106918 0.710690 0.517488
Si Si5 0.901356 0.611000 0.294485
Si Si6 0.609283 0.231024 0.590140
Si Si7 0.627999 0.216851 0.022686
Si Si8 0.059439 0.653553 0.050797
O O1 0.364836 0.656107 0.825943
O O2 0.611169 0.386842 0.781120
O O3 0.267484 0.379029 0.766763
O O4 0.452776 0.089780 0.921930
O O5 0.212987 0.838638 0.903058
O O6 0.039030 0.511979 0.869227
O O7 0.076551 0.045999 0.745173
O O8 0.362107 0.622854 0.354590
O O9 0.098382 0.461728 0.300376
O O10 0.425011 0.112883 0.355468
O O11 0.168074 0.524735 0.617385
O O12 0.228577 0.821384 0.448012
O O13 0.000000 0.500000 0.500000
O O14 0.000000 0.000000 0.500000
O O15 0.500000 0.500000 0.500000
O O16 0.500000 0.500000 0.000000
O O17 0.728793 0.347237 0.942048
O O18 0.000000 0.500000 0.000000
O O19 0.000000 0.000000 0.000000
#
# Coordination Sequence:
#
# PCOD9111634 Si02
#       8
#     2   2   2   2   2   2   2   2
#     4  11  26  46  70 105 144 188 236 297 358 424
#     4  10  24  44  69 100 139 186 234 292 358 422
#     4  12  28  47  71 106 147 187 242 291 359 431
#     4  12  24  45  71 102 138 182 244 291 345 423
#     4  11  26  46  71 103 140 192 235 299 356 428
#     4  12  26  48  71 106 141 188 239 300 357 419
#     4  10  23  44  67 103 138 184 233 292 355 423
#     4  10  20  43  67  96 133 172 228 279 339 415
#
# _framework density 24.540903
#
# number of rings (size 3 to 8) (size 9 to 14) (size 15 to 20)
#    0.000    1.000    3.750    1.125   10.500    0.500 
#    2.250    0.000    0.000    0.000    0.000    0.000 
#    0.000    0.000    0.000    0.000    0.000    0.000 
#
# Total GULP energy -89168.229940 kJ/mol
# GULP energy per Si atom -5573.014371 kJ/mol
# Density = 2.448505 g / cm^3
# Si number density = 24.540903 Si / 1000 Ang^3
#
#
#
# Elastic Constant Matrix: (Units=GPa)
#
#
# Indices 1 2 3 4 5 6 
#
# 1 73.5894 5.3490 10.0464 3.8739 -25.9337 -9.3628
# 2 5.3490 131.8465 35.4266 -13.0693 0.6117 -14.5389
# 3 10.0464 35.4266 165.6362 3.6044 -12.4785 -0.4432
# 4 3.8739 -13.0693 3.6044 61.7235 -3.9394 -1.9145
# 5 -25.9337 0.6117 -12.4785 -3.9394 41.4016 4.8036
# 6 -9.3628 -14.5389 -0.4432 -1.9145 4.8036 37.8530
#
#
#
# Elastic Compliance Matrix: (Units=1/GPa)
#
#
# Indices 1 2 3 4 5 6 
#
# 1 0.017816 -0.000460 -0.000155 -0.000432 0.010749 0.002842
# 2 -0.000460 0.008719 -0.001963 0.002020 -0.001219 0.003469
# 3 -0.000155 -0.001963 0.006628 -0.000698 0.001979 -0.001001
# 4 -0.000432 0.002020 -0.000698 0.016799 0.000926 0.001393
# 5 0.010749 -0.001219 0.001979 0.000926 0.031795 -0.001774
# 6 0.002842 0.003469 -0.001001 0.001393 -0.001774 0.028737
#
#
# Mechanical properties :
#
#
# Convention : Reuss Voigt Hill
#
# Bulk Modulus (GPa) = 35.70779 52.52402 44.11591
# Shear Modulus (GPa) = 40.00370 49.54564 44.77467
#
# Velocity S-wave (km/s) = 4.04181 4.49809 4.27604
# Velocity P-wave (km/s) = 6.03022 6.95889 6.51113
#
# Compressibility (1/GPa) = 0.02800510
#
# Stress axis : x y z
#
# Youngs Moduli (GPa) = 56.12945 114.68936 150.86772
#
# Poissons Ratio (x) = 0.05280 0.02343
# Poissons Ratio (y) = 0.02584 0.29623
# Poissons Ratio (z) = 0.00872 0.22519
#
# Static dielectric constant tensor:
#      x y z
#    x 2.181540 0.088570 0.064480 
#    y 0.088570 2.020740 0.004940 
#    z 0.064480 0.004940 1.934850 
# 
# From -- ./inp_files/585067.got.cif
#   From: 2010.05.17/outbox.cif.g08.bks.cpg/sg2_293_cif.got.tgz:585067.got - 2010.06.03 11:33:40.
