data_PCOD9111618
_publ_section_title
;
Structure prediction by ZEFSAII (Michael W. Deem and Ramdas Pophale) SiO2 
 PCOD9111618
Probable space group: P -1
;
_chemical_formula_sum "Si O2"
_cell_formula_units_Z 12
_cell_length_a 7.404943
_cell_length_b 10.274192
_cell_length_c 12.005817
_cell_angle_alpha 144.839250
_cell_angle_beta 74.629054
_cell_angle_gamma 94.639435
_cell_volume 491.781030
_symmetry_space_group_name_H-M "P -1"
_symmetry_group_IT_number 2
_symmetry_cell_setting 'triclinic'
loop_
_space_group_symop_operation_xyz
x,y,z
-x,-y,-z
loop_
_atom_site_type_symbol
_atom_site_label
_atom_site_fract_x
_atom_site_fract_y
_atom_site_fract_z
Si Si1 0.431046 0.923167 0.262058
Si Si2 0.900806 0.104461 0.844165
Si Si3 0.685003 0.088188 0.076788
Si Si4 0.317318 0.757135 0.571192
Si Si5 0.759549 0.630302 0.840610
Si Si6 0.876638 0.258272 0.729241
O O1 0.344557 0.771290 0.257744
O O2 0.246752 0.025840 0.284649
O O3 0.526785 0.123214 0.427571
O O4 0.590584 0.759636 0.042924
O O5 0.787144 0.196363 0.038679
O O6 0.107185 0.933290 0.710372
O O7 0.912827 0.291146 0.877084
O O8 0.827117 0.839950 0.917617
O O9 0.500000 0.000000 0.000000
O O10 0.643170 0.241512 0.302111
O O11 0.312813 0.517796 0.346308
O O12 0.901218 0.449078 0.770999
O O13 0.000000 0.000000 0.500000
#
# Coordination Sequence:
#
# PCOD9111618 Si02
#       6
#     2   2   2   2   2   2
#     4   9  22  41  63  93 131 156 210 265 300 368
#     4  10  21  43  65  90 134 164 202 273 307 365
#     4  11  22  44  62  94 134 160 210 268 304 371
#     4  11  22  40  68  94 123 172 208 254 323 372
#     4  11  21  40  70  94 123 172 208 252 326 372
#     4  10  20  43  67  91 132 162 207 271 306 368
#
# _framework density 24.401104
#
# number of rings (size 3 to 8) (size 9 to 14) (size 15 to 20)
#    1.000    0.667    5.000    1.000    0.000    2.000 
#    0.000   10.000    0.000    0.000    0.000    0.000 
#    0.000    0.000    0.000    0.000    0.000    0.000 
#
# Total GULP energy -66978.344303 kJ/mol
# GULP energy per Si atom -5581.528692 kJ/mol
# Density = 2.434557 g / cm^3
# Si number density = 24.401104 Si / 1000 Ang^3
#
#
#
# Elastic Constant Matrix: (Units=GPa)
#
#
# Indices 1 2 3 4 5 6 
#
# 1 89.6037 1.7815 20.0460 0.7011 6.7799 -12.9872
# 2 1.7815 136.7462 42.2278 -2.5305 8.0591 -10.4273
# 3 20.0460 42.2278 87.3392 -1.6037 30.3222 -8.7890
# 4 0.7011 -2.5305 -1.6037 27.9973 -7.6501 2.0226
# 5 6.7799 8.0591 30.3222 -7.6501 35.3159 -1.4968
# 6 -12.9872 -10.4273 -8.7890 2.0226 -1.4968 32.8853
#
#
#
# Elastic Compliance Matrix: (Units=1/GPa)
#
#
# Indices 1 2 3 4 5 6 
#
# 1 0.012457 0.001069 -0.002892 -0.000741 -0.000121 0.004526
# 2 0.001069 0.008932 -0.005243 0.001043 0.002565 0.001906
# 3 -0.002892 -0.005243 0.020589 -0.003939 -0.016687 0.002181
# 4 -0.000741 0.001043 -0.003939 0.038985 0.011609 -0.002884
# 5 -0.000121 0.002565 -0.016687 0.011609 0.044495 -0.002383
# 6 0.004526 0.001906 0.002181 -0.002884 -0.002383 0.033452
#
#
# Mechanical properties :
#
#
# Convention : Reuss Voigt Hill
#
# Bulk Modulus (GPa) = 35.91369 49.08886 42.50127
# Shear Modulus (GPa) = 27.42372 35.88196 31.65284
#
# Velocity S-wave (km/s) = 3.35606 3.83888 3.60556
# Velocity P-wave (km/s) = 5.45596 6.30955 5.89822
#
# Compressibility (1/GPa) = 0.02784454
#
# Stress axis : x y z
#
# Youngs Moduli (GPa) = 80.27637 111.96304 48.56956
#
# Poissons Ratio (x) = -0.11973 0.14048
# Poissons Ratio (y) = -0.08585 0.25467
# Poissons Ratio (z) = 0.23219 0.58708
#
# Static dielectric constant tensor:
#      x y z
#    x 1.994750 -0.045260 0.003340 
#    y -0.045260 2.026770 0.003500 
#    z 0.003340 0.003500 1.920950 
# 
# From -- ./inp_files/497177.got.cif
#   From: 2010.05.17/outbox.cif.g08.bks.cpg/sg2_249_cif.got.tgz:497177.got - 2010.06.03 11:33:40.
