data_PCOD9111718
_publ_section_title
;
Structure prediction by ZEFSAII (Michael W. Deem and Ramdas Pophale) SiO2 
 PCOD9111718
Probable space group: P -1
;
_chemical_formula_sum "Si O2"
_cell_formula_units_Z 16
_cell_length_a 11.547903
_cell_length_b 13.649358
_cell_length_c 5.150844
_cell_angle_alpha 70.844838
_cell_angle_beta 126.623141
_cell_angle_gamma 101.033376
_cell_volume 615.511777
_symmetry_space_group_name_H-M "P -1"
_symmetry_group_IT_number 2
_symmetry_cell_setting 'triclinic'
loop_
_space_group_symop_operation_xyz
x,y,z
-x,-y,-z
loop_
_atom_site_type_symbol
_atom_site_label
_atom_site_fract_x
_atom_site_fract_y
_atom_site_fract_z
Si Si1 0.512765 0.379186 0.934925
Si Si2 0.868977 0.434863 0.766036
Si Si3 0.497476 0.195130 0.716071
Si Si4 0.277384 0.083779 0.854652
Si Si5 0.166165 0.968831 0.296260
Si Si6 0.260388 0.271996 0.957919
Si Si7 0.254908 0.767405 0.331328
Si Si8 0.742615 0.526390 0.006217
O O1 0.354546 0.353619 0.849997
O O2 0.627126 0.310573 0.315464
O O3 0.579141 0.491815 0.891523
O O4 0.510828 0.313094 0.725862
O O5 0.863901 0.310065 0.877365
O O6 0.839439 0.467270 0.402054
O O7 0.751492 0.476252 0.778226
O O8 0.000000 0.500000 0.000000
O O9 0.434858 0.122768 0.925975
O O10 0.370700 0.200825 0.330511
O O11 0.650355 0.172157 0.810181
O O12 0.209125 0.020689 0.580620
O O13 0.194199 0.191549 0.735496
O O14 0.262229 0.017041 0.151351
O O15 0.190927 0.846159 0.389691
O O16 0.000000 0.000000 0.000000
O O17 0.198020 0.355387 0.005152
#
# Coordination Sequence:
#
# PCOD9111718 Si02
#       8
#     2   2   2   2   2   2   2   2
#     4   9  20  39  62 102 137 171 220 269 340 417
#     4  11  25  44  65 101 135 180 234 271 327 410
#     4  10  20  43  69 101 143 175 221 283 346 408
#     4  11  25  46  67 103 137 170 238 277 342 399
#     4  12  28  48  72  98 133 183 233 282 337 407
#     4  10  22  39  67 100 142 172 213 283 335 403
#     4  10  24  44  70  99 139 179 223 287 347 398
#     4  11  23  39  67  97 134 180 226 269 337 393
#
# _framework density 25.994629
#
# number of rings (size 3 to 8) (size 9 to 14) (size 15 to 20)
#    0.000    1.500    2.500    1.125    5.250    3.500 
#    0.000    0.000    0.000    0.000    0.000    0.000 
#    0.000    0.000    0.000    0.000    0.000    0.000 
#
# Total GULP energy -89302.922143 kJ/mol
# GULP energy per Si atom -5581.432634 kJ/mol
# Density = 2.593546 g / cm^3
# Si number density = 25.994629 Si / 1000 Ang^3
#
#
#
# Elastic Constant Matrix: (Units=GPa)
#
#
# Indices 1 2 3 4 5 6 
#
# 1 54.0635 10.7722 9.5826 -4.8916 -16.2293 10.6596
# 2 10.7722 183.8282 27.5250 31.8347 -14.8551 -16.5948
# 3 9.5826 27.5250 89.5897 12.3820 -24.8796 6.9736
# 4 -4.8916 31.8347 12.3820 38.0275 -5.7224 -9.4969
# 5 -16.2293 -14.8551 -24.8796 -5.7224 30.0339 12.5246
# 6 10.6596 -16.5948 6.9736 -9.4969 12.5246 33.3972
#
#
#
# Elastic Compliance Matrix: (Units=1/GPa)
#
#
# Indices 1 2 3 4 5 6 
#
# 1 0.034066 -0.003404 0.009195 0.002886 0.036260 -0.027262
# 2 -0.003404 0.007011 -0.002470 -0.004765 -0.003415 0.005011
# 3 0.009195 -0.002470 0.021298 -0.004492 0.029227 -0.020848
# 4 0.002886 -0.004765 -0.004492 0.033863 -0.001307 0.007769
# 5 0.036260 -0.003415 0.029227 -0.001307 0.098857 -0.056818
# 6 -0.027262 0.005011 -0.020848 0.007769 -0.056818 0.069004
#
#
# Mechanical properties :
#
#
# Convention : Reuss Voigt Hill
#
# Bulk Modulus (GPa) = 14.48906 47.02678 30.75792
# Shear Modulus (GPa) = 17.82771 38.93182 28.37977
#
# Velocity S-wave (km/s) = 2.62166 3.87419 3.30776
# Velocity P-wave (km/s) = 3.84059 6.17598 5.14261
#
# Compressibility (1/GPa) = 0.06901757
#
# Stress axis : x y z
#
# Youngs Moduli (GPa) = 29.35443 142.63854 46.95362
#
# Poissons Ratio (x) = 0.48549 -0.43173
# Poissons Ratio (y) = 0.09991 0.11597
# Poissons Ratio (z) = -0.26991 0.35230
#
# Static dielectric constant tensor:
#      x y z
#    x 2.362740 -0.180760 -0.008910 
#    y -0.180760 2.187200 0.007050 
#    z -0.008910 0.007050 2.113460 
# 
# From -- ./inp_files/70181.got.cif
#   From: 2010.05.17/outbox.cif.g08.bks.cpg/sg2_36_cif.got.tgz:70181.got - 2010.06.03 11:33:40.
