data_PCOD9111023
_publ_section_title
;
Structure prediction by ZEFSAII (Michael W. Deem and Ramdas Pophale) SiO2 
 PCOD9111023
Probable space group: P -1
;
_chemical_formula_sum "Si O2"
_cell_formula_units_Z 15
_cell_length_a 15.616002
_cell_length_b 7.134642
_cell_length_c 8.646142
_cell_angle_alpha 101.579094
_cell_angle_beta 124.920675
_cell_angle_gamma 50.142707
_cell_volume 584.824723
_symmetry_space_group_name_H-M "P -1"
_symmetry_group_IT_number 2
_symmetry_cell_setting 'triclinic'
loop_
_space_group_symop_operation_xyz
x,y,z
-x,-y,-z
loop_
_atom_site_type_symbol
_atom_site_label
_atom_site_fract_x
_atom_site_fract_y
_atom_site_fract_z
Si Si1 0.829013 0.195854 0.705817
Si Si2 0.288024 0.277642 0.357836
Si Si3 0.500000 0.000000 0.000000
Si Si4 0.742778 0.249681 0.978346
Si Si5 0.920568 0.338154 0.262334
Si Si6 0.312759 0.966754 0.613616
Si Si7 0.455115 0.836722 0.236898
Si Si8 0.093066 0.224254 0.703147
O O1 0.830800 0.421973 0.724833
O O2 0.970611 0.930053 0.753668
O O3 0.713284 0.221226 0.490022
O O4 0.792793 0.199080 0.845819
O O5 0.268041 0.144900 0.447889
O O6 0.420532 0.249016 0.537247
O O7 0.326710 0.118239 0.216268
O O8 0.453403 0.892621 0.802078
O O9 0.510454 0.146466 0.897366
O O10 0.768230 0.432187 0.103088
O O11 0.840852 0.998984 0.145187
O O12 0.596723 0.318660 0.837915
O O13 0.965960 0.295573 0.481990
O O14 0.937561 0.524667 0.233870
O O15 0.209196 0.125230 0.675314
#
# Coordination Sequence:
#
# PCOD9111023 Si02
#       8
#     2   2   1   2   2   2   2   2
#     4  11  25  42  67  98 134 175 225 269 326 394
#     4  10  23  45  66  95 136 179 211 277 326 399
#     4  10  20  42  68  92 130 170 216 274 324 400
#     4  12  23  41  67 104 128 171 224 278 324 398
#     4  10  25  44  65  97 134 179 223 268 333 390
#     4  10  21  42  65  95 130 172 224 265 330 388
#     4  10  22  44  69  99 131 174 220 268 343 387
#     4  10  23  44  68  94 135 180 213 278 330 393
#
# _framework density 25.648710999999999
#
# number of rings (size 3 to 8) (size 9 to 14) (size 15 to 20)
#    0.000    1.600    2.667    0.800    1.867    6.400 
#    2.400    4.000    0.000    0.000    0.000    0.000 
#    0.000    0.000    0.000    0.000    0.000    0.000 
#
# Total GULP energy -83756.375551 kJ/mol
# GULP energy per Si atom -5583.758370 kJ/mol
# Density = 2.559033 g / cm^3
# Si number density = 25.648711 Si / 1000 Ang^3
#
#
#
# Elastic Constant Matrix: (Units=GPa)
#
#
# Indices 1 2 3 4 5 6 
#
# 1 71.7557 8.4445 9.8746 8.4966 11.0090 7.7390
# 2 8.4445 72.2610 -21.4398 19.0007 -4.4366 5.1975
# 3 9.8746 -21.4398 71.2639 8.7204 28.9307 -0.6940
# 4 8.4966 19.0007 8.7204 31.1376 14.9667 11.0380
# 5 11.0090 -4.4366 28.9307 14.9667 49.7083 6.9165
# 6 7.7390 5.1975 -0.6940 11.0380 6.9165 25.7832
#
#
#
# Elastic Compliance Matrix: (Units=1/GPa)
#
#
# Indices 1 2 3 4 5 6 
#
# 1 0.015161 -0.002226 -0.002054 -0.000021 -0.001846 -0.003653
# 2 -0.002226 0.020543 0.007527 -0.016282 0.002424 0.003050
# 3 -0.002054 0.007527 0.021586 -0.007188 -0.010030 0.005448
# 4 -0.000021 -0.016282 -0.007188 0.055954 -0.011645 -0.017736
# 5 -0.001846 0.002424 -0.010030 -0.011645 0.030562 -0.003418
# 6 -0.003653 0.003050 0.005448 -0.017736 -0.003418 0.047923
#
#
# Mechanical properties :
#
#
# Convention : Reuss Voigt Hill
#
# Bulk Modulus (GPa) = 15.67808 23.22656 19.45232
# Shear Modulus (GPa) = 24.21352 35.88591 30.04972
#
# Velocity S-wave (km/s) = 3.07586 3.74455 3.42656
# Velocity P-wave (km/s) = 4.32903 5.26981 4.82241
#
# Compressibility (1/GPa) = 0.06378332
#
# Stress axis : x y z
#
# Youngs Moduli (GPa) = 65.96083 48.67850 46.32608
#
# Poissons Ratio (x) = 0.10837 0.09515
# Poissons Ratio (y) = 0.14684 -0.34870
# Poissons Ratio (z) = 0.13548 -0.36640
#
# Static dielectric constant tensor:
#      x y z
#    x 2.033080 -0.058260 0.103240 
#    y -0.058260 2.063820 -0.053680 
#    z 0.103240 -0.053680 1.981300 
# 
# From -- ./inp_files/324034.got.cif
#   From: 2010.05.17/outbox.cif.g08.bks.cpg/sg2_163_cif.got.tgz:324034.got - 2010.06.03 11:33:40.
