data_PCOD9111418
_publ_section_title
;
Structure prediction by ZEFSAII (Michael W. Deem and Ramdas Pophale) SiO2 
 PCOD9111418
Probable space group: P -1
;
_chemical_formula_sum "Si O2"
_cell_formula_units_Z 11
_cell_length_a 10.124925
_cell_length_b 9.851954
_cell_length_c 7.215649
_cell_angle_alpha 72.590622
_cell_angle_beta 122.853983
_cell_angle_gamma 138.160904
_cell_volume 396.179658
_symmetry_space_group_name_H-M "P -1"
_symmetry_group_IT_number 2
_symmetry_cell_setting 'triclinic'
loop_
_space_group_symop_operation_xyz
x,y,z
-x,-y,-z
loop_
_atom_site_type_symbol
_atom_site_label
_atom_site_fract_x
_atom_site_fract_y
_atom_site_fract_z
Si Si1 0.465590 0.558828 0.144145
Si Si2 0.265190 0.159386 0.281206
Si Si3 0.000000 0.500000 0.500000
Si Si4 0.323803 0.037020 0.982234
Si Si5 0.641654 0.199942 0.657404
Si Si6 0.957573 0.793811 0.475843
O O1 0.276588 0.336794 0.188222
O O2 0.707359 0.687395 0.375634
O O3 0.462228 0.723548 0.023234
O O4 0.500000 0.500000 0.000000
O O5 0.497353 0.250846 0.519451
O O6 0.063162 0.963364 0.328659
O O7 0.260553 0.076677 0.110651
O O8 0.119945 0.620210 0.336939
O O9 0.947545 0.631701 0.447994
O O10 0.133512 0.908794 0.731905
O O11 0.362200 0.897874 0.121911
O O12 0.500000 0.000000 0.500000
#
# Coordination Sequence:
#
# PCOD9111418 Si02
#       6
#     2   2   1   2   2   2
#     4  10  23  44  68  90 131 172 206 265 321 378
#     4  10  22  45  65  92 134 166 209 262 317 380
#     4  12  22  40  70  90 130 174 204 260 330 362
#     4  10  23  41  66  96 129 164 215 264 308 380
#     4  10  20  43  62  94 130 163 211 260 312 374
#     4  12  24  41  67  96 127 169 216 261 317 375
#
# _framework density 27.765179
#
# number of rings (size 3 to 8) (size 9 to 14) (size 15 to 20)
#    0.000    1.455    5.455    0.545    0.000    5.091 
#    0.000    3.636    0.000    0.000    0.000    0.000 
#    0.000    0.000    0.000    0.000    0.000    0.000 
#
# Total GULP energy -61399.131944 kJ/mol
# GULP energy per Si atom -5581.739268 kJ/mol
# Density = 2.770198 g / cm^3
# Si number density = 27.765179 Si / 1000 Ang^3
#
#
#
# Elastic Constant Matrix: (Units=GPa)
#
#
# Indices 1 2 3 4 5 6 
#
# 1 122.7068 58.4617 23.2366 -18.5824 -3.1002 -25.6686
# 2 58.4617 204.5687 59.5913 -62.8332 9.8361 -2.1316
# 3 23.2366 59.5913 146.2587 -27.1305 -6.7000 2.7606
# 4 -18.5824 -62.8332 -27.1305 60.2007 -0.0569 0.9599
# 5 -3.1002 9.8361 -6.7000 -0.0569 25.5683 -10.3048
# 6 -25.6686 -2.1316 2.7606 0.9599 -10.3048 46.1484
#
#
#
# Elastic Compliance Matrix: (Units=1/GPa)
#
#
# Indices 1 2 3 4 5 6 
#
# 1 0.011561 -0.003509 -0.000357 -0.000370 0.005709 0.007572
# 2 -0.003509 0.008976 -0.001914 0.007462 -0.005494 -0.002805
# 3 -0.000357 -0.001914 0.008089 0.001543 0.002739 -0.000191
# 4 -0.000370 0.007462 0.001543 0.024995 -0.002908 -0.001123
# 5 0.005709 -0.005494 0.002739 -0.002908 0.048092 0.013557
# 6 0.007572 -0.002805 -0.000191 -0.001123 0.013557 0.028814
#
#
# Mechanical properties :
#
#
# Convention : Reuss Voigt Hill
#
# Bulk Modulus (GPa) = 58.59896 84.01259 71.30577
# Shear Modulus (GPa) = 33.83489 48.53313 41.18401
#
# Velocity S-wave (km/s) = 3.49464 4.18543 3.85554
# Velocity P-wave (km/s) = 6.11837 7.32673 6.74965
#
# Compressibility (1/GPa) = 0.01706515
#
# Stress axis : x y z
#
# Youngs Moduli (GPa) = 86.49534 111.41286 123.62277
#
# Poissons Ratio (x) = 0.39099 0.04414
# Poissons Ratio (y) = 0.30355 0.23662
# Poissons Ratio (z) = 0.03088 0.21325
#
# Static dielectric constant tensor:
#      x y z
#    x 2.208310 -0.015710 0.029690 
#    y -0.015710 2.132940 0.023560 
#    z 0.029690 0.023560 2.291820 
# 
# From -- ./inp_files/300448.got.cif
#   From: 2010.05.17/outbox.cif.g08.bks.cpg/sg2_151_cif.got.tgz:300448.got - 2010.06.03 11:33:40.
