data_PCOD9111571
_publ_section_title
;
Structure prediction by ZEFSAII (Michael W. Deem and Ramdas Pophale) SiO2 
 PCOD9111571
Probable space group: P -1
;
_chemical_formula_sum "Si O2"
_cell_formula_units_Z 14
_cell_length_a 12.417123
_cell_length_b 10.570882
_cell_length_c 11.494268
_cell_angle_alpha 124.644115
_cell_angle_beta 128.756058
_cell_angle_gamma 30.852235
_cell_volume 601.538289
_symmetry_space_group_name_H-M "P -1"
_symmetry_group_IT_number 2
_symmetry_cell_setting 'triclinic'
loop_
_space_group_symop_operation_xyz
x,y,z
-x,-y,-z
loop_
_atom_site_type_symbol
_atom_site_label
_atom_site_fract_x
_atom_site_fract_y
_atom_site_fract_z
Si Si1 0.869641 0.039407 0.624124
Si Si2 0.624729 0.958241 0.453668
Si Si3 0.148040 0.005452 0.675078
Si Si4 0.217280 0.384694 0.808242
Si Si5 0.301108 0.077821 0.010835
Si Si6 0.804364 0.562375 0.728191
Si Si7 0.944441 0.177239 0.959881
O O1 0.810769 0.926741 0.580936
O O2 0.819974 0.206364 0.780307
O O3 0.115451 0.881810 0.667024
O O4 0.776322 0.098937 0.458631
O O5 0.426420 0.210509 0.375566
O O6 0.500000 0.000000 0.500000
O O7 0.736827 0.713901 0.341159
O O8 0.284937 0.011400 0.840585
O O9 0.903779 0.304272 0.666560
O O10 0.999541 0.482621 0.751560
O O11 0.188503 0.584101 0.929461
O O12 0.445466 0.141159 0.897051
O O13 0.151580 0.095032 0.001845
O O14 0.218055 0.324981 0.106421
O O15 0.000000 0.000000 0.000000
#
# Coordination Sequence:
#
# PCOD9111571 Si02
#       7
#     2   2   2   2   2   2   2
#     4  10  23  43  63  97 131 171 211 273 326 377
#     4  11  25  43  66  97 131 171 224 263 326 391
#     4  10  20  43  66  93 138 167 218 269 325 384
#     4  10  22  43  63  94 129 171 216 261 329 375
#     4   9  21  40  64  97 125 174 217 265 325 386
#     4  10  21  40  66  97 126 175 216 266 324 383
#     4  10  23  42  66  92 131 170 221 268 320 391
#
# _framework density 23.273664
#
# number of rings (size 3 to 8) (size 9 to 14) (size 15 to 20)
#    0.000    2.000    1.429    0.429    6.000    3.429 
#   15.429    0.000    0.000    0.000    0.000    0.000 
#    0.000    0.000    0.000    0.000    0.000    0.000 
#
# Total GULP energy -77985.029776 kJ/mol
# GULP energy per Si atom -5570.359270 kJ/mol
# Density = 2.322069 g / cm^3
# Si number density = 23.273664 Si / 1000 Ang^3
#
#
#
# Elastic Constant Matrix: (Units=GPa)
#
#
# Indices 1 2 3 4 5 6 
#
# 1 135.3323 24.9277 69.8611 29.0186 8.5078 -9.5521
# 2 24.9277 80.6453 34.3956 19.7493 7.6396 -3.9336
# 3 69.8611 34.3956 158.0557 48.0156 13.9418 -15.5917
# 4 29.0186 19.7493 48.0156 35.2814 -0.2126 -4.5311
# 5 8.5078 7.6396 13.9418 -0.2126 16.8389 5.0948
# 6 -9.5521 -3.9336 -15.5917 -4.5311 5.0948 24.4359
#
#
#
# Elastic Compliance Matrix: (Units=1/GPa)
#
#
# Indices 1 2 3 4 5 6 
#
# 1 0.010082 -0.000555 -0.002500 -0.004319 -0.003486 0.002182
# 2 -0.000555 0.015329 0.000419 -0.008407 -0.007917 0.002610
# 3 -0.002500 0.000419 0.014463 -0.016915 -0.013537 0.008004
# 4 -0.004319 -0.008407 -0.016915 0.058766 0.023088 -0.007752
# 5 -0.003486 -0.007917 -0.013537 0.023088 0.083631 -0.024430
# 6 0.002182 0.002610 0.008004 -0.007752 -0.024430 0.050960
#
#
# Mechanical properties :
#
#
# Convention : Reuss Voigt Hill
#
# Bulk Modulus (GPa) = 28.90110 70.26691 49.58400
# Shear Modulus (GPa) = 19.99708 31.63451 25.81580
#
# Velocity S-wave (km/s) = 2.93442 3.69079 3.33412
# Velocity P-wave (km/s) = 4.89142 6.95843 6.01439
#
# Compressibility (1/GPa) = 0.03460076
#
# Stress axis : x y z
#
# Youngs Moduli (GPa) = 99.19108 65.23650 69.14160
#
# Poissons Ratio (x) = 0.03624 0.17288
# Poissons Ratio (y) = 0.05510 -0.02900
# Poissons Ratio (z) = 0.24801 -0.02736
#
# Static dielectric constant tensor:
#      x y z
#    x 1.931290 0.042650 -0.018470 
#    y 0.042650 1.920330 0.010060 
#    z -0.018470 0.010060 1.948030 
# 
# From -- ./inp_files/69947.got.cif
#   From: 2010.05.17/outbox.cif.g08.bks.cpg/sg2_35_cif.got.tgz:69947.got - 2010.06.03 11:33:40.
