data_PCOD9111621
_publ_section_title
;
Structure prediction by ZEFSAII (Michael W. Deem and Ramdas Pophale) SiO2 
 PCOD9111621
Probable space group: P -1
;
_chemical_formula_sum "Si O2"
_cell_formula_units_Z 14
_cell_length_a 15.438026
_cell_length_b 9.240529
_cell_length_c 7.780536
_cell_angle_alpha 88.269557
_cell_angle_beta 34.443284
_cell_angle_gamma 88.193611
_cell_volume 627.439858
_symmetry_space_group_name_H-M "P -1"
_symmetry_group_IT_number 2
_symmetry_cell_setting 'triclinic'
loop_
_space_group_symop_operation_xyz
x,y,z
-x,-y,-z
loop_
_atom_site_type_symbol
_atom_site_label
_atom_site_fract_x
_atom_site_fract_y
_atom_site_fract_z
Si Si1 0.434343 0.224143 0.274811
Si Si2 0.865089 0.247680 0.036279
Si Si3 0.138235 0.415249 0.668317
Si Si4 0.167367 0.935454 0.228589
Si Si5 0.743515 0.279439 0.611815
Si Si6 0.424186 0.653602 0.614126
Si Si7 0.518057 0.934628 0.281515
O O1 0.276841 0.316503 0.524135
O O2 0.530229 0.274826 0.283168
O O3 0.303049 0.043191 0.053503
O O4 0.421457 0.049432 0.319312
O O5 0.821492 0.225507 0.307611
O O6 0.752440 0.371775 0.141971
O O7 0.817112 0.119755 0.991831
O O8 0.037694 0.299537 0.732976
O O9 0.220925 0.549897 0.438730
O O10 0.000000 0.500000 0.000000
O O11 0.181488 0.806893 0.348984
O O12 0.000000 0.000000 0.500000
O O13 0.560298 0.255417 0.920916
O O14 0.500000 0.500000 0.500000
O O15 0.479709 0.767547 0.376277
O O16 0.500000 0.000000 0.500000
#
# Coordination Sequence:
#
# PCOD9111621 Si02
#       7
#     2   2   2   2   2   2   2
#     4  10  20  43  67  92 141 177 220 285 336 395
#     4  11  23  44  65 101 130 176 231 271 345 399
#     4  10  22  39  65 103 138 174 223 284 346 394
#     4  11  24  45  64  98 140 176 224 281 339 402
#     4  10  22  43  68  94 137 176 228 282 327 406
#     4  11  21  40  72  99 128 178 230 268 334 410
#     4   9  19  41  67  89 133 179 218 276 331 396
#
# _framework density 22.312897
#
# number of rings (size 3 to 8) (size 9 to 14) (size 15 to 20)
#    0.000    1.714    4.286    2.143    0.000    6.857 
#    7.714    1.429    0.000    0.000    0.000    0.000 
#    0.000    0.000    0.000    0.000    0.000    0.000 
#
# Total GULP energy -78015.980869 kJ/mol
# GULP energy per Si atom -5572.570062 kJ/mol
# Density = 2.226211 g / cm^3
# Si number density = 22.312897 Si / 1000 Ang^3
#
#
#
# Elastic Constant Matrix: (Units=GPa)
#
#
# Indices 1 2 3 4 5 6 
#
# 1 126.5210 40.5922 53.3989 -3.3530 -13.1952 -12.5684
# 2 40.5922 119.2554 46.3937 -5.0091 -8.4648 -25.1410
# 3 53.3989 46.3937 99.7710 10.4138 -22.4687 -28.9860
# 4 -3.3530 -5.0091 10.4138 27.3472 -3.2267 -4.6800
# 5 -13.1952 -8.4648 -22.4687 -3.2267 51.6847 13.6331
# 6 -12.5684 -25.1410 -28.9860 -4.6800 13.6331 27.4600
#
#
#
# Elastic Compliance Matrix: (Units=1/GPa)
#
#
# Indices 1 2 3 4 5 6 
#
# 1 0.010860 -0.001823 -0.005905 0.002856 0.000840 -0.002862
# 2 -0.001823 0.012052 -0.002960 0.004390 -0.001804 0.008719
# 3 -0.005905 -0.002960 0.019542 -0.006194 0.002740 0.012799
# 4 0.002856 0.004390 -0.006194 0.041062 -0.000239 0.005905
# 5 0.000840 -0.001804 0.002740 -0.000239 0.023043 -0.009856
# 6 -0.002862 0.008719 0.012799 0.005905 -0.009856 0.062499
#
#
# Mechanical properties :
#
#
# Convention : Reuss Voigt Hill
#
# Bulk Modulus (GPa) = 47.44316 69.59078 58.51697
# Shear Modulus (GPa) = 25.32156 34.97591 30.14873
#
# Velocity S-wave (km/s) = 3.37239 3.96349 3.67983
# Velocity P-wave (km/s) = 6.03928 7.22509 6.65863
#
# Compressibility (1/GPa) = 0.02107786
#
# Stress axis : x y z
#
# Youngs Moduli (GPa) = 92.08118 82.97460 51.17221
#
# Poissons Ratio (x) = 0.15127 0.30218
# Poissons Ratio (y) = 0.16787 0.15146
# Poissons Ratio (z) = 0.54375 0.24558
#
# Static dielectric constant tensor:
#      x y z
#    x 1.896320 0.093530 0.042790 
#    y 0.093530 1.906680 0.036680 
#    z 0.042790 0.036680 1.976940 
# 
# From -- ./inp_files/222199.got.cif
#   From: 2010.05.17/outbox.cif.g08.bks.cpg/sg2_112_cif.got.tgz:222199.got - 2010.06.03 11:33:40.
