data_PCOD9111025
_publ_section_title
;
Structure prediction by ZEFSAII (Michael W. Deem and Ramdas Pophale) SiO2 
 PCOD9111025
Probable space group: P -1
;
_chemical_formula_sum "Si O2"
_cell_formula_units_Z 16
_cell_length_a 7.066827
_cell_length_b 14.152860
_cell_length_c 9.259990
_cell_angle_alpha 82.463293
_cell_angle_beta 69.275743
_cell_angle_gamma 112.064098
_cell_volume 764.613473
_symmetry_space_group_name_H-M "P -1"
_symmetry_group_IT_number 2
_symmetry_cell_setting 'triclinic'
loop_
_space_group_symop_operation_xyz
x,y,z
-x,-y,-z
loop_
_atom_site_type_symbol
_atom_site_label
_atom_site_fract_x
_atom_site_fract_y
_atom_site_fract_z
Si Si1 0.250869 0.182074 0.064215
Si Si2 0.162279 0.801295 0.435669
Si Si3 0.981681 0.497096 0.331472
Si Si4 0.046726 0.711540 0.776348
Si Si5 0.376297 0.206197 0.705196
Si Si6 0.815419 0.652999 0.352703
Si Si7 0.990064 0.036374 0.656577
Si Si8 0.224550 0.702803 0.045887
O O1 0.167458 0.268866 0.122069
O O2 0.512468 0.220122 0.025089
O O3 0.106217 0.067489 0.197757
O O4 0.239229 0.171005 0.897667
O O5 0.375996 0.782999 0.340512
O O6 0.164602 0.902460 0.333482
O O7 0.168645 0.806671 0.607035
O O8 0.923600 0.701843 0.469071
O O9 0.968119 0.390170 0.289251
O O10 0.000000 0.500000 0.500000
O O11 0.782070 0.534084 0.356147
O O12 0.178888 0.592494 0.164696
O O13 0.164305 0.702992 0.894326
O O14 0.384289 0.318876 0.637031
O O15 0.231854 0.122378 0.637627
O O16 0.035372 0.724502 0.177212
O O17 0.000000 0.000000 0.500000
#
# Coordination Sequence:
#
# PCOD9111025 Si02
#       8
#     2   2   2   2   2   2   2   2
#     4  12  24  44  66  94 132 171 213 269 323 378
#     4  11  23  42  67  95 128 172 217 259 323 383
#     4  10  20  42  68  92 134 172 207 267 323 376
#     4  12  23  40  69  94 133 172 209 273 319 370
#     4  11  23  43  69  90 129 173 211 262 328 380
#     4   9  20  42  63  93 129 162 212 264 303 390
#     4  11  26  43  64  99 130 164 221 270 314 383
#     4  10  23  39  65  96 129 165 215 259 318 382
#
# _framework density 20.925605999999998
#
# number of rings (size 3 to 8) (size 9 to 14) (size 15 to 20)
#    0.750    0.500    5.000    0.750    1.750    2.500 
#    0.000    1.875    0.000    0.000    0.000    0.000 
#    0.000    0.000    0.000    0.000    0.000    0.000 
#
# Total GULP energy -89080.146781 kJ/mol
# GULP energy per Si atom -5567.509174 kJ/mol
# Density = 2.087798 g / cm^3
# Si number density = 20.925606 Si / 1000 Ang^3
#
#
#
# Elastic Constant Matrix: (Units=GPa)
#
#
# Indices 1 2 3 4 5 6 
#
# 1 85.1779 23.9537 5.2215 13.1098 3.8455 -26.0043
# 2 23.9537 70.8167 11.7006 11.0677 0.2197 -20.7234
# 3 5.2215 11.7006 86.6967 15.9929 25.6899 2.6525
# 4 13.1098 11.0677 15.9929 35.5333 2.1424 -1.6501
# 5 3.8455 0.2197 25.6899 2.1424 32.4261 6.5483
# 6 -26.0043 -20.7234 2.6525 -1.6501 6.5483 30.0407
#
#
#
# Elastic Compliance Matrix: (Units=1/GPa)
#
#
# Indices 1 2 3 4 5 6 
#
# 1 0.017875 -0.000695 0.001415 -0.005914 -0.006049 0.015862
# 2 -0.000695 0.019024 -0.001899 -0.004178 -0.000818 0.012638
# 3 0.001415 -0.001899 0.016828 -0.006663 -0.013239 0.000949
# 4 -0.005914 -0.004178 -0.006663 0.034008 0.005106 -0.006658
# 5 -0.006049 -0.000818 -0.013239 0.005106 0.044554 -0.014063
# 6 0.015862 0.012638 0.000949 -0.006658 -0.014063 0.058354
#
#
# Mechanical properties :
#
#
# Convention : Reuss Voigt Hill
#
# Bulk Modulus (GPa) = 19.46685 36.04921 27.75803
# Shear Modulus (GPa) = 23.79560 33.05438 28.42499
#
# Velocity S-wave (km/s) = 3.37583 3.97875 3.68962
# Velocity P-wave (km/s) = 4.95157 6.19451 5.60758
#
# Compressibility (1/GPa) = 0.05136938
#
# Stress axis : x y z
#
# Youngs Moduli (GPa) = 55.94444 52.56589 59.42304
#
# Poissons Ratio (x) = 0.03654 -0.08410
# Poissons Ratio (y) = 0.03889 0.11285
# Poissons Ratio (z) = -0.07918 0.09983
#
# Static dielectric constant tensor:
#      x y z
#    x 1.750900 -0.024750 0.028940 
#    y -0.024750 1.815560 0.000460 
#    z 0.028940 0.000460 1.802780 
# 
# From -- ./inp_files/135103.got.cif
#   From: 2010.05.17/outbox.cif.g08.bks.cpg/sg2_68_cif.got.tgz:135103.got - 2010.06.03 11:33:40.
