data_PCOD9111523
_publ_section_title
;
Structure prediction by ZEFSAII (Michael W. Deem and Ramdas Pophale) SiO2 
 PCOD9111523
Probable space group: P -1
;
_chemical_formula_sum "Si O2"
_cell_formula_units_Z 16
_cell_length_a 15.127696
_cell_length_b 8.239900
_cell_length_c 8.889848
_cell_angle_alpha 129.565310
_cell_angle_beta 112.139013
_cell_angle_gamma 98.005093
_cell_volume 670.407203
_symmetry_space_group_name_H-M "P -1"
_symmetry_group_IT_number 2
_symmetry_cell_setting 'triclinic'
loop_
_space_group_symop_operation_xyz
x,y,z
-x,-y,-z
loop_
_atom_site_type_symbol
_atom_site_label
_atom_site_fract_x
_atom_site_fract_y
_atom_site_fract_z
Si Si1 0.723500 0.568869 0.027899
Si Si2 0.054817 0.226479 0.508109
Si Si3 0.644806 0.834822 0.910260
Si Si4 0.514980 0.817696 0.293381
Si Si5 0.056812 0.772632 0.267708
Si Si6 0.217712 0.592629 0.607180
Si Si7 0.734222 0.217242 0.576489
Si Si8 0.604342 0.552471 0.405109
O O1 0.701672 0.752030 0.024068
O O2 0.610477 0.399603 0.953234
O O3 0.732575 0.388050 0.807217
O O4 0.834135 0.688977 0.269169
O O5 0.100130 0.412652 0.508273
O O6 0.970949 0.238398 0.578615
O O7 0.014413 0.944202 0.272982
O O8 0.642533 0.706166 0.676120
O O9 0.512516 0.708351 0.790050
O O10 0.715591 0.130537 0.117966
O O11 0.570223 0.696752 0.354262
O O12 0.500000 0.000000 0.500000
O O13 0.605941 0.994671 0.333846
O O14 0.188568 0.888680 0.391210
O O15 0.000000 0.500000 0.000000
O O16 0.210981 0.626672 0.445525
O O17 0.296656 0.481176 0.604411
#
# Coordination Sequence:
#
# PCOD9111523 Si02
#       8
#     2   2   2   2   2   2   2   2
#     4  10  20  43  65  97 134 176 218 267 319 392
#     4  11  26  43  71 101 126 167 228 270 326 397
#     4  10  22  37  62  90 139 178 214 270 324 380
#     4   9  21  36  69  95 133 179 218 257 326 385
#     4  11  24  48  74  94 125 171 221 276 329 390
#     4  12  25  39  64 100 131 169 218 275 329 385
#     4  11  22  42  67  96 135 176 217 267 332 384
#     4  10  21  39  57  95 135 180 223 261 317 391
#
# _framework density 23.866094
#
# number of rings (size 3 to 8) (size 9 to 14) (size 15 to 20)
#    0.000    1.500    2.500    1.875    5.250    2.500 
#    0.000    3.750    0.000    0.000    0.000    0.000 
#    0.000    0.000    0.000    0.000    0.000    0.000 
#
# Total GULP energy -89601.919894 kJ/mol
# GULP energy per Si atom -5600.119993 kJ/mol
# Density = 2.381177 g / cm^3
# Si number density = 23.866094 Si / 1000 Ang^3
#
#
#
# Elastic Constant Matrix: (Units=GPa)
#
#
# Indices 1 2 3 4 5 6 
#
# 1 121.8603 20.8242 15.7309 19.4307 -12.2334 4.7432
# 2 20.8242 82.0966 7.1004 19.0668 -13.5278 22.6841
# 3 15.7309 7.1004 90.6362 10.6328 -19.7935 3.5443
# 4 19.4307 19.0668 10.6328 38.8340 -7.1301 5.7761
# 5 -12.2334 -13.5278 -19.7935 -7.1301 37.3523 4.6513
# 6 4.7432 22.6841 3.5443 5.7761 4.6513 42.2897
#
#
#
# Elastic Compliance Matrix: (Units=1/GPa)
#
#
# Indices 1 2 3 4 5 6 
#
# 1 0.009226 -0.001201 -0.000762 -0.003539 0.001508 -0.000009
# 2 -0.001201 0.017338 0.001331 -0.005680 0.006657 -0.009233
# 3 -0.000762 0.001331 0.012918 -0.002215 0.006926 -0.002171
# 4 -0.003539 -0.005680 -0.002215 0.031354 0.001699 -0.000840
# 5 0.001508 0.006657 0.006926 0.001699 0.034714 -0.008370
# 6 -0.000009 -0.009233 -0.002171 -0.000840 -0.008370 0.029817
#
#
# Mechanical properties :
#
#
# Convention : Reuss Voigt Hill
#
# Bulk Modulus (GPa) = 26.16588 42.43380 34.29984
# Shear Modulus (GPa) = 33.47394 40.42438 36.94916
#
# Velocity S-wave (km/s) = 3.74916 4.12004 3.93897
# Velocity P-wave (km/s) = 5.45243 6.36016 5.92371
#
# Compressibility (1/GPa) = 0.03821771
#
# Stress axis : x y z
#
# Youngs Moduli (GPa) = 108.39040 57.67802 77.40973
#
# Poissons Ratio (x) = 0.06929 0.05900
# Poissons Ratio (y) = 0.13020 -0.10306
# Poissons Ratio (z) = 0.08262 -0.07679
#
# Static dielectric constant tensor:
#      x y z
#    x 1.881090 0.007310 0.001690 
#    y 0.007310 1.928270 0.023490 
#    z 0.001690 0.023490 1.934010 
# 
# From -- ./inp_files/299752.got.cif
#   From: 2010.05.17/outbox.cif.g08.bks.cpg/sg2_150_cif.got.tgz:299752.got - 2010.06.03 11:33:40.
