data_PCOD9111924
_publ_section_title
;
Structure prediction by ZEFSAII (Michael W. Deem and Ramdas Pophale) SiO2 
 PCOD9111924
Probable space group: P -1
;
_chemical_formula_sum "Si O2"
_cell_formula_units_Z 14
_cell_length_a 7.098319
_cell_length_b 19.372591
_cell_length_c 6.595970
_cell_angle_alpha 56.439976
_cell_angle_beta 115.683114
_cell_angle_gamma 107.175543
_cell_volume 679.284883
_symmetry_space_group_name_H-M "P -1"
_symmetry_group_IT_number 2
_symmetry_cell_setting 'triclinic'
loop_
_space_group_symop_operation_xyz
x,y,z
-x,-y,-z
loop_
_atom_site_type_symbol
_atom_site_label
_atom_site_fract_x
_atom_site_fract_y
_atom_site_fract_z
Si Si1 0.299067 0.256339 0.180438
Si Si2 0.874416 0.837680 0.366603
Si Si3 0.816328 0.468213 0.313516
Si Si4 0.633673 0.594449 0.729192
Si Si5 0.063134 0.318236 0.590138
Si Si6 0.545745 0.871632 0.836155
Si Si7 0.841966 0.026190 0.555297
O O1 0.174982 0.192807 0.379573
O O2 0.393922 0.330852 0.245000
O O3 0.451544 0.204362 0.198321
O O4 0.140271 0.294991 0.886342
O O5 0.988223 0.766762 0.416843
O O6 0.015255 0.923201 0.295290
O O7 0.654951 0.844729 0.136992
O O8 0.589954 0.453797 0.337252
O O9 0.000000 0.500000 0.500000
O O10 0.881868 0.379997 0.409261
O O11 0.781918 0.532137 0.012068
O O12 0.744416 0.634088 0.519163
O O13 0.323509 0.908921 0.701258
O O14 0.704017 0.946087 0.701388
O O15 0.000000 0.000000 0.500000
#
# Coordination Sequence:
#
# PCOD9111924 Si02
#       7
#     2   2   2   2   2   2   2
#     4  10  20  44  60  90 130 156 210 254 296 374
#     4  10  22  42  63  91 127 164 204 252 306 363
#     4  11  22  42  65  93 123 162 207 254 304 366
#     4  10  23  41  63  92 124 162 204 256 307 357
#     4  10  22  42  63  91 127 164 204 252 306 363
#     4  10  23  41  63  92 124 162 204 256 307 357
#     4  11  22  42  65  93 123 162 207 254 304 366
#
# _framework density 20.609908999999998
#
# number of rings (size 3 to 8) (size 9 to 14) (size 15 to 20)
#    0.000    1.714    2.857    0.857    2.000    1.143 
#   12.857    0.000    0.000    0.000    0.000    0.000 
#    0.000    0.000    0.000    0.000    0.000    0.000 
#
# Total GULP energy -78205.155942 kJ/mol
# GULP energy per Si atom -5586.082567 kJ/mol
# Density = 2.056300 g / cm^3
# Si number density = 20.609909 Si / 1000 Ang^3
#
#
#
# Elastic Constant Matrix: (Units=GPa)
#
#
# Indices 1 2 3 4 5 6 
#
# 1 80.5531 22.0232 49.4081 3.4972 14.8243 -12.7319
# 2 22.0232 51.4639 32.1150 -5.7437 18.1051 -16.1000
# 3 49.4081 32.1150 119.2191 -7.9285 3.2528 -7.5452
# 4 3.4972 -5.7437 -7.9285 29.0208 -1.4301 8.7353
# 5 14.8243 18.1051 3.2528 -1.4301 28.2360 -6.6521
# 6 -12.7319 -16.1000 -7.5452 8.7353 -6.6521 29.0279
#
#
#
# Elastic Compliance Matrix: (Units=1/GPa)
#
#
# Indices 1 2 3 4 5 6 
#
# 1 0.020570 0.001452 -0.008665 -0.007319 -0.009302 0.007646
# 2 0.001452 0.035212 -0.008742 -0.000664 -0.019138 0.013709
# 3 -0.008665 -0.008742 0.014158 0.004977 0.007666 -0.004710
# 4 -0.007319 -0.000664 0.004977 0.040914 0.002461 -0.014032
# 5 -0.009302 -0.019138 0.007666 0.002461 0.051421 -0.001658
# 6 0.007646 0.013709 -0.004710 -0.014032 -0.001658 0.048025
#
#
# Mechanical properties :
#
#
# Convention : Reuss Voigt Hill
#
# Bulk Modulus (GPa) = 26.29452 50.92541 38.60996
# Shear Modulus (GPa) = 19.61670 27.10294 23.35982
#
# Velocity S-wave (km/s) = 3.08849 3.63029 3.37029
# Velocity P-wave (km/s) = 5.05017 6.50652 5.82405
#
# Compressibility (1/GPa) = 0.03803074
#
# Stress axis : x y z
#
# Youngs Moduli (GPa) = 48.61436 28.39960 70.63375
#
# Poissons Ratio (x) = -0.04124 0.61205
# Poissons Ratio (y) = -0.07060 0.61745
# Poissons Ratio (z) = 0.42125 0.24826
#
# Static dielectric constant tensor:
#      x y z
#    x 1.710860 -0.000050 0.003810 
#    y -0.000050 1.772210 -0.010850 
#    z 0.003810 -0.010850 1.719380 
# 
# From -- ./inp_files/6344.got.cif
#   From: 2010.05.17/outbox.cif.g08.bks.cpg/sg2_4_cif.got.tgz:6344.got - 2010.06.03 11:33:40.
