data_PCOD9111384
_publ_section_title
;
Structure prediction by ZEFSAII (Michael W. Deem and Ramdas Pophale) SiO2 
 PCOD9111384
Probable space group: P -1
;
_chemical_formula_sum "Si O2"
_cell_formula_units_Z 15
_cell_length_a 12.888022
_cell_length_b 16.550167
_cell_length_c 9.442945
_cell_angle_alpha 52.383508
_cell_angle_beta 144.040786
_cell_angle_gamma 148.517860
_cell_volume 596.322842
_symmetry_space_group_name_H-M "P -1"
_symmetry_group_IT_number 2
_symmetry_cell_setting 'triclinic'
loop_
_space_group_symop_operation_xyz
x,y,z
-x,-y,-z
loop_
_atom_site_type_symbol
_atom_site_label
_atom_site_fract_x
_atom_site_fract_y
_atom_site_fract_z
Si Si1 0.893941 0.189302 0.268086
Si Si2 0.000000 0.000000 0.500000
Si Si3 0.466734 0.956614 0.249813
Si Si4 0.366908 0.268072 0.059959
Si Si5 0.742004 0.335873 0.602068
Si Si6 0.056075 0.936223 0.939783
Si Si7 0.650645 0.487462 0.884678
Si Si8 0.406362 0.573133 0.420514
O O1 0.150605 0.379407 0.344554
O O2 0.938291 0.089426 0.395383
O O3 0.748811 0.132763 0.321344
O O4 0.693004 0.136437 0.975642
O O5 0.063832 0.077226 0.328307
O O6 0.483744 0.855707 0.450428
O O7 0.278722 0.947979 0.140513
O O8 0.662611 0.372857 0.345697
O O9 0.227695 0.109347 0.001330
O O10 0.441031 0.379742 0.898443
O O11 0.160630 0.198481 0.036852
O O12 0.685884 0.374948 0.640471
O O13 0.044947 0.420466 0.844703
O O14 0.644959 0.603872 0.710258
O O15 0.550580 0.380824 0.746736
#
# Coordination Sequence:
#
# PCOD9111384 Si02
#       8
#     2   1   2   2   2   2   2   2
#     4  10  21  41  69 113 134 183 232 313 356 412
#     4  10  20  42  78 102 140 174 248 294 358 412
#     4  10  23  40  71 101 146 177 243 296 359 422
#     4  11  26  46  71 106 150 193 239 295 373 434
#     4  12  26  46  71 108 147 193 237 301 363 447
#     4  10  24  46  74 108 141 192 243 303 357 437
#     4  11  26  47  70 106 143 193 242 298 362 433
#     4  11  26  46  78 104 146 188 250 303 358 427
#
# _framework density 25.154159
#
# number of rings (size 3 to 8) (size 9 to 14) (size 15 to 20)
#    0.000    1.333    1.333    2.400    3.733    8.533 
#    2.400    0.000    0.000    0.000    0.000    0.000 
#    0.000    0.000    0.000    0.000    0.000    0.000 
#
# Total GULP energy -83769.872129 kJ/mol
# GULP energy per Si atom -5584.658142 kJ/mol
# Density = 2.509691 g / cm^3
# Si number density = 25.154159 Si / 1000 Ang^3
#
#
#
# Elastic Constant Matrix: (Units=GPa)
#
#
# Indices 1 2 3 4 5 6 
#
# 1 136.8629 57.1977 30.3561 -11.6080 -0.5049 34.8627
# 2 57.1977 77.9357 30.8897 -17.8936 1.5388 35.4934
# 3 30.3561 30.8897 78.9502 -8.6869 -6.7865 22.6951
# 4 -11.6080 -17.8936 -8.6869 44.1905 10.6531 -3.7572
# 5 -0.5049 1.5388 -6.7865 10.6531 41.6317 -4.8579
# 6 34.8627 35.4934 22.6951 -3.7572 -4.8579 42.8466
#
#
#
# Elastic Compliance Matrix: (Units=1/GPa)
#
#
# Indices 1 2 3 4 5 6 
#
# 1 0.010917 -0.006153 -0.000842 -0.000036 -0.000160 -0.003361
# 2 -0.006153 0.028598 -0.003521 0.009307 -0.006034 -0.016686
# 3 -0.000842 -0.003521 0.015915 0.000606 0.002029 -0.004545
# 4 -0.000036 0.009307 0.000606 0.027921 -0.008146 -0.006477
# 5 -0.000160 -0.006034 0.002029 -0.008146 0.027409 0.006448
# 6 -0.003361 -0.016686 -0.004545 -0.006477 0.006448 0.042467
#
#
# Mechanical properties :
#
#
# Convention : Reuss Voigt Hill
#
# Bulk Modulus (GPa) = 29.07117 58.95955 44.01536
# Shear Modulus (GPa) = 26.92150 37.42078 32.17114
#
# Velocity S-wave (km/s) = 3.27503 3.86120 3.58013
# Velocity P-wave (km/s) = 5.08757 6.58549 5.88439
#
# Compressibility (1/GPa) = 0.03439834
#
# Stress axis : x y z
#
# Youngs Moduli (GPa) = 91.59753 34.96777 62.83317
#
# Poissons Ratio (x) = 0.21516 0.05289
# Poissons Ratio (y) = 0.56360 0.22125
# Poissons Ratio (z) = 0.07710 0.12313
#
# Static dielectric constant tensor:
#      x y z
#    x 1.947600 0.035030 -0.019970 
#    y 0.035030 2.007500 0.064110 
#    z -0.019970 0.064110 2.035780 
# 
# From -- ./inp_files/279159.got.cif
#   From: 2010.05.17/outbox.cif.g08.bks.cpg/sg2_140_cif.got.tgz:279159.got - 2010.06.03 11:33:40.
