data_PCOD9111075
_publ_section_title
;
Structure prediction by ZEFSAII (Michael W. Deem and Ramdas Pophale) SiO2 
 PCOD9111075
Probable space group: P -1
;
_chemical_formula_sum "Si O2"
_cell_formula_units_Z 14
_cell_length_a 10.736093
_cell_length_b 8.398727
_cell_length_c 13.020652
_cell_angle_alpha 150.624233
_cell_angle_beta 122.326082
_cell_angle_gamma 65.131997
_cell_volume 483.729048
_symmetry_space_group_name_H-M "P -1"
_symmetry_group_IT_number 2
_symmetry_cell_setting 'triclinic'
loop_
_space_group_symop_operation_xyz
x,y,z
-x,-y,-z
loop_
_atom_site_type_symbol
_atom_site_label
_atom_site_fract_x
_atom_site_fract_y
_atom_site_fract_z
Si Si1 0.106204 0.319556 0.071804
Si Si2 0.461217 0.346582 0.763176
Si Si3 0.626625 0.958119 0.863911
Si Si4 0.807350 0.511779 0.991776
Si Si5 0.898762 0.167159 0.418177
Si Si6 0.635412 0.510057 0.421440
Si Si7 0.195200 0.964483 0.502040
O O1 0.215792 0.086771 0.040590
O O2 0.180349 0.653368 0.224873
O O3 0.129641 0.635377 0.359685
O O4 0.927445 0.306214 0.983639
O O5 0.635988 0.399095 0.867076
O O6 0.400273 0.333476 0.613034
O O7 0.369940 0.054793 0.618137
O O8 0.401864 0.675803 0.962698
O O9 0.622580 0.754923 0.645221
O O10 0.491861 0.791684 0.782235
O O11 0.879347 0.840200 0.136925
O O12 0.818862 0.849118 0.276886
O O13 0.797431 0.389967 0.434708
O O14 0.076523 0.178500 0.515357
#
# Coordination Sequence:
#
# PCOD9111075 Si02
#       7
#     2   2   2   2   2   2   2
#     4  10  20  42  68  97 131 185 228 263 337 424
#     4  12  24  43  69 107 136 167 231 297 331 382
#     4  11  22  41  71 100 134 182 228 272 338 415
#     4  10  21  38  68  98 129 178 225 278 329 402
#     4  10  20  44  67  92 132 191 218 265 349 422
#     4  11  22  40  72  97 137 182 222 276 344 408
#     4  10  24  41  68  97 137 174 229 280 337 403
#
# _framework density 28.941824
#
# number of rings (size 3 to 8) (size 9 to 14) (size 15 to 20)
#    0.000    1.429    4.286    1.286    0.000    1.714 
#    2.571    0.714    0.000    0.000    0.000    0.000 
#    0.000    0.000    0.000    0.000    0.000    0.000 
#
# Total GULP energy -78386.152956 kJ/mol
# GULP energy per Si atom -5599.010925 kJ/mol
# Density = 2.887595 g / cm^3
# Si number density = 28.941824 Si / 1000 Ang^3
#
#
#
# Elastic Constant Matrix: (Units=GPa)
#
#
# Indices 1 2 3 4 5 6 
#
# 1 155.2669 74.8333 54.0088 -23.4635 -13.8819 -39.9764
# 2 74.8333 144.1514 42.4449 -47.7622 20.2478 -47.8766
# 3 54.0088 42.4449 165.4921 -33.2366 -38.3766 -14.1871
# 4 -23.4635 -47.7622 -33.2366 57.5220 -3.5481 -7.6975
# 5 -13.8819 20.2478 -38.3766 -3.5481 68.9207 -26.0217
# 6 -39.9764 -47.8766 -14.1871 -7.6975 -26.0217 69.4929
#
#
#
# Elastic Compliance Matrix: (Units=1/GPa)
#
#
# Indices 1 2 3 4 5 6 
#
# 1 0.010538 -0.003312 -0.000365 0.002458 0.005265 0.005950
# 2 -0.003312 0.017392 0.000584 0.014988 -0.000237 0.011768
# 3 -0.000365 0.000584 0.009793 0.007270 0.007819 0.005925
# 4 0.002458 0.014988 0.007270 0.038509 0.010163 0.021295
# 5 0.005265 -0.000237 0.007819 0.010163 0.026352 0.015455
# 6 0.005950 0.011768 0.005925 0.021295 0.015455 0.035275
#
#
# Mechanical properties :
#
#
# Convention : Reuss Voigt Hill
#
# Bulk Modulus (GPa) = 31.70822 89.72048 60.71435
# Shear Modulus (GPa) = 32.35045 58.76203 45.55624
#
# Velocity S-wave (km/s) = 3.34694 4.51083 3.97175
# Velocity P-wave (km/s) = 5.09074 7.62874 6.48511
#
# Compressibility (1/GPa) = 0.03153756
#
# Stress axis : x y z
#
# Youngs Moduli (GPa) = 94.89632 57.49744 102.11375
#
# Poissons Ratio (x) = 0.19043 0.03725
# Poissons Ratio (y) = 0.31430 -0.05965
# Poissons Ratio (z) = 0.03462 -0.03359
#
# Static dielectric constant tensor:
#      x y z
#    x 2.412330 0.245590 -0.557160 
#    y 0.245590 2.067170 -0.150990 
#    z -0.557160 -0.150990 2.835790 
# 
# From -- ./inp_files/516499.got.cif
#   From: 2010.05.17/outbox.cif.g08.bks.cpg/sg2_259_cif.got.tgz:516499.got - 2010.06.03 11:33:40.
