data_PCOD9111108
_publ_section_title
;
Structure prediction by ZEFSAII (Michael W. Deem and Ramdas Pophale) SiO2 
 PCOD9111108
Probable space group: P -1
;
_chemical_formula_sum "Si O2"
_cell_formula_units_Z 16
_cell_length_a 21.507584
_cell_length_b 8.514755
_cell_length_c 9.629400
_cell_angle_alpha 30.395732
_cell_angle_beta 131.698409
_cell_angle_gamma 129.152164
_cell_volume 658.415427
_symmetry_space_group_name_H-M "P -1"
_symmetry_group_IT_number 2
_symmetry_cell_setting 'triclinic'
loop_
_space_group_symop_operation_xyz
x,y,z
-x,-y,-z
loop_
_atom_site_type_symbol
_atom_site_label
_atom_site_fract_x
_atom_site_fract_y
_atom_site_fract_z
Si Si1 0.150845 0.706652 0.854699
Si Si2 0.624699 0.352421 0.217309
Si Si3 0.432702 0.195034 0.999588
Si Si4 0.020745 0.648130 0.070991
Si Si5 0.731479 0.828288 0.857214
Si Si6 0.415622 0.508774 0.453055
Si Si7 0.873883 0.809577 0.307385
Si Si8 0.239041 0.158851 0.414585
O O1 0.062183 0.483087 0.866341
O O2 0.136236 0.978268 0.733928
O O3 0.196528 0.870825 0.662620
O O4 0.207099 0.470669 0.187611
O O5 0.529559 0.176818 0.194665
O O6 0.680899 0.124127 0.549406
O O7 0.614612 0.662377 0.055096
O O8 0.666065 0.501593 0.022426
O O9 0.391214 0.855391 0.144789
O O10 0.434485 0.444076 0.689765
O O11 0.100576 0.513815 0.355371
O O12 0.000000 0.500000 0.000000
O O13 0.047798 0.012212 0.802237
O O14 0.783112 0.858268 0.767560
O O15 0.792611 0.801841 0.097434
O O16 0.500000 0.500000 0.500000
O O17 0.340115 0.238672 0.504183
#
# Coordination Sequence:
#
# PCOD9111108 Si02
#       8
#     2   2   2   2   2   2   2   2
#     4  11  23  42  69  97 132 170 226 279 322 396
#     4  11  24  43  67  92 134 173 223 291 334 386
#     4  11  24  42  67  96 121 176 240 274 332 397
#     4  10  20  42  69 102 132 172 219 278 329 397
#     4  12  26  44  65  96 143 175 218 275 348 395
#     4  12  25  42  66  93 137 178 230 270 337 399
#     4  11  23  41  71 100 130 178 225 264 339 403
#     4  12  26  42  64 100 137 177 221 276 343 389
#
# _framework density 24.300764999999998
#
# number of rings (size 3 to 8) (size 9 to 14) (size 15 to 20)
#    0.000    0.750    0.000    9.375    5.250    2.000 
#    0.000    3.750    0.000    0.000    0.000    0.000 
#    0.000    0.000    0.000    0.000    0.000    0.000 
#
# Total GULP energy -89585.986229 kJ/mol
# GULP energy per Si atom -5599.124139 kJ/mol
# Density = 2.424546 g / cm^3
# Si number density = 24.300765 Si / 1000 Ang^3
#
#
#
# Elastic Constant Matrix: (Units=GPa)
#
#
# Indices 1 2 3 4 5 6 
#
# 1 108.0480 21.8550 33.9303 -3.4519 -19.7683 20.0337
# 2 21.8550 44.9691 9.7591 -4.1305 -6.3725 12.2426
# 3 33.9303 9.7591 129.8033 -8.1405 -14.4452 12.9462
# 4 -3.4519 -4.1305 -8.1405 41.2110 4.6130 1.7659
# 5 -19.7683 -6.3725 -14.4452 4.6130 41.8554 -1.0922
# 6 20.0337 12.2426 12.9462 1.7659 -1.0922 33.6725
#
#
#
# Elastic Compliance Matrix: (Units=1/GPa)
#
#
# Indices 1 2 3 4 5 6 
#
# 1 0.012365 -0.003540 -0.001949 0.000015 0.004492 -0.005175
# 2 -0.003540 0.026521 0.000061 0.002486 0.001914 -0.007628
# 3 -0.001949 0.000061 0.008733 0.001453 0.001884 -0.002235
# 4 0.000015 0.002486 0.001453 0.025144 -0.001959 -0.002854
# 5 0.004492 0.001914 0.001884 -0.001959 0.027090 -0.003111
# 6 -0.005175 -0.007628 -0.002235 -0.002854 -0.003111 0.036459
#
#
# Mechanical properties :
#
#
# Convention : Reuss Voigt Hill
#
# Bulk Modulus (GPa) = 27.20101 45.98991 36.59546
# Shear Modulus (GPa) = 31.36358 37.83285 34.59821
#
# Velocity S-wave (km/s) = 3.59645 3.94998 3.77735
# Velocity P-wave (km/s) = 5.33514 6.30631 5.84094
#
# Compressibility (1/GPa) = 0.03676334
#
# Stress axis : x y z
#
# Youngs Moduli (GPa) = 80.87306 37.70613 114.51396
#
# Poissons Ratio (x) = 0.13346 0.22320
# Poissons Ratio (y) = 0.28625 -0.00699
# Poissons Ratio (z) = 0.15763 -0.00230
#
# Static dielectric constant tensor:
#      x y z
#    x 2.008850 0.014190 0.011010 
#    y 0.014190 1.959650 0.009100 
#    z 0.011010 0.009100 1.868350 
# 
# From -- ./inp_files/351980.got.cif
#   From: 2010.05.17/outbox.cif.g08.bks.cpg/sg2_176_cif.got.tgz:351980.got - 2010.06.03 11:33:40.
