data_PCOD9111541
_publ_section_title
;
Structure prediction by ZEFSAII (Michael W. Deem and Ramdas Pophale) SiO2 
 PCOD9111541
Probable space group: P -1
;
_chemical_formula_sum "Si O2"
_cell_formula_units_Z 16
_cell_length_a 12.460912
_cell_length_b 12.174127
_cell_length_c 11.550414
_cell_angle_alpha 75.497310
_cell_angle_beta 76.239191
_cell_angle_gamma 141.558790
_cell_volume 730.728125
_symmetry_space_group_name_H-M "P -1"
_symmetry_group_IT_number 2
_symmetry_cell_setting 'triclinic'
loop_
_space_group_symop_operation_xyz
x,y,z
-x,-y,-z
loop_
_atom_site_type_symbol
_atom_site_label
_atom_site_fract_x
_atom_site_fract_y
_atom_site_fract_z
Si Si1 0.271628 0.211411 0.517262
Si Si2 0.190118 0.336835 0.142170
Si Si3 0.846271 0.063764 0.969036
Si Si4 0.246488 0.651160 0.390934
Si Si5 0.228485 0.783691 0.917758
Si Si6 0.374426 0.732173 0.070191
Si Si7 0.753983 0.584820 0.415554
Si Si8 0.393168 0.388481 0.874752
O O1 0.466399 0.347187 0.527251
O O2 0.157711 0.228420 0.578432
O O3 0.431578 0.379177 0.317052
O O4 0.050070 0.919037 0.655149
O O5 0.227229 0.504753 0.091523
O O6 0.421816 0.500147 0.111071
O O7 0.206199 0.293635 0.023264
O O8 0.099825 0.278156 0.778818
O O9 0.859001 0.170542 0.036305
O O10 0.656656 0.946251 0.953934
O O11 0.738078 0.841148 0.090319
O O12 0.283181 0.650308 0.247502
O O13 0.215609 0.507865 0.508626
O O14 0.000000 0.500000 0.500000
O O15 0.504776 0.951322 0.285173
O O16 0.321509 0.801735 0.003484
O O17 0.000000 0.500000 0.000000
#
# Coordination Sequence:
#
# PCOD9111541 Si02
#       8
#     2   2   2   2   2   2   2   2
#     4  11  23  39  60 101 139 167 217 272 337 392
#     4  10  21  40  63  95 135 167 224 270 323 403
#     4  10  20  43  66  88 129 177 223 257 331 411
#     4  11  23  46  71  92 128 180 229 272 332 405
#     4  11  24  41  67  97 127 167 226 288 333 388
#     4  10  22  42  66  93 126 176 220 269 333 402
#     4  11  23  39  64  96 129 172 218 274 328 398
#     4  10  21  40  66  93 125 184 215 265 330 402
#
# _framework density 21.895966000000001
#
# number of rings (size 3 to 8) (size 9 to 14) (size 15 to 20)
#    0.000    1.500    1.250    5.625    1.750    1.500 
#    6.750    1.250    0.000    0.000    0.000    0.000 
#    0.000    0.000    0.000    0.000    0.000    0.000 
#
# Total GULP energy -89391.697458 kJ/mol
# GULP energy per Si atom -5586.981091 kJ/mol
# Density = 2.184613 g / cm^3
# Si number density = 21.895966 Si / 1000 Ang^3
#
#
#
# Elastic Constant Matrix: (Units=GPa)
#
#
# Indices 1 2 3 4 5 6 
#
# 1 91.9628 14.7933 23.5082 -10.2354 -11.6321 -15.1353
# 2 14.7933 89.0858 18.0816 -18.7895 -14.2532 -19.3061
# 3 23.5082 18.0816 99.6844 -8.1786 -15.2385 -20.9743
# 4 -10.2354 -18.7895 -8.1786 33.0177 4.3189 5.3448
# 5 -11.6321 -14.2532 -15.2385 4.3189 25.1104 -6.4713
# 6 -15.1353 -19.3061 -20.9743 5.3448 -6.4713 27.3748
#
#
#
# Elastic Compliance Matrix: (Units=1/GPa)
#
#
# Indices 1 2 3 4 5 6 
#
# 1 0.013952 0.002431 0.000679 0.002497 0.010929 0.012045
# 2 0.002431 0.018798 0.003607 0.006689 0.018074 0.020331
# 3 0.000679 0.003607 0.015778 0.000965 0.016601 0.018744
# 4 0.002497 0.006689 0.000965 0.035207 -0.000559 -0.000168
# 5 0.010929 0.018074 0.016601 -0.000559 0.078232 0.050112
# 6 0.012045 0.020331 0.018744 -0.000168 0.050112 0.083769
#
#
# Mechanical properties :
#
#
# Convention : Reuss Voigt Hill
#
# Bulk Modulus (GPa) = 16.13922 43.72216 29.93069
# Shear Modulus (GPa) = 19.76619 32.05722 25.91171
#
# Velocity S-wave (km/s) = 3.00781 3.83047 3.44379
# Velocity P-wave (km/s) = 4.41015 6.29085 5.43250
#
# Compressibility (1/GPa) = 0.06196088
#
# Stress axis : x y z
#
# Youngs Moduli (GPa) = 71.67382 53.19686 63.37825
#
# Poissons Ratio (x) = -0.12932 -0.04301
# Poissons Ratio (y) = -0.17424 -0.22858
# Poissons Ratio (z) = -0.04864 -0.19186
#
# Static dielectric constant tensor:
#      x y z
#    x 1.800380 0.009870 -0.016560 
#    y 0.009870 1.864250 -0.025050 
#    z -0.016560 -0.025050 1.787380 
# 
# From -- ./inp_files/427994.got.cif
#   From: 2010.05.17/outbox.cif.g08.bks.cpg/sg2_214_cif.got.tgz:427994.got - 2010.06.03 11:33:40.
