data_PCOD9111581
_publ_section_title
;
Structure prediction by ZEFSAII (Michael W. Deem and Ramdas Pophale) SiO2 
 PCOD9111581
Probable space group: P -1
;
_chemical_formula_sum "Si O2"
_cell_formula_units_Z 16
_cell_length_a 21.631393
_cell_length_b 13.635304
_cell_length_c 8.867914
_cell_angle_alpha 120.271807
_cell_angle_beta 30.529648
_cell_angle_gamma 142.089425
_cell_volume 675.121977
_symmetry_space_group_name_H-M "P -1"
_symmetry_group_IT_number 2
_symmetry_cell_setting 'triclinic'
loop_
_space_group_symop_operation_xyz
x,y,z
-x,-y,-z
loop_
_atom_site_type_symbol
_atom_site_label
_atom_site_fract_x
_atom_site_fract_y
_atom_site_fract_z
Si Si1 0.397388 0.811252 0.635763
Si Si2 0.946837 0.765858 0.132356
Si Si3 0.641543 0.130670 0.942578
Si Si4 0.703257 0.427434 0.578376
Si Si5 0.961571 0.205819 0.386139
Si Si6 0.915311 0.490971 0.452792
Si Si7 0.779321 0.812504 0.097342
Si Si8 0.460401 0.428772 0.281559
O O1 0.426270 0.724869 0.403771
O O2 0.500000 0.000000 0.500000
O O3 0.460542 0.861762 0.716897
O O4 0.149874 0.642446 0.033173
O O5 0.907379 0.639143 0.239794
O O6 0.722217 0.654439 0.497152
O O7 0.993720 0.757268 0.858215
O O8 0.117530 0.987779 0.989250
O O9 0.729616 0.080571 0.790634
O O10 0.834091 0.340353 0.626746
O O11 0.500000 0.000000 0.000000
O O12 0.777187 0.390097 0.515136
O O13 0.577419 0.424785 0.933992
O O14 0.092941 0.392820 0.356520
O O15 0.030578 0.133686 0.238687
O O16 0.622805 0.644538 0.171299
O O17 0.651147 0.710905 0.445315
#
# Coordination Sequence:
#
# PCOD9111581 Si02
#       8
#     2   2   2   2   2   2   2   2
#     4  11  25  44  66 100 135 174 223 287 338 406
#     4  11  24  41  69  99 137 177 228 286 336 402
#     4  11  24  43  70 100 132 176 231 271 334 415
#     4  12  24  44  65  98 140 174 216 281 351 392
#     4  10  20  43  66  95 127 176 221 275 334 399
#     4  11  23  43  68  91 134 179 223 274 329 415
#     4  10  22  43  70  97 134 177 237 277 335 407
#     4  10  22  43  65 101 133 180 229 283 332 414
#
# _framework density 23.699421000000001
#
# number of rings (size 3 to 8) (size 9 to 14) (size 15 to 20)
#    0.000    1.250    1.250    6.000    0.000    7.500 
#    4.500    0.000    0.000    0.000    0.000    0.000 
#    0.000    0.000    0.000    0.000    0.000    0.000 
#
# Total GULP energy -89535.519655 kJ/mol
# GULP energy per Si atom -5595.969978 kJ/mol
# Density = 2.364548 g / cm^3
# Si number density = 23.699421 Si / 1000 Ang^3
#
#
#
# Elastic Constant Matrix: (Units=GPa)
#
#
# Indices 1 2 3 4 5 6 
#
# 1 59.6249 40.1226 21.1086 -3.0625 7.2646 13.7604
# 2 40.1226 153.5343 55.3505 0.8471 15.2426 16.0811
# 3 21.1086 55.3505 69.0484 10.6654 10.7928 6.5329
# 4 -3.0625 0.8471 10.6654 40.0810 1.6997 8.8424
# 5 7.2646 15.2426 10.7928 1.6997 22.5160 -5.8090
# 6 13.7604 16.0811 6.5329 8.8424 -5.8090 43.6366
#
#
#
# Elastic Compliance Matrix: (Units=1/GPa)
#
#
# Indices 1 2 3 4 5 6 
#
# 1 0.022849 -0.003500 -0.003336 0.004503 -0.005567 -0.007070
# 2 -0.003500 0.010526 -0.006887 0.002074 -0.003531 -0.002635
# 3 -0.003336 -0.006887 0.022574 -0.006120 -0.004397 0.000865
# 4 0.004503 0.002074 -0.006120 0.028734 -0.004061 -0.007631
# 5 -0.005567 -0.003531 -0.004397 -0.004061 0.054041 0.011732
# 6 -0.007070 -0.002635 0.000865 -0.007631 0.011732 0.029095
#
#
# Mechanical properties :
#
#
# Convention : Reuss Voigt Hill
#
# Bulk Modulus (GPa) = 35.08383 57.26345 46.17364
# Shear Modulus (GPa) = 24.41831 32.28845 28.35338
#
# Velocity S-wave (km/s) = 3.21336 3.69510 3.46262
# Velocity P-wave (km/s) = 5.34822 6.51305 5.95916
#
# Compressibility (1/GPa) = 0.02850316
#
# Stress axis : x y z
#
# Youngs Moduli (GPa) = 43.76579 95.00616 44.29956
#
# Poissons Ratio (x) = 0.33253 0.14777
# Poissons Ratio (y) = 0.15319 0.30507
# Poissons Ratio (z) = 0.14599 0.65427
#
# Static dielectric constant tensor:
#      x y z
#    x 1.923950 0.014400 -0.009310 
#    y 0.014400 1.929150 0.018150 
#    z -0.009310 0.018150 1.910130 
# 
# From -- ./inp_files/187349.got.cif
#   From: 2010.05.17/outbox.cif.g08.bks.cpg/sg2_94_cif.got.tgz:187349.got - 2010.06.03 11:33:40.
