data_PCOD9111385
_publ_section_title
;
Structure prediction by ZEFSAII (Michael W. Deem and Ramdas Pophale) SiO2 
 PCOD9111385
Probable space group: P -1
;
_chemical_formula_sum "Si O2"
_cell_formula_units_Z 13
_cell_length_a 17.149444
_cell_length_b 5.567277
_cell_length_c 10.771533
_cell_angle_alpha 112.338176
_cell_angle_beta 31.178956
_cell_angle_gamma 98.743908
_cell_volume 459.147967
_symmetry_space_group_name_H-M "P -1"
_symmetry_group_IT_number 2
_symmetry_cell_setting 'triclinic'
loop_
_space_group_symop_operation_xyz
x,y,z
-x,-y,-z
loop_
_atom_site_type_symbol
_atom_site_label
_atom_site_fract_x
_atom_site_fract_y
_atom_site_fract_z
Si Si1 0.593382 0.745081 0.061034
Si Si2 0.348935 0.863275 0.120018
Si Si3 0.402769 0.305492 0.549306
Si Si4 0.000000 0.500000 0.500000
Si Si5 0.813855 0.402983 0.885463
Si Si6 0.928114 0.114957 0.323164
Si Si7 0.857992 0.393490 0.213986
O O1 0.587549 0.900701 0.970114
O O2 0.493900 0.976248 0.342264
O O3 0.551640 0.467454 0.054059
O O4 0.774715 0.604844 0.849707
O O5 0.274111 0.801629 0.075564
O O6 0.220886 0.954865 0.426078
O O7 0.500000 0.500000 0.500000
O O8 0.314898 0.409919 0.559682
O O9 0.260086 0.397707 0.862107
O O10 0.000170 0.317289 0.601110
O O11 0.993481 0.235129 0.371286
O O12 0.858024 0.317841 0.342105
O O13 0.084137 0.884348 0.003446
O O14 0.000000 0.500000 0.000000
#
# Coordination Sequence:
#
# PCOD9111385 Si02
#       7
#     2   2   2   1   2   2   2
#     4  10  21  41  63 109 144 187 250 313 380 445
#     4   9  21  39  71  96 145 188 252 316 370 448
#     4  12  23  43  73 108 151 206 253 317 382 477
#     4  10  20  42  78 106 142 196 274 316 378 448
#     4   9  21  36  65 108 142 184 249 319 372 441
#     4  10  24  47  72 110 144 207 255 327 379 463
#     4  11  27  48  72 108 158 201 255 319 398 462
#
# _framework density 28.313316
#
# number of rings (size 3 to 8) (size 9 to 14) (size 15 to 20)
#    0.923    0.923    1.538    1.385    4.308    1.231 
#   11.077    5.385    0.000    0.000    0.000    0.000 
#    0.000    0.000    0.000    0.000    0.000    0.000 
#
# Total GULP energy -72531.893512 kJ/mol
# GULP energy per Si atom -5579.376424 kJ/mol
# Density = 2.824887 g / cm^3
# Si number density = 28.313316 Si / 1000 Ang^3
#
#
#
# Elastic Constant Matrix: (Units=GPa)
#
#
# Indices 1 2 3 4 5 6 
#
# 1 112.8680 46.2982 55.4847 14.0846 5.7680 -16.8980
# 2 46.2982 168.1316 36.3150 -4.7416 5.7792 -9.9903
# 3 55.4847 36.3150 133.9185 2.0177 26.7918 -11.2990
# 4 14.0846 -4.7416 2.0177 51.3738 -15.8123 5.1833
# 5 5.7680 5.7792 26.7918 -15.8123 52.0387 -0.2387
# 6 -16.8980 -9.9903 -11.2990 5.1833 -0.2387 52.6836
#
#
#
# Elastic Compliance Matrix: (Units=1/GPa)
#
#
# Indices 1 2 3 4 5 6 
#
# 1 0.013029 -0.002569 -0.004352 -0.003992 -0.000117 0.003151
# 2 -0.002569 0.006885 -0.000901 0.001496 0.000439 0.000143
# 3 -0.004352 -0.000901 0.010634 -0.000984 -0.005188 0.000787
# 4 -0.003992 0.001496 -0.000984 0.023524 0.007915 -0.003486
# 5 -0.000117 0.000439 -0.005188 0.007915 0.024248 -0.001736
# 6 0.003151 0.000143 0.000787 -0.003486 -0.001736 0.020523
#
#
# Mechanical properties :
#
#
# Convention : Reuss Voigt Hill
#
# Bulk Modulus (GPa) = 67.09775 76.79044 71.94410
# Shear Modulus (GPa) = 41.85633 49.67390 45.76512
#
# Velocity S-wave (km/s) = 3.84907 4.19314 4.02479
# Velocity P-wave (km/s) = 6.59572 7.11504 6.86030
#
# Compressibility (1/GPa) = 0.01490363
#
# Stress axis : x y z
#
# Youngs Moduli (GPa) = 76.75147 145.23498 94.03984
#
# Poissons Ratio (x) = 0.37313 0.40928
# Poissons Ratio (y) = 0.19718 0.08473
# Poissons Ratio (z) = 0.33404 0.13086
#
# Static dielectric constant tensor:
#      x y z
#    x 2.255060 -0.060560 -0.093090 
#    y -0.060560 2.519630 0.003550 
#    z -0.093090 0.003550 2.299340 
# 
# From -- ./inp_files/458930.got.cif
#   From: 2010.05.17/outbox.cif.g08.bks.cpg/sg2_230_cif.got.tgz:458930.got - 2010.06.03 11:33:40.
