data_PCOD9111013
_publ_section_title
;
Structure prediction by ZEFSAII (Michael W. Deem and Ramdas Pophale) SiO2 
 PCOD9111013
Probable space group: P -1
;
_chemical_formula_sum "Si O2"
_cell_formula_units_Z 16
_cell_length_a 11.499331
_cell_length_b 12.184290
_cell_length_c 10.800046
_cell_angle_alpha 144.024046
_cell_angle_beta 62.356598
_cell_angle_gamma 132.420286
_cell_volume 644.402210
_symmetry_space_group_name_H-M "P -1"
_symmetry_group_IT_number 2
_symmetry_cell_setting 'triclinic'
loop_
_space_group_symop_operation_xyz
x,y,z
-x,-y,-z
loop_
_atom_site_type_symbol
_atom_site_label
_atom_site_fract_x
_atom_site_fract_y
_atom_site_fract_z
Si Si1 0.407285 0.821350 0.705097
Si Si2 0.248436 0.280576 0.556711
Si Si3 0.003250 0.880048 0.079408
Si Si4 0.914854 0.103607 0.522314
Si Si5 0.375778 0.885842 0.345989
Si Si6 0.656447 0.900447 0.853360
Si Si7 0.518942 0.431925 0.069287
Si Si8 0.195262 0.344706 0.249926
O O1 0.496988 0.825106 0.786932
O O2 0.262417 0.577160 0.503827
O O3 0.542397 0.923391 0.626709
O O4 0.371264 0.009822 0.922681
O O5 0.320675 0.284992 0.391611
O O6 0.378192 0.427103 0.730309
O O7 0.102591 0.305687 0.629536
O O8 0.152909 0.026897 0.433295
O O9 0.154531 0.886419 0.060988
O O10 0.082596 0.116752 0.177811
O O11 0.906001 0.915520 0.263420
O O12 0.897976 0.678577 0.850949
O O13 0.798136 0.170714 0.594476
O O14 0.500000 0.000000 0.500000
O O15 0.390800 0.687758 0.113785
O O16 0.342614 0.336687 0.123423
O O17 0.500000 0.500000 0.000000
#
# Coordination Sequence:
#
# PCOD9111013 Si02
#       8
#     2   2   2   2   2   2   2   2
#     4  11  23  42  67  98 129 176 223 276 330 392
#     4  10  20  42  68  90 131 174 217 270 333 396
#     4  10  23  40  65  97 134 181 211 276 325 400
#     4  10  21  41  63  94 132 172 213 267 338 390
#     4  12  24  41  68  96 134 167 224 282 330 396
#     4  10  21  42  63  96 132 171 222 269 333 387
#     4  12  24  42  69  97 124 174 226 277 337 396
#     4  11  22  42  65  95 134 169 234 262 335 395
#
# _framework density 24.829215999999999
#
# number of rings (size 3 to 8) (size 9 to 14) (size 15 to 20)
#    0.000    1.250    2.500    3.750    0.000    2.500 
#    9.000    5.000    0.000    0.000    0.000    0.000 
#    0.000    0.000    0.000    0.000    0.000    0.000 
#
# Total GULP energy -89083.429900 kJ/mol
# GULP energy per Si atom -5567.714369 kJ/mol
# Density = 2.477270 g / cm^3
# Si number density = 24.829216 Si / 1000 Ang^3
#
#
#
# Elastic Constant Matrix: (Units=GPa)
#
#
# Indices 1 2 3 4 5 6 
#
# 1 121.0075 14.9230 78.4114 1.3222 22.5675 36.4939
# 2 14.9230 42.2169 22.9616 -14.8898 -3.1120 11.2377
# 3 78.4114 22.9616 150.5090 -14.9777 31.2698 3.2363
# 4 1.3222 -14.8898 -14.9777 33.9266 8.7107 -2.4383
# 5 22.5675 -3.1120 31.2698 8.7107 48.2588 -0.3349
# 6 36.4939 11.2377 3.2363 -2.4383 -0.3349 32.0234
#
#
#
# Elastic Compliance Matrix: (Units=1/GPa)
#
#
# Indices 1 2 3 4 5 6 
#
# 1 0.026793 0.003747 -0.014187 -0.007383 -0.001977 -0.030997
# 2 0.003747 0.033369 -0.006259 0.010037 0.002543 -0.014557
# 3 -0.014187 -0.006259 0.016617 0.007879 -0.005839 0.017224
# 4 -0.007383 0.010037 0.007879 0.040267 -0.008224 0.007076
# 5 -0.001977 0.002543 -0.005839 -0.008224 0.027089 0.001608
# 6 -0.030997 -0.014557 0.017224 0.007076 0.001608 0.070474
#
#
# Mechanical properties :
#
#
# Convention : Reuss Voigt Hill
#
# Bulk Modulus (GPa) = 23.05235 60.70284 41.87760
# Shear Modulus (GPa) = 19.04988 36.00424 27.52706
#
# Velocity S-wave (km/s) = 2.77291 3.81212 3.33326
# Velocity P-wave (km/s) = 4.42228 6.62401 5.63179
#
# Compressibility (1/GPa) = 0.04337953
#
# Stress axis : x y z
#
# Youngs Moduli (GPa) = 37.32367 29.96760 60.17891
#
# Poissons Ratio (x) = -0.11229 0.85378
# Poissons Ratio (y) = -0.13985 0.37668
# Poissons Ratio (z) = 0.52952 0.18758
#
# Static dielectric constant tensor:
#      x y z
#    x 2.036280 -0.062110 0.042370 
#    y -0.062110 2.039280 0.028830 
#    z 0.042370 0.028830 2.025660 
# 
# From -- ./inp_files/433485.got.cif
#   From: 2010.05.17/outbox.cif.g08.bks.cpg/sg2_217_cif.got.tgz:433485.got - 2010.06.03 11:33:40.
