data_PCOD9111776
_publ_section_title
;
Structure prediction by ZEFSAII (Michael W. Deem and Ramdas Pophale) SiO2 
 PCOD9111776
Probable space group: P -1
;
_chemical_formula_sum "Si O2"
_cell_formula_units_Z 14
_cell_length_a 7.906213
_cell_length_b 14.331925
_cell_length_c 5.772549
_cell_angle_alpha 59.292138
_cell_angle_beta 87.428687
_cell_angle_gamma 88.346190
_cell_volume 561.799320
_symmetry_space_group_name_H-M "P -1"
_symmetry_group_IT_number 2
_symmetry_cell_setting 'triclinic'
loop_
_space_group_symop_operation_xyz
x,y,z
-x,-y,-z
loop_
_atom_site_type_symbol
_atom_site_label
_atom_site_fract_x
_atom_site_fract_y
_atom_site_fract_z
Si Si1 0.883720 0.595075 0.485867
Si Si2 0.719677 0.415254 0.029616
Si Si3 0.394642 0.110512 0.901772
Si Si4 0.026181 0.757306 0.627180
Si Si5 0.344542 0.153106 0.342559
Si Si6 0.835688 0.016932 0.644992
Si Si7 0.610365 0.559130 0.229985
O O1 0.751828 0.630099 0.252976
O O2 0.000000 0.500000 0.500000
O O3 0.978076 0.691580 0.482753
O O4 0.776165 0.527790 0.765751
O O5 0.862613 0.323893 0.116395
O O6 0.704615 0.456939 0.237417
O O7 0.529482 0.386756 0.996923
O O8 0.436722 0.171909 0.063931
O O9 0.204744 0.063562 0.034609
O O10 0.410316 0.171093 0.577555
O O11 0.500000 0.000000 0.000000
O O12 0.146722 0.859336 0.439257
O O13 0.845611 0.794451 0.698589
O O14 0.309956 0.022867 0.472574
O O15 0.000000 0.000000 0.500000
O O16 0.500000 0.500000 0.500000
#
# Coordination Sequence:
#
# PCOD9111776 Si02
#       7
#     2   2   2   2   2   2   2
#     4  11  22  38  63  95 130 170 228 277 338 391
#     4  10  21  40  64  84 131 173 221 275 340 395
#     4  10  20  43  70  92 140 184 218 284 355 408
#     4  11  21  40  64  99 130 172 231 280 341 405
#     4   9  22  41  66  99 133 174 230 280 339 410
#     4   8  20  40  61  95 133 172 225 281 339 405
#     4   9  20  41  60  85 122 174 215 279 333 396
#
# _framework density 24.919931999999999
#
# number of rings (size 3 to 8) (size 9 to 14) (size 15 to 20)
#    0.857    1.429    1.429    0.857    0.000    3.429 
#    2.571    5.714    0.000    0.000    0.000    0.000 
#    0.000    0.000    0.000    0.000    0.000    0.000 
#
# Total GULP energy -77990.297862 kJ/mol
# GULP energy per Si atom -5570.735562 kJ/mol
# Density = 2.486321 g / cm^3
# Si number density = 24.919932 Si / 1000 Ang^3
#
#
#
# Elastic Constant Matrix: (Units=GPa)
#
#
# Indices 1 2 3 4 5 6 
#
# 1 91.0326 36.5095 21.2855 11.0749 25.2682 -11.8219
# 2 36.5095 129.1956 41.5847 16.7726 9.4716 8.4004
# 3 21.2855 41.5847 104.5784 23.0271 2.1553 -5.2306
# 4 11.0749 16.7726 23.0271 45.0175 -5.8102 -3.7271
# 5 25.2682 9.4716 2.1553 -5.8102 41.7291 3.8021
# 6 -11.8219 8.4004 -5.2306 -3.7271 3.8021 50.7711
#
#
#
# Elastic Compliance Matrix: (Units=1/GPa)
#
#
# Indices 1 2 3 4 5 6 
#
# 1 0.016365 -0.003546 -0.000771 -0.003195 -0.009950 0.004828
# 2 -0.003546 0.010132 -0.003116 -0.001545 0.000061 -0.002941
# 3 -0.000771 -0.003116 0.012071 -0.004750 -0.000225 0.001248
# 4 -0.003195 -0.001545 -0.004750 0.026851 0.006221 0.000528
# 5 -0.009950 0.000061 -0.000225 0.006221 0.031238 -0.004233
# 6 0.004828 -0.002941 0.001248 0.000528 -0.004233 0.021791
#
#
# Mechanical properties :
#
#
# Convention : Reuss Voigt Hill
#
# Bulk Modulus (GPa) = 42.18832 58.17402 50.18117
# Shear Modulus (GPa) = 35.40686 42.53198 38.96942
#
# Velocity S-wave (km/s) = 3.77347 4.13576 3.95876
# Velocity P-wave (km/s) = 5.99598 6.79714 6.40909
#
# Compressibility (1/GPa) = 0.02370324
#
# Stress axis : x y z
#
# Youngs Moduli (GPa) = 61.10583 98.69295 82.84453
#
# Poissons Ratio (x) = 0.35000 0.06385
# Poissons Ratio (y) = 0.21670 0.25810
# Poissons Ratio (z) = 0.04709 0.30748
#
# Static dielectric constant tensor:
#      x y z
#    x 2.036300 -0.013850 -0.015500 
#    y -0.013850 1.990990 0.005120 
#    z -0.015500 0.005120 2.205470 
# 
# From -- ./inp_files/37220.got.cif
#   From: 2010.05.17/outbox.cif.g08.bks.cpg/sg2_19_cif.got.tgz:37220.got - 2010.06.03 11:33:40.
