data_PCOD9111364
_publ_section_title
;
Structure prediction by ZEFSAII (Michael W. Deem and Ramdas Pophale) SiO2 
 PCOD9111364
Probable space group: P -1
;
_chemical_formula_sum "Si O2"
_cell_formula_units_Z 15
_cell_length_a 22.214686
_cell_length_b 10.333833
_cell_length_c 13.782110
_cell_angle_alpha 145.014667
_cell_angle_beta 157.739300
_cell_angle_gamma 30.281959
_cell_volume 601.012921
_symmetry_space_group_name_H-M "P -1"
_symmetry_group_IT_number 2
_symmetry_cell_setting 'triclinic'
loop_
_space_group_symop_operation_xyz
x,y,z
-x,-y,-z
loop_
_atom_site_type_symbol
_atom_site_label
_atom_site_fract_x
_atom_site_fract_y
_atom_site_fract_z
Si Si1 0.698153 0.944411 0.637786
Si Si2 0.650250 0.091250 0.880364
Si Si3 0.151330 0.076317 0.747839
Si Si4 0.598762 0.475426 0.773217
Si Si5 0.000000 0.000000 0.000000
Si Si6 0.552597 0.638597 0.028155
Si Si7 0.697299 0.002226 0.416549
Si Si8 0.879761 0.612252 0.291426
O O1 0.711539 0.991534 0.801794
O O2 0.574153 0.229231 0.580305
O O3 0.561502 0.825949 0.365076
O O4 0.886500 0.876959 0.825000
O O5 0.649770 0.363560 0.057038
O O6 0.780856 0.873705 0.016997
O O7 0.340994 0.828184 0.846690
O O8 0.077848 0.289268 0.684126
O O9 0.000000 0.000000 0.500000
O O10 0.569229 0.559498 0.891936
O O11 0.474713 0.716875 0.672462
O O12 0.808959 0.409477 0.028679
O O13 0.862300 0.029027 0.721612
O O14 0.656668 0.804116 0.295190
O O15 0.730187 0.880857 0.282514
O O16 0.000000 0.500000 0.500000
#
# Coordination Sequence:
#
# PCOD9111364 Si02
#       8
#     2   2   2   2   1   2   2   2
#     4  10  24  46  68  99 137 190 228 287 342 421
#     4  10  24  47  70  95 143 188 231 272 359 420
#     4  12  25  38  66 106 137 176 227 286 349 419
#     4  10  20  42  74  90 132 179 230 286 341 411
#     4  12  26  40  68 102 140 174 236 288 342 414
#     4  10  20  44  70  97 131 184 225 279 340 422
#     4  11  22  42  70  99 133 176 234 285 350 403
#     4  11  23  42  68 101 138 172 228 297 348 396
#
# _framework density 24.957867
#
# number of rings (size 3 to 8) (size 9 to 14) (size 15 to 20)
#    0.000    1.333    2.667    2.800    7.467    0.533 
#    4.800    0.000    0.000    4.800    0.000    0.000 
#    0.000    0.000    0.000    0.000    0.000    0.000 
#
# Total GULP energy -83552.452900 kJ/mol
# GULP energy per Si atom -5570.163527 kJ/mol
# Density = 2.490106 g / cm^3
# Si number density = 24.957867 Si / 1000 Ang^3
#
#
#
# Elastic Constant Matrix: (Units=GPa)
#
#
# Indices 1 2 3 4 5 6 
#
# 1 140.2270 15.6297 24.9250 -4.1435 12.0844 40.4335
# 2 15.6297 120.3288 51.5794 -0.4203 -2.0112 39.3763
# 3 24.9250 51.5794 168.5755 7.3969 20.6763 10.5778
# 4 -4.1435 -0.4203 7.3969 45.0615 -0.8931 -2.2400
# 5 12.0844 -2.0112 20.6763 -0.8931 43.9236 -2.5930
# 6 40.4335 39.3763 10.5778 -2.2400 -2.5930 42.4999
#
#
#
# Elastic Compliance Matrix: (Units=1/GPa)
#
#
# Indices 1 2 3 4 5 6 
#
# 1 0.011303 0.003741 -0.001597 0.000582 -0.003000 -0.013975
# 2 0.003741 0.014990 -0.004215 0.000377 0.000685 -0.016337
# 3 -0.001597 -0.004215 0.007709 -0.001354 -0.003219 0.003238
# 4 0.000582 0.000377 -0.001354 0.022525 0.000993 0.000681
# 5 -0.003000 0.000685 -0.003219 0.000993 0.025432 0.004625
# 6 -0.013975 -0.016337 0.003238 0.000681 0.004625 0.051474
#
#
# Mechanical properties :
#
#
# Convention : Reuss Voigt Hill
#
# Bulk Modulus (GPa) = 33.48767 68.15549 50.82158
# Shear Modulus (GPa) = 33.89169 48.76347 41.32758
#
# Velocity S-wave (km/s) = 3.68904 4.42501 4.07368
# Velocity P-wave (km/s) = 5.62069 7.31267 6.52178
#
# Compressibility (1/GPa) = 0.02986173
#
# Stress axis : x y z
#
# Youngs Moduli (GPa) = 88.46820 66.70920 129.71942
#
# Poissons Ratio (x) = -0.24958 0.20712
# Poissons Ratio (y) = -0.33099 0.54679
# Poissons Ratio (z) = 0.14126 0.28119
#
# Static dielectric constant tensor:
#      x y z
#    x 2.052710 -0.004720 0.001200 
#    y -0.004720 1.931790 -0.005850 
#    z 0.001200 -0.005850 1.976900 
# 
# From -- ./inp_files/542628.got.cif
#   From: 2010.05.17/outbox.cif.g08.bks.cpg/sg2_272_cif.got.tgz:542628.got - 2010.06.03 11:33:40.
