data_PCOD9111841
_publ_section_title
;
Structure prediction by ZEFSAII (Michael W. Deem and Ramdas Pophale) SiO2 
 PCOD9111841
Probable space group: P -1
;
_chemical_formula_sum "Si O2"
_cell_formula_units_Z 16
_cell_length_a 9.166319
_cell_length_b 5.078146
_cell_length_c 20.465260
_cell_angle_alpha 57.355466
_cell_angle_beta 64.408382
_cell_angle_gamma 96.509275
_cell_volume 643.812356
_symmetry_space_group_name_H-M "P -1"
_symmetry_group_IT_number 2
_symmetry_cell_setting 'triclinic'
loop_
_space_group_symop_operation_xyz
x,y,z
-x,-y,-z
loop_
_atom_site_type_symbol
_atom_site_label
_atom_site_fract_x
_atom_site_fract_y
_atom_site_fract_z
Si Si1 0.036118 0.727514 0.108234
Si Si2 0.822314 0.072527 0.151291
Si Si3 0.440907 0.297142 0.970488
Si Si4 0.502210 0.807896 0.787746
Si Si5 0.897524 0.500656 0.432091
Si Si6 0.249754 0.489149 0.412192
Si Si7 0.874445 0.216818 0.329711
Si Si8 0.442881 0.672915 0.663581
O O1 0.982034 0.412040 0.109053
O O2 0.993941 0.515303 0.213952
O O3 0.898301 0.899908 0.106998
O O4 0.227989 0.066587 0.027819
O O5 0.671478 0.187559 0.144393
O O6 0.704437 0.740182 0.266862
O O7 0.546923 0.557110 0.856515
O O8 0.500000 0.500000 0.000000
O O9 0.500000 0.000000 0.000000
O O10 0.463034 0.690700 0.735855
O O11 0.657120 0.201028 0.699682
O O12 0.736553 0.381853 0.533019
O O13 0.880694 0.369697 0.379651
O O14 0.039484 0.371879 0.452502
O O15 0.938320 0.912030 0.363112
O O16 0.368478 0.279789 0.410901
O O17 0.664529 0.107013 0.364190
#
# Coordination Sequence:
#
# PCOD9111841 Si02
#       8
#     2   2   2   2   2   2   2   2
#     4  11  23  44  71 101 139 180 229 290 351 422
#     4  10  20  43  71  99 131 180 232 282 352 412
#     4  12  31  47  68 107 143 184 240 281 353 430
#     4  11  25  47  74  99 145 184 233 299 356 424
#     4  11  27  45  70 106 139 196 241 294 353 431
#     4  10  27  45  72 101 146 193 245 283 365 432
#     4  11  24  43  72 104 146 178 243 302 355 407
#     4  10  23  45  75 106 144 190 240 292 370 421
#
# _framework density 24.851960999999999
#
# number of rings (size 3 to 8) (size 9 to 14) (size 15 to 20)
#    0.000    1.250    2.500    2.250   12.250    3.000 
#    0.000    0.000    0.000    0.000    0.000    0.000 
#    0.000    0.000    0.000    0.000    0.000    0.000 
#
# Total GULP energy -89350.474931 kJ/mol
# GULP energy per Si atom -5584.404683 kJ/mol
# Density = 2.479540 g / cm^3
# Si number density = 24.851961 Si / 1000 Ang^3
#
#
#
# Elastic Constant Matrix: (Units=GPa)
#
#
# Indices 1 2 3 4 5 6 
#
# 1 37.1590 18.9641 -7.2129 8.2359 -10.9002 -13.8624
# 2 18.9641 142.0255 5.3257 17.0045 11.0525 -26.9618
# 3 -7.2129 5.3257 65.0120 -6.9892 11.9489 -11.3148
# 4 8.2359 17.0045 -6.9892 32.3164 -5.0184 10.7947
# 5 -10.9002 11.0525 11.9489 -5.0184 44.9112 2.1491
# 6 -13.8624 -26.9618 -11.3148 10.7947 2.1491 36.9331
#
#
#
# Elastic Compliance Matrix: (Units=1/GPa)
#
#
# Indices 1 2 3 4 5 6 
#
# 1 0.041059 -0.000361 0.005514 -0.015155 0.005892 0.020923
# 2 -0.000361 0.010665 0.000788 -0.009728 -0.004535 0.010999
# 3 0.005514 0.000788 0.018094 -0.001538 -0.004267 0.008886
# 4 -0.015155 -0.009728 -0.001538 0.049958 0.006057 -0.028215
# 5 0.005892 -0.004535 -0.004267 0.006057 0.026899 -0.005742
# 6 0.020923 0.010999 0.008886 -0.028215 -0.005742 0.054262
#
#
# Mechanical properties :
#
#
# Convention : Reuss Voigt Hill
#
# Bulk Modulus (GPa) = 12.23967 30.92782 21.58375
# Shear Modulus (GPa) = 23.11722 37.97345 30.54533
#
# Velocity S-wave (km/s) = 3.05322 3.91319 3.50964
# Velocity P-wave (km/s) = 4.16717 5.73491 5.01271
#
# Compressibility (1/GPa) = 0.08170153
#
# Stress axis : x y z
#
# Youngs Moduli (GPa) = 24.35507 93.76231 55.26550
#
# Poissons Ratio (x) = 0.03387 -0.30474
# Poissons Ratio (y) = 0.00880 -0.04357
# Poissons Ratio (z) = -0.13430 -0.07391
#
# Static dielectric constant tensor:
#      x y z
#    x 2.168620 0.072100 -0.108130 
#    y 0.072100 2.004300 -0.079660 
#    z -0.108130 -0.079660 2.042450 
# 
# From -- ./inp_files/585106.got.cif
#   From: 2010.05.17/outbox.cif.g08.bks.cpg/sg2_293_cif.got.tgz:585106.got - 2010.06.03 11:33:40.
