data_PCOD9111849
_publ_section_title
;
Structure prediction by ZEFSAII (Michael W. Deem and Ramdas Pophale) SiO2 
 PCOD9111849
Probable space group: P -1
;
_chemical_formula_sum "Si O2"
_cell_formula_units_Z 14
_cell_length_a 19.995967
_cell_length_b 5.179884
_cell_length_c 5.288867
_cell_angle_alpha 88.514952
_cell_angle_beta 75.357461
_cell_angle_gamma 96.450133
_cell_volume 525.816058
_symmetry_space_group_name_H-M "P -1"
_symmetry_group_IT_number 2
_symmetry_cell_setting 'triclinic'
loop_
_space_group_symop_operation_xyz
x,y,z
-x,-y,-z
loop_
_atom_site_type_symbol
_atom_site_label
_atom_site_fract_x
_atom_site_fract_y
_atom_site_fract_z
Si Si1 0.050754 0.302136 0.054703
Si Si2 0.542060 0.856050 0.676373
Si Si3 0.710722 0.568842 0.988438
Si Si4 0.579810 0.362550 0.822888
Si Si5 0.090663 0.135442 0.516948
Si Si6 0.192158 0.518750 0.721603
Si Si7 0.216067 0.898297 0.306098
O O1 0.058962 0.088561 0.829279
O O2 0.129580 0.456706 0.980715
O O3 0.038295 0.223612 0.358563
O O4 0.000000 0.500000 0.000000
O O5 0.509220 0.248724 0.040660
O O6 0.399907 0.907105 0.304589
O O7 0.500000 0.000000 0.500000
O O8 0.571867 0.581616 0.611138
O O9 0.632011 0.491485 0.980745
O O10 0.749257 0.326996 0.860869
O O11 0.738632 0.837885 0.823468
O O12 0.738099 0.588370 0.249273
O O13 0.151624 0.366643 0.530453
O O14 0.134543 0.932801 0.342540
O O15 0.212380 0.812989 0.606570
#
# Coordination Sequence:
#
# PCOD9111849 Si02
#       7
#     2   2   2   2   2   2   2
#     4  10  20  43  72 105 139 187 243 299 357 430
#     4  10  21  44  67  94 139 176 225 282 347 401
#     4  12  25  41  70  97 146 175 241 286 357 422
#     4  10  23  40  65 102 128 181 226 285 335 423
#     4  10  22  43  68 100 140 186 235 293 363 421
#     4  10  24  41  69  96 142 185 230 291 362 416
#     4  12  23  45  63 101 136 188 225 291 354 421
#
# _framework density 26.62528
#
# number of rings (size 3 to 8) (size 9 to 14) (size 15 to 20)
#    0.857    0.571    2.857    1.714    4.000    2.286 
#    0.000    1.429    0.000    0.000    0.000    0.000 
#    0.000    0.000    0.000    0.000    0.000    0.000 
#
# Total GULP energy -78107.761827 kJ/mol
# GULP energy per Si atom -5579.125845 kJ/mol
# Density = 2.656468 g / cm^3
# Si number density = 26.625280 Si / 1000 Ang^3
#
#
#
# Elastic Constant Matrix: (Units=GPa)
#
#
# Indices 1 2 3 4 5 6 
#
# 1 73.1249 26.8432 25.2933 -8.3419 30.6854 3.6368
# 2 26.8432 173.6838 55.4038 -22.3734 4.4373 7.0364
# 3 25.2933 55.4038 119.2219 -23.7677 30.7745 8.3150
# 4 -8.3419 -22.3734 -23.7677 50.0881 -10.7598 -0.8542
# 5 30.6854 4.4373 30.7745 -10.7598 39.7781 3.0492
# 6 3.6368 7.0364 8.3150 -0.8542 3.0492 36.5262
#
#
#
# Elastic Compliance Matrix: (Units=1/GPa)
#
#
# Indices 1 2 3 4 5 6 
#
# 1 0.021839 -0.003490 0.001391 -0.001092 -0.017802 -0.000358
# 2 -0.003490 0.007658 -0.003713 0.002218 0.005363 -0.000678
# 3 0.001391 -0.003713 0.012992 0.002587 -0.009896 -0.001494
# 4 -0.001092 0.002218 0.002587 0.023037 0.004885 -0.000776
# 5 -0.017802 0.005363 -0.009896 0.004885 0.047316 -0.000843
# 6 -0.000358 -0.000678 -0.001494 -0.000776 -0.000843 0.027936
#
#
# Mechanical properties :
#
#
# Convention : Reuss Voigt Hill
#
# Bulk Modulus (GPa) = 32.39958 64.56793 48.48375
# Shear Modulus (GPa) = 30.73323 42.51116 36.62220
#
# Velocity S-wave (km/s) = 3.40117 4.00014 3.71275
# Velocity P-wave (km/s) = 5.25538 6.75560 6.05215
#
# Compressibility (1/GPa) = 0.03086460
#
# Stress axis : x y z
#
# Youngs Moduli (GPa) = 45.79054 130.58976 76.96757
#
# Poissons Ratio (x) = 0.45580 -0.10708
# Poissons Ratio (y) = 0.15982 0.28577
# Poissons Ratio (z) = -0.06371 0.48487
#
# Static dielectric constant tensor:
#      x y z
#    x 2.132440 -0.016460 -0.002730 
#    y -0.016460 2.203650 0.042190 
#    z -0.002730 0.042190 2.273950 
# 
# From -- ./inp_files/125437.got.cif
#   From: 2010.05.17/outbox.cif.g08.bks.cpg/sg2_63_cif.got.tgz:125437.got - 2010.06.03 11:33:40.
