data_PCOD9111902
_publ_section_title
;
Structure prediction by ZEFSAII (Michael W. Deem and Ramdas Pophale) SiO2 
 PCOD9111902
Probable space group: P -1
;
_chemical_formula_sum "Si O2"
_cell_formula_units_Z 12
_cell_length_a 7.260247
_cell_length_b 7.941058
_cell_length_c 12.202593
_cell_angle_alpha 71.682149
_cell_angle_beta 53.634575
_cell_angle_gamma 104.809391
_cell_volume 438.821045
_symmetry_space_group_name_H-M "P -1"
_symmetry_group_IT_number 2
_symmetry_cell_setting 'triclinic'
loop_
_space_group_symop_operation_xyz
x,y,z
-x,-y,-z
loop_
_atom_site_type_symbol
_atom_site_label
_atom_site_fract_x
_atom_site_fract_y
_atom_site_fract_z
Si Si1 0.885012 0.649734 0.354339
Si Si2 0.566269 0.403502 0.327744
Si Si3 0.727711 0.963819 0.263348
Si Si4 0.532771 0.031355 0.851683
Si Si5 0.809913 0.125320 0.426473
Si Si6 0.566159 0.642528 0.841425
O O1 0.836141 0.514995 0.288641
O O2 0.624390 0.537848 0.553176
O O3 0.879465 0.849904 0.266542
O O4 0.165103 0.737913 0.303780
O O5 0.636435 0.484873 0.163196
O O6 0.358835 0.139101 0.449308
O O7 0.398307 0.839929 0.441040
O O8 0.704399 0.987956 0.137461
O O9 0.847069 0.154860 0.274077
O O10 0.561434 0.846298 0.832368
O O11 0.500000 0.000000 0.000000
O O12 0.121581 0.260631 0.332129
O O13 0.500000 0.500000 0.000000
#
# Coordination Sequence:
#
# PCOD9111902 Si02
#       6
#     2   2   2   2   2   2
#     4  10  23  44  71 100 130 167 227 281 322 384
#     4  10  20  43  74  96 130 173 220 279 328 378
#     4  10  21  41  75  97 125 174 226 270 331 383
#     4  12  26  45  64  97 142 180 213 269 338 397
#     4  10  20  44  72  97 127 172 227 275 327 386
#     4  12  25  44  66  99 139 178 217 271 332 399
#
# _framework density 27.345998999999999
#
# number of rings (size 3 to 8) (size 9 to 14) (size 15 to 20)
#    0.000    1.333    5.000    1.500    2.333    2.000 
#   12.000   10.000    0.000    0.000    0.000    0.000 
#    0.000    0.000    0.000    0.000    0.000    0.000 
#
# Total GULP energy -67061.473953 kJ/mol
# GULP energy per Si atom -5588.456163 kJ/mol
# Density = 2.728376 g / cm^3
# Si number density = 27.345999 Si / 1000 Ang^3
#
#
#
# Elastic Constant Matrix: (Units=GPa)
#
#
# Indices 1 2 3 4 5 6 
#
# 1 118.0492 35.2772 21.3484 9.2207 26.5375 28.0130
# 2 35.2772 132.1404 23.3682 20.2221 18.8079 18.1759
# 3 21.3484 23.3682 70.4273 24.4999 29.3263 12.0386
# 4 9.2207 20.2221 24.4999 38.1348 15.1258 14.5116
# 5 26.5375 18.8079 29.3263 15.1258 51.3164 20.0242
# 6 28.0130 18.1759 12.0386 14.5116 20.0242 49.3705
#
#
#
# Elastic Compliance Matrix: (Units=1/GPa)
#
#
# Indices 1 2 3 4 5 6 
#
# 1 0.010887 -0.001946 -0.001403 0.002222 -0.002991 -0.004559
# 2 -0.001946 0.008917 -0.000931 -0.003155 -0.000475 -0.000832
# 3 -0.001403 -0.000931 0.022131 -0.010653 -0.009505 0.002729
# 4 0.002222 -0.003155 -0.010653 0.037997 -0.002045 -0.007841
# 5 -0.002991 -0.000475 -0.009505 -0.002045 0.030144 -0.007435
# 6 -0.004559 -0.000832 0.002729 -0.007841 -0.007435 0.027803
#
#
# Mechanical properties :
#
#
# Convention : Reuss Voigt Hill
#
# Bulk Modulus (GPa) = 29.96221 53.40051 41.68136
# Shear Modulus (GPa) = 31.73345 43.80590 37.76968
#
# Velocity S-wave (km/s) = 3.41022 4.00673 3.72045
# Velocity P-wave (km/s) = 5.14652 6.40120 5.80784
#
# Compressibility (1/GPa) = 0.03337537
#
# Stress axis : x y z
#
# Youngs Moduli (GPa) = 91.85452 112.15019 45.18576
#
# Poissons Ratio (x) = 0.21820 0.06337
# Poissons Ratio (y) = 0.17871 0.04208
# Poissons Ratio (z) = 0.12883 0.10445
#
# Static dielectric constant tensor:
#      x y z
#    x 2.223390 -0.040030 0.068630 
#    y -0.040030 2.198090 -0.094840 
#    z 0.068630 -0.094840 2.294640 
# 
# From -- ./inp_files/373755.got.cif
#   From: 2010.05.17/outbox.cif.g08.bks.cpg/sg2_187_cif.got.tgz:373755.got - 2010.06.03 11:33:40.
