data_PCOD9111208
_publ_section_title
;
Structure prediction by ZEFSAII (Michael W. Deem and Ramdas Pophale) SiO2 
 PCOD9111208
Probable space group: P -1
;
_chemical_formula_sum "Si O2"
_cell_formula_units_Z 14
_cell_length_a 11.686812
_cell_length_b 14.764022
_cell_length_c 11.435766
_cell_angle_alpha 151.152090
_cell_angle_beta 96.469759
_cell_angle_gamma 65.242400
_cell_volume 704.242479
_symmetry_space_group_name_H-M "P -1"
_symmetry_group_IT_number 2
_symmetry_cell_setting 'triclinic'
loop_
_space_group_symop_operation_xyz
x,y,z
-x,-y,-z
loop_
_atom_site_type_symbol
_atom_site_label
_atom_site_fract_x
_atom_site_fract_y
_atom_site_fract_z
Si Si1 0.505894 0.390571 0.252357
Si Si2 0.766747 0.970345 0.660897
Si Si3 0.300122 0.875478 0.611778
Si Si4 0.554200 0.957036 0.090036
Si Si5 0.717626 0.595737 0.267937
Si Si6 0.011696 0.975987 0.333614
Si Si7 0.536177 0.175662 0.663731
O O1 0.500000 0.500000 0.500000
O O2 0.420192 0.610191 0.394063
O O3 0.683671 0.147217 0.965078
O O4 0.425393 0.273590 0.118127
O O5 0.925869 0.894685 0.560575
O O6 0.631617 0.155664 0.758766
O O7 0.783826 0.727614 0.391563
O O8 0.299311 0.066326 0.904925
O O9 0.355943 0.894270 0.513630
O O10 0.144275 0.931466 0.635897
O O11 0.415641 0.207037 0.430813
O O12 0.500000 0.000000 0.000000
O O13 0.632610 0.586675 0.137379
O O14 0.850504 0.317988 0.013651
O O15 0.000000 0.000000 0.500000
O O16 0.500000 0.000000 0.500000
#
# Coordination Sequence:
#
# PCOD9111208 Si02
#       7
#     2   2   2   2   2   2   2
#     4  11  23  40  71  94 118 163 223 274 306 361
#     4  10  21  40  62  89 127 163 213 259 319 365
#     4  11  23  40  61  98 128 164 213 254 324 385
#     4  10  20  42  70  90 119 163 217 271 309 355
#     4   9  22  38  61  90 126 162 209 258 313 372
#     4  12  25  39  59  94 137 171 197 251 326 393
#     4   9  18  38  63  93 116 162 215 265 305 365
#
# _framework density 19.879515999999999
#
# number of rings (size 3 to 8) (size 9 to 14) (size 15 to 20)
#    0.000    1.714    2.857    2.571    2.000    2.857 
#    0.000    1.429    0.000    0.000    0.000    0.000 
#    0.000    0.000    0.000    0.000    0.000    0.000 
#
# Total GULP energy -78046.606346 kJ/mol
# GULP energy per Si atom -5574.757596 kJ/mol
# Density = 1.983427 g / cm^3
# Si number density = 19.879516 Si / 1000 Ang^3
#
#
#
# Elastic Constant Matrix: (Units=GPa)
#
#
# Indices 1 2 3 4 5 6 
#
# 1 162.7392 22.2458 1.8742 -0.3314 11.9633 -5.0837
# 2 22.2458 57.5047 0.1353 -3.0400 11.5901 2.5761
# 3 1.8742 0.1353 30.5588 -3.5527 16.3095 -5.2281
# 4 -0.3314 -3.0400 -3.5527 30.8206 1.3237 7.4125
# 5 11.9633 11.5901 16.3095 1.3237 20.7027 2.1459
# 6 -5.0837 2.5761 -5.2281 7.4125 2.1459 29.7610
#
#
#
# Elastic Compliance Matrix: (Units=1/GPa)
#
#
# Indices 1 2 3 4 5 6 
#
# 1 0.006812 -0.001621 0.002942 -0.000045 -0.005575 0.002234
# 2 -0.001621 0.022538 0.012037 0.004436 -0.021481 0.000331
# 3 0.002942 0.012037 0.071881 0.008847 -0.067159 0.014727
# 4 -0.000045 0.004436 0.008847 0.036065 -0.011005 -0.007027
# 5 -0.005575 -0.021481 -0.067159 -0.011005 0.118895 -0.016723
# 6 0.002234 0.000331 0.014727 -0.007027 -0.016723 0.039497
#
#
# Mechanical properties :
#
#
# Convention : Reuss Voigt Hill
#
# Bulk Modulus (GPa) = 7.81578 33.25704 20.53641
# Shear Modulus (GPa) = 16.04506 31.36001 23.70253
#
# Velocity S-wave (km/s) = 2.84406 3.97609 3.45673
# Velocity P-wave (km/s) = 3.83732 6.15180 5.12687
#
# Compressibility (1/GPa) = 0.12794631
#
# Stress axis : x y z
#
# Youngs Moduli (GPa) = 146.79891 44.36977 13.91179
#
# Poissons Ratio (x) = 0.07192 -0.04093
# Poissons Ratio (y) = 0.23796 -0.16745
# Poissons Ratio (z) = -0.43186 -0.53406
#
# Static dielectric constant tensor:
#      x y z
#    x 1.783420 0.045230 0.033080 
#    y 0.045230 1.741940 -0.023840 
#    z 0.033080 -0.023840 1.733770 
# 
# From -- ./inp_files/251324.got.cif
#   From: 2010.05.17/outbox.cif.g08.bks.cpg/sg2_126_cif.got.tgz:251324.got - 2010.06.03 11:33:40.
