data_PCOD9111348
_publ_section_title
;
Structure prediction by ZEFSAII (Michael W. Deem and Ramdas Pophale) SiO2 
 PCOD9111348
Probable space group: P -1
;
_chemical_formula_sum "Si O2"
_cell_formula_units_Z 14
_cell_length_a 8.442185
_cell_length_b 9.212903
_cell_length_c 9.381991
_cell_angle_alpha 86.541164
_cell_angle_beta 132.475318
_cell_angle_gamma 71.865243
_cell_volume 471.846626
_symmetry_space_group_name_H-M "P -1"
_symmetry_group_IT_number 2
_symmetry_cell_setting 'triclinic'
loop_
_space_group_symop_operation_xyz
x,y,z
-x,-y,-z
loop_
_atom_site_type_symbol
_atom_site_label
_atom_site_fract_x
_atom_site_fract_y
_atom_site_fract_z
Si Si1 0.280871 0.731252 0.346989
Si Si2 0.000000 0.500000 0.500000
Si Si3 0.280478 0.072453 0.675058
Si Si4 0.988679 0.201868 0.073598
Si Si5 0.537604 0.228387 0.976516
Si Si6 0.732700 0.310144 0.329224
Si Si7 0.500000 0.000000 0.500000
Si Si8 0.194545 0.422011 0.305113
O O1 0.265884 0.741171 0.505353
O O2 0.279446 0.557896 0.308052
O O3 0.538208 0.734999 0.481569
O O4 0.044680 0.844065 0.104584
O O5 0.758547 0.472181 0.340116
O O6 0.958240 0.519403 0.648888
O O7 0.999447 0.167338 0.448995
O O8 0.333231 0.948917 0.846900
O O9 0.462008 0.987468 0.659881
O O10 0.316339 0.224271 0.754757
O O11 0.065456 0.348205 0.128326
O O12 0.734031 0.241443 0.992159
O O13 0.212929 0.059774 0.299458
O O14 0.510226 0.336043 0.094289
#
# Coordination Sequence:
#
# PCOD9111348 Si02
#       8
#     2   1   2   2   2   2   1   2
#     4  10  26  42  78 101 145 185 236 289 369 414
#     4  10  20  42  74 100 140 178 230 290 364 412
#     4  11  27  47  67 102 139 192 241 292 349 429
#     4  12  26  44  70 107 140 190 238 292 354 431
#     4  11  26  45  70  97 142 185 238 285 361 414
#     4  11  23  47  69 102 140 186 228 304 351 430
#     4  12  28  46  72 100 146 184 240 300 350 416
#     4  10  22  48  69 106 143 183 233 300 349 432
#
# _framework density 29.670659000000001
#
# number of rings (size 3 to 8) (size 9 to 14) (size 15 to 20)
#    0.000    1.143    2.857    0.857   10.000    0.571 
#    0.000    5.714    0.000    0.000    0.000    0.000 
#    0.000    0.000    0.000    0.000    0.000    0.000 
#
# Total GULP energy -78067.498817 kJ/mol
# GULP energy per Si atom -5576.249915 kJ/mol
# Density = 2.960313 g / cm^3
# Si number density = 29.670659 Si / 1000 Ang^3
#
#
#
# Elastic Constant Matrix: (Units=GPa)
#
#
# Indices 1 2 3 4 5 6 
#
# 1 154.2076 23.3750 65.8852 18.1146 9.9870 -11.2920
# 2 23.3750 74.7859 0.8412 26.7006 8.7665 15.0110
# 3 65.8852 0.8412 271.6991 59.1220 32.2801 0.1389
# 4 18.1146 26.7006 59.1220 56.6676 0.4320 8.9237
# 5 9.9870 8.7665 32.2801 0.4320 50.8088 9.0451
# 6 -11.2920 15.0110 0.1389 8.9237 9.0451 69.8525
#
#
#
# Elastic Compliance Matrix: (Units=1/GPa)
#
#
# Indices 1 2 3 4 5 6 
#
# 1 0.007883 -0.003099 -0.002077 0.000817 -0.000030 0.001844
# 2 -0.003099 0.019551 0.003793 -0.011731 -0.004608 -0.002614
# 3 -0.002077 0.003793 0.006384 -0.007812 -0.004305 0.000392
# 4 0.000817 -0.011731 -0.007812 0.031363 0.006959 -0.002239
# 5 -0.000030 -0.004608 -0.004305 0.006959 0.023686 -0.002962
# 6 0.001844 -0.002614 0.000392 -0.002239 -0.002962 0.015845
#
#
# Mechanical properties :
#
#
# Convention : Reuss Voigt Hill
#
# Bulk Modulus (GPa) = 32.20546 75.65503 53.93025
# Shear Modulus (GPa) = 42.43467 62.83854 52.63660
#
# Velocity S-wave (km/s) = 3.78589 4.60702 4.21649
# Velocity P-wave (km/s) = 5.47617 7.33847 6.47463
#
# Compressibility (1/GPa) = 0.03105063
#
# Stress axis : x y z
#
# Youngs Moduli (GPa) = 126.85643 51.14878 156.64924
#
# Poissons Ratio (x) = 0.15850 0.32538
# Poissons Ratio (y) = 0.39310 -0.59410
# Poissons Ratio (z) = 0.26349 -0.19398
#
# Static dielectric constant tensor:
#      x y z
#    x 2.196180 0.182670 -0.015780 
#    y 0.182670 2.788260 -0.397030 
#    z -0.015780 -0.397030 2.235040 
# 
# From -- ./inp_files/180828.got.cif
#   From: 2010.05.17/outbox.cif.g08.bks.cpg/sg2_91_cif.got.tgz:180828.got - 2010.06.03 11:33:40.
