data_PCOD9111024
_publ_section_title
;
Structure prediction by ZEFSAII (Michael W. Deem and Ramdas Pophale) SiO2 
 PCOD9111024
Probable space group: P -1
;
_chemical_formula_sum "Si O2"
_cell_formula_units_Z 16
_cell_length_a 13.535150
_cell_length_b 21.907470
_cell_length_c 19.525754
_cell_angle_alpha 160.776739
_cell_angle_beta 154.040634
_cell_angle_gamma 35.820293
_cell_volume 804.735527
_symmetry_space_group_name_H-M "P -1"
_symmetry_group_IT_number 2
_symmetry_cell_setting 'triclinic'
loop_
_space_group_symop_operation_xyz
x,y,z
-x,-y,-z
loop_
_atom_site_type_symbol
_atom_site_label
_atom_site_fract_x
_atom_site_fract_y
_atom_site_fract_z
Si Si1 0.779825 0.043076 0.730354
Si Si2 0.611082 0.668434 0.300204
Si Si3 0.723999 0.413118 0.543615
Si Si4 0.244799 0.617683 0.312891
Si Si5 0.154722 0.783738 0.186534
Si Si6 0.595257 0.340431 0.239550
Si Si7 0.764300 0.040239 0.426455
Si Si8 0.056125 0.545646 0.660976
O O1 0.887565 0.091622 0.773198
O O2 0.500000 0.000000 0.500000
O O3 0.795486 0.848312 0.570145
O O4 0.865046 0.232238 0.030648
O O5 0.402125 0.737998 0.277643
O O6 0.739985 0.558343 0.313057
O O7 0.500000 0.500000 0.000000
O O8 0.500000 0.500000 0.500000
O O9 0.769900 0.335255 0.564962
O O10 0.659638 0.288896 0.302613
O O11 0.950815 0.587323 0.853644
O O12 0.428794 0.487510 0.289591
O O13 0.311474 0.805575 0.506083
O O14 0.000000 0.500000 0.000000
O O15 0.172684 0.883300 0.376646
O O16 0.835102 0.443320 0.461084
O O17 0.445135 0.151682 0.908369
O O18 0.000000 0.000000 0.500000
O O19 0.000000 0.500000 0.500000
#
# Coordination Sequence:
#
# PCOD9111024 Si02
#       8
#     2   2   2   2   2   2   2   2
#     4  10  22  45  70  97 133 181 234 270 331 416
#     4  11  23  45  72 100 134 175 240 274 328 420
#     4  10  20  42  68  92 133 170 217 282 333 386
#     4  11  22  43  71  94 130 180 226 279 331 401
#     4  11  22  43  73  97 132 186 225 274 335 407
#     4  11  25  44  65  99 140 170 221 282 346 392
#     4  12  25  44  67 104 134 174 235 276 331 413
#     4  12  27  43  67 106 144 173 218 293 344 395
#
# _framework density 19.882307000000001
#
# number of rings (size 3 to 8) (size 9 to 14) (size 15 to 20)
#    0.000    1.000    6.250    0.750    5.250    2.000 
#    4.500    0.000    0.000    0.000    0.000    0.000 
#    0.000    0.000    0.000    0.000    0.000    0.000 
#
# Total GULP energy -89261.736559 kJ/mol
# GULP energy per Si atom -5578.858535 kJ/mol
# Density = 1.983705 g / cm^3
# Si number density = 19.882307 Si / 1000 Ang^3
#
#
#
# Elastic Constant Matrix: (Units=GPa)
#
#
# Indices 1 2 3 4 5 6 
#
# 1 106.6709 29.8683 23.4429 -2.7716 -25.7865 12.8471
# 2 29.8683 77.1226 26.5809 -1.4782 -18.2298 17.8109
# 3 23.4429 26.5809 106.8306 3.6487 -9.8717 8.8666
# 4 -2.7716 -1.4782 3.6487 37.1558 7.1702 1.5370
# 5 -25.7865 -18.2298 -9.8717 7.1702 36.9595 -11.5962
# 6 12.8471 17.8109 8.8666 1.5370 -11.5962 37.2885
#
#
#
# Elastic Compliance Matrix: (Units=1/GPa)
#
#
# Indices 1 2 3 4 5 6 
#
# 1 0.012048 -0.002498 -0.001346 -0.000342 0.006712 -0.000536
# 2 -0.002498 0.017171 -0.002895 0.000183 0.004242 -0.005341
# 3 -0.001346 -0.002895 0.010509 -0.001340 0.000568 -0.000421
# 4 -0.000342 0.000183 -0.001340 0.028497 -0.006974 -0.002995
# 5 0.006712 0.004242 0.000568 -0.006974 0.037702 0.007538
# 6 -0.000536 -0.005341 -0.000421 -0.002995 0.007538 0.032122
#
#
# Mechanical properties :
#
#
# Convention : Reuss Voigt Hill
#
# Bulk Modulus (GPa) = 38.09470 50.04539 44.07005
# Shear Modulus (GPa) = 31.19568 36.32955 33.76262
#
# Velocity S-wave (km/s) = 3.96538 4.27925 4.12530
# Velocity P-wave (km/s) = 6.33777 7.04567 6.70107
#
# Compressibility (1/GPa) = 0.02625037
#
# Stress axis : x y z
#
# Youngs Moduli (GPa) = 82.99944 58.23604 95.15227
#
# Poissons Ratio (x) = 0.14549 0.12806
# Poissons Ratio (y) = 0.20736 0.27549
# Poissons Ratio (z) = 0.11170 0.16861
#
# Static dielectric constant tensor:
#      x y z
#    x 1.709240 0.006170 0.020480 
#    y 0.006170 1.712240 0.019010 
#    z 0.020480 0.019010 1.692810 
# 
# From -- ./inp_files/307702.got.cif
#   From: 2010.05.17/outbox.cif.g08.bks.cpg/sg2_154_cif.got.tgz:307702.got - 2010.06.03 11:33:40.
