data_PCOD9111682
_publ_section_title
;
Structure prediction by ZEFSAII (Michael W. Deem and Ramdas Pophale) SiO2 
 PCOD9111682
Probable space group: P -1
;
_chemical_formula_sum "Si O2"
_cell_formula_units_Z 16
_cell_length_a 20.609912
_cell_length_b 9.222766
_cell_length_c 26.148800
_cell_angle_alpha 148.838743
_cell_angle_beta 160.988932
_cell_angle_gamma 40.935244
_cell_volume 794.333616
_symmetry_space_group_name_H-M "P -1"
_symmetry_group_IT_number 2
_symmetry_cell_setting 'triclinic'
loop_
_space_group_symop_operation_xyz
x,y,z
-x,-y,-z
loop_
_atom_site_type_symbol
_atom_site_label
_atom_site_fract_x
_atom_site_fract_y
_atom_site_fract_z
Si Si1 0.509555 0.756883 0.044172
Si Si2 0.905067 0.176197 0.639399
Si Si3 0.229518 0.571587 0.541713
Si Si4 0.037590 0.678621 0.634661
Si Si5 0.966312 0.130719 0.069033
Si Si6 0.480936 0.303548 0.374826
Si Si7 0.934680 0.800628 0.340112
Si Si8 0.377752 0.230555 0.469503
O O1 0.686453 0.729332 0.127028
O O2 0.612889 0.092905 0.242717
O O3 0.500000 0.500000 0.000000
O O4 0.275458 0.717578 0.839995
O O5 0.667012 0.157224 0.468045
O O6 0.017834 0.528083 0.825287
O O7 0.936732 0.054762 0.570154
O O8 0.001433 0.994333 0.694623
O O9 0.345531 0.363472 0.540292
O O10 0.133183 0.493959 0.502590
O O11 0.025435 0.539005 0.343818
O O12 0.000000 0.500000 0.500000
O O13 0.150520 0.101437 0.234296
O O14 0.741187 0.945056 0.865859
O O15 0.000000 0.000000 0.000000
O O16 0.500000 0.500000 0.500000
O O17 0.507601 0.511594 0.407666
O O18 0.000000 0.000000 0.500000
O O19 0.500000 0.000000 0.500000
#
# Coordination Sequence:
#
# PCOD9111682 Si02
#       8
#     2   2   2   2   2   2   2   2
#     4  11  25  42  74  96 137 187 228 279 357 407
#     4  11  25  43  69 102 140 179 231 286 349 399
#     4  11  24  45  67 102 142 178 234 282 340 422
#     4  12  28  45  68 107 142 180 234 292 346 408
#     4  11  23  44  74 102 136 184 236 278 347 423
#     4  11  23  45  72  98 138 188 228 280 351 412
#     4  10  20  43  68  93 135 177 230 279 328 419
#     4  11  26  44  70 106 142 178 229 292 344 404
#
# _framework density 20.142669999999999
#
# number of rings (size 3 to 8) (size 9 to 14) (size 15 to 20)
#    0.000    1.000    6.250    1.500    3.500    7.500 
#    0.000    0.000    0.000    0.000    0.000    0.000 
#    0.000    0.000    0.000    0.000    0.000    0.000 
#
# Total GULP energy -89320.569429 kJ/mol
# GULP energy per Si atom -5582.535589 kJ/mol
# Density = 2.009682 g / cm^3
# Si number density = 20.142670 Si / 1000 Ang^3
#
#
#
# Elastic Constant Matrix: (Units=GPa)
#
#
# Indices 1 2 3 4 5 6 
#
# 1 130.5568 52.9790 51.3958 -8.0625 13.9088 -12.8791
# 2 52.9790 192.1318 79.8533 -20.0335 10.8180 -7.9642
# 3 51.3958 79.8533 157.6412 -12.8343 24.1297 -2.9830
# 4 -8.0625 -20.0335 -12.8343 20.9079 -8.6229 0.8504
# 5 13.9088 10.8180 24.1297 -8.6229 32.8868 -1.9256
# 6 -12.8791 -7.9642 -2.9830 0.8504 -1.9256 36.5960
#
#
#
# Elastic Compliance Matrix: (Units=1/GPa)
#
#
# Indices 1 2 3 4 5 6 
#
# 1 0.009556 -0.001593 -0.001961 0.000059 -0.001902 0.002755
# 2 -0.001593 0.007405 -0.003079 0.005363 0.001948 0.000778
# 3 -0.001961 -0.003079 0.009294 -0.000044 -0.005039 -0.000867
# 4 0.000059 0.005363 -0.000044 0.058563 0.013630 0.000541
# 5 -0.001902 0.001948 -0.005039 0.013630 0.037902 0.001021
# 6 0.002755 0.000778 -0.000867 0.000541 0.001021 0.028435
#
#
# Mechanical properties :
#
#
# Convention : Reuss Voigt Hill
#
# Bulk Modulus (GPa) = 76.97871 94.30957 85.64414
# Shear Modulus (GPa) = 29.62992 37.81825 33.72408
#
# Velocity S-wave (km/s) = 3.83953 4.33774 4.09621
# Velocity P-wave (km/s) = 7.61286 8.48589 8.06120
#
# Compressibility (1/GPa) = 0.01299061
#
# Stress axis : x y z
#
# Youngs Moduli (GPa) = 104.65012 135.03855 107.60027
#
# Poissons Ratio (x) = 0.21506 0.21096
# Poissons Ratio (y) = 0.16667 0.33128
# Poissons Ratio (z) = 0.20518 0.41575
#
# Static dielectric constant tensor:
#      x y z
#    x 1.728440 -0.017050 -0.004190 
#    y -0.017050 1.738620 0.012840 
#    z -0.004190 0.012840 1.724190 
# 
# From -- ./inp_files/620695.got.cif
#   From: 2010.05.17/outbox.cif.g08.bks.cpg/sg2_311_cif.got.tgz:620695.got - 2010.06.03 11:33:40.
