data_PCOD9111658
_publ_section_title
;
Structure prediction by ZEFSAII (Michael W. Deem and Ramdas Pophale) SiO2 
 PCOD9111658
Probable space group: P -1
;
_chemical_formula_sum "Si O2"
_cell_formula_units_Z 14
_cell_length_a 7.956587
_cell_length_b 13.275934
_cell_length_c 11.474931
_cell_angle_alpha 144.822238
_cell_angle_beta 122.903936
_cell_angle_gamma 72.830685
_cell_volume 557.851479
_symmetry_space_group_name_H-M "P -1"
_symmetry_group_IT_number 2
_symmetry_cell_setting 'triclinic'
loop_
_space_group_symop_operation_xyz
x,y,z
-x,-y,-z
loop_
_atom_site_type_symbol
_atom_site_label
_atom_site_fract_x
_atom_site_fract_y
_atom_site_fract_z
Si Si1 0.199085 0.050625 0.032398
Si Si2 0.510755 0.112380 0.400886
Si Si3 0.855400 0.820687 0.540538
Si Si4 0.299015 0.188809 0.779067
Si Si5 0.812900 0.507194 0.851451
Si Si6 0.816934 0.561291 0.638879
Si Si7 0.736896 0.423835 0.239242
O O1 0.093138 0.932191 0.769847
O O2 0.395350 0.029599 0.158225
O O3 0.264974 0.264223 0.226088
O O4 0.000000 0.000000 0.000000
O O5 0.318109 0.081226 0.390780
O O6 0.616881 0.331703 0.645642
O O7 0.689533 0.016632 0.400634
O O8 0.820071 0.788648 0.360947
O O9 0.801078 0.631719 0.413074
O O10 0.217253 0.294206 0.948868
O O11 0.546158 0.304353 0.977969
O O12 0.834995 0.486448 0.702369
O O13 0.000000 0.500000 0.000000
O O14 0.693492 0.426069 0.363152
O O15 0.056548 0.636539 0.754599
#
# Coordination Sequence:
#
# PCOD9111658 Si02
#       7
#     2   2   2   2   2   2   2
#     4  10  20  43  68 107 140 173 235 299 340 406
#     4  11  25  46  70 108 142 183 244 285 347 423
#     4  11  22  42  75 107 146 174 239 304 340 411
#     4  12  26  45  76 103 140 190 234 290 363 405
#     4  12  29  50  68 102 152 187 230 291 356 427
#     4  11  24  43  72 100 147 183 233 292 354 411
#     4  11  22  42  76 107 130 187 244 286 353 411
#
# _framework density 25.096285000000002
#
# number of rings (size 3 to 8) (size 9 to 14) (size 15 to 20)
#    0.000    0.857    4.286    3.429    6.000    2.857 
#    2.571    1.429    0.000    0.000    0.000    0.000 
#    0.000    0.000    0.000    0.000    0.000    0.000 
#
# Total GULP energy -78378.621430 kJ/mol
# GULP energy per Si atom -5598.472959 kJ/mol
# Density = 2.503916 g / cm^3
# Si number density = 25.096285 Si / 1000 Ang^3
#
#
#
# Elastic Constant Matrix: (Units=GPa)
#
#
# Indices 1 2 3 4 5 6 
#
# 1 47.1926 17.6092 20.5159 -7.0107 -8.1996 -0.0901
# 2 17.6092 106.6570 18.4719 -17.6310 -18.2017 -4.8847
# 3 20.5159 18.4719 116.6738 -33.4963 -4.2680 7.0454
# 4 -7.0107 -17.6310 -33.4963 58.4102 -6.8482 -8.4948
# 5 -8.1996 -18.2017 -4.2680 -6.8482 35.9086 -5.5903
# 6 -0.0901 -4.8847 7.0454 -8.4948 -5.5903 22.2497
#
#
#
# Elastic Compliance Matrix: (Units=1/GPa)
#
#
# Indices 1 2 3 4 5 6 
#
# 1 0.024598 -0.002394 -0.003628 0.001004 0.004512 0.002240
# 2 -0.002394 0.012272 -0.000150 0.005198 0.007682 0.006647
# 3 -0.003628 -0.000150 0.011024 0.005864 0.001376 -0.000954
# 4 0.001004 0.005198 0.005864 0.025011 0.010102 0.011376
# 5 0.004512 0.007682 0.001376 0.010102 0.037113 0.014451
# 6 0.002240 0.006647 -0.000954 0.011376 0.014451 0.054689
#
#
# Mechanical properties :
#
#
# Convention : Reuss Voigt Hill
#
# Bulk Modulus (GPa) = 28.13025 42.63524 35.38275
# Shear Modulus (GPa) = 26.46897 37.57546 32.02221
#
# Velocity S-wave (km/s) = 3.25113 3.87363 3.57595
# Velocity P-wave (km/s) = 5.03254 6.08541 5.58385
#
# Compressibility (1/GPa) = 0.03554892
#
# Stress axis : x y z
#
# Youngs Moduli (GPa) = 40.65410 81.48774 90.71131
#
# Poissons Ratio (x) = 0.19510 0.32912
# Poissons Ratio (y) = 0.09733 0.01359
# Poissons Ratio (z) = 0.14750 0.01221
#
# Static dielectric constant tensor:
#      x y z
#    x 2.005100 -0.009450 -0.030330 
#    y -0.009450 1.970040 0.032390 
#    z -0.030330 0.032390 1.972530 
# 
# From -- ./inp_files/400187.got.cif
#   From: 2010.05.17/outbox.cif.g08.bks.cpg/sg2_201_cif.got.tgz:400187.got - 2010.06.03 11:33:40.
