data_PCOD9111412
_publ_section_title
;
Structure prediction by ZEFSAII (Michael W. Deem and Ramdas Pophale) SiO2 
 PCOD9111412
Probable space group: P -1
;
_chemical_formula_sum "Si O2"
_cell_formula_units_Z 16
_cell_length_a 11.687890
_cell_length_b 8.790431
_cell_length_c 19.475411
_cell_angle_alpha 131.876476
_cell_angle_beta 151.543547
_cell_angle_gamma 51.246103
_cell_volume 705.583523
_symmetry_space_group_name_H-M "P -1"
_symmetry_group_IT_number 2
_symmetry_cell_setting 'triclinic'
loop_
_space_group_symop_operation_xyz
x,y,z
-x,-y,-z
loop_
_atom_site_type_symbol
_atom_site_label
_atom_site_fract_x
_atom_site_fract_y
_atom_site_fract_z
Si Si1 0.296234 0.406179 0.156592
Si Si2 0.212266 0.797075 0.315604
Si Si3 0.018351 0.023378 0.934481
Si Si4 0.529718 0.276757 0.916401
Si Si5 0.461142 0.716857 0.241413
Si Si6 0.756101 0.757139 0.545895
Si Si7 0.955742 0.890377 0.347192
Si Si8 0.163466 0.689021 0.533114
O O1 0.162551 0.604963 0.185133
O O2 0.360266 0.501475 0.145401
O O3 0.553684 0.348088 0.311819
O O4 0.153868 0.212966 0.036051
O O5 0.506580 0.776515 0.464842
O O6 0.081560 0.788616 0.316241
O O7 0.130600 0.031439 0.319268
O O8 0.740126 0.091412 0.790557
O O9 0.000000 0.000000 0.000000
O O10 0.201593 0.825342 0.953267
O O11 0.491306 0.278781 0.813489
O O12 0.319245 0.155611 0.800496
O O13 0.500000 0.500000 0.000000
O O14 0.660939 0.740870 0.412277
O O15 0.915192 0.540760 0.577407
O O16 0.108708 0.792372 0.462284
O O17 0.949110 0.137081 0.421490
#
# Coordination Sequence:
#
# PCOD9111412 Si02
#       8
#     2   2   2   2   2   2   2   2
#     4  10  20  43  62  91 119 153 207 246 300 355
#     4   9  21  36  63  90 124 151 194 257 285 359
#     4  10  21  39  65  84 115 164 205 244 297 352
#     4  11  25  44  56  89 123 156 207 254 293 357
#     4   9  21  40  67  83 117 164 200 248 297 357
#     4   9  20  43  60  93 122 153 204 241 301 355
#     4  11  22  38  59  90 122 160 199 243 310 351
#     4   9  21  38  61  87 119 164 191 238 304 373
#
# _framework density 22.676265999999998
#
# number of rings (size 3 to 8) (size 9 to 14) (size 15 to 20)
#    0.000    2.500    1.250    0.375    7.000    2.500 
#   11.250    0.625    0.000    0.000    0.000    0.000 
#    0.000    0.000    0.000    0.000    0.000    0.000 
#
# Total GULP energy -89269.226561 kJ/mol
# GULP energy per Si atom -5579.326660 kJ/mol
# Density = 2.262465 g / cm^3
# Si number density = 22.676266 Si / 1000 Ang^3
#
#
#
# Elastic Constant Matrix: (Units=GPa)
#
#
# Indices 1 2 3 4 5 6 
#
# 1 131.2763 35.1489 21.5531 8.5905 8.5966 -10.6100
# 2 35.1489 180.2508 28.9230 3.4894 -3.5852 -12.9949
# 3 21.5531 28.9230 26.0833 -6.3923 4.3832 -3.3178
# 4 8.5905 3.4894 -6.3923 40.5874 -1.7517 -2.8410
# 5 8.5966 -3.5852 4.3832 -1.7517 25.7324 5.1704
# 6 -10.6100 -12.9949 -3.3178 -2.8410 5.1704 20.2802
#
#
#
# Elastic Compliance Matrix: (Units=1/GPa)
#
#
# Indices 1 2 3 4 5 6 
#
# 1 0.009629 -0.000444 -0.007183 -0.002987 -0.003050 0.003937
# 2 -0.000444 0.007148 -0.007960 -0.001527 0.001926 0.002341
# 3 -0.007183 -0.007960 0.057878 0.011253 -0.008686 0.004401
# 4 -0.002987 -0.001527 0.011253 0.027396 0.000108 0.003110
# 5 -0.003050 0.001926 -0.008686 0.000108 0.044258 -0.013051
# 6 0.003937 0.002341 0.004401 0.003110 -0.013051 0.057352
#
#
# Mechanical properties :
#
#
# Convention : Reuss Voigt Hill
#
# Bulk Modulus (GPa) = 22.99824 56.54004 39.76914
# Shear Modulus (GPa) = 20.05379 34.11902 27.08640
#
# Velocity S-wave (km/s) = 2.97703 3.88314 3.45988
# Velocity P-wave (km/s) = 4.68838 6.71512 5.79110
#
# Compressibility (1/GPa) = 0.04348160
#
# Stress axis : x y z
#
# Youngs Moduli (GPa) = 103.85148 139.89399 17.27771
#
# Poissons Ratio (x) = 0.06212 0.12411
# Poissons Ratio (y) = 0.04612 0.13753
# Poissons Ratio (z) = 0.74598 1.11352
#
# Static dielectric constant tensor:
#      x y z
#    x 1.855490 0.020430 0.014900 
#    y 0.020430 1.856110 0.010010 
#    z 0.014900 0.010010 1.959590 
# 
# From -- ./inp_files/593772.got.cif
#   From: 2010.05.17/outbox.cif.g08.bks.cpg/sg2_297_cif.got.tgz:593772.got - 2010.06.03 11:33:40.
