data_PCOD9111143
_publ_section_title
;
Structure prediction by ZEFSAII (Michael W. Deem and Ramdas Pophale) SiO2 
 PCOD9111143
Probable space group: P -1
;
_chemical_formula_sum "Si O2"
_cell_formula_units_Z 16
_cell_length_a 5.248005
_cell_length_b 13.252780
_cell_length_c 10.427592
_cell_angle_alpha 85.099892
_cell_angle_beta 66.577039
_cell_angle_gamma 113.401757
_cell_volume 584.695565
_symmetry_space_group_name_H-M "P -1"
_symmetry_group_IT_number 2
_symmetry_cell_setting 'triclinic'
loop_
_space_group_symop_operation_xyz
x,y,z
-x,-y,-z
loop_
_atom_site_type_symbol
_atom_site_label
_atom_site_fract_x
_atom_site_fract_y
_atom_site_fract_z
Si Si1 0.687275 0.007723 0.777628
Si Si2 0.702764 0.498227 0.632301
Si Si3 0.160400 0.655408 0.080017
Si Si4 0.455797 0.744579 0.265348
Si Si5 0.323516 0.230391 0.217031
Si Si6 0.725684 0.121672 0.509940
Si Si7 0.073761 0.865217 0.016560
Si Si8 0.779643 0.418451 0.275496
O O1 0.734101 0.896657 0.790748
O O2 0.854427 0.081350 0.612116
O O3 0.790391 0.082335 0.876461
O O4 0.305350 0.950416 0.855334
O O5 0.478843 0.361406 0.703951
O O6 0.507753 0.560513 0.611956
O O7 0.000000 0.500000 0.500000
O O8 0.901204 0.557448 0.716077
O O9 0.175039 0.683452 0.226412
O O10 0.081317 0.745772 0.014861
O O11 0.912118 0.523002 0.135496
O O12 0.505549 0.687768 0.947911
O O13 0.413968 0.804532 0.393934
O O14 0.719216 0.837489 0.109894
O O15 0.588352 0.293809 0.266314
O O16 0.994156 0.203177 0.350373
O O17 0.500000 0.000000 0.500000
#
# Coordination Sequence:
#
# PCOD9111143 Si02
#       8
#     2   2   2   2   2   2   2   2
#     4  10  23  41  65  95 136 179 236 285 357 416
#     4  11  24  43  71 107 142 193 236 295 362 434
#     4  10  22  45  70 102 132 187 241 289 351 431
#     4  11  23  41  71  96 135 180 236 291 349 428
#     4  11  25  44  68  99 147 187 229 299 365 427
#     4  12  26  42  63 105 143 185 230 293 371 428
#     4  10  20  42  69  96 127 177 236 299 333 424
#     4  11  24  46  70 109 145 187 243 299 361 430
#
# _framework density 27.364668000000002
#
# number of rings (size 3 to 8) (size 9 to 14) (size 15 to 20)
#    0.000    1.250    2.500    2.625    1.750    4.500 
#    2.250    1.875    0.000    0.000    0.000    0.000 
#    0.000    0.000    0.000    0.000    0.000    0.000 
#
# Total GULP energy -89360.984671 kJ/mol
# GULP energy per Si atom -5585.061542 kJ/mol
# Density = 2.730238 g / cm^3
# Si number density = 27.364668 Si / 1000 Ang^3
#
#
#
# Elastic Constant Matrix: (Units=GPa)
#
#
# Indices 1 2 3 4 5 6 
#
# 1 83.8430 31.1682 26.8876 0.2926 -13.1320 16.6420
# 2 31.1682 105.0735 49.2825 -2.0359 -10.9724 20.1559
# 3 26.8876 49.2825 119.2361 19.4389 -26.0651 4.5504
# 4 0.2926 -2.0359 19.4389 39.7351 1.0319 9.1351
# 5 -13.1320 -10.9724 -26.0651 1.0319 33.9009 -2.0025
# 6 16.6420 20.1559 4.5504 9.1351 -2.0025 36.6028
#
#
#
# Elastic Compliance Matrix: (Units=1/GPa)
#
#
# Indices 1 2 3 4 5 6 
#
# 1 0.014946 -0.002063 -0.001904 0.001948 0.003260 -0.005731
# 2 -0.002063 0.014693 -0.006663 0.005889 -0.001812 -0.007894
# 3 -0.001904 -0.006663 0.014832 -0.009074 0.009108 0.005454
# 4 0.001948 0.005889 -0.009074 0.032689 -0.005989 -0.011487
# 5 0.003260 -0.001812 0.009108 -0.005989 0.037473 0.001928
# 6 -0.005731 -0.007894 0.005454 -0.011487 0.001928 0.036567
#
#
# Mechanical properties :
#
#
# Convention : Reuss Voigt Hill
#
# Bulk Modulus (GPa) = 43.08122 58.09214 50.58668
# Shear Modulus (GPa) = 27.74737 35.43539 31.59138
#
# Velocity S-wave (km/s) = 3.18777 3.60242 3.40142
# Velocity P-wave (km/s) = 5.41541 6.21114 5.82687
#
# Compressibility (1/GPa) = 0.02321197
#
# Stress axis : x y z
#
# Youngs Moduli (GPa) = 66.90845 68.05848 67.42148
#
# Poissons Ratio (x) = 0.14040 0.12836
# Poissons Ratio (y) = 0.13803 0.44921
# Poissons Ratio (z) = 0.12739 0.45345
#
# Static dielectric constant tensor:
#      x y z
#    x 2.336490 0.078720 -0.098890 
#    y 0.078720 2.190280 0.006840 
#    z -0.098890 0.006840 2.238910 
# 
# From -- ./inp_files/367757.got.cif
#   From: 2010.05.17/outbox.cif.g08.bks.cpg/sg2_184_cif.got.tgz:367757.got - 2010.06.03 11:33:40.
