data_PCOD9111270
_publ_section_title
;
Structure prediction by ZEFSAII (Michael W. Deem and Ramdas Pophale) SiO2 
 PCOD9111270
Probable space group: P -1
;
_chemical_formula_sum "Si O2"
_cell_formula_units_Z 14
_cell_length_a 15.673210
_cell_length_b 25.460132
_cell_length_c 5.185570
_cell_angle_alpha 117.107846
_cell_angle_beta 59.125403
_cell_angle_gamma 161.979911
_cell_volume 545.329557
_symmetry_space_group_name_H-M "P -1"
_symmetry_group_IT_number 2
_symmetry_cell_setting 'triclinic'
loop_
_space_group_symop_operation_xyz
x,y,z
-x,-y,-z
loop_
_atom_site_type_symbol
_atom_site_label
_atom_site_fract_x
_atom_site_fract_y
_atom_site_fract_z
Si Si1 0.846999 0.525328 0.540965
Si Si2 0.492731 0.062684 0.561463
Si Si3 0.546373 0.472733 0.672797
Si Si4 0.864807 0.988853 0.163821
Si Si5 0.425176 0.128485 0.135091
Si Si6 0.947121 0.788764 0.517190
Si Si7 0.933256 0.512139 0.857663
O O1 0.185284 0.732292 0.509310
O O2 0.760905 0.460167 0.819874
O O3 0.676371 0.486504 0.619766
O O4 0.812529 0.455328 0.214669
O O5 0.500000 0.000000 0.500000
O O6 0.342266 0.017358 0.916360
O O7 0.282216 0.957458 0.411784
O O8 0.785855 0.636987 0.486038
O O9 0.240063 0.293164 0.614720
O O10 0.500000 0.500000 0.000000
O O11 0.070548 0.160019 0.170478
O O12 0.747219 0.937989 0.516489
O O13 0.616158 0.856840 0.034441
O O14 0.000000 0.000000 0.000000
O O15 0.739461 0.292956 0.131344
O O16 0.000000 0.500000 0.500000
#
# Coordination Sequence:
#
# PCOD9111270 Si02
#       7
#     2   2   2   2   2   2   2
#     4  11  25  44  69 105 127 179 232 269 336 404
#     4  10  20  42  71  96 130 174 221 279 331 390
#     4  11  26  43  65  98 145 176 221 279 340 415
#     4  11  24  44  69  96 134 178 231 277 334 399
#     4  10  23  42  65 102 131 167 230 282 328 391
#     4  10  24  42  66  97 136 178 224 275 345 390
#     4  11  24  44  69  95 137 174 222 281 335 394
#
# _framework density 25.672550000000001
#
# number of rings (size 3 to 8) (size 9 to 14) (size 15 to 20)
#    0.000    1.429    1.429    3.429    8.000    2.286 
#    0.000    5.000    0.000    0.000    0.000    0.000 
#    0.000    0.000    0.000    0.000    0.000    0.000 
#
# Total GULP energy -78030.191628 kJ/mol
# GULP energy per Si atom -5573.585116 kJ/mol
# Density = 2.561412 g / cm^3
# Si number density = 25.672550 Si / 1000 Ang^3
#
#
#
# Elastic Constant Matrix: (Units=GPa)
#
#
# Indices 1 2 3 4 5 6 
#
# 1 182.0416 29.6632 55.8443 12.6464 3.6560 40.9368
# 2 29.6632 102.5452 26.4976 37.4182 5.0381 37.5398
# 3 55.8443 26.4976 126.0126 17.4452 15.7793 20.1136
# 4 12.6464 37.4182 17.4452 44.7863 5.8074 6.0109
# 5 3.6560 5.0381 15.7793 5.8074 58.9239 3.5223
# 6 40.9368 37.5398 20.1136 6.0109 3.5223 48.2052
#
#
#
# Elastic Compliance Matrix: (Units=1/GPa)
#
#
# Indices 1 2 3 4 5 6 
#
# 1 0.007533 0.001210 -0.002487 -0.001420 0.000604 -0.006169
# 2 0.001210 0.020634 -0.000417 -0.015491 0.000698 -0.015042
# 3 -0.002487 -0.000417 0.009923 -0.002367 -0.002159 -0.001251
# 4 -0.001420 -0.015491 -0.002367 0.035520 -0.002051 0.009977
# 5 0.000604 0.000698 -0.002159 -0.002051 0.017726 -0.001195
# 6 -0.006169 -0.015042 -0.001251 0.009977 -0.001195 0.037062
#
#
# Mechanical properties :
#
#
# Convention : Reuss Voigt Hill
#
# Bulk Modulus (GPa) = 28.81658 70.51217 49.66437
# Shear Modulus (GPa) = 34.87871 50.28934 42.58403
#
# Velocity S-wave (km/s) = 3.68992 4.43072 4.07718
# Velocity P-wave (km/s) = 5.42245 7.32807 6.44607
#
# Compressibility (1/GPa) = 0.03470225
#
# Stress axis : x y z
#
# Youngs Moduli (GPa) = 132.75392 48.46313 100.77290
#
# Poissons Ratio (x) = -0.05866 0.25064
# Poissons Ratio (y) = -0.16069 0.04205
# Poissons Ratio (z) = 0.33018 0.02022
#
# Static dielectric constant tensor:
#      x y z
#    x 2.141100 -0.179170 0.084420 
#    y -0.179170 2.170510 -0.097490 
#    z 0.084420 -0.097490 2.098920 
# 
# From -- ./inp_files/101591.got.cif
#   From: 2010.05.17/outbox.cif.g08.bks.cpg/sg2_51_cif.got.tgz:101591.got - 2010.06.03 11:33:40.
