data_PCOD9111400
_publ_section_title
;
Structure prediction by ZEFSAII (Michael W. Deem and Ramdas Pophale) SiO2 
 PCOD9111400
Probable space group: P -1
;
_chemical_formula_sum "Si O2"
_cell_formula_units_Z 16
_cell_length_a 18.670705
_cell_length_b 12.854057
_cell_length_c 8.923806
_cell_angle_alpha 136.946478
_cell_angle_beta 93.122133
_cell_angle_gamma 122.762883
_cell_volume 763.690291
_symmetry_space_group_name_H-M "P -1"
_symmetry_group_IT_number 2
_symmetry_cell_setting 'triclinic'
loop_
_space_group_symop_operation_xyz
x,y,z
-x,-y,-z
loop_
_atom_site_type_symbol
_atom_site_label
_atom_site_fract_x
_atom_site_fract_y
_atom_site_fract_z
Si Si1 0.811573 0.390243 0.171344
Si Si2 0.910463 0.222270 0.495315
Si Si3 0.682529 0.665617 0.685108
Si Si4 0.877946 0.855041 0.241522
Si Si5 0.282509 0.855741 0.629128
Si Si6 0.817467 0.605244 0.668057
Si Si7 0.408259 0.210088 0.311611
Si Si8 0.345926 0.754059 0.273520
O O1 0.873463 0.614047 0.542109
O O2 0.931188 0.498385 0.237234
O O3 0.747672 0.372640 0.012252
O O4 0.687635 0.068191 0.891071
O O5 0.846604 0.272969 0.567047
O O6 0.885575 0.052106 0.443876
O O7 0.821352 0.994699 0.106899
O O8 0.713653 0.545830 0.530721
O O9 0.569478 0.465552 0.596331
O O10 0.630412 0.682040 0.564384
O O11 0.899641 0.841207 0.056400
O O12 0.735437 0.528293 0.945084
O O13 0.000000 0.000000 0.500000
O O14 0.246474 0.644094 0.501760
O O15 0.349885 0.908459 0.545378
O O16 0.370953 0.109108 0.025988
O O17 0.500000 0.000000 0.500000
#
# Coordination Sequence:
#
# PCOD9111400 Si02
#       8
#     2   2   2   2   2   2   2   2
#     4  11  23  38  60  94 119 156 204 255 285 351
#     4  10  21  40  64  84 124 157 203 242 298 362
#     4   9  19  36  60  87 120 161 190 247 296 366
#     4  10  20  43  61  88 123 165 190 240 307 362
#     4   9  21  40  61  87 118 166 196 239 306 364
#     4   9  21  36  63  89 119 159 199 242 300 353
#     4   9  20  37  62  90 119 158 200 242 306 349
#     4  11  25  41  61  90 122 154 206 251 295 355
#
# _framework density 20.950901000000002
#
# number of rings (size 3 to 8) (size 9 to 14) (size 15 to 20)
#    0.000    2.250    1.250    0.000    7.000    8.000 
#    0.000    3.125    0.000    0.000    0.000    0.000 
#    0.000    0.000    0.000    0.000    0.000    0.000 
#
# Total GULP energy -89107.460937 kJ/mol
# GULP energy per Si atom -5569.216309 kJ/mol
# Density = 2.090322 g / cm^3
# Si number density = 20.950901 Si / 1000 Ang^3
#
#
#
# Elastic Constant Matrix: (Units=GPa)
#
#
# Indices 1 2 3 4 5 6 
#
# 1 111.4723 24.9741 -0.4992 2.3708 -8.7518 8.5473
# 2 24.9741 98.4316 19.7748 10.9860 -4.9236 7.9094
# 3 -0.4992 19.7748 37.2511 4.2665 7.3853 14.2077
# 4 2.3708 10.9860 4.2665 43.8232 0.3919 2.5828
# 5 -8.7518 -4.9236 7.3853 0.3919 21.8707 11.1054
# 6 8.5473 7.9094 14.2077 2.5828 11.1054 32.1931
#
#
#
# Elastic Compliance Matrix: (Units=1/GPa)
#
#
# Indices 1 2 3 4 5 6 
#
# 1 0.010324 -0.002410 0.002252 0.000073 0.005366 -0.005000
# 2 -0.002410 0.012783 -0.007196 -0.002370 0.004785 -0.000785
# 3 0.002252 -0.007196 0.037022 -0.001110 -0.006720 -0.012762
# 4 0.000073 -0.002370 -0.001110 0.023565 -0.000153 -0.000785
# 5 0.005366 0.004785 -0.006720 -0.000153 0.061864 -0.020963
# 6 -0.005000 -0.000785 -0.012762 -0.000785 -0.020963 0.045509
#
#
# Mechanical properties :
#
#
# Convention : Reuss Voigt Hill
#
# Bulk Modulus (GPa) = 22.01557 37.29493 29.65525
# Shear Modulus (GPa) = 22.63317 33.10443 27.86880
#
# Velocity S-wave (km/s) = 3.29035 3.97935 3.65114
# Velocity P-wave (km/s) = 4.99662 6.24127 5.65330
#
# Compressibility (1/GPa) = 0.04542240
#
# Stress axis : x y z
#
# Youngs Moduli (GPa) = 96.86254 78.22621 27.01107
#
# Poissons Ratio (x) = 0.18852 -0.06084
# Poissons Ratio (y) = 0.23343 0.19437
# Poissons Ratio (z) = -0.21818 0.56291
#
# Static dielectric constant tensor:
#      x y z
#    x 1.832530 -0.016580 -0.039210 
#    y -0.016580 1.740760 0.000640 
#    z -0.039210 0.000640 1.839100 
# 
# From -- ./inp_files/279209.got.cif
#   From: 2010.05.17/outbox.cif.g08.bks.cpg/sg2_140_cif.got.tgz:279209.got - 2010.06.03 11:33:40.
