data_PCOD9111128
_publ_section_title
;
Structure prediction by ZEFSAII (Michael W. Deem and Ramdas Pophale) SiO2 
 PCOD9111128
Probable space group: P -1
;
_chemical_formula_sum "Si O2"
_cell_formula_units_Z 14
_cell_length_a 9.525981
_cell_length_b 11.767145
_cell_length_c 7.696008
_cell_angle_alpha 114.614216
_cell_angle_beta 129.545667
_cell_angle_gamma 56.671978
_cell_volume 552.833761
_symmetry_space_group_name_H-M "P -1"
_symmetry_group_IT_number 2
_symmetry_cell_setting 'triclinic'
loop_
_space_group_symop_operation_xyz
x,y,z
-x,-y,-z
loop_
_atom_site_type_symbol
_atom_site_label
_atom_site_fract_x
_atom_site_fract_y
_atom_site_fract_z
Si Si1 0.676583 0.683431 0.594752
Si Si2 0.987242 0.965490 0.260657
Si Si3 0.529599 0.098458 0.940087
Si Si4 0.267458 0.393212 0.024414
Si Si5 0.801918 0.861382 0.586923
Si Si6 0.737652 0.331381 0.693819
Si Si7 0.104456 0.602227 0.483673
O O1 0.774475 0.630330 0.823708
O O2 0.715546 0.813139 0.652801
O O3 0.448178 0.707858 0.448763
O O4 0.777214 0.553984 0.460519
O O5 0.065479 0.803078 0.203176
O O6 0.131501 0.015222 0.296807
O O7 0.000000 0.000000 0.500000
O O8 0.764702 0.040181 0.064302
O O9 0.457271 0.256664 0.040025
O O10 0.376350 0.107219 0.672203
O O11 0.500000 0.000000 0.000000
O O12 0.286797 0.536984 0.128274
O O13 0.087188 0.394469 0.768994
O O14 0.006163 0.728982 0.615494
O O15 0.753817 0.371275 0.531076
#
# Coordination Sequence:
#
# PCOD9111128 Si02
#       7
#     2   2   2   2   2   2   2
#     4  11  23  39  64 101 135 161 212 285 330 370
#     4  12  22  42  70  92 132 178 221 263 321 403
#     4  11  23  44  71  95 128 178 226 262 315 406
#     4  10  22  42  70  96 127 172 225 266 318 395
#     4  11  25  43  65 101 133 169 220 271 333 382
#     4  11  22  39  66  97 125 172 220 259 325 392
#     4  10  20  42  69  92 128 176 220 261 320 405
#
# _framework density 25.324069000000001
#
# number of rings (size 3 to 8) (size 9 to 14) (size 15 to 20)
#    0.000    1.143    2.857    5.571    2.000    0.571 
#    5.143    2.143    0.000    0.000    0.000    0.000 
#    0.000    0.000    0.000    0.000    0.000    0.000 
#
# Total GULP energy -78459.704375 kJ/mol
# GULP energy per Si atom -5604.264598 kJ/mol
# Density = 2.526643 g / cm^3
# Si number density = 25.324069 Si / 1000 Ang^3
#
#
#
# Elastic Constant Matrix: (Units=GPa)
#
#
# Indices 1 2 3 4 5 6 
#
# 1 105.1672 45.5349 43.3894 -0.6166 22.5734 20.4874
# 2 45.5349 182.7961 32.3548 6.2235 16.4856 -9.2907
# 3 43.3894 32.3548 73.5901 2.9495 23.9237 1.8576
# 4 -0.6166 6.2235 2.9495 35.9800 1.4076 10.9568
# 5 22.5734 16.4856 23.9237 1.4076 30.5139 2.3308
# 6 20.4874 -9.2907 1.8576 10.9568 2.3308 49.3553
#
#
#
# Elastic Compliance Matrix: (Units=1/GPa)
#
#
# Indices 1 2 3 4 5 6 
#
# 1 0.015985 -0.002907 -0.006583 0.003801 -0.004691 -0.007557
# 2 -0.002907 0.006656 -0.000931 -0.001998 -0.000851 0.002978
# 3 -0.006583 -0.000931 0.021721 -0.002114 -0.011771 0.002765
# 4 0.003801 -0.001998 -0.002114 0.031069 -0.000841 -0.008732
# 5 -0.004691 -0.000851 -0.011771 -0.000841 0.045951 0.000247
# 6 -0.007557 0.002978 0.002765 -0.008732 0.000247 0.025782
#
#
# Mechanical properties :
#
#
# Convention : Reuss Voigt Hill
#
# Bulk Modulus (GPa) = 42.51764 67.12350 54.82057
# Shear Modulus (GPa) = 28.43418 39.18812 33.81115
#
# Velocity S-wave (km/s) = 3.35447 3.93805 3.65792
# Velocity P-wave (km/s) = 5.64174 6.87321 6.28770
#
# Compressibility (1/GPa) = 0.02351965
#
# Stress axis : x y z
#
# Youngs Moduli (GPa) = 62.55933 150.24906 46.03846
#
# Poissons Ratio (x) = 0.43678 0.30308
# Poissons Ratio (y) = 0.18186 0.04285
# Poissons Ratio (z) = 0.41184 0.13983
#
# Static dielectric constant tensor:
#      x y z
#    x 2.059950 -0.091150 -0.072840 
#    y -0.091150 2.104480 0.022100 
#    z -0.072840 0.022100 1.982970 
# 
# From -- ./inp_files/189596.got.cif
#   From: 2010.05.17/outbox.cif.g08.bks.cpg/sg2_95_cif.got.tgz:189596.got - 2010.06.03 11:33:40.
