data_PCOD9111513
_publ_section_title
;
Structure prediction by ZEFSAII (Michael W. Deem and Ramdas Pophale) SiO2 
 PCOD9111513
Probable space group: P -1
;
_chemical_formula_sum "Si O2"
_cell_formula_units_Z 14
_cell_length_a 13.191761
_cell_length_b 10.170872
_cell_length_c 9.037943
_cell_angle_alpha 47.001831
_cell_angle_beta 129.096218
_cell_angle_gamma 109.315693
_cell_volume 677.692472
_symmetry_space_group_name_H-M "P -1"
_symmetry_group_IT_number 2
_symmetry_cell_setting 'triclinic'
loop_
_space_group_symop_operation_xyz
x,y,z
-x,-y,-z
loop_
_atom_site_type_symbol
_atom_site_label
_atom_site_fract_x
_atom_site_fract_y
_atom_site_fract_z
Si Si1 0.345638 0.901628 0.497926
Si Si2 0.563442 0.057199 0.751147
Si Si3 0.704749 0.338528 0.106751
Si Si4 0.032892 0.584025 0.810726
Si Si5 0.770479 0.738835 0.296113
Si Si6 0.535766 0.667539 0.313851
Si Si7 0.784028 0.685111 0.005182
O O1 0.482368 0.924193 0.689164
O O2 0.262113 0.106664 0.246835
O O3 0.379521 0.834896 0.412796
O O4 0.276417 0.773636 0.637255
O O5 0.467511 0.174971 0.688156
O O6 0.684334 0.940666 0.041690
O O7 0.838417 0.317356 0.148559
O O8 0.584064 0.283056 0.949596
O O9 0.680616 0.554787 0.958315
O O10 0.906608 0.715328 0.527668
O O11 0.000000 0.500000 0.000000
O O12 0.081817 0.414139 0.874343
O O13 0.672787 0.632307 0.379417
O O14 0.796079 0.673845 0.201110
O O15 0.500000 0.500000 0.500000
#
# Coordination Sequence:
#
# PCOD9111513 Si02
#       7
#     2   2   2   2   2   2   2
#     4  10  20  43  65  95 125 169 205 260 316 368
#     4  10  23  39  64  94 131 158 210 262 315 372
#     4  10  23  40  64  93 125 163 213 254 312 370
#     4  10  23  43  62  92 127 168 208 258 317 371
#     4  11  22  42  65  87 127 173 200 260 322 359
#     4  12  24  37  62  97 126 162 213 261 309 372
#     4   9  23  41  67  89 129 165 211 257 311 378
#
# _framework density 20.658338000000001
#
# number of rings (size 3 to 8) (size 9 to 14) (size 15 to 20)
#    0.857    0.857    1.429    2.571    4.000    0.571 
#    0.000    7.143    0.000    0.000    0.000    0.000 
#    0.000    0.000    0.000    0.000    0.000    0.000 
#
# Total GULP energy -78095.649196 kJ/mol
# GULP energy per Si atom -5578.260657 kJ/mol
# Density = 2.061132 g / cm^3
# Si number density = 20.658338 Si / 1000 Ang^3
#
#
#
# Elastic Constant Matrix: (Units=GPa)
#
#
# Indices 1 2 3 4 5 6 
#
# 1 104.8408 -2.9290 16.4229 -9.0558 -29.4945 -7.3997
# 2 -2.9290 27.6235 -4.9355 -0.3270 -8.6333 -9.4994
# 3 16.4229 -4.9355 84.0669 -5.7063 -12.8250 -4.8567
# 4 -9.0558 -0.3270 -5.7063 21.7043 4.3855 -1.0674
# 5 -29.4945 -8.6333 -12.8250 4.3855 46.2628 4.3572
# 6 -7.3997 -9.4994 -4.8567 -1.0674 4.3572 28.0057
#
#
#
# Elastic Compliance Matrix: (Units=1/GPa)
#
#
# Indices 1 2 3 4 5 6 
#
# 1 0.012661 0.005216 -0.000434 0.003783 0.008198 0.003908
# 2 0.005216 0.046852 0.004616 0.002564 0.011563 0.016369
# 3 -0.000434 0.004616 0.013188 0.002775 0.003669 0.003273
# 4 0.003783 0.002564 0.002775 0.048920 -0.001395 0.004432
# 5 0.008198 0.011563 0.003669 -0.001395 0.029960 0.002010
# 6 0.003908 0.016369 0.003273 0.004432 0.002010 0.042716
#
#
# Mechanical properties :
#
#
# Convention : Reuss Voigt Hill
#
# Bulk Modulus (GPa) = 10.92941 25.96088 18.44515
# Shear Modulus (GPa) = 24.27164 33.05941 28.66552
#
# Velocity S-wave (km/s) = 3.43141 4.00471 3.72909
# Velocity P-wave (km/s) = 4.58274 5.82903 5.24305
#
# Compressibility (1/GPa) = 0.09149621
#
# Stress axis : x y z
#
# Youngs Moduli (GPa) = 78.98324 21.34374 75.82484
#
# Poissons Ratio (x) = -0.11133 0.03290
# Poissons Ratio (y) = -0.41196 -0.34997
# Poissons Ratio (z) = 0.03427 -0.09851
#
# Static dielectric constant tensor:
#      x y z
#    x 1.755360 -0.009860 -0.019660 
#    y -0.009860 1.745370 -0.011850 
#    z -0.019660 -0.011850 1.766470 
# 
# From -- ./inp_files/251725.got.cif
#   From: 2010.05.17/outbox.cif.g08.bks.cpg/sg2_126_cif.got.tgz:251725.got - 2010.06.03 11:33:40.
