data_PCOD9111612
_publ_section_title
;
Structure prediction by ZEFSAII (Michael W. Deem and Ramdas Pophale) SiO2 
 PCOD9111612
Probable space group: P -1
;
_chemical_formula_sum "Si O2"
_cell_formula_units_Z 15
_cell_length_a 7.605421
_cell_length_b 21.381739
_cell_length_c 8.335373
_cell_angle_alpha 49.449639
_cell_angle_beta 45.056148
_cell_angle_gamma 37.772479
_cell_volume 574.356321
_symmetry_space_group_name_H-M "P -1"
_symmetry_group_IT_number 2
_symmetry_cell_setting 'triclinic'
loop_
_space_group_symop_operation_xyz
x,y,z
-x,-y,-z
loop_
_atom_site_type_symbol
_atom_site_label
_atom_site_fract_x
_atom_site_fract_y
_atom_site_fract_z
Si Si1 0.155113 0.068906 0.025754
Si Si2 0.689704 0.388944 0.152014
Si Si3 0.489747 0.073000 0.251139
Si Si4 0.705242 0.720667 0.859246
Si Si5 0.179673 0.514439 0.497577
Si Si6 0.200239 0.816673 0.640586
Si Si7 0.000000 0.500000 0.000000
Si Si8 0.854237 0.744627 0.363638
O O1 0.060727 0.179496 0.846843
O O2 0.245023 0.997149 0.935243
O O3 0.908057 0.106061 0.266553
O O4 0.500000 0.000000 0.000000
O O5 0.538571 0.422838 0.372603
O O6 0.670938 0.303785 0.224875
O O7 0.047533 0.334440 0.058300
O O8 0.500000 0.500000 0.000000
O O9 0.529135 0.159930 0.133379
O O10 0.127189 0.133573 0.322476
O O11 0.500000 0.000000 0.500000
O O12 0.688889 0.627503 0.988633
O O13 0.819838 0.735606 0.590671
O O14 0.000000 0.500000 0.500000
O O15 0.084754 0.510624 0.743442
O O16 0.089470 0.627847 0.341631
O O17 0.512683 0.798839 0.407562
#
# Coordination Sequence:
#
# PCOD9111612 Si02
#       8
#     2   2   2   2   2   2   1   2
#     4  10  22  40  67  92 129 173 227 282 337 399
#     4  11  22  41  69  95 135 183 232 272 355 420
#     4  10  20  43  67  90 132 174 223 276 340 400
#     4  10  23  41  65  96 135 176 217 290 334 408
#     4  11  22  41  66  97 137 180 221 287 345 412
#     4  10  23  41  67  99 127 179 224 276 343 408
#     4  10  24  40  62 100 138 164 232 276 346 412
#     4  11  22  42  65  97 136 171 230 283 338 409
#
# _framework density 26.116192999999999
#
# number of rings (size 3 to 8) (size 9 to 14) (size 15 to 20)
#    0.000    1.600    2.667    1.600    1.867    6.400 
#    4.800    0.667    0.000    0.000    0.000    0.000 
#    0.000    0.000    0.000    0.000    0.000    0.000 
#
# Total GULP energy -83529.173511 kJ/mol
# GULP energy per Si atom -5568.611567 kJ/mol
# Density = 2.605675 g / cm^3
# Si number density = 26.116193 Si / 1000 Ang^3
#
#
#
# Elastic Constant Matrix: (Units=GPa)
#
#
# Indices 1 2 3 4 5 6 
#
# 1 94.1281 40.1557 14.7288 -6.5457 5.9282 1.9613
# 2 40.1557 222.7812 48.8085 -3.2275 10.4173 44.8681
# 3 14.7288 48.8085 68.5999 -10.7185 18.2861 8.7111
# 4 -6.5457 -3.2275 -10.7185 43.1667 5.4598 11.6174
# 5 5.9282 10.4173 18.2861 5.4598 31.3163 -3.9868
# 6 1.9613 44.8681 8.7111 11.6174 -3.9868 45.8632
#
#
#
# Elastic Compliance Matrix: (Units=1/GPa)
#
#
# Indices 1 2 3 4 5 6 
#
# 1 0.011787 -0.002179 -0.000636 0.001260 -0.001186 0.001326
# 2 -0.002179 0.006962 -0.003148 0.001315 -0.001129 -0.006551
# 3 -0.000636 -0.003148 0.022543 0.008243 -0.014003 -0.004480
# 4 0.001260 0.001315 0.008243 0.030174 -0.012228 -0.011612
# 5 -0.001186 -0.001129 -0.014003 -0.012228 0.044210 0.010755
# 6 0.001326 -0.006551 -0.004480 -0.011612 0.010755 0.032884
#
#
# Mechanical properties :
#
#
# Convention : Reuss Voigt Hill
#
# Bulk Modulus (GPa) = 34.05087 65.87725 49.96406
# Shear Modulus (GPa) = 29.36445 42.85697 36.11071
#
# Velocity S-wave (km/s) = 3.35681 4.05533 3.72249
# Velocity P-wave (km/s) = 5.30007 6.87074 6.13587
#
# Compressibility (1/GPa) = 0.02936782
#
# Stress axis : x y z
#
# Youngs Moduli (GPa) = 84.83605 143.63137 44.35982
#
# Poissons Ratio (x) = 0.31292 0.02822
# Poissons Ratio (y) = 0.18482 0.13963
# Poissons Ratio (z) = 0.05397 0.45210
#
# Static dielectric constant tensor:
#      x y z
#    x 2.294260 -0.050110 -0.040480 
#    y -0.050110 2.065000 0.048100 
#    z -0.040480 0.048100 2.099970 
# 
# From -- ./inp_files/202419.got.cif
#   From: 2010.05.17/outbox.cif.g08.bks.cpg/sg2_102_cif.got.tgz:202419.got - 2010.06.03 11:33:40.
