data_PCOD9111671
_publ_section_title
;
Structure prediction by ZEFSAII (Michael W. Deem and Ramdas Pophale) SiO2 
 PCOD9111671
Probable space group: P -1
;
_chemical_formula_sum "Si O2"
_cell_formula_units_Z 14
_cell_length_a 9.426347
_cell_length_b 10.268894
_cell_length_c 14.587740
_cell_angle_alpha 125.036940
_cell_angle_beta 150.488115
_cell_angle_gamma 62.973007
_cell_volume 565.947748
_symmetry_space_group_name_H-M "P -1"
_symmetry_group_IT_number 2
_symmetry_cell_setting 'triclinic'
loop_
_space_group_symop_operation_xyz
x,y,z
-x,-y,-z
loop_
_atom_site_type_symbol
_atom_site_label
_atom_site_fract_x
_atom_site_fract_y
_atom_site_fract_z
Si Si1 0.827010 0.647919 0.618499
Si Si2 0.636365 0.081069 0.268689
Si Si3 0.116143 0.424545 0.911690
Si Si4 0.510114 0.288040 0.932041
Si Si5 0.220127 0.203047 0.543025
Si Si6 0.642673 0.135241 0.505767
Si Si7 0.650829 0.622551 0.782526
O O1 0.812771 0.686440 0.517671
O O2 0.654408 0.784201 0.623062
O O3 0.642113 0.475666 0.461024
O O4 0.155597 0.659339 0.838585
O O5 0.727024 0.112431 0.437844
O O6 0.380250 0.191257 0.154549
O O7 0.900383 0.144296 0.377755
O O8 0.546711 0.893738 0.134375
O O9 0.306696 0.390085 0.918344
O O10 0.883759 0.268033 0.735036
O O11 0.921337 0.570840 0.857351
O O12 0.305598 0.440454 0.116098
O O13 0.408202 0.278682 0.764963
O O14 0.357919 0.042009 0.526327
#
# Coordination Sequence:
#
# PCOD9111671 Si02
#       7
#     2   2   2   2   2   2   2
#     4  11  26  43  65 100 146 169 213 282 345 384
#     4  11  22  42  74  98 128 170 239 272 312 408
#     4  10  20  43  68  91 132 178 225 263 324 403
#     4  11  23  44  73  99 127 178 229 273 330 388
#     4  11  22  42  69 104 129 175 222 284 316 409
#     4  10  21  44  67  99 131 174 223 278 327 389
#     4  10  25  43  65 101 135 175 223 271 332 406
#
# _framework density 24.737265000000001
#
# number of rings (size 3 to 8) (size 9 to 14) (size 15 to 20)
#    0.000    1.429    2.857    2.143    2.000    8.000 
#   12.857    1.429    0.000    0.000    0.000    0.000 
#    0.000    0.000    0.000    0.000    0.000    0.000 
#
# Total GULP energy -78526.644155 kJ/mol
# GULP energy per Si atom -5609.046011 kJ/mol
# Density = 2.468096 g / cm^3
# Si number density = 24.737265 Si / 1000 Ang^3
#
#
#
# Elastic Constant Matrix: (Units=GPa)
#
#
# Indices 1 2 3 4 5 6 
#
# 1 130.1060 47.0261 35.8924 -6.9809 -0.6890 -20.4687
# 2 47.0261 164.7655 52.7781 -1.8035 9.4887 -24.8612
# 3 35.8924 52.7781 121.3126 -10.4217 11.8819 -16.2440
# 4 -6.9809 -1.8035 -10.4217 22.9645 -0.4364 1.3170
# 5 -0.6890 9.4887 11.8819 -0.4364 18.2215 -2.7282
# 6 -20.4687 -24.8612 -16.2440 1.3170 -2.7282 46.3517
#
#
#
# Elastic Compliance Matrix: (Units=1/GPa)
#
#
# Indices 1 2 3 4 5 6 
#
# 1 0.009368 -0.001866 -0.001733 0.001818 0.002896 0.002647
# 2 -0.001866 0.007864 -0.002428 -0.001234 -0.002246 0.002446
# 3 -0.001733 -0.002428 0.010883 0.004040 -0.005606 0.001302
# 4 0.001818 -0.001234 0.004040 0.045808 -0.000795 0.000208
# 5 0.002896 -0.002246 -0.005606 -0.000795 0.060045 0.001666
# 6 0.002647 0.002446 0.001302 0.000208 0.001666 0.024604
#
#
# Mechanical properties :
#
#
# Convention : Reuss Voigt Hill
#
# Bulk Modulus (GPa) = 62.26080 76.39748 69.32914
# Shear Modulus (GPa) = 28.41251 36.20671 32.30961
#
# Velocity S-wave (km/s) = 3.39273 3.82992 3.61794
# Velocity P-wave (km/s) = 6.36954 7.10692 6.74831
#
# Compressibility (1/GPa) = 0.01606147
#
# Stress axis : x y z
#
# Youngs Moduli (GPa) = 106.74716 127.15397 91.89025
#
# Poissons Ratio (x) = 0.23728 0.15922
# Poissons Ratio (y) = 0.19920 0.22310
# Poissons Ratio (z) = 0.18497 0.30872
#
# Static dielectric constant tensor:
#      x y z
#    x 1.955580 0.025910 -0.004200 
#    y 0.025910 1.971000 -0.002040 
#    z -0.004200 -0.002040 1.898390 
# 
# From -- ./inp_files/157520.got.cif
#   From: 2010.05.17/outbox.cif.g08.bks.cpg/sg2_79_cif.got.tgz:157520.got - 2010.06.03 11:33:40.
