data_PCOD9111923
_publ_section_title
;
Structure prediction by ZEFSAII (Michael W. Deem and Ramdas Pophale) SiO2 
 PCOD9111923
Probable space group: P -1
;
_chemical_formula_sum "Si O2"
_cell_formula_units_Z 16
_cell_length_a 9.148741
_cell_length_b 26.504772
_cell_length_c 9.553572
_cell_angle_alpha 44.618745
_cell_angle_beta 134.357434
_cell_angle_gamma 150.504626
_cell_volume 779.626893
_symmetry_space_group_name_H-M "P -1"
_symmetry_group_IT_number 2
_symmetry_cell_setting 'triclinic'
loop_
_space_group_symop_operation_xyz
x,y,z
-x,-y,-z
loop_
_atom_site_type_symbol
_atom_site_label
_atom_site_fract_x
_atom_site_fract_y
_atom_site_fract_z
Si Si1 0.951184 0.366867 0.204676
Si Si2 0.273821 0.095080 0.095323
Si Si3 0.856177 0.779971 0.297967
Si Si4 0.962571 0.239221 0.266679
Si Si5 0.322939 0.138871 0.352333
Si Si6 0.402517 0.584319 0.197913
Si Si7 0.867869 0.748996 0.949205
Si Si8 0.389318 0.898260 0.198181
O O1 0.040035 0.334411 0.207426
O O2 0.670943 0.255220 0.317833
O O3 0.209565 0.461789 0.296566
O O4 0.827482 0.407878 0.970993
O O5 0.596252 0.140968 0.193496
O O6 0.204762 0.073334 0.257780
O O7 0.312600 0.189896 0.905539
O O8 0.000000 0.000000 0.000000
O O9 0.638269 0.659855 0.332223
O O10 0.942429 0.794341 0.487986
O O11 0.160363 0.857849 0.252657
O O12 0.127187 0.271854 0.166236
O O13 0.158264 0.170796 0.214665
O O14 0.357529 0.088745 0.595081
O O15 0.596851 0.645682 0.064317
O O16 0.178598 0.806391 0.121107
O O17 0.500000 0.000000 0.000000
#
# Coordination Sequence:
#
# PCOD9111923 Si02
#       8
#     2   2   2   2   2   2   2   2
#     4   9  17  37  69  87 121 165 208 247 310 362
#     4  11  23  40  65  87 122 164 209 255 304 359
#     4  11  21  42  62  93 123 156 216 253 295 379
#     4  11  23  39  61  91 128 162 201 259 306 365
#     4  10  20  44  60  90 125 162 208 255 298 377
#     4   9  18  38  67  91 118 167 205 253 305 366
#     4  10  23  39  59  91 130 159 201 257 307 360
#     4  11  23  39  64  86 120 164 209 254 307 367
#
# _framework density 20.522637
#
# number of rings (size 3 to 8) (size 9 to 14) (size 15 to 20)
#    0.000    1.750    7.500    0.000    1.750    4.000 
#    0.000    0.000    0.000    2.250    0.000    0.000 
#    0.000    0.000    0.000    0.000    0.000    0.000 
#
# Total GULP energy -89361.916668 kJ/mol
# GULP energy per Si atom -5585.119792 kJ/mol
# Density = 2.047593 g / cm^3
# Si number density = 20.522637 Si / 1000 Ang^3
#
#
#
# Elastic Constant Matrix: (Units=GPa)
#
#
# Indices 1 2 3 4 5 6 
#
# 1 66.1982 9.6159 22.4709 11.8592 -15.4588 -7.0835
# 2 9.6159 98.6516 22.7419 17.3697 -8.0081 -16.6715
# 3 22.4709 22.7419 119.4349 20.8693 -4.3438 -2.4454
# 4 11.8592 17.3697 20.8693 28.8209 -4.9148 4.1222
# 5 -15.4588 -8.0081 -4.3438 -4.9148 31.6827 5.3895
# 6 -7.0835 -16.6715 -2.4454 4.1222 5.3895 19.5383
#
#
#
# Elastic Compliance Matrix: (Units=1/GPa)
#
#
# Indices 1 2 3 4 5 6 
#
# 1 0.019458 0.001852 -0.002304 -0.007369 0.007155 0.007928
# 2 0.001852 0.014761 -0.000878 -0.011213 0.000141 0.015484
# 3 -0.002304 -0.000878 0.010036 -0.006170 -0.001146 0.001290
# 4 -0.007369 -0.011213 -0.006170 0.053572 0.005425 -0.025811
# 5 0.007155 0.000141 -0.001146 0.005425 0.037281 -0.008857
# 6 0.007928 0.015484 0.001290 -0.025811 -0.008857 0.075318
#
#
# Mechanical properties :
#
#
# Convention : Reuss Voigt Hill
#
# Bulk Modulus (GPa) = 24.03995 43.77133 33.90564
# Shear Modulus (GPa) = 22.03138 31.30545 26.66842
#
# Velocity S-wave (km/s) = 3.28001 3.90989 3.60872
# Velocity P-wave (km/s) = 5.10724 6.46201 5.82415
#
# Compressibility (1/GPa) = 0.04159743
#
# Stress axis : x y z
#
# Youngs Moduli (GPa) = 51.39218 67.74688 99.63954
#
# Poissons Ratio (x) = -0.12549 0.22952
# Poissons Ratio (y) = -0.09519 0.08745
# Poissons Ratio (z) = 0.11838 0.05946
#
# Static dielectric constant tensor:
#      x y z
#    x 1.732060 0.019480 0.026470 
#    y 0.019480 1.792850 0.011700 
#    z 0.026470 0.011700 1.743780 
# 
# From -- ./inp_files/227418.got.cif
#   From: 2010.05.17/outbox.cif.g08.bks.cpg/sg2_114_cif.got.tgz:227418.got - 2010.06.03 11:33:40.
