data_PCOD9111233
_publ_section_title
;
Structure prediction by ZEFSAII (Michael W. Deem and Ramdas Pophale) SiO2 
 PCOD9111233
Probable space group: P -1
;
_chemical_formula_sum "Si O2"
_cell_formula_units_Z 16
_cell_length_a 14.418268
_cell_length_b 9.418676
_cell_length_c 9.350482
_cell_angle_alpha 75.739011
_cell_angle_beta 129.704704
_cell_angle_gamma 74.124534
_cell_volume 772.692634
_symmetry_space_group_name_H-M "P -1"
_symmetry_group_IT_number 2
_symmetry_cell_setting 'triclinic'
loop_
_space_group_symop_operation_xyz
x,y,z
-x,-y,-z
loop_
_atom_site_type_symbol
_atom_site_label
_atom_site_fract_x
_atom_site_fract_y
_atom_site_fract_z
Si Si1 0.092117 0.257574 0.305261
Si Si2 0.893320 0.942151 0.368605
Si Si3 0.846640 0.827675 0.055810
Si Si4 0.407038 0.547211 0.542097
Si Si5 0.423011 0.122086 0.113849
Si Si6 0.450191 0.802871 0.043062
Si Si7 0.875064 0.446486 0.797156
Si Si8 0.328607 0.927283 0.440828
O O1 0.070935 0.222145 0.454621
O O2 0.175359 0.353336 0.339273
O O3 0.191834 0.063818 0.375681
O O4 0.941260 0.385912 0.036701
O O5 0.899744 0.892399 0.221482
O O6 0.000000 0.000000 0.500000
O O7 0.721482 0.099209 0.187904
O O8 0.986293 0.680625 0.138360
O O9 0.747963 0.765274 0.037714
O O10 0.731983 0.989030 0.796467
O O11 0.500000 0.500000 0.500000
O O12 0.489221 0.380802 0.772147
O O13 0.252689 0.578821 0.344837
O O14 0.375304 0.726477 0.535019
O O15 0.531980 0.078533 0.363205
O O16 0.455357 0.940875 0.119014
O O17 0.459845 0.214458 0.004927
#
# Coordination Sequence:
#
# PCOD9111233 Si02
#       8
#     2   2   2   2   2   2   2   2
#     4  10  23  45  70  96 130 185 224 274 338 391
#     4  11  24  42  72  97 140 178 222 274 341 404
#     4  10  24  41  68 104 129 184 225 273 344 394
#     4  12  27  42  66 100 140 177 221 282 339 397
#     4  10  20  42  70  96 132 177 222 277 329 404
#     4  10  23  43  68 100 135 179 220 276 339 392
#     4  10  25  44  68  98 138 172 231 282 325 405
#     4  11  23  42  70  97 136 176 225 276 335 397
#
# _framework density 20.706810999999998
#
# number of rings (size 3 to 8) (size 9 to 14) (size 15 to 20)
#    0.000    1.500    1.250    2.625    8.750    5.000 
#    0.000    0.000    0.000    0.000    0.000    0.000 
#    0.000    0.000    0.000    0.000    0.000    0.000 
#
# Total GULP energy -89453.915149 kJ/mol
# GULP energy per Si atom -5590.869697 kJ/mol
# Density = 2.065968 g / cm^3
# Si number density = 20.706811 Si / 1000 Ang^3
#
#
#
# Elastic Constant Matrix: (Units=GPa)
#
#
# Indices 1 2 3 4 5 6 
#
# 1 108.1739 48.8717 75.5843 -2.6566 0.6381 8.9769
# 2 48.8717 100.8636 62.9546 2.4231 -2.6503 18.2031
# 3 75.5843 62.9546 123.1288 17.9931 -5.7998 13.8226
# 4 -2.6566 2.4231 17.9931 44.3112 6.2592 3.6299
# 5 0.6381 -2.6503 -5.7998 6.2592 37.4418 11.0509
# 6 8.9769 18.2031 13.8226 3.6299 11.0509 25.2435
#
#
#
# Elastic Compliance Matrix: (Units=1/GPa)
#
#
# Indices 1 2 3 4 5 6 
#
# 1 0.018213 -0.002459 -0.011269 0.006170 -0.003942 0.002306
# 2 -0.002459 0.016582 -0.006071 0.001784 0.002690 -0.009193
# 3 -0.011269 -0.006071 0.020137 -0.008989 0.005492 -0.003753
# 4 0.006170 0.001784 -0.008989 0.027324 -0.005977 0.000129
# 5 -0.003942 0.002690 0.005492 -0.005977 0.034002 -0.017571
# 6 0.002306 -0.009193 -0.003753 0.000129 -0.017571 0.055152
#
#
# Mechanical properties :
#
#
# Convention : Reuss Voigt Hill
#
# Bulk Modulus (GPa) = 65.21509 78.55417 71.88463
# Shear Modulus (GPa) = 23.13561 31.04966 27.09264
#
# Velocity S-wave (km/s) = 3.34622 3.87653 3.62110
# Velocity P-wave (km/s) = 6.81854 7.61941 7.23007
#
# Compressibility (1/GPa) = 0.01533388
#
# Stress axis : x y z
#
# Youngs Moduli (GPa) = 54.90626 60.30752 49.66048
#
# Poissons Ratio (x) = 0.14829 0.55963
# Poissons Ratio (y) = 0.13501 0.30147
# Poissons Ratio (z) = 0.61875 0.36610
#
# Static dielectric constant tensor:
#      x y z
#    x 1.744870 -0.012790 -0.014070 
#    y -0.012790 1.731310 0.012040 
#    z -0.014070 0.012040 1.753460 
# 
# From -- ./inp_files/297994.got.cif
#   From: 2010.05.17/outbox.cif.g08.bks.cpg/sg2_149_cif.got.tgz:297994.got - 2010.06.03 11:33:40.
