data_PCOD9111857
_publ_section_title
;
Structure prediction by ZEFSAII (Michael W. Deem and Ramdas Pophale) SiO2 
 PCOD9111857
Probable space group: P -1
;
_chemical_formula_sum "Si O2"
_cell_formula_units_Z 12
_cell_length_a 14.941476
_cell_length_b 14.811123
_cell_length_c 9.305807
_cell_angle_alpha 152.074208
_cell_angle_beta 39.207868
_cell_angle_gamma 153.166829
_cell_volume 434.456187
_symmetry_space_group_name_H-M "P -1"
_symmetry_group_IT_number 2
_symmetry_cell_setting 'triclinic'
loop_
_space_group_symop_operation_xyz
x,y,z
-x,-y,-z
loop_
_atom_site_type_symbol
_atom_site_label
_atom_site_fract_x
_atom_site_fract_y
_atom_site_fract_z
Si Si1 0.385249 0.915070 0.874863
Si Si2 0.672541 0.508494 0.266315
Si Si3 0.226310 0.911318 0.824629
Si Si4 0.763141 0.514596 0.841380
Si Si5 0.053747 0.362225 0.651981
Si Si6 0.776177 0.859265 0.114120
O O1 0.235756 0.931702 0.015046
O O2 0.221952 0.585260 0.639130
O O3 0.500000 0.000000 0.000000
O O4 0.573556 0.198497 0.956549
O O5 0.500000 0.500000 0.500000
O O6 0.837072 0.674051 0.420734
O O7 0.748696 0.588673 0.122317
O O8 0.310119 0.774214 0.500893
O O9 0.995789 0.705991 0.789929
O O10 0.316678 0.142557 0.918842
O O11 0.678516 0.591386 0.944956
O O12 0.844777 0.089119 0.463839
O O13 0.000000 0.500000 0.000000
O O14 0.000000 0.000000 0.000000
#
# Coordination Sequence:
#
# PCOD9111857 Si02
#       6
#     2   2   2   2   2   2
#     4  10  23  42  64  93 136 176 219 277 344 413
#     4  11  26  41  62 100 145 179 218 278 356 409
#     4  10  20  43  72  95 132 176 237 283 337 400
#     4  10  22  42  69 102 130 178 231 284 334 408
#     4  11  23  43  70  96 127 184 241 279 331 406
#     4  10  22  38  70 102 127 167 238 290 332 391
#
# _framework density 27.620737999999999
#
# number of rings (size 3 to 8) (size 9 to 14) (size 15 to 20)
#    0.000    1.667    0.000    5.000    7.000    1.333 
#    3.000    0.833    0.000    0.000    0.000    0.000 
#    0.000    0.000    0.000    0.000    0.000    0.000 
#
# Total GULP energy -66820.564525 kJ/mol
# GULP energy per Si atom -5568.380377 kJ/mol
# Density = 2.755787 g / cm^3
# Si number density = 27.620738 Si / 1000 Ang^3
#
#
#
# Elastic Constant Matrix: (Units=GPa)
#
#
# Indices 1 2 3 4 5 6 
#
# 1 271.7323 40.4852 34.7714 3.2471 -24.3745 -31.9451
# 2 40.4852 92.2772 26.5200 3.0452 -13.5777 -31.5948
# 3 34.7714 26.5200 133.2768 -16.3453 -7.5892 -11.5102
# 4 3.2471 3.0452 -16.3453 32.5479 8.3699 1.2384
# 5 -24.3745 -13.5777 -7.5892 8.3699 37.1953 6.5877
# 6 -31.9451 -31.5948 -11.5102 1.2384 6.5877 64.9578
#
#
#
# Elastic Compliance Matrix: (Units=1/GPa)
#
#
# Indices 1 2 3 4 5 6 
#
# 1 0.004307 -0.000750 -0.000899 -0.001496 0.002458 0.001373
# 2 -0.000750 0.014650 -0.002434 -0.003815 0.004160 0.005976
# 3 -0.000899 -0.002434 0.008775 0.004928 -0.000781 -0.000086
# 4 -0.001496 -0.003815 0.004928 0.036137 -0.009239 -0.001470
# 5 0.002458 0.004160 -0.000781 -0.009239 0.031928 0.000032
# 6 0.001373 0.005976 -0.000086 -0.001470 0.000032 0.018986
#
#
# Mechanical properties :
#
#
# Convention : Reuss Voigt Hill
#
# Bulk Modulus (GPa) = 51.11389 77.87105 64.49247
# Shear Modulus (GPa) = 38.61877 53.30750 45.96313
#
# Velocity S-wave (km/s) = 3.74328 4.39792 4.08374
# Velocity P-wave (km/s) = 6.10153 7.35140 6.75543
#
# Compressibility (1/GPa) = 0.01956415
#
# Stress axis : x y z
#
# Youngs Moduli (GPa) = 232.19699 68.26086 113.96452
#
# Poissons Ratio (x) = 0.05119 0.10248
# Poissons Ratio (y) = 0.17411 0.27743
# Poissons Ratio (z) = 0.20880 0.16617
#
# Static dielectric constant tensor:
#      x y z
#    x 2.099410 0.070200 0.032050 
#    y 0.070200 2.184060 0.251230 
#    z 0.032050 0.251230 2.991060 
# 
# From -- ./inp_files/295106.got.cif
#   From: 2010.05.17/outbox.cif.g08.bks.cpg/sg2_148_cif.got.tgz:295106.got - 2010.06.03 11:33:40.
