data_PCOD9111861
_publ_section_title
;
Structure prediction by ZEFSAII (Michael W. Deem and Ramdas Pophale) SiO2 
 PCOD9111861
Probable space group: P -1
;
_chemical_formula_sum "Si O2"
_cell_formula_units_Z 16
_cell_length_a 11.361885
_cell_length_b 13.674121
_cell_length_c 6.612624
_cell_angle_alpha 118.101636
_cell_angle_beta 77.635895
_cell_angle_gamma 129.865819
_cell_volume 689.715743
_symmetry_space_group_name_H-M "P -1"
_symmetry_group_IT_number 2
_symmetry_cell_setting 'triclinic'
loop_
_space_group_symop_operation_xyz
x,y,z
-x,-y,-z
loop_
_atom_site_type_symbol
_atom_site_label
_atom_site_fract_x
_atom_site_fract_y
_atom_site_fract_z
Si Si1 0.354573 0.617669 0.846068
Si Si2 0.594144 0.110151 0.389289
Si Si3 0.945287 0.580456 0.993768
Si Si4 0.888808 0.196329 0.539910
Si Si5 0.840240 0.562745 0.594754
Si Si6 0.413670 0.090687 0.094650
Si Si7 0.605993 0.609163 0.889010
Si Si8 0.831719 0.936930 0.084406
O O1 0.233240 0.513783 0.960368
O O2 0.251862 0.575711 0.644115
O O3 0.455267 0.786139 0.987868
O O4 0.483282 0.595749 0.768595
O O5 0.762864 0.215277 0.531432
O O6 0.480639 0.131260 0.337205
O O7 0.500000 0.000000 0.500000
O O8 0.626524 0.051331 0.123250
O O9 0.056106 0.742379 0.193941
O O10 0.938539 0.571984 0.749690
O O11 0.000000 0.500000 0.000000
O O12 0.044310 0.305693 0.464034
O O13 0.835594 0.042695 0.344081
O O14 0.710493 0.572055 0.728498
O O15 0.264316 0.078110 0.092389
O O16 0.500000 0.500000 0.000000
O O17 0.730704 0.778000 0.059689
O O18 0.000000 0.000000 0.000000
#
# Coordination Sequence:
#
# PCOD9111861 Si02
#       8
#     2   2   2   2   2   2   2   2
#     4  10  23  40  65  95 130 173 224 267 342 397
#     4  10  22  40  64  89 130 169 221 277 326 394
#     4  11  26  40  65  99 135 179 224 279 330 399
#     4  10  24  42  66  96 133 175 229 266 342 400
#     4  11  23  42  68  93 137 173 222 280 336 397
#     4   9  22  39  63  96 125 170 218 268 334 400
#     4  11  21  43  72 100 132 172 224 283 335 404
#     4  10  20  43  72  96 135 176 215 279 341 403
#
# _framework density 23.197960999999999
#
# number of rings (size 3 to 8) (size 9 to 14) (size 15 to 20)
#    0.000    1.750    2.500    0.375    5.250    3.000 
#    2.250    0.625    2.750    0.000    0.000    0.000 
#    0.000    0.000    0.000    0.000    0.000    0.000 
#
# Total GULP energy -89243.976366 kJ/mol
# GULP energy per Si atom -5577.748523 kJ/mol
# Density = 2.314516 g / cm^3
# Si number density = 23.197961 Si / 1000 Ang^3
#
#
#
# Elastic Constant Matrix: (Units=GPa)
#
#
# Indices 1 2 3 4 5 6 
#
# 1 105.4393 21.9464 19.6184 -0.3649 13.6190 21.2810
# 2 21.9464 80.2745 27.5009 12.8186 8.2716 14.5503
# 3 19.6184 27.5009 84.8082 4.8501 22.0910 -0.6878
# 4 -0.3649 12.8186 4.8501 29.2940 -1.7813 1.4895
# 5 13.6190 8.2716 22.0910 -1.7813 29.8024 0.7397
# 6 21.2810 14.5503 -0.6878 1.4895 0.7397 35.8346
#
#
#
# Elastic Compliance Matrix: (Units=1/GPa)
#
#
# Indices 1 2 3 4 5 6 
#
# 1 0.011826 -0.001356 -0.001436 0.001080 -0.003738 -0.006468
# 2 -0.001356 0.016488 -0.004500 -0.006249 -0.000853 -0.005699
# 3 -0.001436 -0.004500 0.016418 -0.001569 -0.010440 0.003276
# 4 0.001080 -0.006249 -0.001569 0.037415 0.004635 0.000215
# 5 -0.003738 -0.000853 -0.010440 0.004635 0.043483 0.001276
# 6 -0.006468 -0.005699 0.003276 0.000215 0.001276 0.034088
#
#
# Mechanical properties :
#
#
# Convention : Reuss Voigt Hill
#
# Bulk Modulus (GPa) = 33.16950 45.40594 39.28772
# Shear Modulus (GPa) = 27.12203 32.41662 29.76933
#
# Velocity S-wave (km/s) = 3.42300 3.74222 3.58617
# Velocity P-wave (km/s) = 5.47285 6.18773 5.84124
#
# Compressibility (1/GPa) = 0.03014818
#
# Stress axis : x y z
#
# Youngs Moduli (GPa) = 84.56293 60.64962 60.90750
#
# Poissons Ratio (x) = 0.08224 0.08749
# Poissons Ratio (y) = 0.11466 0.27405
# Poissons Ratio (z) = 0.12147 0.27289
#
# Static dielectric constant tensor:
#      x y z
#    x 1.928170 -0.027340 0.020010 
#    y -0.027340 1.903660 0.033300 
#    z 0.020010 0.033300 1.912080 
# 
# From -- ./inp_files/78390.got.cif
#   From: 2010.05.17/outbox.cif.g08.bks.cpg/sg2_40_cif.got.tgz:78390.got - 2010.06.03 11:33:40.
