data_PCOD9111335
_publ_section_title
;
Structure prediction by ZEFSAII (Michael W. Deem and Ramdas Pophale) SiO2 
 PCOD9111335
Probable space group: P -1
;
_chemical_formula_sum "Si O2"
_cell_formula_units_Z 14
_cell_length_a 8.006852
_cell_length_b 8.845980
_cell_length_c 8.370764
_cell_angle_alpha 86.291671
_cell_angle_beta 77.161265
_cell_angle_gamma 111.925174
_cell_volume 529.062241
_symmetry_space_group_name_H-M "P -1"
_symmetry_group_IT_number 2
_symmetry_cell_setting 'triclinic'
loop_
_space_group_symop_operation_xyz
x,y,z
-x,-y,-z
loop_
_atom_site_type_symbol
_atom_site_label
_atom_site_fract_x
_atom_site_fract_y
_atom_site_fract_z
Si Si1 0.086132 0.533916 0.302953
Si Si2 0.023275 0.171549 0.812118
Si Si3 0.846774 0.229563 0.152718
Si Si4 0.565915 0.286610 0.960389
Si Si5 0.256590 0.139279 0.272578
Si Si6 0.386568 0.307008 0.550550
Si Si7 0.504171 0.935889 0.302655
O O1 0.056152 0.699600 0.252947
O O2 0.302347 0.577798 0.203169
O O3 0.000000 0.500000 0.500000
O O4 0.968901 0.379777 0.226688
O O5 0.243904 0.255970 0.732186
O O6 0.929411 0.996583 0.753925
O O7 0.962998 0.169070 0.007893
O O8 0.707162 0.073546 0.289226
O O9 0.710359 0.285540 0.068059
O O10 0.493175 0.125851 0.874339
O O11 0.384087 0.267413 0.102482
O O12 0.258188 0.239378 0.425179
O O13 0.362677 0.024004 0.316795
O O14 0.500000 0.500000 0.500000
O O15 0.524611 0.214552 0.561821
#
# Coordination Sequence:
#
# PCOD9111335 Si02
#       7
#     2   2   2   2   2   2   2
#     4  11  25  38  72 110 139 175 236 287 339 413
#     4  11  23  46  67  97 146 186 224 285 355 404
#     4  10  21  42  75 102 133 181 236 289 338 404
#     4  10  20  42  73 103 130 176 240 290 329 399
#     4  11  22  47  75  94 133 192 241 277 335 418
#     4  12  31  42  64 106 151 179 220 296 359 395
#     4  11  22  45  74 102 129 182 246 278 335 423
#
# _framework density 26.461915999999999
#
# number of rings (size 3 to 8) (size 9 to 14) (size 15 to 20)
#    0.000    1.143    4.286    3.429   10.000    0.571 
#    0.000    0.714    0.000    0.000    0.000    0.000 
#    0.000    0.000    0.000    0.000    0.000    0.000 
#
# Total GULP energy -78387.606088 kJ/mol
# GULP energy per Si atom -5599.114721 kJ/mol
# Density = 2.640169 g / cm^3
# Si number density = 26.461916 Si / 1000 Ang^3
#
#
#
# Elastic Constant Matrix: (Units=GPa)
#
#
# Indices 1 2 3 4 5 6 
#
# 1 80.8223 45.8479 28.7081 -17.0854 -11.0264 10.9464
# 2 45.8479 172.0320 67.5124 1.4136 -0.8237 38.2779
# 3 28.7081 67.5124 127.0518 -0.0232 9.1518 8.6446
# 4 -17.0854 1.4136 -0.0232 58.9350 3.2293 7.0880
# 5 -11.0264 -0.8237 9.1518 3.2293 35.5942 -4.5331
# 6 10.9464 38.2779 8.6446 7.0880 -4.5331 46.6793
#
#
#
# Elastic Compliance Matrix: (Units=1/GPa)
#
#
# Indices 1 2 3 4 5 6 
#
# 1 0.017009 -0.003410 -0.002340 0.004844 0.005227 -0.000987
# 2 -0.003410 0.009675 -0.003891 -0.000418 -0.000610 -0.006409
# 3 -0.002340 -0.003891 0.010599 -0.000586 -0.003290 0.001546
# 4 0.004844 -0.000418 -0.000586 0.018843 -0.000526 -0.003597
# 5 0.005227 -0.000610 -0.003290 -0.000526 0.030971 0.002972
# 6 -0.000987 -0.006409 0.001546 -0.003597 0.002972 0.027459
#
#
# Mechanical properties :
#
#
# Convention : Reuss Voigt Hill
#
# Bulk Modulus (GPa) = 55.54927 73.78252 64.66590
# Shear Modulus (GPa) = 35.75576 44.09755 39.92666
#
# Velocity S-wave (km/s) = 3.67988 4.08665 3.88859
# Velocity P-wave (km/s) = 6.25244 7.08595 6.68221
#
# Compressibility (1/GPa) = 0.01800204
#
# Stress axis : x y z
#
# Youngs Moduli (GPa) = 58.79227 103.35765 94.35237
#
# Poissons Ratio (x) = 0.35245 0.22076
# Poissons Ratio (y) = 0.20048 0.36709
# Poissons Ratio (z) = 0.13756 0.40213
#
# Static dielectric constant tensor:
#      x y z
#    x 2.162900 -0.035720 0.008620 
#    y -0.035720 2.045380 -0.022300 
#    z 0.008620 -0.022300 2.093030 
# 
# From -- ./inp_files/158605.got.cif
#   From: 2010.05.17/outbox.cif.g08.bks.cpg/sg2_80_cif.got.tgz:158605.got - 2010.06.03 11:33:40.
