data_PCOD9111760
_publ_section_title
;
Structure prediction by ZEFSAII (Michael W. Deem and Ramdas Pophale) SiO2 
 PCOD9111760
Probable space group: P -1
;
_chemical_formula_sum "Si O2"
_cell_formula_units_Z 16
_cell_length_a 11.706315
_cell_length_b 11.699848
_cell_length_c 12.220709
_cell_angle_alpha 76.593101
_cell_angle_beta 51.806340
_cell_angle_gamma 118.319765
_cell_volume 753.839878
_symmetry_space_group_name_H-M "P -1"
_symmetry_group_IT_number 2
_symmetry_cell_setting 'triclinic'
loop_
_space_group_symop_operation_xyz
x,y,z
-x,-y,-z
loop_
_atom_site_type_symbol
_atom_site_label
_atom_site_fract_x
_atom_site_fract_y
_atom_site_fract_z
Si Si1 0.285841 0.310778 0.018784
Si Si2 0.929021 0.319545 0.053345
Si Si3 0.626808 0.408605 0.958754
Si Si4 0.252676 0.978237 0.602053
Si Si5 0.669475 0.538447 0.550627
Si Si6 0.562761 0.383965 0.413384
Si Si7 0.970328 0.343191 0.524602
Si Si8 0.509746 0.928781 0.787558
O O1 0.388898 0.302740 0.060307
O O2 0.448785 0.381399 0.803510
O O3 0.331588 0.476944 0.989392
O O4 0.996692 0.109470 0.221811
O O5 0.804943 0.176762 0.262290
O O6 0.735863 0.180596 0.098986
O O7 0.000000 0.500000 0.000000
O O8 0.183090 0.424710 0.843315
O O9 0.856903 0.567874 0.703841
O O10 0.578891 0.245075 0.058604
O O11 0.467622 0.194147 0.480610
O O12 0.324865 0.001898 0.429713
O O13 0.620943 0.428708 0.497135
O O14 0.637558 0.649828 0.498119
O O15 0.914107 0.659712 0.444596
O O16 0.000000 0.500000 0.500000
O O17 0.688665 0.125607 0.711463
#
# Coordination Sequence:
#
# PCOD9111760 Si02
#       8
#     2   2   2   2   2   2   2   2
#     4  10  20  43  69  99 138 170 224 281 333 405
#     4  12  26  44  69 102 141 175 230 284 333 406
#     4  10  23  43  68  99 137 175 219 281 337 404
#     4  12  24  41  72 102 131 179 230 278 344 392
#     4  10  24  48  66  99 140 178 225 283 340 391
#     4  11  25  45  71  97 139 182 224 288 329 404
#     4  11  27  46  70  98 143 177 224 285 340 408
#     4  12  26  41  71 103 134 181 228 272 348 402
#
# _framework density 21.224665000000002
#
# number of rings (size 3 to 8) (size 9 to 14) (size 15 to 20)
#    0.000    1.000    3.750    1.875    5.250    1.500 
#    0.000    0.000    0.000    0.000    0.000    0.000 
#    0.000    0.000    0.000    0.000    0.000    0.000 
#
# Total GULP energy -89458.337361 kJ/mol
# GULP energy per Si atom -5591.146085 kJ/mol
# Density = 2.117636 g / cm^3
# Si number density = 21.224665 Si / 1000 Ang^3
#
#
#
# Elastic Constant Matrix: (Units=GPa)
#
#
# Indices 1 2 3 4 5 6 
#
# 1 99.3241 23.4307 16.4601 -19.7406 -7.4797 26.1785
# 2 23.4307 63.3417 19.7927 -2.2653 -1.2865 28.9483
# 3 16.4601 19.7927 50.0190 -12.5483 -2.2430 18.5116
# 4 -19.7406 -2.2653 -12.5483 34.8522 3.0521 -0.4120
# 5 -7.4797 -1.2865 -2.2430 3.0521 38.3099 2.4868
# 6 26.1785 28.9483 18.5116 -0.4120 2.4868 23.5111
#
#
#
# Elastic Compliance Matrix: (Units=1/GPa)
#
#
# Indices 1 2 3 4 5 6 
#
# 1 0.021005 0.009630 0.009134 0.014730 0.006569 -0.042874
# 2 0.009630 0.041957 0.009002 0.009931 0.007575 -0.070098
# 3 0.009134 0.009002 0.036954 0.017930 0.006111 -0.050682
# 4 0.014730 0.009931 0.017930 0.043324 0.003558 -0.042363
# 5 0.006569 0.007575 0.006111 0.003558 0.029304 -0.024490
# 6 -0.042874 -0.070098 -0.050682 -0.042363 -0.024490 0.218334
#
#
# Mechanical properties :
#
#
# Convention : Reuss Voigt Hill
#
# Bulk Modulus (GPa) = 6.43298 36.89464 21.66381
# Shear Modulus (GPa) = 12.91453 29.53472 21.22462
#
# Velocity S-wave (km/s) = 2.46939 3.73437 3.16571
# Velocity P-wave (km/s) = 3.34186 6.00122 4.85709
#
# Compressibility (1/GPa) = 0.15544907
#
# Stress axis : x y z
#
# Youngs Moduli (GPa) = 47.60788 23.83375 27.06099
#
# Poissons Ratio (x) = -0.22952 -0.24718
# Poissons Ratio (y) = -0.45847 -0.24361
# Poissons Ratio (z) = -0.43486 -0.21456
#
# Static dielectric constant tensor:
#      x y z
#    x 1.798460 0.008360 -0.025860 
#    y 0.008360 1.737280 0.004720 
#    z -0.025860 0.004720 1.744170 
# 
# From -- ./inp_files/428101.got.cif
#   From: 2010.05.17/outbox.cif.g08.bks.cpg/sg2_215_cif.got.tgz:428101.got - 2010.06.03 11:33:40.
