data_PCOD9111256
_publ_section_title
;
Structure prediction by ZEFSAII (Michael W. Deem and Ramdas Pophale) SiO2 
 PCOD9111256
Probable space group: P -1
;
_chemical_formula_sum "Si O2"
_cell_formula_units_Z 12
_cell_length_a 6.645605
_cell_length_b 8.104708
_cell_length_c 15.411942
_cell_angle_alpha 57.878334
_cell_angle_beta 51.710997
_cell_angle_gamma 83.323612
_cell_volume 522.650458
_symmetry_space_group_name_H-M "P -1"
_symmetry_group_IT_number 2
_symmetry_cell_setting 'triclinic'
loop_
_space_group_symop_operation_xyz
x,y,z
-x,-y,-z
loop_
_atom_site_type_symbol
_atom_site_label
_atom_site_fract_x
_atom_site_fract_y
_atom_site_fract_z
Si Si1 0.503667 0.440224 0.914531
Si Si2 0.947904 0.830597 0.636512
Si Si3 0.168025 0.772197 0.203477
Si Si4 0.399297 0.967519 0.245570
Si Si5 0.013023 0.898197 0.930663
Si Si6 0.277517 0.614484 0.520578
O O1 0.671253 0.638038 0.757143
O O2 0.707023 0.305895 0.890131
O O3 0.500000 0.500000 0.000000
O O4 0.222743 0.305222 0.982678
O O5 0.197208 0.738950 0.588767
O O6 0.856678 0.947215 0.707210
O O7 0.000000 0.000000 0.500000
O O8 0.411680 0.892842 0.166140
O O9 0.992933 0.579404 0.360594
O O10 0.000367 0.917816 0.180048
O O11 0.341427 0.776121 0.380347
O O12 0.689847 0.124895 0.148957
O O13 0.000000 0.000000 0.000000
O O14 0.500000 0.500000 0.500000
#
# Coordination Sequence:
#
# PCOD9111256 Si02
#       6
#     2   2   2   2   2   2
#     4  11  24  43  69 101 142 186 228 293 352 414
#     4   9  22  42  67  98 140 179 230 290 349 404
#     4  11  23  43  69  99 142 184 236 290 348 418
#     4  11  22  43  72 100 141 185 232 291 354 415
#     4  12  25  41  69 103 139 187 239 281 350 427
#     4  10  20  42  71 101 135 184 239 286 350 422
#
# _framework density 22.959897999999999
#
# number of rings (size 3 to 8) (size 9 to 14) (size 15 to 20)
#    0.000    1.333    3.333    2.000    2.333    0.667 
#    0.000    0.833   18.333    0.000    0.000    0.000 
#    0.000    0.000    0.000    0.000    0.000    0.000 
#
# Total GULP energy -66831.236203 kJ/mol
# GULP energy per Si atom -5569.269684 kJ/mol
# Density = 2.290764 g / cm^3
# Si number density = 22.959898 Si / 1000 Ang^3
#
#
#
# Elastic Constant Matrix: (Units=GPa)
#
#
# Indices 1 2 3 4 5 6 
#
# 1 84.6670 56.2135 35.6635 16.2257 -12.3640 -0.2545
# 2 56.2135 143.4946 37.7306 25.1405 -5.1373 -17.7836
# 3 35.6635 37.7306 127.6535 -21.7020 -13.1536 17.4000
# 4 16.2257 25.1405 -21.7020 47.1519 -0.8931 -8.7564
# 5 -12.3640 -5.1373 -13.1536 -0.8931 23.4656 1.2590
# 6 -0.2545 -17.7836 17.4000 -8.7564 1.2590 47.2770
#
#
#
# Elastic Compliance Matrix: (Units=1/GPa)
#
#
# Indices 1 2 3 4 5 6 
#
# 1 0.019053 -0.005506 -0.003706 -0.005537 0.006642 -0.001807
# 2 -0.005506 0.011464 -0.003660 -0.005072 -0.002892 0.004767
# 3 -0.003706 -0.003660 0.012465 0.008202 0.004792 -0.004593
# 4 -0.005537 -0.005072 0.008202 0.029718 0.001674 0.000503
# 5 0.006642 -0.002892 0.004792 0.001674 0.048436 -0.003795
# 6 -0.001807 0.004767 -0.004593 0.000503 -0.003795 0.024820
#
#
# Mechanical properties :
#
#
# Convention : Reuss Voigt Hill
#
# Bulk Modulus (GPa) = 58.01132 68.33671 63.17401
# Shear Modulus (GPa) = 28.17752 38.65942 33.41847
#
# Velocity S-wave (km/s) = 3.50701 4.10784 3.81926
# Velocity P-wave (km/s) = 6.45911 7.23376 6.85738
#
# Compressibility (1/GPa) = 0.01723802
#
# Stress axis : x y z
#
# Youngs Moduli (GPa) = 52.48511 87.22895 80.22275
#
# Poissons Ratio (x) = 0.48024 0.29733
# Poissons Ratio (y) = 0.28896 0.29365
# Poissons Ratio (z) = 0.19452 0.31929
#
# Static dielectric constant tensor:
#      x y z
#    x 1.840300 -0.010280 -0.030410 
#    y -0.010280 1.958030 0.004570 
#    z -0.030410 0.004570 1.866550 
# 
# From -- ./inp_files/60187.got.cif
#   From: 2010.05.17/outbox.cif.g08.bks.cpg/sg2_31_cif.got.tgz:60187.got - 2010.06.03 11:33:40.
