data_PCOD9111852
_publ_section_title
;
Structure prediction by ZEFSAII (Michael W. Deem and Ramdas Pophale) SiO2 
 PCOD9111852
Probable space group: P -1
;
_chemical_formula_sum "Si O2"
_cell_formula_units_Z 16
_cell_length_a 24.319157
_cell_length_b 9.360265
_cell_length_c 8.187228
_cell_angle_alpha 130.782552
_cell_angle_beta 131.134051
_cell_angle_gamma 28.764248
_cell_volume 660.226932
_symmetry_space_group_name_H-M "P -1"
_symmetry_group_IT_number 2
_symmetry_cell_setting 'triclinic'
loop_
_space_group_symop_operation_xyz
x,y,z
-x,-y,-z
loop_
_atom_site_type_symbol
_atom_site_label
_atom_site_fract_x
_atom_site_fract_y
_atom_site_fract_z
Si Si1 0.253803 0.274893 0.551812
Si Si2 0.383280 0.696712 0.523675
Si Si3 0.051940 0.073887 0.303521
Si Si4 0.196179 0.528809 0.973290
Si Si5 0.646518 0.081999 0.014496
Si Si6 0.481010 0.855850 0.460142
Si Si7 0.964713 0.279765 0.787093
Si Si8 0.131327 0.154851 0.809624
O O1 0.250923 0.406527 0.808580
O O2 0.134802 0.526144 0.403746
O O3 0.276949 0.008679 0.451565
O O4 0.365815 0.103771 0.533331
O O5 0.500000 0.500000 0.500000
O O6 0.405940 0.436712 0.431676
O O7 0.385147 0.807373 0.779362
O O8 0.093722 0.157310 0.560529
O O9 0.920998 0.363106 0.197249
O O10 0.041679 0.902443 0.264397
O O11 0.143744 0.831955 0.161132
O O12 0.277002 0.265288 0.069621
O O13 0.732374 0.068615 0.101174
O O14 0.548835 0.237838 0.807140
O O15 0.500000 0.000000 0.500000
O O16 0.088531 0.078926 0.793680
O O17 0.933517 0.524431 0.018503
#
# Coordination Sequence:
#
# PCOD9111852 Si02
#       8
#     2   2   2   2   2   2   2   2
#     4  10  20  43  72  92 140 175 224 282 342 405
#     4   9  22  43  68  93 127 171 224 289 340 398
#     4  11  22  41  64  95 148 181 227 265 324 398
#     4  10  22  40  62  97 139 178 216 281 320 403
#     4  11  22  44  67  94 136 178 228 269 347 414
#     4  11  23  44  72  98 128 173 230 297 344 399
#     4  11  22  43  65 100 139 180 229 269 328 413
#     4  11  23  38  68  98 134 184 219 272 329 406
#
# _framework density 24.234089999999998
#
# number of rings (size 3 to 8) (size 9 to 14) (size 15 to 20)
#    0.000    1.500    3.750    0.750    0.000    2.500 
#    0.000    9.375    0.000    0.000    0.000    0.000 
#    0.000    0.000    0.000    0.000    0.000    0.000 
#
# Total GULP energy -89473.220142 kJ/mol
# GULP energy per Si atom -5592.076259 kJ/mol
# Density = 2.417893 g / cm^3
# Si number density = 24.234090 Si / 1000 Ang^3
#
#
#
# Elastic Constant Matrix: (Units=GPa)
#
#
# Indices 1 2 3 4 5 6 
#
# 1 133.2990 37.3718 39.7556 7.1181 -16.8995 3.5213
# 2 37.3718 80.7432 0.8967 -10.3279 1.7437 24.5695
# 3 39.7556 0.8967 98.3824 13.5001 -5.7029 -10.1645
# 4 7.1181 -10.3279 13.5001 41.3269 -9.9469 -11.9120
# 5 -16.8995 1.7437 -5.7029 -9.9469 33.6733 4.7355
# 6 3.5213 24.5695 -10.1645 -11.9120 4.7355 37.7677
#
#
#
# Elastic Compliance Matrix: (Units=1/GPa)
#
#
# Indices 1 2 3 4 5 6 
#
# 1 0.010766 -0.005307 -0.003881 -0.000588 0.004759 0.000622
# 2 -0.005307 0.018300 0.000545 0.001937 -0.001474 -0.010468
# 3 -0.003881 0.000545 0.012308 -0.002724 -0.001061 0.002594
# 4 -0.000588 0.001937 -0.002724 0.029168 0.006859 0.006401
# 5 0.004759 -0.001474 -0.001061 0.006859 0.034276 -0.001904
# 6 0.000622 -0.010468 0.002594 0.006401 -0.001904 0.036185
#
#
# Mechanical properties :
#
#
# Convention : Reuss Voigt Hill
#
# Bulk Modulus (GPa) = 41.51553 52.05252 46.78402
# Shear Modulus (GPa) = 30.06268 38.18030 34.12149
#
# Velocity S-wave (km/s) = 3.52591 3.97354 3.75640
# Velocity P-wave (km/s) = 5.80898 6.52516 6.17746
#
# Compressibility (1/GPa) = 0.02408737
#
# Stress axis : x y z
#
# Youngs Moduli (GPa) = 92.88779 54.64454 81.24783
#
# Poissons Ratio (x) = 0.29000 0.31533
# Poissons Ratio (y) = 0.49296 -0.04428
# Poissons Ratio (z) = 0.36051 -0.02978
#
# Static dielectric constant tensor:
#      x y z
#    x 1.965570 0.009640 -0.006620 
#    y 0.009640 1.996380 0.043860 
#    z -0.006620 0.043860 1.938470 
# 
# From -- ./inp_files/352448.got.cif
#   From: 2010.05.17/outbox.cif.g08.bks.cpg/sg2_177_cif.got.tgz:352448.got - 2010.06.03 11:33:40.
