data_PCOD9111448
_publ_section_title
;
Structure prediction by ZEFSAII (Michael W. Deem and Ramdas Pophale) SiO2 
 PCOD9111448
Probable space group: P -1
;
_chemical_formula_sum "Si O2"
_cell_formula_units_Z 14
_cell_length_a 10.106934
_cell_length_b 6.853848
_cell_length_c 13.086584
_cell_angle_alpha 96.973031
_cell_angle_beta 59.834783
_cell_angle_gamma 129.684681
_cell_volume 575.417784
_symmetry_space_group_name_H-M "P -1"
_symmetry_group_IT_number 2
_symmetry_cell_setting 'triclinic'
loop_
_space_group_symop_operation_xyz
x,y,z
-x,-y,-z
loop_
_atom_site_type_symbol
_atom_site_label
_atom_site_fract_x
_atom_site_fract_y
_atom_site_fract_z
Si Si1 0.770930 0.830145 0.618446
Si Si2 0.706436 0.139554 0.278028
Si Si3 0.402302 0.673757 0.224449
Si Si4 0.840179 0.402791 0.877672
Si Si5 0.423140 0.567276 0.873022
Si Si6 0.326762 0.185489 0.557293
Si Si7 0.873017 0.686169 0.226122
O O1 0.694689 0.540111 0.657371
O O2 0.649596 0.824561 0.758712
O O3 0.699289 0.897252 0.553686
O O4 0.000000 0.000000 0.500000
O O5 0.741812 0.395331 0.309719
O O6 0.945016 0.292095 0.167316
O O7 0.559620 0.964768 0.229857
O O8 0.632263 0.951400 0.390113
O O9 0.234703 0.620889 0.210204
O O10 0.532718 0.613389 0.112749
O O11 0.909591 0.239355 0.867292
O O12 0.669950 0.349950 0.013048
O O13 0.259132 0.391293 0.831040
O O14 0.500000 0.500000 0.500000
O O15 0.134441 0.137844 0.682779
#
# Coordination Sequence:
#
# PCOD9111448 Si02
#       7
#     2   2   2   2   2   2   2
#     4  10  22  38  67  92 130 174 221 261 329 385
#     4  10  23  40  69  96 132 172 219 261 341 374
#     4  10  20  43  63  97 133 170 220 270 321 393
#     4  10  23  41  66 102 133 165 225 269 332 384
#     4  10  20  43  67  90 138 173 210 282 317 391
#     4  12  19  45  63  92 132 173 216 263 319 395
#     4  10  23  42  66  99 129 173 217 273 328 384
#
# _framework density 24.330147
#
# number of rings (size 3 to 8) (size 9 to 14) (size 15 to 20)
#    1.714    0.000    4.286    1.714    0.000    1.143 
#    2.571    1.429    0.000    0.000    0.000    0.000 
#    0.000    0.000    0.000    0.000    0.000    0.000 
#
# Total GULP energy -77935.210479 kJ/mol
# GULP energy per Si atom -5566.800748 kJ/mol
# Density = 2.427477 g / cm^3
# Si number density = 24.330147 Si / 1000 Ang^3
#
#
#
# Elastic Constant Matrix: (Units=GPa)
#
#
# Indices 1 2 3 4 5 6 
#
# 1 111.1677 12.1297 20.4023 -1.6366 -18.0723 8.7646
# 2 12.1297 56.5186 24.5531 -0.1770 -4.2351 3.1088
# 3 20.4023 24.5531 95.4564 -1.7951 -26.6918 7.0706
# 4 -1.6366 -0.1770 -1.7951 24.0216 -3.3346 -5.0679
# 5 -18.0723 -4.2351 -26.6918 -3.3346 51.4749 2.4152
# 6 8.7646 3.1088 7.0706 -5.0679 2.4152 38.3369
#
#
#
# Elastic Compliance Matrix: (Units=1/GPa)
#
#
# Indices 1 2 3 4 5 6 
#
# 1 0.009977 -0.001481 -0.000697 0.000601 0.003159 -0.002152
# 2 -0.001481 0.020220 -0.005336 -0.000643 -0.001651 -0.000298
# 3 -0.000697 -0.005336 0.014100 0.001440 0.006826 -0.002248
# 4 0.000601 -0.000643 0.001440 0.043343 0.003471 0.005160
# 5 0.003159 -0.001651 0.006826 0.003471 0.024302 -0.002920
# 6 -0.002152 -0.000298 -0.002248 0.005160 -0.002920 0.027881
#
#
# Mechanical properties :
#
#
# Convention : Reuss Voigt Hill
#
# Bulk Modulus (GPa) = 34.16740 41.92366 38.04553
# Shear Modulus (GPa) = 30.37504 36.50387 33.43946
#
# Velocity S-wave (km/s) = 3.53718 3.87764 3.71132
# Velocity P-wave (km/s) = 5.54580 6.10874 5.83407
#
# Compressibility (1/GPa) = 0.02926766
#
# Stress axis : x y z
#
# Youngs Moduli (GPa) = 100.22920 49.45607 70.92233
#
# Poissons Ratio (x) = 0.07326 0.04946
# Poissons Ratio (y) = 0.14847 0.37844
# Poissons Ratio (z) = 0.06989 0.26390
#
# Static dielectric constant tensor:
#      x y z
#    x 2.118430 0.071230 -0.092870 
#    y 0.071230 1.985410 -0.021780 
#    z -0.092870 -0.021780 1.940370 
# 
# From -- ./inp_files/415141.got.cif
#   From: 2010.05.17/outbox.cif.g08.bks.cpg/sg2_208_cif.got.tgz:415141.got - 2010.06.03 11:33:40.
