data_PCOD9111598
_publ_section_title
;
Structure prediction by ZEFSAII (Michael W. Deem and Ramdas Pophale) SiO2 
 PCOD9111598
Probable space group: P -1
;
_chemical_formula_sum "Si O2"
_cell_formula_units_Z 16
_cell_length_a 11.557570
_cell_length_b 28.596490
_cell_length_c 5.378232
_cell_angle_alpha 126.716473
_cell_angle_beta 64.376962
_cell_angle_gamma 151.407912
_cell_volume 661.787197
_symmetry_space_group_name_H-M "P -1"
_symmetry_group_IT_number 2
_symmetry_cell_setting 'triclinic'
loop_
_space_group_symop_operation_xyz
x,y,z
-x,-y,-z
loop_
_atom_site_type_symbol
_atom_site_label
_atom_site_fract_x
_atom_site_fract_y
_atom_site_fract_z
Si Si1 0.925571 0.538149 0.691241
Si Si2 0.940119 0.770563 0.006436
Si Si3 0.047370 0.683165 0.701483
Si Si4 0.247799 0.116576 0.991567
Si Si5 0.499807 0.675932 0.286387
Si Si6 0.755104 0.087594 0.307637
Si Si7 0.457012 0.887213 0.250130
Si Si8 0.377400 0.728835 0.240663
O O1 0.666024 0.432557 0.740756
O O2 0.000000 0.500000 0.500000
O O3 0.898168 0.568294 0.569488
O O4 0.172136 0.654533 0.980022
O O5 0.923688 0.693214 0.735127
O O6 0.076173 0.849066 0.887664
O O7 0.686044 0.706942 0.065916
O O8 0.084256 0.841608 0.359315
O O9 0.290425 0.749858 0.552696
O O10 0.171195 0.759309 0.070937
O O11 0.357818 0.217063 0.348047
O O12 0.393952 0.112250 0.836740
O O13 0.332486 0.163838 0.775597
O O14 0.000000 0.000000 0.000000
O O15 0.332093 0.651044 0.183860
O O16 0.567837 0.069512 0.397752
O O17 0.583853 0.965976 0.142412
#
# Coordination Sequence:
#
# PCOD9111598 Si02
#       8
#     2   2   2   2   2   2   2   2
#     4  12  23  46  72 103 136 182 248 290 358 419
#     4  11  27  46  68 107 146 189 233 302 367 424
#     4  11  24  44  73  98 136 187 241 298 341 438
#     4  12  25  41  67 105 142 178 231 298 362 424
#     4  12  27  44  69 104 143 186 231 305 357 426
#     4  10  24  44  72  97 147 194 241 285 361 438
#     4  10  20  43  67 101 136 192 242 293 345 433
#     4  12  23  44  74  99 134 192 238 290 355 428
#
# _framework density 24.176957999999999
#
# number of rings (size 3 to 8) (size 9 to 14) (size 15 to 20)
#    0.000    0.750    5.000    1.875    5.250    7.500 
#    0.000    0.625    0.000    0.000    0.000    0.000 
#    0.000    0.000    0.000    0.000    0.000    0.000 
#
# Total GULP energy -89067.724895 kJ/mol
# GULP energy per Si atom -5566.732806 kJ/mol
# Density = 2.412193 g / cm^3
# Si number density = 24.176958 Si / 1000 Ang^3
#
#
#
# Elastic Constant Matrix: (Units=GPa)
#
#
# Indices 1 2 3 4 5 6 
#
# 1 62.3911 15.1386 23.5859 -3.8755 -31.6256 -6.6968
# 2 15.1386 181.6347 46.0603 -21.2866 -19.5330 -4.1960
# 3 23.5859 46.0603 55.9231 -9.5729 -13.1563 -7.0421
# 4 -3.8755 -21.2866 -9.5729 39.0133 1.2470 -11.1628
# 5 -31.6256 -19.5330 -13.1563 1.2470 41.7520 -5.2276
# 6 -6.6968 -4.1960 -7.0421 -11.1628 -5.2276 36.6080
#
#
#
# Elastic Compliance Matrix: (Units=1/GPa)
#
#
# Indices 1 2 3 4 5 6 
#
# 1 0.031804 0.002715 -0.008073 0.004581 0.023854 0.009380
# 2 0.002715 0.007580 -0.005627 0.003441 0.003964 0.001898
# 3 -0.008073 -0.005627 0.027230 0.004057 0.000262 0.004391
# 4 0.004581 0.003441 0.004057 0.032428 0.007005 0.012902
# 5 0.023854 0.003964 0.000262 0.007005 0.045437 0.013493
# 6 0.009380 0.001898 0.004391 0.012902 0.013493 0.035955
#
#
# Mechanical properties :
#
#
# Convention : Reuss Voigt Hill
#
# Bulk Modulus (GPa) = 22.39924 52.16871 37.28397
# Shear Modulus (GPa) = 23.01124 37.81893 30.41509
#
# Velocity S-wave (km/s) = 3.08845 3.95936 3.55070
# Velocity P-wave (km/s) = 4.69072 6.52125 5.68021
#
# Compressibility (1/GPa) = 0.04464438
#
# Stress axis : x y z
#
# Youngs Moduli (GPa) = 31.44285 131.93050 36.72380
#
# Poissons Ratio (x) = -0.35823 0.29646
# Poissons Ratio (y) = -0.08538 0.20666
# Poissons Ratio (z) = 0.25383 0.74242
#
# Static dielectric constant tensor:
#      x y z
#    x 1.959180 -0.042160 0.072140 
#    y -0.042160 2.104290 -0.019080 
#    z 0.072140 -0.019080 2.104100 
# 
# From -- ./inp_files/77999.got.cif
#   From: 2010.05.17/outbox.cif.g08.bks.cpg/sg2_39_cif.got.tgz:77999.got - 2010.06.03 11:33:40.
