data_PCOD9111609
_publ_section_title
;
Structure prediction by ZEFSAII (Michael W. Deem and Ramdas Pophale) SiO2 
 PCOD9111609
Probable space group: P -1
;
_chemical_formula_sum "Si O2"
_cell_formula_units_Z 16
_cell_length_a 14.564792
_cell_length_b 9.441595
_cell_length_c 12.482989
_cell_angle_alpha 79.435189
_cell_angle_beta 90.097035
_cell_angle_gamma 149.909051
_cell_volume 802.027393
_symmetry_space_group_name_H-M "P -1"
_symmetry_group_IT_number 2
_symmetry_cell_setting 'triclinic'
loop_
_space_group_symop_operation_xyz
x,y,z
-x,-y,-z
loop_
_atom_site_type_symbol
_atom_site_label
_atom_site_fract_x
_atom_site_fract_y
_atom_site_fract_z
Si Si1 0.729331 0.761388 0.061294
Si Si2 0.225392 0.842389 0.969473
Si Si3 0.350210 0.820350 0.778675
Si Si4 0.494358 0.154365 0.522670
Si Si5 0.627295 0.942605 0.823240
Si Si6 0.050709 0.166243 0.576953
Si Si7 0.022881 0.132376 0.826464
Si Si8 0.831567 0.159330 0.578273
O O1 0.526344 0.398392 0.111371
O O2 0.867576 0.850819 0.120941
O O3 0.726978 0.922238 0.080058
O O4 0.829456 0.896303 0.925776
O O5 0.325634 0.873483 0.881408
O O6 0.000000 0.500000 0.000000
O O7 0.281828 0.891971 0.085717
O O8 0.514063 0.925131 0.779365
O O9 0.161007 0.464567 0.794218
O O10 0.406294 0.011530 0.660405
O O11 0.716923 0.505274 0.469917
O O12 0.500000 0.000000 0.500000
O O13 0.357367 0.063872 0.461477
O O14 0.776376 0.100382 0.710746
O O15 0.993713 0.050283 0.714757
O O16 0.929611 0.143165 0.559985
O O17 0.000000 0.000000 0.500000
O O18 0.000000 0.500000 0.500000
#
# Coordination Sequence:
#
# PCOD9111609 Si02
#       8
#     2   2   2   2   2   2   2   2
#     4  10  22  41  67  94 129 181 216 272 339 397
#     4  12  25  39  63 104 130 167 224 279 329 393
#     4  11  22  42  70  93 135 175 221 281 329 398
#     4  12  22  45  71 100 133 179 235 276 333 407
#     4  11  24  43  67  95 135 177 224 268 339 409
#     4  12  27  44  67 105 138 176 228 288 341 401
#     4  10  20  43  67  89 135 179 217 268 339 404
#     4  12  24  44  78  99 133 190 228 275 346 410
#
# _framework density 19.949445000000001
#
# number of rings (size 3 to 8) (size 9 to 14) (size 15 to 20)
#    0.000    0.750    5.000    2.250    1.750    3.500 
#    2.250    0.000    0.000    0.000    0.000    0.000 
#    0.000    0.000    0.000    0.000    0.000    0.000 
#
# Total GULP energy -89431.686858 kJ/mol
# GULP energy per Si atom -5589.480429 kJ/mol
# Density = 1.990404 g / cm^3
# Si number density = 19.949445 Si / 1000 Ang^3
#
#
#
# Elastic Constant Matrix: (Units=GPa)
#
#
# Indices 1 2 3 4 5 6 
#
# 1 109.3378 27.2288 51.7799 17.1095 -13.9658 7.5557
# 2 27.2288 78.0998 50.3625 19.9816 -15.3860 9.8317
# 3 51.7799 50.3625 148.5977 16.6195 -17.6194 -9.6600
# 4 17.1095 19.9816 16.6195 34.1472 3.0318 -5.1670
# 5 -13.9658 -15.3860 -17.6194 3.0318 37.6235 11.3733
# 6 7.5557 9.8317 -9.6600 -5.1670 11.3733 31.6585
#
#
#
# Elastic Compliance Matrix: (Units=1/GPa)
#
#
# Indices 1 2 3 4 5 6 
#
# 1 0.013542 0.003224 -0.004549 -0.008652 0.007895 -0.009870
# 2 0.003224 0.027043 -0.007637 -0.018245 0.016295 -0.020330
# 3 -0.004549 -0.007637 0.010814 0.002929 -0.002435 0.008110
# 4 -0.008652 -0.018245 0.002929 0.048288 -0.020397 0.023834
# 5 0.007895 0.016295 -0.002435 -0.020397 0.044881 -0.027140
# 6 -0.009870 -0.020330 0.008110 0.023834 -0.027140 0.056371
#
#
# Mechanical properties :
#
#
# Convention : Reuss Voigt Hill
#
# Bulk Modulus (GPa) = 29.87493 66.08641 47.98067
# Shear Modulus (GPa) = 21.73697 34.46344 28.10021
#
# Velocity S-wave (km/s) = 3.30449 4.16088 3.75716
# Velocity P-wave (km/s) = 5.43759 7.50218 6.55172
#
# Compressibility (1/GPa) = 0.03347288
#
# Stress axis : x y z
#
# Youngs Moduli (GPa) = 73.84473 36.97863 92.47124
#
# Poissons Ratio (x) = -0.11921 0.42066
# Poissons Ratio (y) = -0.23805 0.70625
# Poissons Ratio (z) = 0.33593 0.28242
#
# Static dielectric constant tensor:
#      x y z
#    x 1.699720 0.008740 -0.002800 
#    y 0.008740 1.684560 0.012980 
#    z -0.002800 0.012980 1.794520 
# 
# From -- ./inp_files/447360.got.cif
#   From: 2010.05.17/outbox.cif.g08.bks.cpg/sg2_224_cif.got.tgz:447360.got - 2010.06.03 11:33:40.
