data_PCOD9111219
_publ_section_title
;
Structure prediction by ZEFSAII (Michael W. Deem and Ramdas Pophale) SiO2 
 PCOD9111219
Probable space group: P -1
;
_chemical_formula_sum "Si O2"
_cell_formula_units_Z 14
_cell_length_a 11.277969
_cell_length_b 4.737127
_cell_length_c 16.908163
_cell_angle_alpha 66.147085
_cell_angle_beta 132.578211
_cell_angle_gamma 128.320665
_cell_volume 521.677629
_symmetry_space_group_name_H-M "P -1"
_symmetry_group_IT_number 2
_symmetry_cell_setting 'triclinic'
loop_
_space_group_symop_operation_xyz
x,y,z
-x,-y,-z
loop_
_atom_site_type_symbol
_atom_site_label
_atom_site_fract_x
_atom_site_fract_y
_atom_site_fract_z
Si Si1 0.958844 0.441636 0.149797
Si Si2 0.743553 0.141973 0.505505
Si Si3 0.770703 0.784246 0.854990
Si Si4 0.309043 0.953814 0.062430
Si Si5 0.261359 0.688914 0.776152
Si Si6 0.123240 0.198024 0.627707
Si Si7 0.673022 0.208376 0.650939
O O1 0.856474 0.437227 0.183694
O O2 0.149386 0.458911 0.262722
O O3 0.817588 0.134987 0.061859
O O4 0.035253 0.836463 0.102585
O O5 0.801366 0.499213 0.440021
O O6 0.728864 0.205247 0.585348
O O7 0.905859 0.059438 0.564881
O O8 0.528917 0.834152 0.424215
O O9 0.777155 0.427777 0.887072
O O10 0.684685 0.764093 0.904500
O O11 0.656389 0.861569 0.728355
O O12 0.523010 0.078084 0.129101
O O13 0.228055 0.375603 0.737271
O O14 0.180173 0.905260 0.667583
#
# Coordination Sequence:
#
# PCOD9111219 Si02
#       7
#     2   2   2   2   2   2   2
#     4  10  24  43  67 101 135 172 218 275 324 397
#     4  10  20  42  70  94 131 175 217 276 324 389
#     4  10  24  43  68  98 133 173 217 274 320 397
#     4  12  23  44  70  97 135 175 219 264 334 387
#     4  12  25  45  67 101 133 176 215 276 323 398
#     4  11  25  44  69  96 134 170 226 264 332 385
#     4   9  20  42  66  98 132 170 221 268 333 379
#
# _framework density 26.836497000000001
#
# number of rings (size 3 to 8) (size 9 to 14) (size 15 to 20)
#    0.857    0.571    1.429    3.857    0.000    5.714 
#    0.000    5.000    0.000    0.000    0.000    0.000 
#    0.000    0.000    0.000    0.000    0.000    0.000 
#
# Total GULP energy -78505.116394 kJ/mol
# GULP energy per Si atom -5607.508314 kJ/mol
# Density = 2.677542 g / cm^3
# Si number density = 26.836497 Si / 1000 Ang^3
#
#
#
# Elastic Constant Matrix: (Units=GPa)
#
#
# Indices 1 2 3 4 5 6 
#
# 1 93.5991 32.8102 70.3985 41.3613 20.2110 23.1978
# 2 32.8102 63.3013 44.0134 7.3470 12.1720 0.9136
# 3 70.3985 44.0134 165.5338 31.7125 2.8220 34.3093
# 4 41.3613 7.3470 31.7125 40.7468 5.0006 9.8238
# 5 20.2110 12.1720 2.8220 5.0006 59.7856 10.3744
# 6 23.1978 0.9136 34.3093 9.8238 10.3744 42.2402
#
#
#
# Elastic Compliance Matrix: (Units=1/GPa)
#
#
# Indices 1 2 3 4 5 6 
#
# 1 0.030122 -0.008455 -0.004828 -0.023263 -0.005294 -0.005727
# 2 -0.008455 0.023952 -0.005769 0.007276 -0.003749 0.008040
# 3 -0.004828 -0.005769 0.011315 -0.001640 0.003611 -0.006920
# 4 -0.023263 0.007276 -0.001640 0.047276 0.002082 0.002444
# 5 -0.005294 -0.003749 0.003611 0.002082 0.019855 -0.005305
# 6 -0.005727 0.008040 -0.006920 0.002444 -0.005305 0.033001
#
#
# Mechanical properties :
#
#
# Convention : Reuss Voigt Hill
#
# Bulk Modulus (GPa) = 36.65127 68.54207 52.59667
# Shear Modulus (GPa) = 23.50523 40.23531 31.87027
#
# Velocity S-wave (km/s) = 2.96272 3.87625 3.44986
# Velocity P-wave (km/s) = 5.03890 6.75498 5.95904
#
# Compressibility (1/GPa) = 0.02728419
#
# Stress axis : x y z
#
# Youngs Moduli (GPa) = 33.19876 41.75102 88.37771
#
# Poissons Ratio (x) = 0.35301 0.42669
# Poissons Ratio (y) = 0.28070 0.50985
# Poissons Ratio (z) = 0.16028 0.24086
#
# Static dielectric constant tensor:
#      x y z
#    x 2.036730 0.026790 0.033320 
#    y 0.026790 2.075540 -0.014590 
#    z 0.033320 -0.014590 2.134700 
# 
# From -- ./inp_files/564427.got.cif
#   From: 2010.05.17/outbox.cif.g08.bks.cpg/sg2_283_cif.got.tgz:564427.got - 2010.06.03 11:33:40.
