data_PCOD9111996
_publ_section_title
;
Structure prediction by ZEFSAII (Michael W. Deem and Ramdas Pophale) SiO2 
 PCOD9111996
Probable space group: P -1
;
_chemical_formula_sum "Si O2"
_cell_formula_units_Z 15
_cell_length_a 7.624792
_cell_length_b 7.351101
_cell_length_c 16.005055
_cell_angle_alpha 72.308110
_cell_angle_beta 129.134431
_cell_angle_gamma 121.858081
_cell_volume 590.440318
_symmetry_space_group_name_H-M "P -1"
_symmetry_group_IT_number 2
_symmetry_cell_setting 'triclinic'
loop_
_space_group_symop_operation_xyz
x,y,z
-x,-y,-z
loop_
_atom_site_type_symbol
_atom_site_label
_atom_site_fract_x
_atom_site_fract_y
_atom_site_fract_z
Si Si1 0.681413 0.752023 0.440982
Si Si2 0.883309 0.409192 0.663239
Si Si3 0.895720 0.106614 0.325259
Si Si4 0.668730 0.837144 0.129379
Si Si5 0.000000 0.500000 0.500000
Si Si6 0.326602 0.430052 0.155119
Si Si7 0.811677 0.226030 0.931803
Si Si8 0.842117 0.015736 0.814754
O O1 0.391822 0.606971 0.396835
O O2 0.838567 0.855654 0.558486
O O3 0.824421 0.628607 0.457159
O O4 0.705194 0.945994 0.360033
O O5 0.083747 0.656355 0.708342
O O6 0.926529 0.378389 0.583869
O O7 0.868093 0.206028 0.736855
O O8 0.818091 0.990470 0.229761
O O9 0.389198 0.823155 0.046967
O O10 0.857649 0.923081 0.097371
O O11 0.586362 0.590917 0.166700
O O12 0.236927 0.585748 0.155316
O O13 0.100441 0.325911 0.033624
O O14 0.318470 0.228418 0.229039
O O15 0.743485 0.040244 0.871443
#
# Coordination Sequence:
#
# PCOD9111996 Si02
#       8
#     2   2   2   2   1   2   2   2
#     4  10  22  43  67  92 130 187 221 284 349 389
#     4  11  25  42  66 100 136 183 225 285 339 393
#     4  10  21  41  65  94 136 169 227 283 333 400
#     4  10  23  41  64 102 133 178 225 279 343 400
#     4  10  20  44  66  92 130 168 242 270 326 414
#     4   9  23  48  67 101 140 175 227 283 344 412
#     4   9  22  48  66 100 143 171 224 294 335 402
#     4  12  24  40  73 102 129 187 232 269 350 407
#
# _framework density 25.404769000000002
#
# number of rings (size 3 to 8) (size 9 to 14) (size 15 to 20)
#    0.800    1.067    0.000    3.600    1.867    3.200 
#    0.000   27.333    0.000    0.000    0.000    0.000 
#    0.000    0.000    0.000    0.000    0.000    0.000 
#
# Total GULP energy -83509.432113 kJ/mol
# GULP energy per Si atom -5567.295474 kJ/mol
# Density = 2.534695 g / cm^3
# Si number density = 25.404769 Si / 1000 Ang^3
#
#
#
# Elastic Constant Matrix: (Units=GPa)
#
#
# Indices 1 2 3 4 5 6 
#
# 1 95.2021 37.0107 8.5144 13.8276 14.8928 6.4065
# 2 37.0107 175.6219 19.4813 -2.6026 9.0230 2.0521
# 3 8.5144 19.4813 47.4650 4.0967 3.3235 -7.7729
# 4 13.8276 -2.6026 4.0967 40.9102 1.4123 8.1253
# 5 14.8928 9.0230 3.3235 1.4123 25.9172 -6.5885
# 6 6.4065 2.0521 -7.7729 8.1253 -6.5885 40.2522
#
#
#
# Elastic Compliance Matrix: (Units=1/GPa)
#
#
# Indices 1 2 3 4 5 6 
#
# 1 0.013364 -0.002359 -0.001026 -0.003797 -0.007184 -0.002614
# 2 -0.002359 0.006552 -0.002499 0.001682 -0.000934 -0.000934
# 3 -0.001026 -0.002499 0.023454 -0.003250 0.000022 0.005479
# 4 -0.003797 0.001682 -0.003250 0.027341 -0.000947 -0.005783
# 5 -0.007184 -0.000934 0.000022 -0.000947 0.045325 0.008805
# 6 -0.002614 -0.000934 0.005479 -0.005783 0.008805 0.028974
#
#
# Mechanical properties :
#
#
# Convention : Reuss Voigt Hill
#
# Bulk Modulus (GPa) = 31.64356 49.81131 40.72744
# Shear Modulus (GPa) = 29.88413 38.30143 34.09278
#
# Velocity S-wave (km/s) = 3.43347 3.88706 3.66728
# Velocity P-wave (km/s) = 5.31047 6.30835 5.83080
#
# Compressibility (1/GPa) = 0.03160201
#
# Stress axis : x y z
#
# Youngs Moduli (GPa) = 74.82673 152.61998 42.63644
#
# Poissons Ratio (x) = 0.36005 0.04376
# Poissons Ratio (y) = 0.17653 0.10654
# Poissons Ratio (z) = 0.07680 0.38136
#
# Static dielectric constant tensor:
#      x y z
#    x 1.991620 -0.042140 0.085920 
#    y -0.042140 2.122450 -0.152730 
#    z 0.085920 -0.152730 2.103740 
# 
# From -- ./inp_files/586712.got.cif
#   From: 2010.05.17/outbox.cif.g08.bks.cpg/sg2_294_cif.got.tgz:586712.got - 2010.06.03 11:33:40.
