data_PCOD9111343
_publ_section_title
;
Structure prediction by ZEFSAII (Michael W. Deem and Ramdas Pophale) SiO2 
 PCOD9111343
Probable space group: P -1
;
_chemical_formula_sum "Si O2"
_cell_formula_units_Z 14
_cell_length_a 5.233312
_cell_length_b 13.337000
_cell_length_c 25.724754
_cell_angle_alpha 16.959889
_cell_angle_beta 80.167917
_cell_angle_gamma 85.481060
_cell_volume 493.227275
_symmetry_space_group_name_H-M "P -1"
_symmetry_group_IT_number 2
_symmetry_cell_setting 'triclinic'
loop_
_space_group_symop_operation_xyz
x,y,z
-x,-y,-z
loop_
_atom_site_type_symbol
_atom_site_label
_atom_site_fract_x
_atom_site_fract_y
_atom_site_fract_z
Si Si1 0.463637 0.313850 0.454576
Si Si2 0.262088 0.131051 0.389684
Si Si3 0.965344 0.722315 0.784557
Si Si4 0.185501 0.889430 0.196270
Si Si5 0.412474 0.797606 0.887829
Si Si6 0.264640 0.173943 0.941514
Si Si7 0.745653 0.350486 0.528919
O O1 0.275096 0.562108 0.327377
O O2 0.627113 0.478713 0.417726
O O3 0.668576 0.235305 0.446126
O O4 0.281652 0.916604 0.673062
O O5 0.160716 0.293123 0.260971
O O6 0.532974 0.414954 0.262212
O O7 0.000000 0.000000 0.500000
O O8 0.857375 0.020986 0.670410
O O9 0.895325 0.377591 0.995705
O O10 0.013629 0.691636 0.352039
O O11 0.437627 0.150071 0.088237
O O12 0.135164 0.083479 0.049254
O O13 0.504004 0.157748 0.672066
O O14 0.500000 0.500000 0.000000
O O15 0.500000 0.000000 0.000000
O O16 0.000000 0.000000 0.000000
#
# Coordination Sequence:
#
# PCOD9111343 Si02
#       7
#     2   2   2   2   2   2   2
#     4  10  24  44  73 108 152 203 258 327 399 474
#     4  11  26  48  77 110 152 214 269 333 400 479
#     4   9  20  42  67 104 150 197 252 316 389 467
#     4  11  24  47  74 108 157 198 260 330 392 472
#     4  10  20  42  73 111 151 201 256 319 395 475
#     4  12  32  52  79 118 159 215 272 337 411 481
#     4   9  21  39  70 104 150 197 247 319 389 472
#
# _framework density 28.384482999999999
#
# number of rings (size 3 to 8) (size 9 to 14) (size 15 to 20)
#    0.000    1.714    1.429    0.429   10.000    1.714 
#    0.000    2.143    0.000    0.000    0.000    0.000 
#    0.000    0.000    0.000    0.000    0.000    0.000 
#
# Total GULP energy -78249.938516 kJ/mol
# GULP energy per Si atom -5589.281323 kJ/mol
# Density = 2.831988 g / cm^3
# Si number density = 28.384483 Si / 1000 Ang^3
#
#
#
# Elastic Constant Matrix: (Units=GPa)
#
#
# Indices 1 2 3 4 5 6 
#
# 1 29.9191 -31.0337 -21.9920 -26.2775 -23.7067 -39.3990
# 2 -31.0337 91.9552 12.9183 -19.8238 -10.4972 -49.4045
# 3 -21.9920 12.9183 142.9040 8.6039 -20.8879 -22.8671
# 4 -26.2775 -19.8238 8.6039 33.5409 -7.3632 -30.8729
# 5 -23.7067 -10.4972 -20.8879 -7.3632 47.7535 7.2347
# 6 -39.3990 -49.4045 -22.8671 -30.8729 7.2347 35.0232
#
#
#
# Elastic Compliance Matrix: (Units=1/GPa)
#
#
# Indices 1 2 3 4 5 6 
#
# 1 0.005337 -0.006196 0.000401 -0.009601 0.001693 -0.011287
# 2 -0.006196 0.005955 -0.002187 -0.004539 -0.002909 -0.003397
# 3 0.000401 -0.002187 0.007645 -0.003662 0.002715 -0.001431
# 4 -0.009601 -0.004539 -0.003662 0.012664 -0.004269 -0.007549
# 5 0.001693 -0.002909 0.002715 -0.004269 0.023026 -0.008946
# 6 -0.011287 -0.003397 -0.001431 -0.007549 -0.008946 0.005322
#
#
# Mechanical properties :
#
#
# Convention : Reuss Voigt Hill
#
# Bulk Modulus (GPa) = 336.33952 20.50705 178.42328
# Shear Modulus (GPa) = 65.01517 43.58923 54.30220
#
# Velocity S-wave (km/s) = 4.79113 3.92302 4.37864
# Velocity P-wave (km/s) = 12.22121 5.26882 9.41059
#
# Compressibility (1/GPa) = 0.00297319
#
# Stress axis : x y z
#
# Youngs Moduli (GPa) = 187.36563 167.91767 130.79929
#
# Poissons Ratio (x) = 1.04037 -0.05242
# Poissons Ratio (y) = 1.16086 0.28610
# Poissons Ratio (z) = -0.07509 0.36730
#
# Static dielectric constant tensor:
#      x y z
#    x 2.451310 -0.078940 0.053030 
#    y -0.078940 2.289020 0.007700 
#    z 0.053030 0.007700 2.240540 
# 
# From -- ./inp_files/615630.got.cif
#   From: 2010.05.17/outbox.cif.g08.bks.cpg/sg2_308_cif.got.tgz:615630.got - 2010.06.03 11:33:40.
