data_PCOD9111133
_publ_section_title
;
Structure prediction by ZEFSAII (Michael W. Deem and Ramdas Pophale) SiO2 
 PCOD9111133
Probable space group: P -1
;
_chemical_formula_sum "Si O2"
_cell_formula_units_Z 12
_cell_length_a 17.599126
_cell_length_b 6.736464
_cell_length_c 14.144986
_cell_angle_alpha 54.256010
_cell_angle_beta 154.778651
_cell_angle_gamma 140.330034
_cell_volume 415.560848
_symmetry_space_group_name_H-M "P -1"
_symmetry_group_IT_number 2
_symmetry_cell_setting 'triclinic'
loop_
_space_group_symop_operation_xyz
x,y,z
-x,-y,-z
loop_
_atom_site_type_symbol
_atom_site_label
_atom_site_fract_x
_atom_site_fract_y
_atom_site_fract_z
Si Si1 0.737522 0.402728 0.142803
Si Si2 0.299147 0.228787 0.155785
Si Si3 0.968296 0.628708 0.072672
Si Si4 0.812557 0.660742 0.568835
Si Si5 0.227153 0.895304 0.472669
Si Si6 0.696869 0.507580 0.267943
O O1 0.836467 0.567483 0.311557
O O2 0.958072 0.503544 0.300054
O O3 0.684582 0.601246 0.970526
O O4 0.500000 0.000000 0.000000
O O5 0.545123 0.301256 0.403925
O O6 0.066290 0.833957 0.027958
O O7 0.260209 0.419570 0.134110
O O8 0.981818 0.347910 0.173496
O O9 0.195280 0.918641 0.320958
O O10 0.807937 0.706990 0.437260
O O11 0.793918 0.891416 0.544461
O O12 0.413932 0.861930 0.721021
O O13 0.500000 0.500000 0.000000
#
# Coordination Sequence:
#
# PCOD9111133 Si02
#       6
#     2   2   2   2   2   2
#     4  11  23  45  67  94 139 179 221 279 337 404
#     4  10  20  42  69  93 138 177 227 281 327 409
#     4   9  22  43  66 100 131 180 230 274 340 403
#     4  11  22  43  68  98 139 178 223 284 341 397
#     4  10  24  44  67 100 137 174 228 285 334 407
#     4  11  23  41  64  98 131 180 226 269 339 404
#
# _framework density 28.876639000000001
#
# number of rings (size 3 to 8) (size 9 to 14) (size 15 to 20)
#    0.000    1.667    1.667    2.000    0.000    1.333 
#   12.000    9.167    0.000    0.000    0.000    0.000 
#    0.000    0.000    0.000    0.000    0.000    0.000 
#
# Total GULP energy -66950.496813 kJ/mol
# GULP energy per Si atom -5579.208068 kJ/mol
# Density = 2.881091 g / cm^3
# Si number density = 28.876639 Si / 1000 Ang^3
#
#
#
# Elastic Constant Matrix: (Units=GPa)
#
#
# Indices 1 2 3 4 5 6 
#
# 1 175.7867 58.3356 53.0866 -5.0659 -11.4881 -22.9537
# 2 58.3356 154.1759 45.0857 -28.2014 -24.8401 -21.8729
# 3 53.0866 45.0857 93.8756 -43.3026 3.1228 -6.2659
# 4 -5.0659 -28.2014 -43.3026 47.9898 -3.7640 1.0452
# 5 -11.4881 -24.8401 3.1228 -3.7640 67.7413 0.5859
# 6 -22.9537 -21.8729 -6.2659 1.0452 0.5859 62.3680
#
#
#
# Elastic Compliance Matrix: (Units=1/GPa)
#
#
# Indices 1 2 3 4 5 6 
#
# 1 0.008455 -0.002060 -0.006566 -0.006234 0.000619 0.001828
# 2 -0.002060 0.009282 -0.001266 0.004307 0.003332 0.002266
# 3 -0.006566 -0.001266 0.024434 0.020505 -0.001558 -0.000735
# 4 -0.006234 0.004307 0.020505 0.041347 0.001869 0.000566
# 5 0.000619 0.003332 -0.001558 0.001869 0.016255 0.001056
# 6 0.001828 0.002266 -0.000735 0.000566 0.001056 0.017408
#
#
# Mechanical properties :
#
#
# Convention : Reuss Voigt Hill
#
# Bulk Modulus (GPa) = 44.66732 81.87270 63.27001
# Shear Modulus (GPa) = 34.61921 53.44183 44.03052
#
# Velocity S-wave (km/s) = 3.46622 4.30664 3.90908
# Velocity P-wave (km/s) = 5.61440 7.28997 6.50635
#
# Compressibility (1/GPa) = 0.02238773
#
# Stress axis : x y z
#
# Youngs Moduli (GPa) = 118.27631 107.73553 40.92574
#
# Poissons Ratio (x) = 0.22196 0.26872
# Poissons Ratio (y) = 0.24368 0.05180
# Poissons Ratio (z) = 0.77659 0.13635
#
# Static dielectric constant tensor:
#      x y z
#    x 2.156980 -0.017420 0.024960 
#    y -0.017420 2.466530 0.038050 
#    z 0.024960 0.038050 2.570760 
# 
# From -- ./inp_files/536266.got.cif
#   From: 2010.05.17/outbox.cif.g08.bks.cpg/sg2_269_cif.got.tgz:536266.got - 2010.06.03 11:33:40.
