data_PCOD9111058
_publ_section_title
;
Structure prediction by ZEFSAII (Michael W. Deem and Ramdas Pophale) SiO2 
 PCOD9111058
Probable space group: P -1
;
_chemical_formula_sum "Si O2"
_cell_formula_units_Z 14
_cell_length_a 13.001673
_cell_length_b 9.136156
_cell_length_c 11.942781
_cell_angle_alpha 83.189655
_cell_angle_beta 134.054571
_cell_angle_gamma 128.950910
_cell_volume 651.491721
_symmetry_space_group_name_H-M "P -1"
_symmetry_group_IT_number 2
_symmetry_cell_setting 'triclinic'
loop_
_space_group_symop_operation_xyz
x,y,z
-x,-y,-z
loop_
_atom_site_type_symbol
_atom_site_label
_atom_site_fract_x
_atom_site_fract_y
_atom_site_fract_z
Si Si1 0.378892 0.273991 0.493901
Si Si2 0.406477 0.000690 0.158217
Si Si3 0.868768 0.047725 0.866718
Si Si4 0.275601 0.578582 0.075567
Si Si5 0.404383 0.151469 0.907813
Si Si6 0.140845 0.755683 0.555739
Si Si7 0.961527 0.919390 0.350921
O O1 0.500000 0.500000 0.500000
O O2 0.544811 0.336608 0.704843
O O3 0.290776 0.097680 0.346927
O O4 0.155020 0.143699 0.401898
O O5 0.284729 0.022357 0.140708
O O6 0.250984 0.734333 0.056608
O O7 0.647719 0.131111 0.367329
O O8 0.454038 0.102702 0.062137
O O9 0.053447 0.313785 0.951810
O O10 0.000000 0.000000 0.000000
O O11 0.390011 0.648260 0.034716
O O12 0.274375 0.195694 0.843591
O O13 0.247388 0.923254 0.730227
O O14 0.000000 0.500000 0.500000
O O15 0.998334 0.772991 0.388385
O O16 0.000000 0.000000 0.500000
#
# Coordination Sequence:
#
# PCOD9111058 Si02
#       7
#     2   2   2   2   2   2   2
#     4  12  24  43  71  96 142 179 223 284 341 403
#     4  11  24  47  66 100 138 179 224 286 342 400
#     4  12  27  44  68 100 138 184 232 269 347 418
#     4  11  23  48  68 101 138 176 229 288 338 402
#     4  10  22  43  73  93 137 176 224 284 341 395
#     4  10  21  38  65 101 136 163 223 281 335 399
#     4  10  20  42  68  96 129 177 223 274 336 402
#
# _framework density 21.489146999999999
#
# number of rings (size 3 to 8) (size 9 to 14) (size 15 to 20)
#    0.000    1.143    5.714    3.000    0.000    6.286 
#    0.000    2.143    0.000    0.000    0.000    0.000 
#    0.000    0.000    0.000    0.000    0.000    0.000 
#
# Total GULP energy -78251.505318 kJ/mol
# GULP energy per Si atom -5589.393237 kJ/mol
# Density = 2.144024 g / cm^3
# Si number density = 21.489147 Si / 1000 Ang^3
#
#
#
# Elastic Constant Matrix: (Units=GPa)
#
#
# Indices 1 2 3 4 5 6 
#
# 1 151.2660 53.9221 44.5723 -9.2783 17.2527 10.3618
# 2 53.9221 128.0248 24.8486 0.9550 4.6811 10.1551
# 3 44.5723 24.8486 67.9412 -0.1195 -7.1957 -5.8349
# 4 -9.2783 0.9550 -0.1195 41.4714 -1.6388 3.0847
# 5 17.2527 4.6811 -7.1957 -1.6388 29.6259 -20.0682
# 6 10.3618 10.1551 -5.8349 3.0847 -20.0682 32.8376
#
#
#
# Elastic Compliance Matrix: (Units=1/GPa)
#
#
# Indices 1 2 3 4 5 6 
#
# 1 0.019592 -0.000385 -0.019689 0.005313 -0.038653 -0.033683
# 2 -0.000385 0.010055 -0.005186 0.000012 -0.008998 -0.009410
# 3 -0.019689 -0.005186 0.039483 -0.005639 0.054554 0.048702
# 4 0.005313 0.000012 -0.005639 0.025730 -0.011085 -0.011874
# 5 -0.038653 -0.008998 0.054554 -0.011085 0.149723 0.117216
# 6 -0.033683 -0.009410 0.048702 -0.011874 0.117216 0.125395
#
#
# Mechanical properties :
#
#
# Convention : Reuss Voigt Hill
#
# Bulk Modulus (GPa) = 53.73760 65.99089 59.86424
# Shear Modulus (GPa) = 11.71778 35.71288 23.71533
#
# Velocity S-wave (km/s) = 2.33767 4.08107 3.32565
# Velocity P-wave (km/s) = 5.68748 7.27890 6.53184
#
# Compressibility (1/GPa) = 0.01860894
#
# Stress axis : x y z
#
# Youngs Moduli (GPa) = 51.04240 99.45448 25.32734
#
# Poissons Ratio (x) = 0.03825 0.49868
# Poissons Ratio (y) = 0.01963 0.13135
# Poissons Ratio (z) = 1.00500 0.51579
#
# Static dielectric constant tensor:
#      x y z
#    x 1.731560 0.000790 0.005380 
#    y 0.000790 1.783380 -0.013870 
#    z 0.005380 -0.013870 1.801520 
# 
# From -- ./inp_files/417218.got.cif
#   From: 2010.05.17/outbox.cif.g08.bks.cpg/sg2_209_cif.got.tgz:417218.got - 2010.06.03 11:33:40.
