data_PCOD9111368
_publ_section_title
;
Structure prediction by ZEFSAII (Michael W. Deem and Ramdas Pophale) SiO2 
 PCOD9111368
Probable space group: P -1
;
_chemical_formula_sum "Si O2"
_cell_formula_units_Z 16
_cell_length_a 19.506873
_cell_length_b 18.667065
_cell_length_c 12.493666
_cell_angle_alpha 38.252177
_cell_angle_beta 153.678043
_cell_angle_gamma 157.952094
_cell_volume 728.435687
_symmetry_space_group_name_H-M "P -1"
_symmetry_group_IT_number 2
_symmetry_cell_setting 'triclinic'
loop_
_space_group_symop_operation_xyz
x,y,z
-x,-y,-z
loop_
_atom_site_type_symbol
_atom_site_label
_atom_site_fract_x
_atom_site_fract_y
_atom_site_fract_z
Si Si1 0.518846 0.759495 0.325540
Si Si2 0.776856 0.427416 0.093350
Si Si3 0.616747 0.163873 0.554343
Si Si4 0.028819 0.243494 0.443441
Si Si5 0.096372 0.940287 0.153336
Si Si6 0.289596 0.802610 0.101925
Si Si7 0.812373 0.208343 0.378821
Si Si8 0.586953 0.553456 0.763495
O O1 0.356116 0.717435 0.246647
O O2 0.557463 0.646285 0.534406
O O3 0.325769 0.653790 0.076835
O O4 0.805540 0.003342 0.427392
O O5 0.746762 0.280883 0.271588
O O6 0.088393 0.630086 0.311089
O O7 0.626010 0.449521 0.892417
O O8 0.683709 0.172970 0.761928
O O9 0.500000 0.000000 0.500000
O O10 0.384327 0.119025 0.289892
O O11 0.328161 0.386862 0.672007
O O12 0.026597 0.328339 0.443690
O O13 0.948027 0.271855 0.194681
O O14 0.133439 0.867465 0.382371
O O15 0.861090 0.750504 0.974146
O O16 0.000000 0.000000 0.000000
O O17 0.543636 0.026001 0.151903
#
# Coordination Sequence:
#
# PCOD9111368 Si02
#       8
#     2   2   2   2   2   2   2   2
#     4  11  23  45  72 105 141 177 233 293 341 406
#     4  12  24  45  67 100 139 179 231 281 347 414
#     4  11  24  45  68  97 138 188 224 280 350 404
#     4  11  22  44  71 104 135 178 232 294 347 394
#     4  11  25  48  68  99 137 181 241 282 333 423
#     4  10  20  42  74  99 131 180 235 286 336 414
#     4  10  22  43  71  97 133 181 228 288 337 407
#     4  12  27  42  65 106 144 183 229 282 352 413
#
# _framework density 21.964877000000001
#
# number of rings (size 3 to 8) (size 9 to 14) (size 15 to 20)
#    0.000    1.000    3.750    4.125    3.500    2.500 
#    6.750    0.000    0.000    0.000    0.000    0.000 
#    0.000    0.000    0.000    0.000    0.000    0.000 
#
# Total GULP energy -89117.326182 kJ/mol
# GULP energy per Si atom -5569.832886 kJ/mol
# Density = 2.191488 g / cm^3
# Si number density = 21.964877 Si / 1000 Ang^3
#
#
#
# Elastic Constant Matrix: (Units=GPa)
#
#
# Indices 1 2 3 4 5 6 
#
# 1 61.9399 15.8605 19.3951 -15.9947 20.8435 -24.4414
# 2 15.8605 82.9503 25.1990 -9.7905 18.6753 -15.4155
# 3 19.3951 25.1990 90.7270 -4.1260 14.8794 -6.9838
# 4 -15.9947 -9.7905 -4.1260 44.8663 -6.2021 16.2142
# 5 20.8435 18.6753 14.8794 -6.2021 46.4922 -2.2061
# 6 -24.4414 -15.4155 -6.9838 16.2142 -2.2061 29.8515
#
#
#
# Elastic Compliance Matrix: (Units=1/GPa)
#
#
# Indices 1 2 3 4 5 6 
#
# 1 0.030377 0.002535 -0.003283 0.000646 -0.012354 0.024149
# 2 0.002535 0.015533 -0.003197 -0.000051 -0.005935 0.008938
# 3 -0.003283 -0.003197 0.012733 -0.000455 -0.001437 -0.001219
# 4 0.000646 -0.000051 -0.000455 0.028182 0.002939 -0.014695
# 5 -0.012354 -0.005935 -0.001437 0.002939 0.029671 -0.012920
# 6 0.024149 0.008938 -0.001219 -0.014695 -0.012920 0.064628
#
#
# Mechanical properties :
#
#
# Convention : Reuss Voigt Hill
#
# Bulk Modulus (GPa) = 19.70395 39.61404 29.65899
# Shear Modulus (GPa) = 24.27968 35.91951 30.09959
#
# Velocity S-wave (km/s) = 3.32834 4.04829 3.70584
# Velocity P-wave (km/s) = 4.87449 6.31869 5.64298
#
# Compressibility (1/GPa) = 0.05075125
#
# Stress axis : x y z
#
# Youngs Moduli (GPa) = 32.91995 64.37802 78.53525
#
# Poissons Ratio (x) = -0.16317 0.25787
# Poissons Ratio (y) = -0.08344 0.25108
# Poissons Ratio (z) = 0.10809 0.20582
#
# Static dielectric constant tensor:
#      x y z
#    x 1.867530 0.009570 0.018510 
#    y 0.009570 2.028720 -0.050340 
#    z 0.018510 -0.050340 1.852190 
# 
# From -- ./inp_files/466598.got.cif
#   From: 2010.05.17/outbox.cif.g08.bks.cpg/sg2_234_cif.got.tgz:466598.got - 2010.06.03 11:33:40.
