data_PCOD9111071
_publ_section_title
;
Structure prediction by ZEFSAII (Michael W. Deem and Ramdas Pophale) SiO2 
 PCOD9111071
Probable space group: P -1
;
_chemical_formula_sum "Si O2"
_cell_formula_units_Z 16
_cell_length_a 12.129117
_cell_length_b 8.390847
_cell_length_c 13.621874
_cell_angle_alpha 51.442466
_cell_angle_beta 39.063723
_cell_angle_gamma 47.387437
_cell_volume 628.560735
_symmetry_space_group_name_H-M "P -1"
_symmetry_group_IT_number 2
_symmetry_cell_setting 'triclinic'
loop_
_space_group_symop_operation_xyz
x,y,z
-x,-y,-z
loop_
_atom_site_type_symbol
_atom_site_label
_atom_site_fract_x
_atom_site_fract_y
_atom_site_fract_z
Si Si1 0.300092 0.898022 0.401219
Si Si2 0.464873 0.070764 0.609429
Si Si3 0.378684 0.508855 0.205351
Si Si4 0.083099 0.204946 0.922766
Si Si5 0.461741 0.562238 0.667009
Si Si6 0.903476 0.329412 0.225046
Si Si7 0.290703 0.003464 0.151663
Si Si8 0.200726 0.722892 0.076259
O O1 0.376032 0.030384 0.376827
O O2 0.472291 0.690763 0.313029
O O3 0.175070 0.788764 0.589282
O O4 0.221178 0.027377 0.304805
O O5 0.263350 0.079956 0.775206
O O6 0.459961 0.318828 0.514047
O O7 0.500000 0.000000 0.500000
O O8 0.433432 0.416927 0.313457
O O9 0.324955 0.767934 0.169077
O O10 0.207292 0.559203 0.225508
O O11 0.576173 0.361814 0.071702
O O12 0.120479 0.415281 0.854041
O O13 0.903799 0.308931 0.935479
O O14 0.100037 0.989018 0.057701
O O15 0.233258 0.672785 0.771495
O O16 0.128832 0.195327 0.130733
O O17 0.500000 0.000000 0.000000
#
# Coordination Sequence:
#
# PCOD9111071 Si02
#       8
#     2   2   2   2   2   2   2   2
#     4  10  21  43  67  96 138 181 222 290 337 399
#     4  11  21  37  67  98 128 168 226 277 336 399
#     4  10  23  44  61  90 137 176 219 271 342 404
#     4  11  22  41  66  97 127 177 228 273 343 406
#     4  10  20  42  68  97 128 174 224 286 332 396
#     4  11  21  42  72  98 133 175 235 283 335 402
#     4  11  25  40  66 101 138 180 229 276 342 406
#     4  10  24  42  64  90 140 180 213 282 342 411
#
# _framework density 25.454975999999998
#
# number of rings (size 3 to 8) (size 9 to 14) (size 15 to 20)
#    0.000    1.500    2.500    2.625    1.750    4.000 
#    2.250    3.125    0.000    0.000    0.000    0.000 
#    0.000    0.000    0.000    0.000    0.000    0.000 
#
# Total GULP energy -89125.414415 kJ/mol
# GULP energy per Si atom -5570.338401 kJ/mol
# Density = 2.539704 g / cm^3
# Si number density = 25.454976 Si / 1000 Ang^3
#
#
#
# Elastic Constant Matrix: (Units=GPa)
#
#
# Indices 1 2 3 4 5 6 
#
# 1 188.1699 47.3579 51.4102 -5.4009 25.6059 -28.6281
# 2 47.3579 77.0784 26.4629 3.3131 11.1211 -26.5471
# 3 51.4102 26.4629 52.0075 -11.5459 3.5453 -15.8855
# 4 -5.4009 3.3131 -11.5459 33.0321 -4.0064 5.8295
# 5 25.6059 11.1211 3.5453 -4.0064 38.1076 3.7035
# 6 -28.6281 -26.5471 -15.8855 5.8295 3.7035 51.2634
#
#
#
# Elastic Compliance Matrix: (Units=1/GPa)
#
#
# Indices 1 2 3 4 5 6 
#
# 1 0.008636 -0.001018 -0.007326 -0.002159 -0.005309 0.002655
# 2 -0.001018 0.020627 -0.007969 -0.007353 -0.006235 0.008930
# 3 -0.007326 -0.007969 0.032822 0.011688 0.005400 0.000234
# 4 -0.002159 -0.007353 0.011688 0.036656 0.006952 -0.006062
# 5 -0.005309 -0.006235 0.005400 0.006952 0.032602 -0.007666
# 6 0.002655 0.008930 0.000234 -0.006062 -0.007666 0.026930
#
#
# Mechanical properties :
#
#
# Convention : Reuss Voigt Hill
#
# Bulk Modulus (GPa) = 33.94357 63.07974 48.51166
# Shear Modulus (GPa) = 24.91044 37.28227 31.09635
#
# Velocity S-wave (km/s) = 3.13166 3.83121 3.49896
# Velocity P-wave (km/s) = 5.14200 6.66375 5.95171
#
# Compressibility (1/GPa) = 0.02946066
#
# Stress axis : x y z
#
# Youngs Moduli (GPa) = 115.78797 48.48122 30.46703
#
# Poissons Ratio (x) = 0.04936 0.22319
# Poissons Ratio (y) = 0.11787 0.24278
# Poissons Ratio (z) = 0.84823 0.38633
#
# Static dielectric constant tensor:
#      x y z
#    x 2.160150 0.061970 0.123520 
#    y 0.061970 2.094960 0.036330 
#    z 0.123520 0.036330 2.112670 
# 
# From -- ./inp_files/515003.got.cif
#   From: 2010.05.17/outbox.cif.g08.bks.cpg/sg2_258_cif.got.tgz:515003.got - 2010.06.03 11:33:40.
