data_PCOD9111278
_publ_section_title
;
Structure prediction by ZEFSAII (Michael W. Deem and Ramdas Pophale) SiO2 
 PCOD9111278
Probable space group: P -1
;
_chemical_formula_sum "Si O2"
_cell_formula_units_Z 16
_cell_length_a 8.632885
_cell_length_b 13.932000
_cell_length_c 11.218543
_cell_angle_alpha 30.094015
_cell_angle_beta 76.823394
_cell_angle_gamma 76.489242
_cell_volume 656.916250
_symmetry_space_group_name_H-M "P -1"
_symmetry_group_IT_number 2
_symmetry_cell_setting 'triclinic'
loop_
_space_group_symop_operation_xyz
x,y,z
-x,-y,-z
loop_
_atom_site_type_symbol
_atom_site_label
_atom_site_fract_x
_atom_site_fract_y
_atom_site_fract_z
Si Si1 0.776528 0.054411 0.076032
Si Si2 0.416122 0.815767 0.667847
Si Si3 0.064763 0.279555 0.714372
Si Si4 0.616332 0.541779 0.782677
Si Si5 0.954712 0.612412 0.765300
Si Si6 0.478160 0.629820 0.245786
Si Si7 0.831760 0.676589 0.090161
Si Si8 0.906861 0.061527 0.310731
O O1 0.814842 0.094792 0.164134
O O2 0.818091 0.829234 0.285346
O O3 0.609279 0.158010 0.954197
O O4 0.905104 0.166984 0.859380
O O5 0.496051 0.728185 0.627928
O O6 0.227237 0.869512 0.644041
O O7 0.500000 0.000000 0.500000
O O8 0.449413 0.643001 0.941720
O O9 0.152636 0.249068 0.858178
O O10 0.000000 0.500000 0.500000
O O11 0.781319 0.568838 0.792638
O O12 0.628566 0.483483 0.705769
O O13 0.078309 0.530746 0.730577
O O14 0.952815 0.837126 0.546179
O O15 0.000000 0.500000 0.000000
O O16 0.500000 0.500000 0.500000
O O17 0.647031 0.656155 0.125114
O O18 0.937829 0.818979 0.845316
#
# Coordination Sequence:
#
# PCOD9111278 Si02
#       8
#     2   2   2   2   2   2   2   2
#     4  10  22  42  72 100 142 188 255 301 372 442
#     4  11  22  44  82 110 144 198 247 313 385 452
#     4  10  20  42  71  99 133 189 243 309 366 432
#     4  11  25  49  77 110 151 192 251 309 380 453
#     4  12  27  47  75 108 146 191 249 323 389 453
#     4  12  27  48  75 110 157 208 255 308 377 458
#     4  11  26  44  66 105 151 188 252 305 373 452
#     4  11  23  47  72 108 146 194 247 319 383 449
#
# _framework density 24.356225999999999
#
# number of rings (size 3 to 8) (size 9 to 14) (size 15 to 20)
#    0.000    1.000    3.750    2.250    3.500    4.000 
#    2.250    5.000    0.000    0.000    0.000    0.000 
#    0.000    0.000    0.000    0.000    0.000    0.000 
#
# Total GULP energy -89558.573656 kJ/mol
# GULP energy per Si atom -5597.410854 kJ/mol
# Density = 2.430079 g / cm^3
# Si number density = 24.356226 Si / 1000 Ang^3
#
#
#
# Elastic Constant Matrix: (Units=GPa)
#
#
# Indices 1 2 3 4 5 6 
#
# 1 142.8388 51.7448 60.7564 -12.0254 -6.3984 -21.3558
# 2 51.7448 136.5256 32.7263 -23.4913 19.3748 -19.9119
# 3 60.7564 32.7263 117.5982 -34.1759 7.9545 -2.5774
# 4 -12.0254 -23.4913 -34.1759 47.9625 7.4682 14.5595
# 5 -6.3984 19.3748 7.9545 7.4682 34.2439 -1.9143
# 6 -21.3558 -19.9119 -2.5774 14.5595 -1.9143 49.4946
#
#
#
# Elastic Compliance Matrix: (Units=1/GPa)
#
#
# Indices 1 2 3 4 5 6 
#
# 1 0.012767 -0.004702 -0.008120 -0.008092 0.009028 0.005924
# 2 -0.004702 0.011176 0.002018 0.007133 -0.009219 0.000118
# 3 -0.008120 0.002018 0.016905 0.014541 -0.010120 -0.006480
# 4 -0.008092 0.007133 0.014541 0.039171 -0.018144 -0.012089
# 5 0.009028 -0.009219 -0.010120 -0.018144 0.042785 0.006651
# 6 0.005924 0.000118 -0.006480 -0.012089 0.006651 0.026283
#
#
# Mechanical properties :
#
#
# Convention : Reuss Voigt Hill
#
# Bulk Modulus (GPa) = 51.97234 76.37975 64.17605
# Shear Modulus (GPa) = 28.23149 43.12254 35.67702
#
# Velocity S-wave (km/s) = 3.40826 4.21229 3.83142
# Velocity P-wave (km/s) = 6.07232 7.42195 6.78080
#
# Compressibility (1/GPa) = 0.01924100
#
# Stress axis : x y z
#
# Youngs Moduli (GPa) = 78.32874 89.47957 59.15296
#
# Poissons Ratio (x) = 0.42072 0.48030
# Poissons Ratio (y) = 0.36829 -0.11938
# Poissons Ratio (z) = 0.63601 -0.18059
#
# Static dielectric constant tensor:
#      x y z
#    x 1.929650 -0.017190 -0.001010 
#    y -0.017190 1.979960 0.044910 
#    z -0.001010 0.044910 1.999800 
# 
# From -- ./inp_files/398079.got.cif
#   From: 2010.05.17/outbox.cif.g08.bks.cpg/sg2_200_cif.got.tgz:398079.got - 2010.06.03 11:33:40.
