data_PCOD9111419
_publ_section_title
;
Structure prediction by ZEFSAII (Michael W. Deem and Ramdas Pophale) SiO2 
 PCOD9111419
Probable space group: P -1
;
_chemical_formula_sum "Si O2"
_cell_formula_units_Z 16
_cell_length_a 12.475295
_cell_length_b 7.666959
_cell_length_c 13.096293
_cell_angle_alpha 136.275941
_cell_angle_beta 53.303293
_cell_angle_gamma 105.915086
_cell_volume 665.528708
_symmetry_space_group_name_H-M "P -1"
_symmetry_group_IT_number 2
_symmetry_cell_setting 'triclinic'
loop_
_space_group_symop_operation_xyz
x,y,z
-x,-y,-z
loop_
_atom_site_type_symbol
_atom_site_label
_atom_site_fract_x
_atom_site_fract_y
_atom_site_fract_z
Si Si1 0.005026 0.991339 0.347576
Si Si2 0.546581 0.246141 0.540002
Si Si3 0.876317 0.124564 0.264415
Si Si4 0.301672 0.304535 0.054135
Si Si5 0.762776 0.140445 0.699934
Si Si6 0.437157 0.168756 0.362155
Si Si7 0.412944 0.294808 0.200281
Si Si8 0.014022 0.393229 0.144100
O O1 0.996018 0.686577 0.234130
O O2 0.956065 0.127520 0.326167
O O3 0.160334 0.985592 0.293169
O O4 0.893885 0.149863 0.560289
O O5 0.464065 0.320620 0.510972
O O6 0.510571 0.475984 0.742551
O O7 0.500000 0.000000 0.500000
O O8 0.713870 0.154532 0.389871
O O9 0.953451 0.832623 0.055101
O O10 0.894956 0.339280 0.261965
O O11 0.330174 0.566323 0.102215
O O12 0.304227 0.346150 0.192136
O O13 0.152477 0.308988 0.098913
O O14 0.416726 0.044200 0.841097
O O15 0.675899 0.987897 0.620697
O O16 0.380951 0.302833 0.342627
O O17 0.500000 0.000000 0.000000
#
# Coordination Sequence:
#
# PCOD9111419 Si02
#       8
#     2   2   2   2   2   2   2   2
#     4  10  22  42  62 100 132 177 233 278 348 405
#     4  12  25  45  69 100 139 183 227 281 351 413
#     4  11  23  43  68  97 136 182 226 290 343 410
#     4  10  20  43  62  95 136 175 229 280 345 406
#     4  10  22  39  65  95 134 176 227 283 335 421
#     4  11  22  40  67  97 132 176 223 283 341 406
#     4  10  24  42  65 101 135 175 225 280 345 411
#     4  10  23  42  67  96 135 180 234 281 342 415
#
# _framework density 24.041038
#
# number of rings (size 3 to 8) (size 9 to 14) (size 15 to 20)
#    0.000    1.500    1.250    3.375    3.500    1.000 
#    2.250    2.500    0.000    0.000    0.000    0.000 
#    0.000    0.000    0.000    0.000    0.000    0.000 
#
# Total GULP energy -89361.766846 kJ/mol
# GULP energy per Si atom -5585.110428 kJ/mol
# Density = 2.398632 g / cm^3
# Si number density = 24.041038 Si / 1000 Ang^3
#
#
#
# Elastic Constant Matrix: (Units=GPa)
#
#
# Indices 1 2 3 4 5 6 
#
# 1 103.6679 2.9506 7.2142 -26.4789 15.5766 -6.7595
# 2 2.9506 47.8027 15.0841 0.8965 -11.2214 -3.6497
# 3 7.2142 15.0841 91.4033 4.2578 4.3352 1.9811
# 4 -26.4789 0.8965 4.2578 25.9372 1.5552 5.6367
# 5 15.5766 -11.2214 4.3352 1.5552 44.3548 -5.6306
# 6 -6.7595 -3.6497 1.9811 5.6367 -5.6306 35.1994
#
#
#
# Elastic Compliance Matrix: (Units=1/GPa)
#
#
# Indices 1 2 3 4 5 6 
#
# 1 0.014758 -0.002393 -0.001191 0.015924 -0.006346 -0.000912
# 2 -0.002393 0.024713 -0.004183 -0.004035 0.008188 0.004294
# 3 -0.001191 -0.004183 0.011964 -0.002660 -0.001869 -0.001209
# 4 0.015924 -0.004035 -0.002660 0.057677 -0.009384 -0.007948
# 5 -0.006346 0.008188 -0.001869 -0.009384 0.028085 0.005731
# 6 -0.000912 0.004294 -0.001209 -0.007948 0.005731 0.030937
#
#
# Mechanical properties :
#
#
# Convention : Reuss Voigt Hill
#
# Bulk Modulus (GPa) = 27.85455 32.59686 30.22571
# Shear Modulus (GPa) = 25.55792 35.60662 30.58227
#
# Velocity S-wave (km/s) = 3.26405 3.85265 3.57050
# Velocity P-wave (km/s) = 5.08102 5.77744 5.44039
#
# Compressibility (1/GPa) = 0.03590078
#
# Stress axis : x y z
#
# Youngs Moduli (GPa) = 67.75790 40.46532 83.58699
#
# Poissons Ratio (x) = 0.09684 0.09954
# Poissons Ratio (y) = 0.16215 0.34963
# Poissons Ratio (z) = 0.08069 0.16926
#
# Static dielectric constant tensor:
#      x y z
#    x 1.906540 -0.004910 0.018050 
#    y -0.004910 2.103350 0.051260 
#    z 0.018050 0.051260 1.916720 
# 
# From -- ./inp_files/516349.got.cif
#   From: 2010.05.17/outbox.cif.g08.bks.cpg/sg2_259_cif.got.tgz:516349.got - 2010.06.03 11:33:40.
