data_PCOD9111865
_publ_section_title
;
Structure prediction by ZEFSAII (Michael W. Deem and Ramdas Pophale) SiO2 
 PCOD9111865
Probable space group: P -1
;
_chemical_formula_sum "Si O2"
_cell_formula_units_Z 14
_cell_length_a 10.964292
_cell_length_b 11.722086
_cell_length_c 7.985582
_cell_angle_alpha 100.975082
_cell_angle_beta 34.906221
_cell_angle_gamma 104.255018
_cell_volume 569.101510
_symmetry_space_group_name_H-M "P -1"
_symmetry_group_IT_number 2
_symmetry_cell_setting 'triclinic'
loop_
_space_group_symop_operation_xyz
x,y,z
-x,-y,-z
loop_
_atom_site_type_symbol
_atom_site_label
_atom_site_fract_x
_atom_site_fract_y
_atom_site_fract_z
Si Si1 0.815433 0.153694 0.169439
Si Si2 0.081481 0.065153 0.153438
Si Si3 0.877737 0.609369 0.199271
Si Si4 0.733426 0.563263 0.986255
Si Si5 0.954454 0.344719 0.636660
Si Si6 0.703943 0.103852 0.780164
Si Si7 0.509239 0.755593 0.216537
O O1 0.595648 0.195502 0.486800
O O2 0.956227 0.106240 0.145878
O O3 0.965638 0.269692 0.974805
O O4 0.784188 0.040491 0.054246
O O5 0.884902 0.031744 0.489730
O O6 0.250453 0.174905 0.052004
O O7 0.853316 0.616031 0.430650
O O8 0.724347 0.597928 0.204483
O O9 0.000000 0.500000 0.000000
O O10 0.771416 0.428578 0.894987
O O11 0.940956 0.625482 0.657796
O O12 0.530856 0.618618 0.157642
O O13 0.843586 0.210074 0.759442
O O14 0.625308 0.194595 0.761289
O O15 0.500000 0.000000 0.000000
#
# Coordination Sequence:
#
# PCOD9111865 Si02
#       7
#     2   2   2   2   2   2   2
#     4  10  21  38  64  95 126 173 225 272 338 405
#     4  10  21  41  64  89 131 179 222 275 331 397
#     4  10  21  41  68  97 131 175 221 283 341 396
#     4  10  20  43  72  98 130 176 229 280 337 403
#     4  10  22  42  69  97 136 180 219 279 346 394
#     4  11  25  41  61 100 139 177 227 272 339 415
#     4  11  21  40  69  93 128 181 225 278 337 397
#
# _framework density 24.600180000000002
#
# number of rings (size 3 to 8) (size 9 to 14) (size 15 to 20)
#    0.000    1.714    2.857    1.286    2.000    2.286 
#    0.000    5.714    0.000    0.000    0.000    0.000 
#    0.000    0.000    0.000    0.000    0.000    0.000 
#
# Total GULP energy -77947.318346 kJ/mol
# GULP energy per Si atom -5567.665596 kJ/mol
# Density = 2.454419 g / cm^3
# Si number density = 24.600180 Si / 1000 Ang^3
#
#
#
# Elastic Constant Matrix: (Units=GPa)
#
#
# Indices 1 2 3 4 5 6 
#
# 1 79.1897 11.9302 2.0899 3.9023 11.8302 -11.9861
# 2 11.9302 126.2712 24.0817 7.7396 14.3479 -7.8868
# 3 2.0899 24.0817 73.5570 12.8887 -10.2800 -4.0486
# 4 3.9023 7.7396 12.8887 37.2566 -0.6729 -6.4339
# 5 11.8302 14.3479 -10.2800 -0.6729 13.0671 5.6674
# 6 -11.9861 -7.8868 -4.0486 -6.4339 5.6674 41.1806
#
#
#
# Elastic Compliance Matrix: (Units=1/GPa)
#
#
# Indices 1 2 3 4 5 6 
#
# 1 0.017631 0.002782 -0.004675 0.000250 -0.026540 0.008897
# 2 0.002782 0.012054 -0.007072 0.000211 -0.023792 0.005730
# 3 -0.004675 -0.007072 0.021032 -0.005760 0.030754 -0.005780
# 4 0.000250 0.000211 -0.005760 0.029514 -0.005607 0.004930
# 5 -0.026540 -0.023792 0.030754 -0.005607 0.164818 -0.032817
# 6 0.008897 0.005730 -0.005780 0.004930 -0.032817 0.032688
#
#
# Mechanical properties :
#
#
# Convention : Reuss Voigt Hill
#
# Bulk Modulus (GPa) = 30.49966 39.46906 34.98436
# Shear Modulus (GPa) = 16.30808 34.36191 25.33500
#
# Velocity S-wave (km/s) = 2.57753 3.74145 3.21264
# Velocity P-wave (km/s) = 4.61338 5.89438 5.29278
#
# Compressibility (1/GPa) = 0.03278725
#
# Stress axis : x y z
#
# Youngs Moduli (GPa) = 56.71710 82.96228 47.54638
#
# Poissons Ratio (x) = -0.23079 0.22228
# Poissons Ratio (y) = -0.15778 0.33624
# Poissons Ratio (z) = 0.26515 0.58670
#
# Static dielectric constant tensor:
#      x y z
#    x 2.153420 0.025700 0.131610 
#    y 0.025700 1.865850 0.008670 
#    z 0.131610 0.008670 1.942170 
# 
# From -- ./inp_files/262652.got.cif
#   From: 2010.05.17/outbox.cif.g08.bks.cpg/sg2_132_cif.got.tgz:262652.got - 2010.06.03 11:33:40.
