data_PCOD9111656
_publ_section_title
;
Structure prediction by ZEFSAII (Michael W. Deem and Ramdas Pophale) SiO2 
 PCOD9111656
Probable space group: P -1
;
_chemical_formula_sum "Si O2"
_cell_formula_units_Z 16
_cell_length_a 10.244587
_cell_length_b 5.421632
_cell_length_c 21.592126
_cell_angle_alpha 128.195145
_cell_angle_beta 46.121325
_cell_angle_gamma 110.882564
_cell_volume 673.848573
_symmetry_space_group_name_H-M "P -1"
_symmetry_group_IT_number 2
_symmetry_cell_setting 'triclinic'
loop_
_space_group_symop_operation_xyz
x,y,z
-x,-y,-z
loop_
_atom_site_type_symbol
_atom_site_label
_atom_site_fract_x
_atom_site_fract_y
_atom_site_fract_z
Si Si1 0.064064 0.201939 0.670085
Si Si2 0.662020 0.489056 0.806526
Si Si3 0.408734 0.219846 0.747065
Si Si4 0.821076 0.209480 0.045090
Si Si5 0.315652 0.427809 0.980853
Si Si6 0.112406 0.982937 0.196478
Si Si7 0.432786 0.155697 0.481012
Si Si8 0.129053 0.802253 0.811105
O O1 0.214354 0.173552 0.563465
O O2 0.863415 0.314738 0.726822
O O3 0.015685 0.923625 0.687817
O O4 0.135513 0.435286 0.734814
O O5 0.560993 0.344521 0.760092
O O6 0.522570 0.484292 0.908850
O O7 0.709741 0.838893 0.833472
O O8 0.242396 0.510874 0.841469
O O9 0.321581 0.934014 0.764162
O O10 0.491931 0.080212 0.634679
O O11 0.777866 0.417113 0.028121
O O12 0.694447 0.937603 0.058331
O O13 0.014025 0.995686 0.933774
O O14 0.196941 0.619687 0.102721
O O15 0.989040 0.072349 0.191439
O O16 0.500000 0.500000 0.500000
O O17 0.500000 0.000000 0.500000
#
# Coordination Sequence:
#
# PCOD9111656 Si02
#       8
#     2   2   2   2   2   2   2   2
#     4  11  23  43  74  99 140 186 238 282 341 415
#     4  10  25  40  66 104 146 184 226 288 353 413
#     4  11  24  47  70 103 146 178 234 294 353 409
#     4  10  22  40  66 105 143 181 227 287 349 405
#     4  10  21  40  65 100 144 191 229 270 342 423
#     4  10  21  41  66 101 143 189 236 278 337 418
#     4  12  28  51  79 104 131 183 241 292 345 416
#     4  10  20  43  68 103 138 187 233 286 341 415
#
# _framework density 23.744206999999999
#
# number of rings (size 3 to 8) (size 9 to 14) (size 15 to 20)
#    0.000    1.500    2.500    1.500    5.250    4.000 
#    4.500    4.375    0.000    0.000    0.000    0.000 
#    0.000    0.000    0.000    0.000    0.000    0.000 
#
# Total GULP energy -89354.391821 kJ/mol
# GULP energy per Si atom -5584.649489 kJ/mol
# Density = 2.369016 g / cm^3
# Si number density = 23.744207 Si / 1000 Ang^3
#
#
#
# Elastic Constant Matrix: (Units=GPa)
#
#
# Indices 1 2 3 4 5 6 
#
# 1 76.8886 3.8786 29.3842 7.4487 0.9359 18.0332
# 2 3.8786 123.7919 27.2263 -18.6292 1.4432 19.5113
# 3 29.3842 27.2263 176.1799 -32.7552 -1.2020 2.2677
# 4 7.4487 -18.6292 -32.7552 39.6909 4.4931 -4.4856
# 5 0.9359 1.4432 -1.2020 4.4931 38.2384 -7.6807
# 6 18.0332 19.5113 2.2677 -4.4856 -7.6807 31.2260
#
#
#
# Elastic Compliance Matrix: (Units=1/GPa)
#
#
# Indices 1 2 3 4 5 6 
#
# 1 0.018501 0.001304 -0.004596 -0.007845 -0.002308 -0.012860
# 2 0.001304 0.009841 -0.001123 0.002909 -0.002174 -0.006937
# 3 -0.004596 -0.001123 0.007921 0.007276 0.000334 0.003908
# 4 -0.007845 0.002909 0.007276 0.035065 -0.002481 0.006611
# 5 -0.002308 -0.002174 0.000334 -0.002481 0.028463 0.009312
# 6 -0.012860 -0.006937 0.003908 0.006611 0.009312 0.046742
#
#
# Mechanical properties :
#
#
# Convention : Reuss Voigt Hill
#
# Bulk Modulus (GPa) = 36.45190 55.31539 45.88365
# Shear Modulus (GPa) = 30.39412 42.92248 36.65830
#
# Velocity S-wave (km/s) = 3.58168 4.25632 3.93349
# Velocity P-wave (km/s) = 5.69998 6.89217 6.32423
#
# Compressibility (1/GPa) = 0.02743341
#
# Stress axis : x y z
#
# Youngs Moduli (GPa) = 54.05227 101.61784 126.24980
#
# Poissons Ratio (x) = -0.13255 0.58023
# Poissons Ratio (y) = -0.07051 0.14177
# Poissons Ratio (z) = 0.24842 0.11411
#
# Static dielectric constant tensor:
#      x y z
#    x 2.000760 -0.078380 -0.008920 
#    y -0.078380 2.028340 -0.019230 
#    z -0.008920 -0.019230 1.926550 
# 
# From -- ./inp_files/609109.got.cif
#   From: 2010.05.17/outbox.cif.g08.bks.cpg/sg2_305_cif.got.tgz:609109.got - 2010.06.03 11:33:40.
