data_PCOD9111175
_publ_section_title
;
Structure prediction by ZEFSAII (Michael W. Deem and Ramdas Pophale) SiO2 
 PCOD9111175
Probable space group: P -1
;
_chemical_formula_sum "Si O2"
_cell_formula_units_Z 15
_cell_length_a 20.966251
_cell_length_b 7.855964
_cell_length_c 6.635131
_cell_angle_alpha 117.600474
_cell_angle_beta 52.887965
_cell_angle_gamma 138.022342
_cell_volume 582.684885
_symmetry_space_group_name_H-M "P -1"
_symmetry_group_IT_number 2
_symmetry_cell_setting 'triclinic'
loop_
_space_group_symop_operation_xyz
x,y,z
-x,-y,-z
loop_
_atom_site_type_symbol
_atom_site_label
_atom_site_fract_x
_atom_site_fract_y
_atom_site_fract_z
Si Si1 0.069275 0.575130 0.216995
Si Si2 0.209941 0.305185 0.514191
Si Si3 0.708445 0.249465 0.119389
Si Si4 0.305453 0.151859 0.551979
Si Si5 0.335426 0.508654 0.006046
Si Si6 0.000000 0.000000 0.000000
Si Si7 0.910073 0.116589 0.011393
Si Si8 0.536143 0.765229 0.000425
O O1 0.191480 0.728672 0.108476
O O2 0.000000 0.500000 0.500000
O O3 0.012804 0.297144 0.070909
O O4 0.056719 0.730004 0.170551
O O5 0.275806 0.251992 0.484639
O O6 0.236455 0.315218 0.236398
O O7 0.256088 0.581445 0.656066
O O8 0.088520 0.094621 0.692817
O O9 0.686737 0.362979 0.042520
O O10 0.599492 0.960705 0.171160
O O11 0.381825 0.123741 0.282996
O O12 0.189124 0.917696 0.734795
O O13 0.357518 0.352442 0.745978
O O14 0.432991 0.705079 0.075784
O O15 0.899911 0.879047 0.955144
O O16 0.500000 0.500000 0.000000
#
# Coordination Sequence:
#
# PCOD9111175 Si02
#       8
#     2   2   2   2   2   1   2   2
#     4  11  24  42  66 103 138 181 229 279 358 418
#     4  10  22  45  70 102 145 178 234 285 353 419
#     4  11  26  45  68 103 140 183 234 289 352 427
#     4  10  23  45  70 104 138 178 240 288 354 421
#     4  11  25  46  71 100 139 192 230 293 354 414
#     4  10  20  42  70 100 138 184 228 280 342 422
#     4  10  23  41  68  99 138 179 221 288 342 421
#     4  12  25  47  72 101 137 186 238 302 353 409
#
# _framework density 25.742899999999999
#
# number of rings (size 3 to 8) (size 9 to 14) (size 15 to 20)
#    0.000    1.333    2.667    1.600    3.733    3.733 
#    2.400    2.667    0.000    0.000    0.000    0.000 
#    0.000    0.000    0.000    0.000    0.000    0.000 
#
# Total GULP energy -83815.574985 kJ/mol
# GULP energy per Si atom -5587.704999 kJ/mol
# Density = 2.568431 g / cm^3
# Si number density = 25.742900 Si / 1000 Ang^3
#
#
#
# Elastic Constant Matrix: (Units=GPa)
#
#
# Indices 1 2 3 4 5 6 
#
# 1 119.6106 13.8318 23.0428 -13.3722 4.4324 4.1958
# 2 13.8318 104.9561 -5.4558 4.0908 3.0953 10.3500
# 3 23.0428 -5.4558 113.3796 -17.8416 -1.1981 -10.0300
# 4 -13.3722 4.0908 -17.8416 36.8948 2.1605 3.0736
# 5 4.4324 3.0953 -1.1981 2.1605 35.7772 -12.1130
# 6 4.1958 10.3500 -10.0300 3.0736 -12.1130 40.1436
#
#
#
# Elastic Compliance Matrix: (Units=1/GPa)
#
#
# Indices 1 2 3 4 5 6 
#
# 1 0.009287 -0.001183 -0.001666 0.002961 -0.001922 -0.001889
# 2 -0.001183 0.010064 0.000291 -0.001077 -0.001597 -0.002798
# 3 -0.001666 0.000291 0.010039 0.003927 0.001182 0.002663
# 4 0.002961 -0.001077 0.003927 0.030541 -0.002736 -0.002215
# 5 -0.001922 -0.001597 0.001182 -0.002736 0.032200 0.010833
# 6 -0.001889 -0.002798 0.002663 -0.002215 0.010833 0.029933
#
#
# Mechanical properties :
#
#
# Convention : Reuss Voigt Hill
#
# Bulk Modulus (GPa) = 41.19747 44.53155 42.86451
# Shear Modulus (GPa) = 36.96325 42.99828 39.98076
#
# Velocity S-wave (km/s) = 3.79339 4.09136 3.94519
# Velocity P-wave (km/s) = 5.93503 6.29723 6.11881
#
# Compressibility (1/GPa) = 0.02427334
#
# Stress axis : x y z
#
# Youngs Moduli (GPa) = 107.68069 99.36637 99.61594
#
# Poissons Ratio (x) = 0.11755 0.16593
# Poissons Ratio (y) = 0.12738 -0.02897
# Poissons Ratio (z) = 0.17936 -0.02889
#
# Static dielectric constant tensor:
#      x y z
#    x 2.177810 -0.196710 -0.038420 
#    y -0.196710 2.368920 0.094140 
#    z -0.038420 0.094140 2.016980 
# 
# From -- ./inp_files/117232.got.cif
#   From: 2010.05.17/outbox.cif.g08.bks.cpg/sg2_59_cif.got.tgz:117232.got - 2010.06.03 11:33:40.
