data_PCOD9111808
_publ_section_title
;
Structure prediction by ZEFSAII (Michael W. Deem and Ramdas Pophale) SiO2 
 PCOD9111808
Probable space group: P -1
;
_chemical_formula_sum "Si O2"
_cell_formula_units_Z 13
_cell_length_a 11.679284
_cell_length_b 8.912087
_cell_length_c 8.586069
_cell_angle_alpha 71.861056
_cell_angle_beta 90.745770
_cell_angle_gamma 141.101931
_cell_volume 492.361684
_symmetry_space_group_name_H-M "P -1"
_symmetry_group_IT_number 2
_symmetry_cell_setting 'triclinic'
loop_
_space_group_symop_operation_xyz
x,y,z
-x,-y,-z
loop_
_atom_site_type_symbol
_atom_site_label
_atom_site_fract_x
_atom_site_fract_y
_atom_site_fract_z
Si Si1 0.533471 0.225648 0.452251
Si Si2 0.500000 0.000000 0.000000
Si Si3 0.292730 0.270198 0.981428
Si Si4 0.303770 0.061794 0.801591
Si Si5 0.137091 0.460721 0.413001
Si Si6 0.138039 0.400706 0.091665
Si Si7 0.746237 0.066361 0.715776
O O1 0.746794 0.475826 0.457008
O O2 0.500000 0.000000 0.500000
O O3 0.390663 0.137356 0.608211
O O4 0.454379 0.197635 0.294728
O O5 0.443100 0.115473 0.898479
O O6 0.680497 0.276670 0.026007
O O7 0.170731 0.284619 0.024690
O O8 0.194968 0.001139 0.140498
O O9 0.500000 0.500000 0.000000
O O10 0.314312 0.252258 0.806482
O O11 0.073367 0.760730 0.894318
O O12 0.129299 0.348932 0.293935
O O13 0.259861 0.761434 0.267251
O O14 0.919901 0.265596 0.526198
#
# Coordination Sequence:
#
# PCOD9111808 Si02
#       7
#     2   1   2   2   2   2   2
#     4  10  21  41  71 101 136 179 239 293 350 413
#     4  12  24  44  74 100 144 182 240 300 348 416
#     4  12  26  48  70 103 153 191 232 292 361 434
#     4  12  25  47  71 105 142 189 238 295 357 424
#     4  10  20  43  71 101 136 180 242 296 342 418
#     4  12  25  45  71 106 143 191 238 291 358 430
#     4  10  23  43  70 101 138 185 234 293 352 416
#
# _framework density 26.403355999999999
#
# number of rings (size 3 to 8) (size 9 to 14) (size 15 to 20)
#    0.000    0.923    4.615    1.846    2.154    0.615 
#    5.538    1.538    0.000    0.000    0.000    0.000 
#    0.000    0.000    0.000    0.000    0.000    0.000 
#
# Total GULP energy -72618.165840 kJ/mol
# GULP energy per Si atom -5586.012757 kJ/mol
# Density = 2.634326 g / cm^3
# Si number density = 26.403356 Si / 1000 Ang^3
#
#
#
# Elastic Constant Matrix: (Units=GPa)
#
#
# Indices 1 2 3 4 5 6 
#
# 1 154.3825 50.7668 37.0296 19.5397 -22.3771 3.6767
# 2 50.7668 118.0802 19.0209 26.0167 -20.6818 16.2225
# 3 37.0296 19.0209 81.3483 29.3845 -14.0010 -11.2873
# 4 19.5397 26.0167 29.3845 42.7888 -7.8995 -6.6646
# 5 -22.3771 -20.6818 -14.0010 -7.8995 56.5982 16.3534
# 6 3.6767 16.2225 -11.2873 -6.6646 16.3534 62.5496
#
#
#
# Elastic Compliance Matrix: (Units=1/GPa)
#
#
# Indices 1 2 3 4 5 6 
#
# 1 0.008357 -0.002704 -0.003007 0.000104 0.001817 -0.000797
# 2 -0.002704 0.012355 0.000866 -0.006852 0.004055 -0.004679
# 3 -0.003007 0.000866 0.017889 -0.010898 0.001566 0.001610
# 4 0.000104 -0.006852 -0.010898 0.035333 -0.001361 0.003925
# 5 0.001817 0.004055 0.001566 -0.001361 0.022025 -0.006779
# 6 -0.000797 -0.004679 0.001610 0.003925 -0.006779 0.019729
#
#
# Mechanical properties :
#
#
# Convention : Reuss Voigt Hill
#
# Bulk Modulus (GPa) = 34.59055 63.04952 48.82003
# Shear Modulus (GPa) = 37.03286 48.85356 42.94321
#
# Velocity S-wave (km/s) = 3.74917 4.30615 4.03728
# Velocity P-wave (km/s) = 5.64544 6.97532 6.34532
#
# Compressibility (1/GPa) = 0.02890963
#
# Stress axis : x y z
#
# Youngs Moduli (GPa) = 119.66021 80.94061 55.90063
#
# Poissons Ratio (x) = 0.21885 0.16812
# Poissons Ratio (y) = 0.32355 -0.04840
# Poissons Ratio (z) = 0.35987 -0.07008
#
# Static dielectric constant tensor:
#      x y z
#    x 1.951200 -0.118750 0.092170 
#    y -0.118750 2.033140 0.043790 
#    z 0.092170 0.043790 1.998460 
# 
# From -- ./inp_files/231167.got.cif
#   From: 2010.05.17/outbox.cif.g08.bks.cpg/sg2_116_cif.got.tgz:231167.got - 2010.06.03 11:33:40.
