data_PCOD9111168
_publ_section_title
;
Structure prediction by ZEFSAII (Michael W. Deem and Ramdas Pophale) SiO2 
 PCOD9111168
Probable space group: P -1
;
_chemical_formula_sum "Si O2"
_cell_formula_units_Z 16
_cell_length_a 12.798692
_cell_length_b 9.021164
_cell_length_c 19.673728
_cell_angle_alpha 133.907181
_cell_angle_beta 154.060756
_cell_angle_gamma 44.395139
_cell_volume 685.425308
_symmetry_space_group_name_H-M "P -1"
_symmetry_group_IT_number 2
_symmetry_cell_setting 'triclinic'
loop_
_space_group_symop_operation_xyz
x,y,z
-x,-y,-z
loop_
_atom_site_type_symbol
_atom_site_label
_atom_site_fract_x
_atom_site_fract_y
_atom_site_fract_z
Si Si1 0.832061 0.288073 0.898942
Si Si2 0.568249 0.531281 0.473512
Si Si3 0.522886 0.365426 0.873056
Si Si4 0.860048 0.569279 0.219840
Si Si5 0.644238 0.989745 0.152255
Si Si6 0.245384 0.950377 0.349488
Si Si7 0.112495 0.687040 0.653963
Si Si8 0.350774 0.299314 0.175206
O O1 0.681450 0.244489 0.862625
O O2 0.860861 0.104992 0.801085
O O3 0.699895 0.511194 0.851587
O O4 0.104820 0.312337 0.079520
O O5 0.500000 0.500000 0.500000
O O6 0.341408 0.729643 0.377522
O O7 0.556936 0.332142 0.357001
O O8 0.849316 0.545581 0.634774
O O9 0.299330 0.319078 0.771533
O O10 0.359385 0.580025 0.807908
O O11 0.720039 0.406241 0.054959
O O12 0.818892 0.756232 0.198888
O O13 0.804958 0.160151 0.302524
O O14 0.433412 0.076981 0.113070
O O15 0.500000 0.000000 0.000000
O O16 0.500000 0.000000 0.500000
O O17 0.075806 0.146437 0.354507
O O18 0.000000 0.500000 0.500000
#
# Coordination Sequence:
#
# PCOD9111168 Si02
#       8
#     2   2   2   2   2   2   2   2
#     4  10  20  42  69  99 138 179 236 294 342 418
#     4  11  24  46  67  98 145 186 231 294 359 414
#     4  11  23  44  69 103 146 190 228 298 368 409
#     4  11  25  42  71 103 149 188 234 296 359 436
#     4  12  23  45  72 104 133 185 247 289 356 425
#     4  11  24  42  70 102 134 185 237 279 348 425
#     4  12  25  43  76 104 141 184 237 301 351 422
#     4  10  22  39  69 101 135 182 239 289 345 419
#
# _framework density 23.343171000000002
#
# number of rings (size 3 to 8) (size 9 to 14) (size 15 to 20)
#    0.000    1.000    2.500    3.750    3.500    2.500 
#    4.500    0.625    0.000    0.000    0.000    0.000 
#    0.000    0.000    0.000    0.000    0.000    0.000 
#
# Total GULP energy -89383.879006 kJ/mol
# GULP energy per Si atom -5586.492438 kJ/mol
# Density = 2.329004 g / cm^3
# Si number density = 23.343171 Si / 1000 Ang^3
#
#
#
# Elastic Constant Matrix: (Units=GPa)
#
#
# Indices 1 2 3 4 5 6 
#
# 1 149.6682 23.2402 38.7894 -1.5724 0.5956 -26.1875
# 2 23.2402 56.0989 10.8690 10.5289 -10.3600 -21.4667
# 3 38.7894 10.8690 111.4647 2.0985 4.8529 -20.7160
# 4 -1.5724 10.5289 2.0985 22.3989 -0.5048 4.4097
# 5 0.5956 -10.3600 4.8529 -0.5048 37.0273 0.2468
# 6 -26.1875 -21.4667 -20.7160 4.4097 0.2468 46.1333
#
#
#
# Elastic Compliance Matrix: (Units=1/GPa)
#
#
# Indices 1 2 3 4 5 6 
#
# 1 0.008032 -0.002362 -0.002128 0.001395 -0.000508 0.002374
# 2 -0.002362 0.028291 0.000556 -0.016016 0.007572 0.013564
# 3 -0.002128 0.000556 0.010493 -0.002205 -0.001242 0.003980
# 4 0.001395 -0.016016 -0.002205 0.054939 -0.003380 -0.012885
# 5 -0.000508 0.007572 -0.001242 -0.003380 0.029232 0.002844
# 6 0.002374 0.013564 0.003980 -0.012885 0.002844 0.032339
#
#
# Mechanical properties :
#
#
# Convention : Reuss Voigt Hill
#
# Bulk Modulus (GPa) = 25.67512 51.44766 38.56139
# Shear Modulus (GPa) = 27.14802 37.40077 32.27440
#
# Velocity S-wave (km/s) = 3.41397 4.00711 3.72237
# Velocity P-wave (km/s) = 5.15394 6.59521 5.91861
#
# Compressibility (1/GPa) = 0.03894821
#
# Stress axis : x y z
#
# Youngs Moduli (GPa) = 124.50640 35.34681 95.30183
#
# Poissons Ratio (x) = 0.08350 0.20276
# Poissons Ratio (y) = 0.29412 -0.05300
# Poissons Ratio (z) = 0.26490 -0.01966
#
# Static dielectric constant tensor:
#      x y z
#    x 2.077600 -0.059540 0.025980 
#    y -0.059540 2.088260 -0.034360 
#    z 0.025980 -0.034360 1.892350 
# 
# From -- ./inp_files/314471.got.cif
#   From: 2010.05.17/outbox.cif.g08.bks.cpg/sg2_158_cif.got.tgz:314471.got - 2010.06.03 11:33:40.
