data_PCOD9111740
_publ_section_title
;
Structure prediction by ZEFSAII (Michael W. Deem and Ramdas Pophale) SiO2 
 PCOD9111740
Probable space group: P -1
;
_chemical_formula_sum "Si O2"
_cell_formula_units_Z 16
_cell_length_a 8.398760
_cell_length_b 12.050405
_cell_length_c 8.400468
_cell_angle_alpha 89.684012
_cell_angle_beta 130.126340
_cell_angle_gamma 106.193554
_cell_volume 606.465065
_symmetry_space_group_name_H-M "P -1"
_symmetry_group_IT_number 2
_symmetry_cell_setting 'triclinic'
loop_
_space_group_symop_operation_xyz
x,y,z
-x,-y,-z
loop_
_atom_site_type_symbol
_atom_site_label
_atom_site_fract_x
_atom_site_fract_y
_atom_site_fract_z
Si Si1 0.543136 0.608055 0.910097
Si Si2 0.909973 0.071231 0.579388
Si Si3 0.918871 0.282320 0.768292
Si Si4 0.241843 0.082666 0.226801
Si Si5 0.133275 0.249901 0.354548
Si Si6 0.355135 0.192384 0.816594
Si Si7 0.721370 0.483720 0.570853
Si Si8 0.699998 0.096526 0.919245
O O1 0.484427 0.701839 0.979305
O O2 0.810608 0.654886 0.041943
O O3 0.500000 0.500000 0.000000
O O4 0.367095 0.565357 0.657913
O O5 0.158458 0.128845 0.813214
O O6 0.860789 0.195292 0.572727
O O7 0.000000 0.000000 0.500000
O O8 0.751394 0.975586 0.596689
O O9 0.818148 0.387942 0.705333
O O10 0.805799 0.190185 0.840865
O O11 0.267704 0.214600 0.295055
O O12 0.383604 0.038211 0.197882
O O13 0.000000 0.000000 0.000000
O O14 0.252096 0.240629 0.598323
O O15 0.114584 0.378217 0.325663
O O16 0.893020 0.144658 0.177235
O O17 0.481196 0.110019 0.843733
O O18 0.500000 0.500000 0.500000
#
# Coordination Sequence:
#
# PCOD9111740 Si02
#       8
#     2   2   2   2   2   2   2   2
#     4  11  25  44  64 100 141 176 230 280 331 411
#     4  10  20  43  69  94 133 176 219 281 342 398
#     4  10  25  44  69  96 141 182 222 285 346 394
#     4   9  20  42  67  95 132 172 221 277 337 401
#     4  11  22  39  67  93 135 175 219 275 341 390
#     4  11  23  41  68  99 133 176 224 279 343 401
#     4  12  26  44  70 102 136 184 233 276 338 411
#     4  10  23  43  68 103 130 176 230 280 342 406
#
# _framework density 26.382391999999999
#
# number of rings (size 3 to 8) (size 9 to 14) (size 15 to 20)
#    0.000    1.500    2.500    1.500    1.750    5.000 
#    2.250    2.500    0.000    0.000    0.000    0.000 
#    0.000    0.000    0.000    0.000    0.000    0.000 
#
# Total GULP energy -89187.679623 kJ/mol
# GULP energy per Si atom -5574.229976 kJ/mol
# Density = 2.632234 g / cm^3
# Si number density = 26.382392 Si / 1000 Ang^3
#
#
#
# Elastic Constant Matrix: (Units=GPa)
#
#
# Indices 1 2 3 4 5 6 
#
# 1 66.6121 23.2613 9.4224 -5.7499 8.7117 -16.3304
# 2 23.2613 184.7550 44.0382 2.8765 -15.6684 -31.6038
# 3 9.4224 44.0382 113.6214 11.5107 -11.9103 -14.1114
# 4 -5.7499 2.8765 11.5107 46.1878 -3.3519 -4.7595
# 5 8.7117 -15.6684 -11.9103 -3.3519 36.2660 9.3476
# 6 -16.3304 -31.6038 -14.1114 -4.7595 9.3476 55.0771
#
#
#
# Elastic Compliance Matrix: (Units=1/GPa)
#
#
# Indices 1 2 3 4 5 6 
#
# 1 0.018219 -0.001685 -0.001149 0.002744 -0.006647 0.005506
# 2 -0.001685 0.006689 -0.001955 0.000267 0.002029 0.002517
# 3 -0.001149 -0.001955 0.010212 -0.002334 0.002430 0.000540
# 4 0.002744 0.000267 -0.002334 0.022810 0.000204 0.002306
# 5 -0.006647 0.002029 0.002430 0.000204 0.032321 -0.005652
# 6 0.005506 0.002517 0.000540 0.002306 -0.005652 0.022530
#
#
# Mechanical properties :
#
#
# Convention : Reuss Voigt Hill
#
# Bulk Modulus (GPa) = 39.14791 57.60358 48.37574
# Shear Modulus (GPa) = 38.20507 46.72396 42.46451
#
# Velocity S-wave (km/s) = 3.80956 4.21292 4.01631
# Velocity P-wave (km/s) = 5.84988 6.74881 6.31536
#
# Compressibility (1/GPa) = 0.02554415
#
# Stress axis : x y z
#
# Youngs Moduli (GPa) = 54.88708 149.49966 97.92029
#
# Poissons Ratio (x) = 0.25184 0.11250
# Poissons Ratio (y) = 0.09246 0.19141
# Poissons Ratio (z) = 0.06306 0.29223
#
# Static dielectric constant tensor:
#      x y z
#    x 2.238040 -0.069340 0.010060 
#    y -0.069340 2.239280 -0.008740 
#    z 0.010060 -0.008740 2.150610 
# 
# From -- ./inp_files/188929.got.cif
#   From: 2010.05.17/outbox.cif.g08.bks.cpg/sg2_95_cif.got.tgz:188929.got - 2010.06.03 11:33:40.
