data_PCOD9111773
_publ_section_title
;
Structure prediction by ZEFSAII (Michael W. Deem and Ramdas Pophale) SiO2 
 PCOD9111773
Probable space group: P -1
;
_chemical_formula_sum "Si O2"
_cell_formula_units_Z 16
_cell_length_a 19.177360
_cell_length_b 7.573539
_cell_length_c 18.718777
_cell_angle_alpha 130.080842
_cell_angle_beta 23.648881
_cell_angle_gamma 133.522694
_cell_volume 789.972284
_symmetry_space_group_name_H-M "P -1"
_symmetry_group_IT_number 2
_symmetry_cell_setting 'triclinic'
loop_
_space_group_symop_operation_xyz
x,y,z
-x,-y,-z
loop_
_atom_site_type_symbol
_atom_site_label
_atom_site_fract_x
_atom_site_fract_y
_atom_site_fract_z
Si Si1 0.125842 0.550447 0.824112
Si Si2 0.589195 0.120810 0.261640
Si Si3 0.831196 0.969052 0.374037
Si Si4 0.788385 0.723707 0.960117
Si Si5 0.223307 0.568043 0.963349
Si Si6 0.293309 0.750339 0.180027
Si Si7 0.016155 0.780381 0.554645
Si Si8 0.680371 0.957473 0.914017
O O1 0.305580 0.766719 0.734667
O O2 0.176047 0.310330 0.695992
O O3 0.983492 0.577985 0.905512
O O4 0.000000 0.500000 0.000000
O O5 0.371232 0.021988 0.449099
O O6 0.646906 0.339568 0.204358
O O7 0.671660 0.906790 0.106751
O O8 0.890933 0.075628 0.424672
O O9 0.995571 0.119787 0.206479
O O10 0.731830 0.583933 0.052711
O O11 0.760539 0.526633 0.870814
O O12 0.234482 0.830133 0.053762
O O13 0.148823 0.854694 0.381964
O O14 0.326509 0.898168 0.114035
O O15 0.468066 0.800736 0.081565
O O16 0.000000 0.500000 0.500000
O O17 0.818363 0.807086 0.737066
#
# Coordination Sequence:
#
# PCOD9111773 Si02
#       8
#     2   2   2   2   2   2   2   2
#     4  10  20  43  70  88 124 171 203 261 326 368
#     4  11  24  43  66  93 127 165 211 264 314 374
#     4  12  23  43  64  94 128 165 211 261 314 376
#     4  11  23  42  64  96 130 162 214 257 312 368
#     4  10  21  43  67  90 127 172 202 262 317 370
#     4  10  23  38  61  90 123 167 203 253 302 371
#     4  12  23  35  60  91 121 161 202 247 310 360
#     4  10  21  41  59  86 127 161 208 250 306 368
#
# _framework density 20.253876000000002
#
# number of rings (size 3 to 8) (size 9 to 14) (size 15 to 20)
#    0.000    1.250    5.000    1.500    1.750    1.000 
#    2.250    0.625    0.000    0.000    0.000    0.000 
#    0.000    0.000    0.000    0.000    0.000    0.000 
#
# Total GULP energy -89213.046210 kJ/mol
# GULP energy per Si atom -5575.815388 kJ/mol
# Density = 2.020778 g / cm^3
# Si number density = 20.253876 Si / 1000 Ang^3
#
#
#
# Elastic Constant Matrix: (Units=GPa)
#
#
# Indices 1 2 3 4 5 6 
#
# 1 103.1225 -135.8766 -93.8283 5.7874 16.0063 -158.3887
# 2 -135.8766 508.1672 355.8437 12.6655 -73.3867 525.4739
# 3 -93.8283 355.8437 342.7317 -3.9313 -75.0520 389.5246
# 4 5.7874 12.6655 -3.9313 32.9855 7.2510 0.7428
# 5 16.0063 -73.3867 -75.0520 7.2510 39.9351 -78.8102
# 6 -158.3887 525.4739 389.5246 0.7428 -78.8102 633.0567
#
#
#
# Elastic Compliance Matrix: (Units=1/GPa)
#
#
# Indices 1 2 3 4 5 6 
#
# 1 0.016598 0.002500 -0.000751 -0.004731 0.003198 0.002943
# 2 0.002500 0.018226 -0.005626 -0.008350 0.002205 -0.010757
# 3 -0.000751 -0.005626 0.014316 0.001732 0.010619 -0.003007
# 4 -0.004731 -0.008350 0.001732 0.036729 -0.010219 0.003366
# 5 0.003198 0.002205 0.010619 -0.010219 0.046027 -0.001822
# 6 0.002943 -0.010757 -0.003007 0.003366 -0.001822 0.012864
#
#
# Mechanical properties :
#
#
# Convention : Reuss Voigt Hill
#
# Bulk Modulus (GPa) = 24.16238 134.03323 79.09780
# Shear Modulus (GPa) = 30.06482 196.38764 113.22623
#
# Velocity S-wave (km/s) = 3.85697 9.85766 7.48497
# Velocity P-wave (km/s) = 5.63832 13.99589 10.66948
#
# Compressibility (1/GPa) = 0.04138665
#
# Stress axis : x y z
#
# Youngs Moduli (GPa) = 60.24872 54.86778 69.85426
#
# Poissons Ratio (x) = -0.13719 0.05244
# Poissons Ratio (y) = -0.15064 0.39299
# Poissons Ratio (z) = 0.04523 0.30868
#
# Static dielectric constant tensor:
#      x y z
#    x 1.773850 -0.021010 0.080620 
#    y -0.021010 1.801770 -0.136610 
#    z 0.080620 -0.136610 1.875100 
# 
# From -- ./inp_files/272273.got.cif
#   From: 2010.05.17/outbox.cif.g08.bks.cpg/sg2_137_cif.got.tgz:272273.got - 2010.06.03 11:33:40.
