data_PCOD9111272
_publ_section_title
;
Structure prediction by ZEFSAII (Michael W. Deem and Ramdas Pophale) SiO2 
 PCOD9111272
Probable space group: P -1
;
_chemical_formula_sum "Si O2"
_cell_formula_units_Z 15
_cell_length_a 14.521991
_cell_length_b 8.563457
_cell_length_c 14.767580
_cell_angle_alpha 53.587492
_cell_angle_beta 30.512068
_cell_angle_gamma 73.036874
_cell_volume 632.740346
_symmetry_space_group_name_H-M "P -1"
_symmetry_group_IT_number 2
_symmetry_cell_setting 'triclinic'
loop_
_space_group_symop_operation_xyz
x,y,z
-x,-y,-z
loop_
_atom_site_type_symbol
_atom_site_label
_atom_site_fract_x
_atom_site_fract_y
_atom_site_fract_z
Si Si1 0.711300 0.282815 0.997422
Si Si2 0.764394 0.078694 0.502432
Si Si3 0.185944 0.490408 0.763037
Si Si4 0.500859 0.552428 0.624378
Si Si5 0.000000 0.500000 0.500000
Si Si6 0.816043 0.058459 0.147081
Si Si7 0.727698 0.092666 0.731672
Si Si8 0.786087 0.723618 0.882285
O O1 0.798436 0.521624 0.894210
O O2 0.821735 0.324163 0.791842
O O3 0.752247 0.120312 0.084261
O O4 0.453229 0.163387 0.247636
O O5 0.784190 0.263935 0.351649
O O6 0.733359 0.156423 0.601028
O O7 0.995408 0.108727 0.304258
O O8 0.287501 0.460301 0.777238
O O9 0.335611 0.484569 0.558886
O O10 0.941349 0.291697 0.018299
O O11 0.617676 0.829208 0.439010
O O12 0.423038 0.409486 0.831166
O O13 0.105800 0.702946 0.415871
O O14 0.000000 0.000000 0.000000
O O15 0.763378 0.881902 0.775698
O O16 0.500000 0.000000 0.000000
#
# Coordination Sequence:
#
# PCOD9111272 Si02
#       8
#     2   2   2   2   1   2   2   2
#     4  12  26  46  72 107 145 192 241 298 360 421
#     4  12  24  45  69 100 148 186 234 298 357 423
#     4  10  20  42  71  97 137 186 241 290 346 424
#     4  10  23  40  70 104 138 189 236 288 354 421
#     4  12  26  46  82 106 134 190 250 290 358 434
#     4  10  21  42  71 101 141 184 243 292 341 419
#     4  12  26  48  77 103 139 188 242 297 359 427
#     4  12  28  45  70 109 150 183 236 300 362 424
#
# _framework density 23.706409000000001
#
# number of rings (size 3 to 8) (size 9 to 14) (size 15 to 20)
#    0.000    0.800    5.333    1.200    0.000    4.800 
#    0.000    0.000    0.000    0.000    0.000    0.000 
#    0.000    0.000    0.000    0.000    0.000    0.000 
#
# Total GULP energy -83663.039123 kJ/mol
# GULP energy per Si atom -5577.535942 kJ/mol
# Density = 2.365245 g / cm^3
# Si number density = 23.706409 Si / 1000 Ang^3
#
#
#
# Elastic Constant Matrix: (Units=GPa)
#
#
# Indices 1 2 3 4 5 6 
#
# 1 78.3114 16.7027 36.0232 -9.4548 2.2161 0.1581
# 2 16.7027 36.0433 17.1640 1.4495 2.6760 -8.0458
# 3 36.0232 17.1640 141.6798 -6.6719 -8.3362 14.4488
# 4 -9.4548 1.4495 -6.6719 35.6828 13.4369 -1.5451
# 5 2.2161 2.6760 -8.3362 13.4369 40.6078 2.0512
# 6 0.1581 -8.0458 14.4488 -1.5451 2.0512 31.4870
#
#
#
# Elastic Compliance Matrix: (Units=1/GPa)
#
#
# Indices 1 2 3 4 5 6 
#
# 1 0.016261 -0.005802 -0.003410 0.005012 -0.002886 0.000434
# 2 -0.005802 0.035160 -0.004168 -0.002267 -0.002661 0.010988
# 3 -0.003410 -0.004168 0.009129 -0.000279 0.002701 -0.005427
# 4 0.005012 -0.002267 -0.000279 0.033792 -0.011460 0.001928
# 5 -0.002886 -0.002661 0.002701 -0.011460 0.029527 -0.004391
# 6 0.000434 0.010988 -0.005427 0.001928 -0.004391 0.037436
#
#
# Mechanical properties :
#
#
# Convention : Reuss Voigt Hill
#
# Bulk Modulus (GPa) = 29.59444 43.97938 36.78691
# Shear Modulus (GPa) = 25.08418 33.96516 29.52467
#
# Velocity S-wave (km/s) = 3.25640 3.78926 3.53289
# Velocity P-wave (km/s) = 5.16234 6.14302 5.67390
#
# Compressibility (1/GPa) = 0.03379013
#
# Stress axis : x y z
#
# Youngs Moduli (GPa) = 61.49498 28.44167 109.53752
#
# Poissons Ratio (x) = 0.16503 0.37349
# Poissons Ratio (y) = 0.35682 0.45656
# Poissons Ratio (z) = 0.20968 0.11855
#
# Static dielectric constant tensor:
#      x y z
#    x 1.844480 0.001930 -0.026290 
#    y 0.001930 1.900000 0.016880 
#    z -0.026290 0.016880 1.919210 
# 
# From -- ./inp_files/529374.got.cif
#   From: 2010.05.17/outbox.cif.g08.bks.cpg/sg2_265_cif.got.tgz:529374.got - 2010.06.03 11:33:40.
