data_PCOD9111104
_publ_section_title
;
Structure prediction by ZEFSAII (Michael W. Deem and Ramdas Pophale) SiO2 
 PCOD9111104
Probable space group: P -1
;
_chemical_formula_sum "Si O2"
_cell_formula_units_Z 14
_cell_length_a 5.081557
_cell_length_b 9.368148
_cell_length_c 12.882438
_cell_angle_alpha 65.623527
_cell_angle_beta 70.433147
_cell_angle_gamma 90.218681
_cell_volume 519.078347
_symmetry_space_group_name_H-M "P -1"
_symmetry_group_IT_number 2
_symmetry_cell_setting 'triclinic'
loop_
_space_group_symop_operation_xyz
x,y,z
-x,-y,-z
loop_
_atom_site_type_symbol
_atom_site_label
_atom_site_fract_x
_atom_site_fract_y
_atom_site_fract_z
Si Si1 0.328133 0.580630 0.809194
Si Si2 0.391942 0.811884 0.165825
Si Si3 0.900004 0.211522 0.573768
Si Si4 0.246973 0.655214 0.015697
Si Si5 0.083591 0.988061 0.859547
Si Si6 0.534744 0.050115 0.362841
Si Si7 0.477379 0.611418 0.566461
O O1 0.380551 0.762318 0.710611
O O2 0.438989 0.512616 0.708656
O O3 0.011833 0.486703 0.888889
O O4 0.428154 0.606462 0.908133
O O5 0.216881 0.740943 0.312892
O O6 0.384116 0.706218 0.094196
O O7 0.707235 0.884875 0.137659
O O8 0.221444 0.959159 0.118886
O O9 0.773615 0.300177 0.467643
O O10 0.229982 0.267780 0.504363
O O11 0.758698 0.027674 0.630193
O O12 0.121083 0.811293 0.943720
O O13 0.225966 0.009743 0.720868
O O14 0.500000 0.000000 0.500000
O O15 0.500000 0.500000 0.500000
#
# Coordination Sequence:
#
# PCOD9111104 Si02
#       7
#     2   2   2   2   2   2   2
#     4  10  23  43  69 102 140 188 228 284 349 409
#     4  11  22  43  74 104 134 180 234 285 344 407
#     4  11  24  43  73 104 138 178 231 288 345 414
#     4  10  22  44  68  99 144 183 232 284 342 412
#     4  10  23  42  72 105 134 183 232 283 342 412
#     4  10  20  42  69 101 141 180 230 283 343 411
#     4  12  25  46  71 104 141 180 228 288 353 415
#
# _framework density 26.970882
#
# number of rings (size 3 to 8) (size 9 to 14) (size 15 to 20)
#    0.000    1.429    1.429    3.857    0.000    0.571 
#    5.143    2.857    0.000   20.571    0.000    0.000 
#    0.000    0.000    0.000    0.000    0.000    0.000 
#
# Total GULP energy -78374.142216 kJ/mol
# GULP energy per Si atom -5598.153015 kJ/mol
# Density = 2.690949 g / cm^3
# Si number density = 26.970882 Si / 1000 Ang^3
#
#
#
# Elastic Constant Matrix: (Units=GPa)
#
#
# Indices 1 2 3 4 5 6 
#
# 1 109.7049 36.4696 37.0233 1.1477 7.1481 16.9174
# 2 36.4696 142.3049 66.0171 31.2745 -0.8694 27.1593
# 3 37.0233 66.0171 248.4610 37.4845 15.5989 9.6020
# 4 1.1477 31.2745 37.4845 70.9610 8.7488 -6.6748
# 5 7.1481 -0.8694 15.5989 8.7488 46.1676 4.5137
# 6 16.9174 27.1593 9.6020 -6.6748 4.5137 28.2317
#
#
#
# Elastic Compliance Matrix: (Units=1/GPa)
#
#
# Indices 1 2 3 4 5 6 
#
# 1 0.010720 -0.001682 -0.001057 0.000880 -0.001104 -0.004062
# 2 -0.001682 0.011771 -0.001773 -0.005721 0.003299 -0.011593
# 3 -0.001057 -0.001773 0.004960 -0.001618 -0.001285 0.000475
# 4 0.000880 -0.005721 -0.001618 0.018998 -0.004345 0.010713
# 5 -0.001104 0.003299 -0.001285 -0.004345 0.023827 -0.006911
# 6 -0.004062 -0.011593 0.000475 0.010713 -0.006911 0.052484
#
#
# Mechanical properties :
#
#
# Convention : Reuss Voigt Hill
#
# Bulk Modulus (GPa) = 54.26825 86.61007 70.43916
# Shear Modulus (GPa) = 36.25155 53.13611 44.69383
#
# Velocity S-wave (km/s) = 3.67017 4.44343 4.07518
# Velocity P-wave (km/s) = 6.17454 7.64902 6.95099
#
# Compressibility (1/GPa) = 0.01842698
#
# Stress axis : x y z
#
# Youngs Moduli (GPa) = 93.28063 84.95692 201.61921
#
# Poissons Ratio (x) = 0.14290 0.21312
# Poissons Ratio (y) = 0.15690 0.35744
# Poissons Ratio (z) = 0.09860 0.15061
#
# Static dielectric constant tensor:
#      x y z
#    x 2.124020 -0.167820 0.064850 
#    y -0.167820 2.265570 0.067480 
#    z 0.064850 0.067480 2.144940 
# 
# From -- ./inp_files/363861.got.cif
#   From: 2010.05.17/outbox.cif.g08.bks.cpg/sg2_182_cif.got.tgz:363861.got - 2010.06.03 11:33:40.
