data_PCOD9111694
_publ_section_title
;
Structure prediction by ZEFSAII (Michael W. Deem and Ramdas Pophale) SiO2 
 PCOD9111694
Probable space group: P -1
;
_chemical_formula_sum "Si O2"
_cell_formula_units_Z 12
_cell_length_a 13.488111
_cell_length_b 7.917514
_cell_length_c 13.132000
_cell_angle_alpha 134.449549
_cell_angle_beta 32.533076
_cell_angle_gamma 137.313612
_cell_volume 498.694623
_symmetry_space_group_name_H-M "P -1"
_symmetry_group_IT_number 2
_symmetry_cell_setting 'triclinic'
loop_
_space_group_symop_operation_xyz
x,y,z
-x,-y,-z
loop_
_atom_site_type_symbol
_atom_site_label
_atom_site_fract_x
_atom_site_fract_y
_atom_site_fract_z
Si Si1 0.951375 0.490752 0.418475
Si Si2 0.491240 0.526889 0.360231
Si Si3 0.178061 0.030024 0.489455
Si Si4 0.539025 0.065837 0.638694
Si Si5 0.104800 0.305365 0.848797
Si Si6 0.791921 0.737996 0.034813
O O1 0.718548 0.311526 0.537930
O O2 0.000000 0.500000 0.500000
O O3 0.080260 0.364344 0.191281
O O4 0.039829 0.791351 0.443797
O O5 0.284984 0.300758 0.457748
O O6 0.660487 0.519049 0.289813
O O7 0.506560 0.813456 0.493703
O O8 0.596662 0.510002 0.155330
O O9 0.059786 0.086660 0.711388
O O10 0.359571 0.966326 0.356618
O O11 0.328614 0.099489 0.840608
O O12 0.089940 0.186126 0.925725
O O13 0.000000 0.500000 0.000000
#
# Coordination Sequence:
#
# PCOD9111694 Si02
#       6
#     2   2   2   2   2   2
#     4  10  24  44  62  99 143 173 220 273 337 399
#     4   9  21  41  66  97 129 173 223 274 325 389
#     4  10  21  43  65  93 137 176 215 278 335 385
#     4  10  20  43  68  97 132 173 224 277 324 398
#     4   9  20  40  63  98 128 170 224 271 328 395
#     4  10  23  41  70  99 128 184 222 271 336 397
#
# _framework density 24.062823999999999
#
# number of rings (size 3 to 8) (size 9 to 14) (size 15 to 20)
#    1.000    1.333    0.000    2.500    0.000    5.333 
#   21.000    1.667    0.000    0.000    0.000    0.000 
#    0.000    0.000    0.000    0.000    0.000    0.000 
#
# Total GULP energy -66923.826407 kJ/mol
# GULP energy per Si atom -5576.985534 kJ/mol
# Density = 2.400806 g / cm^3
# Si number density = 24.062824 Si / 1000 Ang^3
#
#
#
# Elastic Constant Matrix: (Units=GPa)
#
#
# Indices 1 2 3 4 5 6 
#
# 1 99.7121 34.0611 54.9931 9.6762 -29.4326 24.5112
# 2 34.0611 173.1859 43.9237 14.7654 -12.5074 26.7576
# 3 54.9931 43.9237 179.9086 19.7780 -13.8160 25.2951
# 4 9.6762 14.7654 19.7780 31.2147 -5.4104 -5.5260
# 5 -29.4326 -12.5074 -13.8160 -5.4104 42.8166 -2.6980
# 6 24.5112 26.7576 25.2951 -5.5260 -2.6980 37.6445
#
#
#
# Elastic Compliance Matrix: (Units=1/GPa)
#
#
# Indices 1 2 3 4 5 6 
#
# 1 0.017017 -0.000306 -0.002792 -0.003222 0.009748 -0.008761
# 2 -0.000306 0.007110 -0.000457 -0.003707 0.000934 -0.005025
# 3 -0.002792 -0.000457 0.007468 -0.004350 -0.000416 -0.003544
# 4 -0.003222 -0.003707 -0.004350 0.040173 0.001235 0.013641
# 5 0.009748 0.000934 -0.000416 0.001235 0.030074 -0.004395
# 6 -0.008761 -0.005025 -0.003544 0.013641 -0.004395 0.039909
#
#
# Mechanical properties :
#
#
# Convention : Reuss Voigt Hill
#
# Bulk Modulus (GPa) = 40.84219 79.86250 60.35234
# Shear Modulus (GPa) = 31.84252 43.65707 37.74979
#
# Velocity S-wave (km/s) = 3.64168 4.26408 3.96511
# Velocity P-wave (km/s) = 5.89003 7.58316 6.78958
#
# Compressibility (1/GPa) = 0.02448449
#
# Stress axis : x y z
#
# Youngs Moduli (GPa) = 58.76427 140.64744 133.90781
#
# Poissons Ratio (x) = 0.04309 0.37391
# Poissons Ratio (y) = 0.01800 0.06113
# Poissons Ratio (z) = 0.16409 0.06421
#
# Static dielectric constant tensor:
#      x y z
#    x 2.045420 -0.090250 -0.009560 
#    y -0.090250 2.095030 -0.063860 
#    z -0.009560 -0.063860 1.864100 
# 
# From -- ./inp_files/530206.got.cif
#   From: 2010.05.17/outbox.cif.g08.bks.cpg/sg2_266_cif.got.tgz:530206.got - 2010.06.03 11:33:40.
