data_PCOD9111562
_publ_section_title
;
Structure prediction by ZEFSAII (Michael W. Deem and Ramdas Pophale) SiO2 
 PCOD9111562
Probable space group: P -1
;
_chemical_formula_sum "Si O2"
_cell_formula_units_Z 14
_cell_length_a 13.371331
_cell_length_b 6.841947
_cell_length_c 11.202676
_cell_angle_alpha 105.003285
_cell_angle_beta 114.139490
_cell_angle_gamma 39.316247
_cell_volume 589.643472
_symmetry_space_group_name_H-M "P -1"
_symmetry_group_IT_number 2
_symmetry_cell_setting 'triclinic'
loop_
_space_group_symop_operation_xyz
x,y,z
-x,-y,-z
loop_
_atom_site_type_symbol
_atom_site_label
_atom_site_fract_x
_atom_site_fract_y
_atom_site_fract_z
Si Si1 0.706683 0.930206 0.472259
Si Si2 0.659476 0.149952 0.731934
Si Si3 0.496240 0.073283 0.799454
Si Si4 0.004313 0.780037 0.531068
Si Si5 0.979894 0.443001 0.847406
Si Si6 0.817002 0.363956 0.891579
Si Si7 0.158519 0.515963 0.827979
O O1 0.851732 0.559750 0.513809
O O2 0.820500 0.936501 0.461419
O O3 0.617034 0.162141 0.576371
O O4 0.574065 0.994846 0.338808
O O5 0.722836 0.285660 0.810769
O O6 0.525454 0.243887 0.772313
O O7 0.821128 0.781539 0.771319
O O8 0.669270 0.741758 0.879636
O O9 0.350862 0.296075 0.860249
O O10 0.059233 0.698321 0.685304
O O11 0.000000 0.000000 0.500000
O O12 0.935025 0.274037 0.825250
O O13 0.129919 0.320594 0.821136
O O14 0.000000 0.500000 0.000000
O O15 0.895525 0.281337 0.049448
#
# Coordination Sequence:
#
# PCOD9111562 Si02
#       7
#     2   2   2   2   2   2   2
#     4  10  22  42  61  90 130 163 211 263 300 380
#     4  11  22  41  59  96 130 163 213 251 314 381
#     4  10  23  40  64  89 129 170 208 257 316 365
#     4  10  22  41  65  95 122 164 212 260 321 364
#     4   9  20  40  62  90 124 167 204 259 312 365
#     4  10  23  40  65  95 127 168 207 256 320 378
#     4  10  20  43  66  93 129 160 213 268 306 375
#
# _framework density 23.743158000000001
#
# number of rings (size 3 to 8) (size 9 to 14) (size 15 to 20)
#    0.000    2.000    1.429    0.857    0.000    8.000 
#    2.571    4.286    0.000    0.000    0.000    0.000 
#    0.000    0.000    0.000    0.000    0.000    0.000 
#
# Total GULP energy -78230.557348 kJ/mol
# GULP energy per Si atom -5587.896953 kJ/mol
# Density = 2.368912 g / cm^3
# Si number density = 23.743158 Si / 1000 Ang^3
#
#
#
# Elastic Constant Matrix: (Units=GPa)
#
#
# Indices 1 2 3 4 5 6 
#
# 1 222.1816 53.0586 38.1081 7.8235 -14.2742 36.5881
# 2 53.0586 40.9808 18.6643 3.8873 -15.6575 26.3936
# 3 38.1081 18.6643 109.8466 16.9525 -9.6424 17.1477
# 4 7.8235 3.8873 16.9525 32.8828 -4.4019 -0.5178
# 5 -14.2742 -15.6575 -9.6424 -4.4019 38.6714 -0.2575
# 6 36.5881 26.3936 17.1477 -0.5178 -0.2575 46.5354
#
#
#
# Elastic Compliance Matrix: (Units=1/GPa)
#
#
# Indices 1 2 3 4 5 6 
#
# 1 0.006654 -0.008698 -0.000910 -0.000262 -0.001322 0.000027
# 2 -0.008698 0.062798 -0.000968 -0.002422 0.021510 -0.028330
# 3 -0.000910 -0.000968 0.010944 -0.005169 0.001394 -0.002818
# 4 -0.000262 -0.002422 -0.005169 0.033685 0.001494 0.003867
# 5 -0.001322 0.021510 0.001394 0.001494 0.034521 -0.011466
# 6 0.000027 -0.028330 -0.002818 0.003867 -0.011466 0.038553
#
#
# Mechanical properties :
#
#
# Convention : Reuss Voigt Hill
#
# Bulk Modulus (GPa) = 16.87987 65.85232 41.36610
# Shear Modulus (GPa) = 21.92444 41.16311 31.54377
#
# Velocity S-wave (km/s) = 3.04205 4.16827 3.64887
# Velocity P-wave (km/s) = 4.41175 7.13873 5.93401
#
# Compressibility (1/GPa) = 0.05924216
#
# Stress axis : x y z
#
# Youngs Moduli (GPa) = 150.28603 15.92414 91.37607
#
# Poissons Ratio (x) = 0.13851 0.08318
# Poissons Ratio (y) = 1.30720 0.08848
# Poissons Ratio (z) = 0.13681 0.01542
#
# Static dielectric constant tensor:
#      x y z
#    x 1.936290 -0.000820 -0.008300 
#    y -0.000820 1.931550 -0.022720 
#    z -0.008300 -0.022720 1.982870 
# 
# From -- ./inp_files/72549.got.cif
#   From: 2010.05.17/outbox.cif.g08.bks.cpg/sg2_37_cif.got.tgz:72549.got - 2010.06.03 11:33:40.
