data_PCOD9111374
_publ_section_title
;
Structure prediction by ZEFSAII (Michael W. Deem and Ramdas Pophale) SiO2 
 PCOD9111374
Probable space group: P -1
;
_chemical_formula_sum "Si O2"
_cell_formula_units_Z 13
_cell_length_a 7.940572
_cell_length_b 7.932114
_cell_length_c 10.780797
_cell_angle_alpha 57.764798
_cell_angle_beta 113.841801
_cell_angle_gamma 125.459265
_cell_volume 463.394242
_symmetry_space_group_name_H-M "P -1"
_symmetry_group_IT_number 2
_symmetry_cell_setting 'triclinic'
loop_
_space_group_symop_operation_xyz
x,y,z
-x,-y,-z
loop_
_atom_site_type_symbol
_atom_site_label
_atom_site_fract_x
_atom_site_fract_y
_atom_site_fract_z
Si Si1 0.000000 0.000000 0.500000
Si Si2 0.487920 0.185086 0.513752
Si Si3 0.295838 0.742275 0.189227
Si Si4 0.859325 0.658284 0.064708
Si Si5 0.852844 0.615690 0.367168
Si Si6 0.040540 0.890587 0.777905
Si Si7 0.423691 0.782177 0.955543
O O1 0.251373 0.055890 0.538601
O O2 0.062946 0.225438 0.335933
O O3 0.625545 0.262303 0.650395
O O4 0.614795 0.425321 0.387599
O O5 0.500000 0.000000 0.500000
O O6 0.057608 0.614143 0.131659
O O7 0.356993 0.011769 0.093516
O O8 0.417998 0.708903 0.124047
O O9 0.872321 0.708785 0.195156
O O10 0.653250 0.426160 0.074602
O O11 0.901452 0.808873 0.892680
O O12 0.000000 0.500000 0.500000
O O13 0.923876 0.857943 0.363572
O O14 0.250671 0.871556 0.864518
#
# Coordination Sequence:
#
# PCOD9111374 Si02
#       7
#     1   2   2   2   2   2   2
#     4  12  28  48  76 114 160 202 276 324 396 492
#     4  12  26  50  77 113 160 212 265 334 406 478
#     4  10  20  42  75 108 150 201 265 316 401 473
#     4  11  24  48  78 111 160 204 262 329 405 483
#     4  12  26  46  77 109 157 213 262 326 409 470
#     4  11  25  45  70 114 153 200 262 331 387 477
#     4  10  22  44  75 110 151 204 262 327 400 476
#
# _framework density 28.053868999999999
#
# number of rings (size 3 to 8) (size 9 to 14) (size 15 to 20)
#    0.000    0.923    3.077    4.154    2.154    1.846 
#   11.077    0.769    0.000    0.000    0.000    0.000 
#    0.000    0.000    0.000    0.000    0.000    0.000 
#
# Total GULP energy -72418.444278 kJ/mol
# GULP energy per Si atom -5570.649560 kJ/mol
# Density = 2.799002 g / cm^3
# Si number density = 28.053869 Si / 1000 Ang^3
#
#
#
# Elastic Constant Matrix: (Units=GPa)
#
#
# Indices 1 2 3 4 5 6 
#
# 1 110.4380 -9.3033 47.7412 2.1481 -7.6339 -10.0320
# 2 -9.3033 87.4376 17.7870 -0.1333 21.2019 -15.7316
# 3 47.7412 17.7870 197.2093 11.6859 -29.3814 -22.3675
# 4 2.1481 -0.1333 11.6859 51.4105 0.2581 -0.7515
# 5 -7.6339 21.2019 -29.3814 0.2581 46.0416 -5.3728
# 6 -10.0320 -15.7316 -22.3675 -0.7515 -5.3728 16.0883
#
#
#
# Elastic Compliance Matrix: (Units=1/GPa)
#
#
# Indices 1 2 3 4 5 6 
#
# 1 0.010793 0.002769 -0.002164 0.000142 -0.000120 0.006396
# 2 0.002769 0.015947 -0.001628 0.000517 -0.006416 0.012938
# 3 -0.002164 -0.001628 0.008016 -0.001618 0.006726 0.010374
# 4 0.000142 0.000517 -0.001618 0.019804 -0.001502 -0.001232
# 5 -0.000120 -0.006416 0.006726 -0.001502 0.030485 0.013112
# 6 0.006396 0.012938 0.010374 -0.001232 0.013112 0.097542
#
#
# Mechanical properties :
#
#
# Convention : Reuss Voigt Hill
#
# Bulk Modulus (GPa) = 30.57070 56.39273 43.48172
# Shear Modulus (GPa) = 25.57089 45.29876 35.43483
#
# Velocity S-wave (km/s) = 3.02237 4.02270 3.55787
# Velocity P-wave (km/s) = 4.80629 6.45921 5.69306
#
# Compressibility (1/GPa) = 0.03271106
#
# Stress axis : x y z
#
# Youngs Moduli (GPa) = 92.65023 62.70854 124.75203
#
# Poissons Ratio (x) = -0.17362 0.26990
# Poissons Ratio (y) = -0.25652 0.20305
# Poissons Ratio (z) = 0.20045 0.10207
#
# Static dielectric constant tensor:
#      x y z
#    x 2.436760 -0.349430 -0.312090 
#    y -0.349430 2.671250 0.476350 
#    z -0.312090 0.476350 2.835930 
# 
# From -- ./inp_files/377813.got.cif
#   From: 2010.05.17/outbox.cif.g08.bks.cpg/sg2_189_cif.got.tgz:377813.got - 2010.06.03 11:33:40.
