data_PCOD9111903
_publ_section_title
;
Structure prediction by ZEFSAII (Michael W. Deem and Ramdas Pophale) SiO2 
 PCOD9111903
Probable space group: P -1
;
_chemical_formula_sum "Si O2"
_cell_formula_units_Z 12
_cell_length_a 7.604462
_cell_length_b 9.574134
_cell_length_c 12.479000
_cell_angle_alpha 53.634695
_cell_angle_beta 98.481242
_cell_angle_gamma 128.932736
_cell_volume 531.085859
_symmetry_space_group_name_H-M "P -1"
_symmetry_group_IT_number 2
_symmetry_cell_setting 'triclinic'
loop_
_space_group_symop_operation_xyz
x,y,z
-x,-y,-z
loop_
_atom_site_type_symbol
_atom_site_label
_atom_site_fract_x
_atom_site_fract_y
_atom_site_fract_z
Si Si1 0.138060 0.219182 0.334458
Si Si2 0.944287 0.184991 0.826409
Si Si3 0.065208 0.551650 0.822451
Si Si4 0.424330 0.260650 0.147799
Si Si5 0.711306 0.062808 0.064929
Si Si6 0.579083 0.629869 0.334229
O O1 0.971368 0.269436 0.264286
O O2 0.231873 0.176580 0.260600
O O3 0.370508 0.452348 0.309893
O O4 0.000000 0.000000 0.500000
O O5 0.981261 0.411486 0.763054
O O6 0.176129 0.290242 0.728853
O O7 0.896731 0.085655 0.989738
O O8 0.708920 0.958466 0.845915
O O9 0.334861 0.666377 0.816419
O O10 0.872706 0.333788 0.985480
O O11 0.500000 0.500000 0.000000
O O12 0.500000 0.000000 0.000000
O O13 0.620359 0.864874 0.231580
O O14 0.500000 0.500000 0.500000
#
# Coordination Sequence:
#
# PCOD9111903 Si02
#       6
#     2   2   2   2   2   2
#     4  12  26  49  68 104 153 188 238 310 364 425
#     4  10  23  45  73 103 142 194 242 292 364 432
#     4  10  25  47  76 100 147 189 247 294 358 431
#     4  12  25  45  74 111 144 185 244 302 358 434
#     4  10  20  43  74  98 139 187 243 291 352 432
#     4  12  22  43  71 107 143 191 238 299 364 430
#
# _framework density 22.595216000000001
#
# number of rings (size 3 to 8) (size 9 to 14) (size 15 to 20)
#    1.000    0.000    3.333    3.500    0.000    1.333 
#   12.000    4.167    0.000    0.000    0.000    0.000 
#    0.000    0.000    0.000    0.000    0.000    0.000 
#
# Total GULP energy -67044.079633 kJ/mol
# GULP energy per Si atom -5587.006636 kJ/mol
# Density = 2.254379 g / cm^3
# Si number density = 22.595216 Si / 1000 Ang^3
#
#
#
# Elastic Constant Matrix: (Units=GPa)
#
#
# Indices 1 2 3 4 5 6 
#
# 1 126.0186 43.4935 58.7457 -11.0136 6.3518 9.4577
# 2 43.4935 158.0946 20.1147 -9.1183 7.8723 -3.2690
# 3 58.7457 20.1147 169.8649 -20.4204 1.6962 -9.0578
# 4 -11.0136 -9.1183 -20.4204 31.9143 -4.5866 -7.5411
# 5 6.3518 7.8723 1.6962 -4.5866 37.7663 0.8417
# 6 9.4577 -3.2690 -9.0578 -7.5411 0.8417 31.8271
#
#
#
# Elastic Compliance Matrix: (Units=1/GPa)
#
#
# Indices 1 2 3 4 5 6 
#
# 1 0.010964 -0.002614 -0.003805 -0.000677 -0.001105 -0.004741
# 2 -0.002614 0.007185 0.000383 0.001753 -0.000908 0.002063
# 3 -0.003805 0.000383 0.008014 0.005126 0.000719 0.004646
# 4 -0.000677 0.001753 0.005126 0.037976 0.003891 0.010735
# 5 -0.001105 -0.000908 0.000719 0.003891 0.027280 0.000640
# 6 -0.004741 0.002063 0.004646 0.010735 0.000640 0.036889
#
#
# Mechanical properties :
#
#
# Convention : Reuss Voigt Hill
#
# Bulk Modulus (GPa) = 70.97129 77.63176 74.30153
# Shear Modulus (GPa) = 34.46422 42.40983 38.43703
#
# Velocity S-wave (km/s) = 3.90973 4.33706 4.12893
# Velocity P-wave (km/s) = 7.20135 7.71443 7.46230
#
# Compressibility (1/GPa) = 0.01409021
#
# Stress axis : x y z
#
# Youngs Moduli (GPa) = 91.20947 139.18366 124.77492
#
# Poissons Ratio (x) = 0.36385 0.47480
# Poissons Ratio (y) = 0.23844 -0.04780
# Poissons Ratio (z) = 0.34708 -0.05332
#
# Static dielectric constant tensor:
#      x y z
#    x 1.866640 -0.022520 -0.009870 
#    y -0.022520 1.911360 0.023130 
#    z -0.009870 0.023130 1.816870 
# 
# From -- ./inp_files/384191.got.cif
#   From: 2010.05.17/outbox.cif.g08.bks.cpg/sg2_193_cif.got.tgz:384191.got - 2010.06.03 11:33:40.
