data_PCOD9111802
_publ_section_title
;
Structure prediction by ZEFSAII (Michael W. Deem and Ramdas Pophale) SiO2 
 PCOD9111802
Probable space group: P -1
;
_chemical_formula_sum "Si O2"
_cell_formula_units_Z 14
_cell_length_a 17.944372
_cell_length_b 8.811279
_cell_length_c 5.505487
_cell_angle_alpha 123.760156
_cell_angle_beta 54.531141
_cell_angle_gamma 117.297961
_cell_volume 577.362921
_symmetry_space_group_name_H-M "P -1"
_symmetry_group_IT_number 2
_symmetry_cell_setting 'triclinic'
loop_
_space_group_symop_operation_xyz
x,y,z
-x,-y,-z
loop_
_atom_site_type_symbol
_atom_site_label
_atom_site_fract_x
_atom_site_fract_y
_atom_site_fract_z
Si Si1 0.008606 0.610555 0.835274
Si Si2 0.468913 0.386779 0.713893
Si Si3 0.219450 0.734076 0.551117
Si Si4 0.057484 0.053884 0.686161
Si Si5 0.710266 0.554336 0.092454
Si Si6 0.261033 0.057618 0.383856
Si Si7 0.372082 0.802167 0.741314
O O1 0.111003 0.740923 0.788747
O O2 0.000000 0.500000 0.500000
O O3 0.000000 0.500000 0.000000
O O4 0.926786 0.725140 0.115264
O O5 0.500000 0.500000 0.500000
O O6 0.358206 0.367812 0.894261
O O7 0.519249 0.210136 0.486906
O O8 0.500000 0.500000 0.000000
O O9 0.258294 0.926586 0.507742
O O10 0.298699 0.733666 0.603283
O O11 0.209780 0.526321 0.265877
O O12 0.155998 0.989622 0.419018
O O13 0.000000 0.000000 0.500000
O O14 0.000000 0.000000 0.000000
O O15 0.661921 0.359367 0.136999
O O16 0.728661 0.725207 0.394246
O O17 0.346962 0.000413 0.028599
#
# Coordination Sequence:
#
# PCOD9111802 Si02
#       7
#     2   2   2   2   2   2   2
#     4  12  27  44  69  97 130 178 229 275 336 403
#     4  10  20  43  70  99 135 180 223 273 343 401
#     4  11  23  43  66  94 136 173 221 286 334 396
#     4  12  25  46  66  93 137 178 219 281 338 394
#     4  10  23  42  69  97 133 177 226 276 337 408
#     4  11  25  42  65 102 132 178 229 280 339 401
#     4  10  23  42  68  95 137 177 219 281 338 400
#
# _framework density 24.248179
#
# number of rings (size 3 to 8) (size 9 to 14) (size 15 to 20)
#    0.000    1.143    2.857    2.571    6.000    1.714 
#    0.000    0.714    0.000    0.000    0.000    0.000 
#    0.000    0.000    0.000    0.000    0.000    0.000 
#
# Total GULP energy -77957.551576 kJ/mol
# GULP energy per Si atom -5568.396541 kJ/mol
# Density = 2.419299 g / cm^3
# Si number density = 24.248179 Si / 1000 Ang^3
#
#
#
# Elastic Constant Matrix: (Units=GPa)
#
#
# Indices 1 2 3 4 5 6 
#
# 1 126.8037 -10.5551 31.2737 1.5091 -16.5839 -29.5511
# 2 -10.5551 36.5088 15.8100 10.3007 -1.7806 -15.7490
# 3 31.2737 15.8100 121.6125 27.8536 -11.6906 -15.0322
# 4 1.5091 10.3007 27.8536 37.4743 -12.1465 -0.6834
# 5 -16.5839 -1.7806 -11.6906 -12.1465 57.8066 7.0209
# 6 -29.5511 -15.7490 -15.0322 -0.6834 7.0209 29.5299
#
#
#
# Elastic Compliance Matrix: (Units=1/GPa)
#
#
# Indices 1 2 3 4 5 6 
#
# 1 0.015043 0.015480 -0.002597 -0.002151 0.001185 0.021656
# 2 0.015480 0.055985 -0.002857 -0.013963 -0.002716 0.044218
# 3 -0.002597 -0.002857 0.011116 -0.007451 -0.000326 0.001441
# 4 -0.002151 -0.013963 -0.007451 0.038224 0.007205 -0.014221
# 5 0.001185 -0.002716 -0.000326 0.007205 0.019601 -0.004922
# 6 0.021656 0.044218 0.001441 -0.014221 -0.004922 0.080693
#
#
# Mechanical properties :
#
#
# Convention : Reuss Voigt Hill
#
# Bulk Modulus (GPa) = 9.78508 39.77581 24.78044
# Shear Modulus (GPa) = 21.30619 41.52195 31.41407
#
# Velocity S-wave (km/s) = 2.96746 4.14257 3.60324
# Velocity P-wave (km/s) = 3.97306 6.27060 5.24908
#
# Compressibility (1/GPa) = 0.10219641
#
# Stress axis : x y z
#
# Youngs Moduli (GPa) = 66.47698 17.86193 89.96412
#
# Poissons Ratio (x) = -0.27651 0.23367
# Poissons Ratio (y) = -1.02910 0.25698
# Poissons Ratio (z) = 0.17267 0.05102
#
# Static dielectric constant tensor:
#      x y z
#    x 1.852570 0.034090 -0.012700 
#    y 0.034090 2.009180 0.016880 
#    z -0.012700 0.016880 1.918280 
# 
# From -- ./inp_files/46892.got.cif
#   From: 2010.05.17/outbox.cif.g08.bks.cpg/sg2_24_cif.got.tgz:46892.got - 2010.06.03 11:33:40.
