data_PCOD9111510
_publ_section_title
;
Structure prediction by ZEFSAII (Michael W. Deem and Ramdas Pophale) SiO2 
 PCOD9111510
Probable space group: P -1
;
_chemical_formula_sum "Si O2"
_cell_formula_units_Z 14
_cell_length_a 15.323935
_cell_length_b 10.813920
_cell_length_c 13.428103
_cell_angle_alpha 136.630929
_cell_angle_beta 27.197880
_cell_angle_gamma 122.530174
_cell_volume 655.083930
_symmetry_space_group_name_H-M "P -1"
_symmetry_group_IT_number 2
_symmetry_cell_setting 'triclinic'
loop_
_space_group_symop_operation_xyz
x,y,z
-x,-y,-z
loop_
_atom_site_type_symbol
_atom_site_label
_atom_site_fract_x
_atom_site_fract_y
_atom_site_fract_z
Si Si1 0.641676 0.434380 0.467468
Si Si2 0.041526 0.813771 0.720246
Si Si3 0.340315 0.892759 0.606594
Si Si4 0.666136 0.204466 0.109939
Si Si5 0.486153 0.917643 0.076134
Si Si6 0.061912 0.857558 0.490865
Si Si7 0.113556 0.440914 0.556842
O O1 0.701874 0.310767 0.233772
O O2 0.462165 0.630300 0.737888
O O3 0.832554 0.476317 0.346538
O O4 0.571484 0.311511 0.547849
O O5 0.032733 0.814991 0.611710
O O6 0.048333 0.613872 0.645812
O O7 0.238680 0.858281 0.586831
O O8 0.846510 0.978359 0.059995
O O9 0.500000 0.000000 0.500000
O O10 0.525571 0.075692 0.200107
O O11 0.875615 0.052420 0.767876
O O12 0.273457 0.889523 0.285930
O O13 0.671293 0.719016 0.786805
O O14 0.500000 0.000000 0.000000
O O15 0.037652 0.677973 0.351788
#
# Coordination Sequence:
#
# PCOD9111510 Si02
#       7
#     2   2   2   2   2   2   2
#     4  10  20  43  65  94 129 164 213 265 311 376
#     4  10  22  42  61  99 125 164 221 253 316 384
#     4  10  22  39  66  92 135 165 201 268 317 372
#     4  10  22  42  67  90 129 164 217 262 309 388
#     4  11  24  45  62  94 130 168 213 262 319 377
#     4  11  24  41  70  92 128 174 206 266 320 375
#     4  10  23  41  66  94 132 163 213 266 311 385
#
# _framework density 21.371307000000002
#
# number of rings (size 3 to 8) (size 9 to 14) (size 15 to 20)
#    0.000    1.714    2.857    0.429    2.000    5.143 
#    2.571    4.286    0.000    0.000    0.000    0.000 
#    0.000    0.000    0.000    0.000    0.000    0.000 
#
# Total GULP energy -78297.644813 kJ/mol
# GULP energy per Si atom -5592.688915 kJ/mol
# Density = 2.132266 g / cm^3
# Si number density = 21.371307 Si / 1000 Ang^3
#
#
#
# Elastic Constant Matrix: (Units=GPa)
#
#
# Indices 1 2 3 4 5 6 
#
# 1 97.9458 56.9512 20.2305 1.9782 5.7621 15.6226
# 2 56.9512 127.3881 42.9044 15.2001 -16.2601 28.1274
# 3 20.2305 42.9044 42.2013 7.3769 -13.7768 11.6220
# 4 1.9782 15.2001 7.3769 37.4562 4.4222 -12.3192
# 5 5.7621 -16.2601 -13.7768 4.4222 35.1222 4.7047
# 6 15.6226 28.1274 11.6220 -12.3192 4.7047 53.7465
#
#
#
# Elastic Compliance Matrix: (Units=1/GPa)
#
#
# Indices 1 2 3 4 5 6 
#
# 1 0.015629 -0.007915 -0.003744 0.004893 -0.008619 0.002285
# 2 -0.007915 0.018090 -0.007779 -0.009195 0.008901 -0.008371
# 3 -0.003744 -0.007779 0.042218 -0.009277 0.015743 -0.007475
# 4 0.004893 -0.009195 -0.009277 0.039023 -0.015718 0.015717
# 5 -0.008619 0.008901 0.015743 -0.015718 0.043903 -0.013003
# 6 0.002285 -0.008371 -0.007475 0.015717 -0.013003 0.028680
#
#
# Mechanical properties :
#
#
# Convention : Reuss Voigt Hill
#
# Bulk Modulus (GPa) = 26.98084 56.41191 41.69637
# Shear Modulus (GPa) = 20.94055 35.09492 28.01774
#
# Velocity S-wave (km/s) = 3.13364 4.05674 3.62470
# Velocity P-wave (km/s) = 5.07397 6.95674 6.08857
#
# Compressibility (1/GPa) = 0.03706334
#
# Stress axis : x y z
#
# Youngs Moduli (GPa) = 63.98448 55.27899 23.68641
#
# Poissons Ratio (x) = 0.43751 0.08867
# Poissons Ratio (y) = 0.50641 0.18425
# Poissons Ratio (z) = 0.23954 0.42999
#
# Static dielectric constant tensor:
#      x y z
#    x 1.815320 0.011970 0.018080 
#    y 0.011970 1.764580 0.019370 
#    z 0.018080 0.019370 1.742080 
# 
# From -- ./inp_files/448130.got.cif
#   From: 2010.05.17/outbox.cif.g08.bks.cpg/sg2_225_cif.got.tgz:448130.got - 2010.06.03 11:33:40.
