data_PCOD9111663
_publ_section_title
;
Structure prediction by ZEFSAII (Michael W. Deem and Ramdas Pophale) SiO2 
 PCOD9111663
Probable space group: P -1
;
_chemical_formula_sum "Si O2"
_cell_formula_units_Z 14
_cell_length_a 11.348894
_cell_length_b 14.640552
_cell_length_c 12.384120
_cell_angle_alpha 148.765648
_cell_angle_beta 87.858306
_cell_angle_gamma 115.156026
_cell_volume 694.616833
_symmetry_space_group_name_H-M "P -1"
_symmetry_group_IT_number 2
_symmetry_cell_setting 'triclinic'
loop_
_space_group_symop_operation_xyz
x,y,z
-x,-y,-z
loop_
_atom_site_type_symbol
_atom_site_label
_atom_site_fract_x
_atom_site_fract_y
_atom_site_fract_z
Si Si1 0.824975 0.272210 0.851272
Si Si2 0.082145 0.929373 0.669204
Si Si3 0.373081 0.225774 0.791821
Si Si4 0.972032 0.417541 0.228007
Si Si5 0.135729 0.258156 0.177345
Si Si6 0.658854 0.265612 0.197689
Si Si7 0.674309 0.428919 0.134300
O O1 0.684549 0.994899 0.510152
O O2 0.883204 0.264770 0.960422
O O3 0.735780 0.357158 0.970116
O O4 0.000000 0.500000 0.000000
O O5 0.080715 0.721418 0.497724
O O6 0.867779 0.735961 0.470361
O O7 0.183835 0.069264 0.693924
O O8 0.177807 0.162662 0.988232
O O9 0.500000 0.500000 0.000000
O O10 0.503290 0.331224 0.993907
O O11 0.827239 0.325685 0.227949
O O12 0.066926 0.356693 0.216628
O O13 0.283671 0.500098 0.498596
O O14 0.000000 0.000000 0.000000
O O15 0.605444 0.257792 0.071467
O O16 0.500000 0.000000 0.000000
#
# Coordination Sequence:
#
# PCOD9111663 Si02
#       7
#     2   2   2   2   2   2   2
#     4  10  20  43  68  89 126 180 217 262 337 389
#     4  10  24  46  63 100 135 173 223 267 328 401
#     4  12  26  40  66 100 132 166 222 278 328 382
#     4  10  23  41  70  91 132 175 220 263 328 401
#     4  12  23  41  70  96 128 179 218 262 338 385
#     4  10  23  41  66  98 131 167 221 274 326 383
#     4  10  23  43  65  93 134 168 222 269 317 404
#
# _framework density 20.154995
#
# number of rings (size 3 to 8) (size 9 to 14) (size 15 to 20)
#    0.000    1.714    5.714    0.857    4.000    4.000 
#    0.000    1.429    0.000    0.000    0.000    0.000 
#    0.000    0.000    0.000    0.000    0.000    0.000 
#
# Total GULP energy -78008.136198 kJ/mol
# GULP energy per Si atom -5572.009728 kJ/mol
# Density = 2.010912 g / cm^3
# Si number density = 20.154995 Si / 1000 Ang^3
#
#
#
# Elastic Constant Matrix: (Units=GPa)
#
#
# Indices 1 2 3 4 5 6 
#
# 1 31.4198 18.4390 10.0593 1.8259 1.6091 -13.2400
# 2 18.4390 111.4533 51.8444 12.4167 0.6547 23.9865
# 3 10.0593 51.8444 102.3416 15.2286 -12.4618 12.4961
# 4 1.8259 12.4167 15.2286 41.0653 7.9221 -2.6120
# 5 1.6091 0.6547 -12.4618 7.9221 19.5907 -1.7976
# 6 -13.2400 23.9865 12.4961 -2.6120 -1.7976 28.7518
#
#
#
# Elastic Compliance Matrix: (Units=1/GPa)
#
#
# Indices 1 2 3 4 5 6 
#
# 1 0.066380 -0.020778 -0.004358 0.009442 -0.006739 0.050232
# 2 -0.020778 0.020691 -0.004997 -0.004578 -0.002628 -0.025239
# 3 -0.004358 -0.004997 0.015925 -0.007014 0.013071 -0.004580
# 4 0.009442 -0.004578 -0.007014 0.031994 -0.016823 0.013070
# 5 -0.006739 -0.002628 0.013071 -0.016823 0.066440 -0.003966
# 6 0.050232 -0.025239 -0.004580 0.013070 -0.003966 0.081897
#
#
# Mechanical properties :
#
#
# Convention : Reuss Voigt Hill
#
# Bulk Modulus (GPa) = 23.40201 45.10000 34.25100
# Shear Modulus (GPa) = 13.97291 28.87303 21.42297
#
# Velocity S-wave (km/s) = 2.63586 3.78901 3.26377
# Velocity P-wave (km/s) = 4.57164 6.44727 5.58870
#
# Compressibility (1/GPa) = 0.04273138
#
# Stress axis : x y z
#
# Youngs Moduli (GPa) = 15.06488 48.32936 62.79302
#
# Poissons Ratio (x) = 1.00418 0.27365
# Poissons Ratio (y) = 0.31301 0.31376
# Poissons Ratio (z) = 0.06565 0.24149
#
# Static dielectric constant tensor:
#      x y z
#    x 1.826030 0.021290 0.115450 
#    y 0.021290 1.574720 -0.144740 
#    z 0.115450 -0.144740 1.614440 
# 
# From -- ./inp_files/434353.got.cif
#   From: 2010.05.17/outbox.cif.g08.bks.cpg/sg2_218_cif.got.tgz:434353.got - 2010.06.03 11:33:40.
