data_PCOD9111371
_publ_section_title
;
Structure prediction by ZEFSAII (Michael W. Deem and Ramdas Pophale) SiO2 
 PCOD9111371
Probable space group: P -1
;
_chemical_formula_sum "Si O2"
_cell_formula_units_Z 14
_cell_length_a 18.262691
_cell_length_b 8.392105
_cell_length_c 5.657815
_cell_angle_alpha 116.871460
_cell_angle_beta 98.416330
_cell_angle_gamma 45.920086
_cell_volume 536.207406
_symmetry_space_group_name_H-M "P -1"
_symmetry_group_IT_number 2
_symmetry_cell_setting 'triclinic'
loop_
_space_group_symop_operation_xyz
x,y,z
-x,-y,-z
loop_
_atom_site_type_symbol
_atom_site_label
_atom_site_fract_x
_atom_site_fract_y
_atom_site_fract_z
Si Si1 0.126754 0.438188 0.902105
Si Si2 0.665379 0.109157 0.251394
Si Si3 0.754865 0.374465 0.412401
Si Si4 0.518543 0.619131 0.282028
Si Si5 0.051877 0.670522 0.521911
Si Si6 0.822027 0.234403 0.848286
Si Si7 0.571075 0.962954 0.805765
O O1 0.074138 0.518850 0.670872
O O2 0.216159 0.134775 0.776576
O O3 0.058110 0.563297 0.196214
O O4 0.180538 0.544360 0.994041
O O5 0.618830 0.379276 0.319636
O O6 0.583051 0.201312 0.478501
O O7 0.641208 0.006054 0.966689
O O8 0.858675 0.329136 0.443473
O O9 0.759746 0.282588 0.617462
O O10 0.655280 0.677238 0.562500
O O11 0.777645 0.242216 0.081679
O O12 0.512324 0.809535 0.260491
O O13 0.500000 0.500000 0.000000
O O14 0.940829 0.960477 0.694758
O O15 0.500000 0.000000 0.000000
#
# Coordination Sequence:
#
# PCOD9111371 Si02
#       7
#     2   2   2   2   2   2   2
#     4  10  17  26  46  70 104 133 167 208 274 320
#     4  10  19  35  53  76 102 150 176 230 270 316
#     4  10  18  30  45  69 103 142 171 212 264 319
#     4   9  20  35  54  72 101 140 189 227 271 314
#     4  10  17  27  45  72 103 135 168 215 274 327
#     4  10  17  28  46  68 105 136 170 213 275 324
#     4  11  22  35  52  77 110 150 184 219 265 321
#
# _framework density 26.109297999999999
#
# number of rings (size 3 to 8) (size 9 to 14) (size 15 to 20)
#    0.000    2.000    2.857    6.000    2.000    0.571 
#    0.000    0.000    0.000    0.000    0.000    0.000 
#    0.000   12.571    0.000    0.000    0.000    0.000 
#
# Total GULP energy -78388.033709 kJ/mol
# GULP energy per Si atom -5599.145265 kJ/mol
# Density = 2.604987 g / cm^3
# Si number density = 26.109298 Si / 1000 Ang^3
#
#
#
# Elastic Constant Matrix: (Units=GPa)
#
#
# Indices 1 2 3 4 5 6 
#
# 1 38.4717 28.4245 25.4224 0.0352 -2.3534 7.6475
# 2 28.4245 221.4831 86.1973 -2.9275 4.3071 -3.0597
# 3 25.4224 86.1973 174.6811 -11.0109 -11.7172 -5.5115
# 4 0.0352 -2.9275 -11.0109 68.2686 0.1533 2.8567
# 5 -2.3534 4.3071 -11.7172 0.1533 55.2897 -1.5023
# 6 7.6475 -3.0597 -5.5115 2.8567 -1.5023 44.7109
#
#
#
# Elastic Compliance Matrix: (Units=1/GPa)
#
#
# Indices 1 2 3 4 5 6 
#
# 1 0.031537 -0.002843 -0.003355 -0.000432 0.000692 -0.005951
# 2 -0.002843 0.005907 -0.002569 -0.000180 -0.001110 0.000548
# 3 -0.003355 -0.002569 0.007707 0.001075 0.001724 0.001337
# 4 -0.000432 -0.000180 0.001075 0.014845 0.000162 -0.000749
# 5 0.000692 -0.001110 0.001724 0.000162 0.018585 0.000632
# 6 -0.005951 0.000548 0.001337 -0.000749 0.000632 0.023655
#
#
# Mechanical properties :
#
#
# Convention : Reuss Voigt Hill
#
# Bulk Modulus (GPa) = 36.21312 79.41379 57.81346
# Shear Modulus (GPa) = 38.76727 53.29330 46.03028
#
# Velocity S-wave (km/s) = 3.85750 4.52282 4.20335
# Velocity P-wave (km/s) = 5.80864 7.59977 6.76376
#
# Compressibility (1/GPa) = 0.02761430
#
# Stress axis : x y z
#
# Youngs Moduli (GPa) = 31.70915 169.30147 129.75972
#
# Poissons Ratio (x) = 0.48129 0.43541
# Poissons Ratio (y) = 0.09014 0.33341
# Poissons Ratio (z) = 0.10640 0.43501
#
# Static dielectric constant tensor:
#      x y z
#    x 2.192070 -0.024950 0.029940 
#    y -0.024950 2.016220 -0.048770 
#    z 0.029940 -0.048770 2.003800 
# 
# From -- ./inp_files/34092.got.cif
#   From: 2010.05.17/outbox.cif.g08.bks.cpg/sg2_18_cif.got.tgz:34092.got - 2010.06.03 11:33:40.
