data_PCOD9111999
_publ_section_title
;
Structure prediction by ZEFSAII (Michael W. Deem and Ramdas Pophale) SiO2 
 PCOD9111999
Probable space group: P -1
;
_chemical_formula_sum "Si O2"
_cell_formula_units_Z 15
_cell_length_a 15.061534
_cell_length_b 11.458126
_cell_length_c 10.534159
_cell_angle_alpha 134.427092
_cell_angle_beta 39.228507
_cell_angle_gamma 149.509275
_cell_volume 580.358104
_symmetry_space_group_name_H-M "P -1"
_symmetry_group_IT_number 2
_symmetry_cell_setting 'triclinic'
loop_
_space_group_symop_operation_xyz
x,y,z
-x,-y,-z
loop_
_atom_site_type_symbol
_atom_site_label
_atom_site_fract_x
_atom_site_fract_y
_atom_site_fract_z
Si Si1 0.000000 0.500000 0.500000
Si Si2 0.476588 0.609679 0.225606
Si Si3 0.565296 0.110562 0.681280
Si Si4 0.223262 0.745775 0.928489
Si Si5 0.374472 0.669647 0.940761
Si Si6 0.154875 0.171299 0.849588
Si Si7 0.184319 0.025450 0.307901
Si Si8 0.040225 0.233192 0.425764
O O1 0.784244 0.226848 0.495281
O O2 0.923689 0.600191 0.591446
O O3 0.494136 0.801136 0.287228
O O4 0.638225 0.719093 0.237818
O O5 0.260441 0.384288 0.347467
O O6 0.500000 0.500000 0.000000
O O7 0.612712 0.230890 0.860624
O O8 0.374635 0.838942 0.714688
O O9 0.198812 0.923414 0.091043
O O10 0.335344 0.756828 0.933065
O O11 0.000000 0.500000 0.000000
O O12 0.195057 0.393808 0.944222
O O13 0.585676 0.751737 0.745805
O O14 0.072028 0.011354 0.697432
O O15 0.000000 0.000000 0.000000
O O16 0.106232 0.829462 0.350446
O O17 0.000000 0.000000 0.500000
#
# Coordination Sequence:
#
# PCOD9111999 Si02
#       8
#     1   2   2   2   2   2   2   2
#     4  10  20  44  66  94 130 180 218 282 350 400
#     4  11  21  41  64 100 131 170 223 279 341 411
#     4  10  21  42  71  90 137 177 223 287 344 416
#     4  11  26  44  70 103 137 190 237 279 349 435
#     4  11  23  44  69  97 136 185 232 276 356 422
#     4  12  24  38  69 100 129 180 230 280 343 414
#     4  11  25  45  71  99 140 182 227 296 354 403
#     4  11  24  42  67  94 139 174 224 286 346 402
#
# _framework density 25.846109999999999
#
# number of rings (size 3 to 8) (size 9 to 14) (size 15 to 20)
#    0.000    1.067    2.667    4.800    5.600    0.533 
#    7.200    1.333    0.000    0.000    0.000    0.000 
#    0.000    0.000    0.000    0.000    0.000    0.000 
#
# Total GULP energy -83613.189190 kJ/mol
# GULP energy per Si atom -5574.212613 kJ/mol
# Density = 2.578728 g / cm^3
# Si number density = 25.846110 Si / 1000 Ang^3
#
#
#
# Elastic Constant Matrix: (Units=GPa)
#
#
# Indices 1 2 3 4 5 6 
#
# 1 127.3642 23.4039 27.2593 -9.0236 -18.0985 13.8500
# 2 23.4039 157.0016 25.3291 -35.3229 -5.1208 17.7833
# 3 27.2593 25.3291 55.4291 -18.4103 -8.4601 2.4950
# 4 -9.0236 -35.3229 -18.4103 44.9888 1.5390 -1.5586
# 5 -18.0985 -5.1208 -8.4601 1.5390 41.4948 -7.8562
# 6 13.8500 17.7833 2.4950 -1.5586 -7.8562 42.3718
#
#
#
# Elastic Compliance Matrix: (Units=1/GPa)
#
#
# Indices 1 2 3 4 5 6 
#
# 1 0.009405 -0.000496 -0.003968 -0.000298 0.002842 -0.002116
# 2 -0.000496 0.008317 -0.001574 0.005690 -0.000306 -0.003083
# 3 -0.003968 -0.001574 0.023604 0.007577 0.002867 0.001378
# 4 -0.000298 0.005690 0.007577 0.029658 0.000731 -0.001510
# 5 0.002842 -0.000306 0.002867 0.000731 0.026615 0.003992
# 6 -0.002116 -0.003083 0.001378 -0.001510 0.003992 0.026190
#
#
# Mechanical properties :
#
#
# Convention : Reuss Voigt Hill
#
# Bulk Modulus (GPa) = 34.19078 54.64219 44.41648
# Shear Modulus (GPa) = 34.33690 43.35792 38.84741
#
# Velocity S-wave (km/s) = 3.64883 4.10022 3.88110
# Velocity P-wave (km/s) = 5.56860 6.60326 6.10788
#
# Compressibility (1/GPa) = 0.02924765
#
# Stress axis : x y z
#
# Youngs Moduli (GPa) = 106.32742 120.24056 42.36526
#
# Poissons Ratio (x) = 0.05968 0.16812
# Poissons Ratio (y) = 0.05278 0.06670
# Poissons Ratio (z) = 0.42193 0.18932
#
# Static dielectric constant tensor:
#      x y z
#    x 2.033560 -0.052460 0.054010 
#    y -0.052460 2.029240 -0.048570 
#    z 0.054010 -0.048570 2.095520 
# 
# From -- ./inp_files/451770.got.cif
#   From: 2010.05.17/outbox.cif.g08.bks.cpg/sg2_226_cif.got.tgz:451770.got - 2010.06.03 11:33:40.
