data_PCOD9111575
_publ_section_title
;
Structure prediction by ZEFSAII (Michael W. Deem and Ramdas Pophale) SiO2 
 PCOD9111575
Probable space group: P -1
;
_chemical_formula_sum "Si O2"
_cell_formula_units_Z 16
_cell_length_a 9.566784
_cell_length_b 12.136571
_cell_length_c 17.610744
_cell_angle_alpha 29.364296
_cell_angle_beta 48.040115
_cell_angle_gamma 51.311940
_cell_volume 740.542745
_symmetry_space_group_name_H-M "P -1"
_symmetry_group_IT_number 2
_symmetry_cell_setting 'triclinic'
loop_
_space_group_symop_operation_xyz
x,y,z
-x,-y,-z
loop_
_atom_site_type_symbol
_atom_site_label
_atom_site_fract_x
_atom_site_fract_y
_atom_site_fract_z
Si Si1 0.156265 0.845187 0.304300
Si Si2 0.116477 0.464365 0.673941
Si Si3 0.188886 0.726474 0.189822
Si Si4 0.435077 0.111487 0.809984
Si Si5 0.572606 0.811460 0.813823
Si Si6 0.122299 0.708053 0.820446
Si Si7 0.535380 0.596590 0.807217
Si Si8 0.992973 0.754788 0.683869
O O1 0.129688 0.658872 0.490133
O O2 0.144558 0.747879 0.282146
O O3 0.370130 0.904439 0.204701
O O4 0.001461 0.063342 0.242272
O O5 0.315871 0.353958 0.700528
O O6 0.000916 0.279672 0.786957
O O7 0.007783 0.572450 0.721790
O O8 0.318249 0.493236 0.257807
O O9 0.303516 0.935098 0.999724
O O10 0.487967 0.040044 0.746965
O O11 0.576643 0.792996 0.732682
O O12 0.788332 0.759295 0.793524
O O13 0.460999 0.621528 0.007396
O O14 0.325349 0.661553 0.813502
O O15 0.148472 0.719432 0.713511
O O16 0.000000 0.500000 0.000000
O O17 0.000000 0.000000 0.500000
#
# Coordination Sequence:
#
# PCOD9111575 Si02
#       8
#     2   2   2   2   2   2   2   2
#     4  12  26  46  64  99 141 171 216 280 331 394
#     4  12  26  45  67  97 136 180 215 269 341 392
#     4  11  25  44  67 100 134 169 224 276 326 393
#     4  11  24  43  71  98 126 180 225 265 326 397
#     4  10  20  43  66  94 131 162 220 272 320 386
#     4  12  24  41  69  99 128 174 226 273 328 384
#     4  10  22  40  68  96 127 169 214 277 324 379
#     4  12  23  44  66  93 132 173 220 272 324 395
#
# _framework density 21.605775000000001
#
# number of rings (size 3 to 8) (size 9 to 14) (size 15 to 20)
#    0.000    0.750    5.000    2.250    5.250    0.000 
#    0.000    1.250    0.000    0.000    0.000    0.000 
#    0.000    0.000    0.000    0.000    0.000    0.000 
#
# Total GULP energy -89402.217237 kJ/mol
# GULP energy per Si atom -5587.638577 kJ/mol
# Density = 2.155660 g / cm^3
# Si number density = 21.605775 Si / 1000 Ang^3
#
#
#
# Elastic Constant Matrix: (Units=GPa)
#
#
# Indices 1 2 3 4 5 6 
#
# 1 100.8447 12.9297 -4.3574 -1.9802 7.5612 6.2144
# 2 12.9297 95.4814 4.3474 4.7024 16.7987 12.1293
# 3 -4.3574 4.3474 37.7943 -0.6579 7.3965 3.3397
# 4 -1.9802 4.7024 -0.6579 19.3051 -1.4883 2.9658
# 5 7.5612 16.7987 7.3965 -1.4883 28.4942 0.5574
# 6 6.2144 12.1293 3.3397 2.9658 0.5574 36.5663
#
#
#
# Elastic Compliance Matrix: (Units=1/GPa)
#
#
# Indices 1 2 3 4 5 6 
#
# 1 0.010451 -0.000887 0.002007 0.001418 -0.002663 -0.001740
# 2 -0.000887 0.012479 0.000149 -0.003126 -0.007252 -0.003638
# 3 0.002007 0.000149 0.028499 0.000985 -0.007909 -0.002953
# 4 0.001418 -0.003126 0.000985 0.053624 0.004084 -0.003706
# 5 -0.002663 -0.007252 -0.007909 0.004084 0.042292 0.002605
# 6 -0.001740 -0.003638 -0.002953 -0.003706 0.002605 0.029380
#
#
# Mechanical properties :
#
#
# Convention : Reuss Voigt Hill
#
# Bulk Modulus (GPa) = 18.53030 28.88443 23.70736
# Shear Modulus (GPa) = 26.01754 31.61984 28.81869
#
# Velocity S-wave (km/s) = 3.47391 3.82971 3.65614
# Velocity P-wave (km/s) = 4.96849 5.74051 5.36840
#
# Compressibility (1/GPa) = 0.05396567
#
# Stress axis : x y z
#
# Youngs Moduli (GPa) = 95.68084 80.13740 35.08893
#
# Poissons Ratio (x) = 0.07108 -0.07041
# Poissons Ratio (y) = 0.08486 -0.00522
# Poissons Ratio (z) = -0.19200 -0.01191
#
# Static dielectric constant tensor:
#      x y z
#    x 1.736400 0.029230 -0.071000 
#    y 0.029230 1.780230 0.015420 
#    z -0.071000 0.015420 1.790810 
# 
# From -- ./inp_files/188474.got.cif
#   From: 2010.05.17/outbox.cif.g08.bks.cpg/sg2_95_cif.got.tgz:188474.got - 2010.06.03 11:33:40.
