data_PCOD9111004
_publ_section_title
;
Structure prediction by ZEFSAII (Michael W. Deem and Ramdas Pophale) SiO2 
 PCOD9111004
Probable space group: P -1
;
_chemical_formula_sum "Si O2"
_cell_formula_units_Z 16
_cell_length_a 7.317698
_cell_length_b 7.742835
_cell_length_c 11.831389
_cell_angle_alpha 80.297778
_cell_angle_beta 69.250535
_cell_angle_gamma 103.169209
_cell_volume 587.083464
_symmetry_space_group_name_H-M "P -1"
_symmetry_group_IT_number 2
_symmetry_cell_setting 'triclinic'
loop_
_space_group_symop_operation_xyz
x,y,z
-x,-y,-z
loop_
_atom_site_type_symbol
_atom_site_label
_atom_site_fract_x
_atom_site_fract_y
_atom_site_fract_z
Si Si1 0.639541 0.465308 0.294129
Si Si2 0.780149 0.045338 0.179924
Si Si3 0.738500 0.006837 0.438347
Si Si4 0.632013 0.928454 0.701660
Si Si5 0.752521 0.444083 0.696292
Si Si6 0.055621 0.255648 0.937111
Si Si7 0.117432 0.343776 0.578308
Si Si8 0.296199 0.342031 0.105417
O O1 0.505038 0.263526 0.308624
O O2 0.483263 0.582318 0.285673
O O3 0.842149 0.549819 0.164894
O O4 0.727068 0.492518 0.398547
O O5 0.532802 0.968386 0.246162
O O6 0.832549 0.118022 0.290512
O O7 0.889391 0.893910 0.138181
O O8 0.827879 0.185257 0.046151
O O9 0.792946 0.032347 0.557640
O O10 0.782666 0.818172 0.418450
O O11 0.500000 0.000000 0.500000
O O12 0.695111 0.839508 0.808304
O O13 0.871745 0.591539 0.559744
O O14 0.783542 0.541198 0.798951
O O15 0.885695 0.302703 0.681073
O O16 0.172136 0.268689 0.028658
O O17 0.500000 0.500000 0.000000
#
# Coordination Sequence:
#
# PCOD9111004 Si02
#       8
#     2   2   2   2   2   2   2   2
#     4  11  21  40  68  99 128 175 217 281 339 383
#     4  10  24  42  61  95 130 174 231 260 323 426
#     4  10  20  42  68  88 131 175 221 275 326 404
#     4  10  22  40  67  95 125 170 225 276 337 390
#     4  10  23  38  62 107 133 158 220 291 334 393
#     4  11  23  41  63  91 135 176 219 269 331 408
#     4  11  21  39  68  98 133 167 221 281 338 391
#     4  11  21  41  62  94 137 164 215 284 333 390
#
# _framework density 27.253364999999999
#
# number of rings (size 3 to 8) (size 9 to 14) (size 15 to 20)
#    0.000    1.500    6.250    0.375    1.750    2.000 
#    0.000    1.875    0.000    0.000    0.000    0.000 
#    0.000    0.000    0.000    0.000    0.000    0.000 
#
# Total GULP energy -89371.398812 kJ/mol
# GULP energy per Si atom -5585.712426 kJ/mol
# Density = 2.719133 g / cm^3
# Si number density = 27.253365 Si / 1000 Ang^3
#
#
#
# Elastic Constant Matrix: (Units=GPa)
#
#
# Indices 1 2 3 4 5 6 
#
# 1 110.9677 20.6614 34.5923 13.0490 -2.8941 -8.9420
# 2 20.6614 79.8437 28.9304 16.6297 -0.6991 -17.0751
# 3 34.5923 28.9304 226.2664 11.6934 2.5390 -2.8044
# 4 13.0490 16.6297 11.6934 43.4578 1.2686 0.2356
# 5 -2.8941 -0.6991 2.5390 1.2686 41.7301 1.9016
# 6 -8.9420 -17.0751 -2.8044 0.2356 1.9016 45.0545
#
#
#
# Elastic Compliance Matrix: (Units=1/GPa)
#
#
# Indices 1 2 3 4 5 6 
#
# 1 0.010043 -0.001399 -0.001236 -0.002177 0.000752 0.001366
# 2 -0.001399 0.015704 -0.001456 -0.005232 0.000158 0.005604
# 3 -0.001236 -0.001456 0.004811 -0.000353 -0.000370 -0.000480
# 4 -0.002177 -0.005232 -0.000353 0.025801 -0.000886 -0.002535
# 5 0.000752 0.000158 -0.000370 -0.000886 0.024105 -0.000827
# 6 0.001366 0.005604 -0.000480 -0.002535 -0.000827 0.024608
#
#
# Mechanical properties :
#
#
# Convention : Reuss Voigt Hill
#
# Bulk Modulus (GPa) = 44.68931 65.04957 54.86944
# Shear Modulus (GPa) = 41.42063 48.24138 44.83100
#
# Velocity S-wave (km/s) = 3.90274 4.21183 4.06022
# Velocity P-wave (km/s) = 6.06150 6.89731 6.49287
#
# Compressibility (1/GPa) = 0.02237672
#
# Stress axis : x y z
#
# Youngs Moduli (GPa) = 99.57213 63.67960 207.85451
#
# Poissons Ratio (x) = 0.08909 0.25681
# Poissons Ratio (y) = 0.13931 0.30261
# Poissons Ratio (z) = 0.12302 0.09271
#
# Static dielectric constant tensor:
#      x y z
#    x 2.240290 0.022480 -0.083490 
#    y 0.022480 2.271340 -0.176930 
#    z -0.083490 -0.176930 2.289440 
# 
# From -- ./inp_files/378594.got.cif
#   From: 2010.05.17/outbox.cif.g08.bks.cpg/sg2_190_cif.got.tgz:378594.got - 2010.06.03 11:33:40.
