data_PCOD9111898
_publ_section_title
;
Structure prediction by ZEFSAII (Michael W. Deem and Ramdas Pophale) SiO2 
 PCOD9111898
Probable space group: P -1
;
_chemical_formula_sum "Si O2"
_cell_formula_units_Z 14
_cell_length_a 8.946909
_cell_length_b 11.425512
_cell_length_c 11.386293
_cell_angle_alpha 120.050236
_cell_angle_beta 130.236850
_cell_angle_gamma 41.686103
_cell_volume 590.529660
_symmetry_space_group_name_H-M "P -1"
_symmetry_group_IT_number 2
_symmetry_cell_setting 'triclinic'
loop_
_space_group_symop_operation_xyz
x,y,z
-x,-y,-z
loop_
_atom_site_type_symbol
_atom_site_label
_atom_site_fract_x
_atom_site_fract_y
_atom_site_fract_z
Si Si1 0.778024 0.530677 0.483522
Si Si2 0.871911 0.224997 0.269495
Si Si3 0.265776 0.080443 0.827262
Si Si4 0.650389 0.666208 0.988155
Si Si5 0.337177 0.270895 0.235441
Si Si6 0.778976 0.164676 0.745831
Si Si7 0.120798 0.688514 0.937771
O O1 0.816444 0.351614 0.410105
O O2 0.750148 0.600402 0.635638
O O3 0.502652 0.684255 0.365536
O O4 0.000000 0.500000 0.500000
O O5 0.653363 0.211708 0.125500
O O6 0.855057 0.323324 0.194211
O O7 0.132494 0.028908 0.315170
O O8 0.993561 0.157716 0.781260
O O9 0.373159 0.912321 0.715101
O O10 0.257271 0.237580 0.854144
O O11 0.500000 0.000000 0.000000
O O12 0.738357 0.629148 0.877418
O O13 0.734180 0.497565 0.017381
O O14 0.173431 0.206949 0.132380
O O15 0.792695 0.210657 0.909742
#
# Coordination Sequence:
#
# PCOD9111898 Si02
#       7
#     2   2   2   2   2   2   2
#     4  12  29  51  68 106 156 199 246 293 369 450
#     4  12  25  47  73 110 150 190 250 298 366 442
#     4  10  20  43  74 110 144 178 248 309 361 427
#     4  11  22  43  78 114 142 187 247 310 366 427
#     4  11  23  47  73 104 154 188 242 307 362 438
#     4  12  25  47  77 109 147 193 246 304 369 433
#     4  12  23  43  76 111 142 191 248 310 359 426
#
# _framework density 23.707529999999998
#
# number of rings (size 3 to 8) (size 9 to 14) (size 15 to 20)
#    0.000    0.571    8.571    1.286    0.000    1.714 
#    2.571    0.000    0.000    0.000    0.000    0.000 
#    0.000    0.000    0.000    0.000    0.000    0.000 
#
# Total GULP energy -78243.199622 kJ/mol
# GULP energy per Si atom -5588.799973 kJ/mol
# Density = 2.365357 g / cm^3
# Si number density = 23.707530 Si / 1000 Ang^3
#
#
#
# Elastic Constant Matrix: (Units=GPa)
#
#
# Indices 1 2 3 4 5 6 
#
# 1 79.9660 24.1082 10.8292 -1.3931 10.3760 -6.0478
# 2 24.1082 160.1003 54.7460 30.0271 3.7798 -6.9554
# 3 10.8292 54.7460 66.1562 17.8603 6.2108 0.1041
# 4 -1.3931 30.0271 17.8603 36.3099 -16.9129 11.0687
# 5 10.3760 3.7798 6.2108 -16.9129 24.4364 -5.5002
# 6 -6.0478 -6.9554 0.1041 11.0687 -5.5002 34.1668
#
#
#
# Elastic Compliance Matrix: (Units=1/GPa)
#
#
# Indices 1 2 3 4 5 6 
#
# 1 0.013909 -0.001574 0.000119 -0.001783 -0.006552 0.001664
# 2 -0.001574 0.010456 -0.005132 -0.010128 -0.005703 0.004229
# 3 0.000119 -0.005132 0.025383 -0.016538 -0.016805 0.001551
# 4 -0.001783 -0.010128 -0.016538 0.074644 0.054186 -0.017786
# 5 -0.006552 -0.005703 -0.016805 0.054186 0.084978 -0.006144
# 6 0.001664 0.004229 0.001551 -0.017786 -0.006144 0.035192
#
#
# Mechanical properties :
#
#
# Convention : Reuss Voigt Hill
#
# Bulk Modulus (GPa) = 27.34132 53.95437 40.64784
# Shear Modulus (GPa) = 18.52371 33.41856 25.97113
#
# Velocity S-wave (km/s) = 2.79828 3.75856 3.31339
# Velocity P-wave (km/s) = 4.69024 6.45317 5.64100
#
# Compressibility (1/GPa) = 0.03657468
#
# Stress axis : x y z
#
# Youngs Moduli (GPa) = 71.89806 95.64083 39.39684
#
# Poissons Ratio (x) = 0.15053 -0.00471
# Poissons Ratio (y) = 0.11316 0.20218
# Poissons Ratio (z) = -0.00859 0.49081
#
# Static dielectric constant tensor:
#      x y z
#    x 2.001330 -0.021620 0.009780 
#    y -0.021620 1.974450 0.027930 
#    z 0.009780 0.027930 1.924870 
# 
# From -- ./inp_files/392876.got.cif
#   From: 2010.05.17/outbox.cif.g08.bks.cpg/sg2_197_cif.got.tgz:392876.got - 2010.06.03 11:33:40.
