data_PCOD9111582
_publ_section_title
;
Structure prediction by ZEFSAII (Michael W. Deem and Ramdas Pophale) SiO2 
 PCOD9111582
Probable space group: P -1
;
_chemical_formula_sum "Si O2"
_cell_formula_units_Z 15
_cell_length_a 13.523615
_cell_length_b 11.213192
_cell_length_c 10.863253
_cell_angle_alpha 65.120713
_cell_angle_beta 32.966239
_cell_angle_gamma 86.660217
_cell_volume 652.375112
_symmetry_space_group_name_H-M "P -1"
_symmetry_group_IT_number 2
_symmetry_cell_setting 'triclinic'
loop_
_space_group_symop_operation_xyz
x,y,z
-x,-y,-z
loop_
_atom_site_type_symbol
_atom_site_label
_atom_site_fract_x
_atom_site_fract_y
_atom_site_fract_z
Si Si1 0.706353 0.132086 0.815657
Si Si2 0.421063 0.504091 0.333193
Si Si3 0.477155 0.222630 0.213253
Si Si4 0.500000 0.500000 0.000000
Si Si5 0.254722 0.565755 0.715821
Si Si6 0.892367 0.717034 0.826836
Si Si7 0.627951 0.815264 0.392233
Si Si8 0.976908 0.028657 0.731753
O O1 0.838299 0.070134 0.774011
O O2 0.902276 0.268317 0.459948
O O3 0.606248 0.183019 0.003330
O O4 0.500000 0.000000 0.000000
O O5 0.335890 0.477251 0.295853
O O6 0.344299 0.576038 0.482726
O O7 0.349551 0.330874 0.537368
O O8 0.688010 0.655227 0.974573
O O9 0.591373 0.413500 0.026639
O O10 0.425258 0.143521 0.437514
O O11 0.240352 0.169998 0.421400
O O12 0.418669 0.730967 0.551164
O O13 0.234050 0.422342 0.876979
O O14 0.000000 0.500000 0.000000
O O15 0.974104 0.886570 0.728990
O O16 0.845794 0.960116 0.028674
#
# Coordination Sequence:
#
# PCOD9111582 Si02
#       8
#     2   2   2   1   2   2   2   2
#     4  12  28  41  67 105 138 179 233 280 339 415
#     4  10  20  43  66  95 130 178 226 276 337 406
#     4  11  26  47  67 103 139 181 231 281 344 412
#     4  10  24  42  72  92 138 178 216 282 344 398
#     4  11  23  39  70 103 131 178 233 288 338 400
#     4  11  22  42  67  95 134 181 232 276 341 409
#     4  10  22  45  67  98 134 178 232 277 341 412
#     4  12  23  45  73  94 140 187 221 289 348 399
#
# _framework density 22.992909000000001
#
# number of rings (size 3 to 8) (size 9 to 14) (size 15 to 20)
#    0.000    1.067    4.000    2.400    5.600    0.533 
#    7.200    4.000    0.000    0.000    0.000    0.000 
#    0.000    0.000    0.000    0.000    0.000    0.000 
#
# Total GULP energy -83547.955779 kJ/mol
# GULP energy per Si atom -5569.863719 kJ/mol
# Density = 2.294058 g / cm^3
# Si number density = 22.992909 Si / 1000 Ang^3
#
#
#
# Elastic Constant Matrix: (Units=GPa)
#
#
# Indices 1 2 3 4 5 6 
#
# 1 48.4564 60.4008 73.7671 -4.9396 13.1656 -0.7556
# 2 60.4008 29.7718 -17.8910 73.0309 10.3235 41.6296
# 3 73.7671 -17.8910 81.9800 78.8043 19.5264 28.8501
# 4 -4.9396 73.0309 78.8043 7.8699 -0.7549 0.5618
# 5 13.1656 10.3235 19.5264 -0.7549 44.7067 6.3732
# 6 -0.7556 41.6296 28.8501 0.5618 6.3732 30.3858
#
#
#
# Elastic Compliance Matrix: (Units=1/GPa)
#
#
# Indices 1 2 3 4 5 6 
#
# 1 0.017503 0.002608 0.000012 -0.013761 -0.005754 -0.001687
# 2 0.002608 0.007700 -0.007764 0.008325 0.001496 -0.003581
# 3 0.000012 -0.007764 0.006890 0.002575 -0.001808 0.004427
# 4 -0.013761 0.008325 0.002575 0.016810 0.003460 -0.015229
# 5 -0.005754 0.001496 -0.001808 0.003460 0.025401 -0.005868
# 6 -0.001687 -0.003581 0.004427 -0.015229 -0.005868 0.035083
#
#
# Mechanical properties :
#
#
# Convention : Reuss Voigt Hill
#
# Bulk Modulus (GPa) = 45.86396 43.64022 44.75209
# Shear Modulus (GPa) = 39.38691 19.52123 29.45407
#
# Velocity S-wave (km/s) = 4.14333 2.91694 3.58300
# Velocity P-wave (km/s) = 6.54828 5.51052 6.05168
#
# Compressibility (1/GPa) = 0.02180361
#
# Stress axis : x y z
#
# Youngs Moduli (GPa) = 57.13310 129.86392 145.13567
#
# Poissons Ratio (x) = -0.33863 -0.00170
# Poissons Ratio (y) = -0.14898 1.12687
# Poissons Ratio (z) = -0.00067 1.00830
#
# Static dielectric constant tensor:
#      x y z
#    x 2.103100 0.101100 -0.040500 
#    y 0.101100 2.005910 -0.144930 
#    z -0.040500 -0.144930 1.937530 
# 
# From -- ./inp_files/452172.got.cif
#   From: 2010.05.17/outbox.cif.g08.bks.cpg/sg2_227_cif.got.tgz:452172.got - 2010.06.03 11:33:40.
