data_PCOD9111915
_publ_section_title
;
Structure prediction by ZEFSAII (Michael W. Deem and Ramdas Pophale) SiO2 
 PCOD9111915
Probable space group: P -1
;
_chemical_formula_sum "Si O2"
_cell_formula_units_Z 14
_cell_length_a 8.176673
_cell_length_b 12.823339
_cell_length_c 14.143533
_cell_angle_alpha 128.754865
_cell_angle_beta 33.745759
_cell_angle_gamma 113.263282
_cell_volume 614.855396
_symmetry_space_group_name_H-M "P -1"
_symmetry_group_IT_number 2
_symmetry_cell_setting 'triclinic'
loop_
_space_group_symop_operation_xyz
x,y,z
-x,-y,-z
loop_
_atom_site_type_symbol
_atom_site_label
_atom_site_fract_x
_atom_site_fract_y
_atom_site_fract_z
Si Si1 0.557185 0.121432 0.761610
Si Si2 0.304488 0.116989 0.585397
Si Si3 0.306020 0.674361 0.464922
Si Si4 0.051882 0.826254 0.033264
Si Si5 0.626907 0.573065 0.564539
Si Si6 0.271173 0.624002 0.238531
Si Si7 0.279142 0.081712 0.070367
O O1 0.750138 0.230511 0.719614
O O2 0.712930 0.976717 0.549722
O O3 0.469741 0.101182 0.899040
O O4 0.232859 0.191131 0.901311
O O5 0.474909 0.234602 0.551122
O O6 0.500000 0.000000 0.500000
O O7 0.008990 0.182740 0.830308
O O8 0.329983 0.534229 0.430377
O O9 0.388546 0.639058 0.296476
O O10 0.957385 0.775230 0.698686
O O11 0.369779 0.715982 0.792007
O O12 0.074465 0.979636 0.084483
O O13 0.500000 0.500000 0.500000
O O14 0.944056 0.597623 0.394700
O O15 0.500000 0.500000 0.000000
O O16 0.500000 0.000000 0.000000
#
# Coordination Sequence:
#
# PCOD9111915 Si02
#       7
#     2   2   2   2   2   2   2
#     4  11  23  47  78 107 144 193 243 302 365 422
#     4  10  20  43  79 105 137 184 244 299 360 414
#     4  12  24  49  75 102 149 194 238 300 365 430
#     4  11  22  46  72 106 144 188 244 292 358 433
#     4  12  29  46  71 110 147 194 243 291 365 439
#     4  12  25  48  72 103 148 194 238 297 365 433
#     4  12  25  43  74 110 145 189 243 300 359 431
#
# _framework density 22.769582
#
# number of rings (size 3 to 8) (size 9 to 14) (size 15 to 20)
#    0.000    0.571    5.714    4.286    2.000    1.714 
#    2.571    3.571    0.000    0.000    0.000    0.000 
#    0.000    0.000    0.000    0.000    0.000    0.000 
#
# Total GULP energy -78445.588357 kJ/mol
# GULP energy per Si atom -5603.256311 kJ/mol
# Density = 2.271776 g / cm^3
# Si number density = 22.769582 Si / 1000 Ang^3
#
#
#
# Elastic Constant Matrix: (Units=GPa)
#
#
# Indices 1 2 3 4 5 6 
#
# 1 66.1029 52.4754 47.0942 1.5653 23.6927 -13.5462
# 2 52.4754 155.1670 54.9310 -31.4328 7.7006 5.7805
# 3 47.0942 54.9310 172.6404 3.2431 30.0293 -7.7154
# 4 1.5653 -31.4328 3.2431 45.4803 -4.4093 4.9566
# 5 23.6927 7.7006 30.0293 -4.4093 43.1097 -3.5635
# 6 -13.5462 5.7805 -7.7154 4.9566 -3.5635 40.1611
#
#
#
# Elastic Compliance Matrix: (Units=1/GPa)
#
#
# Indices 1 2 3 4 5 6 
#
# 1 0.037548 -0.014799 -0.001615 -0.014678 -0.017148 0.014775
# 2 -0.014799 0.014904 -0.002708 0.012703 0.007952 -0.008519
# 3 -0.001615 -0.002708 0.007971 -0.002955 -0.004371 0.001353
# 4 -0.014678 0.012703 -0.002955 0.033646 0.010424 -0.010575
# 5 -0.017148 0.007952 -0.004371 0.010424 0.034818 -0.005965
# 6 0.014775 -0.008519 0.001353 -0.010575 -0.005965 0.032145
#
#
# Mechanical properties :
#
#
# Convention : Reuss Voigt Hill
#
# Bulk Modulus (GPa) = 45.08801 78.10128 61.59464
# Shear Modulus (GPa) = 24.19317 41.71088 32.95203
#
# Velocity S-wave (km/s) = 3.26317 4.28468 3.80833
# Velocity P-wave (km/s) = 5.83460 7.67158 6.81526
#
# Compressibility (1/GPa) = 0.02217884
#
# Stress axis : x y z
#
# Youngs Moduli (GPa) = 26.63233 67.09563 125.45631
#
# Poissons Ratio (x) = 0.99297 0.20263
# Poissons Ratio (y) = 0.39414 0.33970
# Poissons Ratio (z) = 0.04302 0.18168
#
# Static dielectric constant tensor:
#      x y z
#    x 1.904200 0.030060 -0.013780 
#    y 0.030060 1.940300 0.012720 
#    z -0.013780 0.012720 1.853610 
# 
# From -- ./inp_files/500760.got.cif
#   From: 2010.05.17/outbox.cif.g08.bks.cpg/sg2_251_cif.got.tgz:500760.got - 2010.06.03 11:33:40.
