data_PCOD9111551
_publ_section_title
;
Structure prediction by ZEFSAII (Michael W. Deem and Ramdas Pophale) SiO2 
 PCOD9111551
Probable space group: P -1
;
_chemical_formula_sum "Si O2"
_cell_formula_units_Z 16
_cell_length_a 9.063884
_cell_length_b 12.182594
_cell_length_c 8.829084
_cell_angle_alpha 118.874221
_cell_angle_beta 120.424770
_cell_angle_gamma 75.038733
_cell_volume 736.039557
_symmetry_space_group_name_H-M "P -1"
_symmetry_group_IT_number 2
_symmetry_cell_setting 'triclinic'
loop_
_space_group_symop_operation_xyz
x,y,z
-x,-y,-z
loop_
_atom_site_type_symbol
_atom_site_label
_atom_site_fract_x
_atom_site_fract_y
_atom_site_fract_z
Si Si1 0.497591 0.669045 0.811408
Si Si2 0.412921 0.083599 0.804896
Si Si3 0.412778 0.268612 0.454468
Si Si4 0.301442 0.905886 0.382518
Si Si5 0.149053 0.422129 0.107576
Si Si6 0.750961 0.973091 0.872689
Si Si7 0.072912 0.126832 0.834295
Si Si8 0.811809 0.500278 0.474431
O O1 0.529132 0.702936 0.671009
O O2 0.658936 0.573138 0.859182
O O3 0.306478 0.619161 0.693272
O O4 0.524370 0.781017 0.018648
O O5 0.226160 0.079784 0.777235
O O6 0.378684 0.031318 0.582158
O O7 0.568417 0.991833 0.876482
O O8 0.573614 0.208725 0.585812
O O9 0.268591 0.162690 0.301547
O O10 0.318524 0.385837 0.561329
O O11 0.113943 0.883982 0.337860
O O12 0.263939 0.923932 0.197162
O O13 0.161387 0.476673 0.318232
O O14 0.105049 0.273466 0.986556
O O15 0.000000 0.500000 0.000000
O O16 0.901240 0.961520 0.063067
O O17 0.000000 0.500000 0.500000
#
# Coordination Sequence:
#
# PCOD9111551 Si02
#       8
#     2   2   2   2   2   2   2   2
#     4  10  22  42  71  90 127 178 210 263 329 390
#     4  10  21  42  62  95 127 169 217 257 314 386
#     4  10  20  43  66  91 127 175 214 257 328 388
#     4  11  25  37  67  97 134 168 211 270 319 384
#     4  10  22  43  67  95 131 169 221 263 319 394
#     4  11  21  43  63  88 137 173 207 264 327 380
#     4  11  22  40  65  98 128 170 217 265 316 383
#     4  11  24  45  68  97 127 164 219 278 327 382
#
# _framework density 21.737963000000001
#
# number of rings (size 3 to 8) (size 9 to 14) (size 15 to 20)
#    0.000    1.500    3.750    4.125    5.250    1.000 
#   11.250    0.625    0.000    0.000    0.000    0.000 
#    0.000    0.000    0.000    0.000    0.000    0.000 
#
# Total GULP energy -89188.135844 kJ/mol
# GULP energy per Si atom -5574.258490 kJ/mol
# Density = 2.168849 g / cm^3
# Si number density = 21.737963 Si / 1000 Ang^3
#
#
#
# Elastic Constant Matrix: (Units=GPa)
#
#
# Indices 1 2 3 4 5 6 
#
# 1 119.7234 42.4931 54.9809 0.3893 19.9685 -22.9557
# 2 42.4931 98.0472 38.0408 -25.8430 2.1610 -26.7496
# 3 54.9809 38.0408 100.9133 0.2920 11.6323 -15.0756
# 4 0.3893 -25.8430 0.2920 34.2810 -7.1864 9.4868
# 5 19.9685 2.1610 11.6323 -7.1864 38.8661 -4.3007
# 6 -22.9557 -26.7496 -15.0756 9.4868 -4.3007 26.0273
#
#
#
# Elastic Compliance Matrix: (Units=1/GPa)
#
#
# Indices 1 2 3 4 5 6 
#
# 1 0.014259 -0.004078 -0.004431 -0.006474 -0.006178 0.007157
# 2 -0.004078 0.019972 -0.004482 0.013517 0.005976 0.010394
# 3 -0.004431 -0.004482 0.014461 -0.004248 -0.002477 0.001000
# 4 -0.006474 0.013517 -0.004248 0.044154 0.011065 -0.008544
# 5 -0.006178 0.005976 -0.002477 0.011065 0.031404 0.000414
# 6 0.007157 0.010394 0.001000 -0.008544 0.000414 0.059178
#
#
# Mechanical properties :
#
#
# Convention : Reuss Voigt Hill
#
# Bulk Modulus (GPa) = 44.03577 65.52372 54.77975
# Shear Modulus (GPa) = 23.04346 32.04615 27.54481
#
# Velocity S-wave (km/s) = 3.25938 3.84370 3.56354
# Velocity P-wave (km/s) = 5.87080 7.06447 6.49511
#
# Compressibility (1/GPa) = 0.02270881
#
# Stress axis : x y z
#
# Youngs Moduli (GPa) = 70.13245 50.06887 69.15334
#
# Poissons Ratio (x) = 0.20418 0.30644
# Poissons Ratio (y) = 0.28600 0.30996
# Poissons Ratio (z) = 0.31078 0.22442
#
# Static dielectric constant tensor:
#      x y z
#    x 1.887830 0.043790 -0.017030 
#    y 0.043790 1.834030 0.006800 
#    z -0.017030 0.006800 1.816660 
# 
# From -- ./inp_files/190368.got.cif
#   From: 2010.05.17/outbox.cif.g08.bks.cpg/sg2_96_cif.got.tgz:190368.got - 2010.06.03 11:33:40.
