data_PCOD9111306
_publ_section_title
;
Structure prediction by ZEFSAII (Michael W. Deem and Ramdas Pophale) SiO2 
 PCOD9111306
Probable space group: P -1
;
_chemical_formula_sum "Si O2"
_cell_formula_units_Z 13
_cell_length_a 4.956051
_cell_length_b 8.926829
_cell_length_c 16.734028
_cell_angle_alpha 56.396528
_cell_angle_beta 95.539639
_cell_angle_gamma 121.554219
_cell_volume 505.634321
_symmetry_space_group_name_H-M "P -1"
_symmetry_group_IT_number 2
_symmetry_cell_setting 'triclinic'
loop_
_space_group_symop_operation_xyz
x,y,z
-x,-y,-z
loop_
_atom_site_type_symbol
_atom_site_label
_atom_site_fract_x
_atom_site_fract_y
_atom_site_fract_z
Si Si1 0.988865 0.714457 0.933812
Si Si2 0.168071 0.485367 0.730799
Si Si3 0.957599 0.815100 0.416389
Si Si4 0.345012 0.954385 0.597953
Si Si5 0.402030 0.577629 0.353783
Si Si6 0.492337 0.410666 0.901620
Si Si7 0.500000 0.000000 0.000000
O O1 0.807449 0.656930 0.857929
O O2 0.713966 0.688848 0.993541
O O3 0.315218 0.914778 0.926790
O O4 0.000000 0.500000 0.000000
O O5 0.465572 0.526699 0.671536
O O6 0.226536 0.396765 0.838358
O O7 0.824384 0.357361 0.712036
O O8 0.198183 0.706627 0.684921
O O9 0.903886 0.977653 0.416394
O O10 0.739347 0.766696 0.347061
O O11 0.808456 0.598852 0.530376
O O12 0.327624 0.901826 0.382531
O O13 0.500000 0.000000 0.500000
O O14 0.556332 0.236591 0.922031
#
# Coordination Sequence:
#
# PCOD9111306 Si02
#       7
#     2   2   2   2   2   2   1
#     4   9  20  42  69  95 122 169 212 259 337 409
#     4  12  25  40  64  95 133 163 219 275 323 373
#     4  11  22  41  64  87 127 177 230 256 323 387
#     4  12  21  39  62  92 125 176 216 265 320 389
#     4  11  23  41  63  92 128 174 217 278 315 382
#     4  10  23  42  65  97 131 168 216 273 332 400
#     4  10  20  42  72  90 124 170 214 264 328 414
#
# _framework density 25.710280000000001
#
# number of rings (size 3 to 8) (size 9 to 14) (size 15 to 20)
#    0.000    1.231    3.077    2.769    4.308    2.462 
#    5.538    1.538    0.000    0.000    0.000    0.000 
#    0.000    0.000    0.000    0.000    0.000    0.000 
#
# Total GULP energy -72377.129563 kJ/mol
# GULP energy per Si atom -5567.471505 kJ/mol
# Density = 2.565176 g / cm^3
# Si number density = 25.710280 Si / 1000 Ang^3
#
#
#
# Elastic Constant Matrix: (Units=GPa)
#
#
# Indices 1 2 3 4 5 6 
#
# 1 111.2124 39.2852 29.6299 18.7408 29.4059 21.2368
# 2 39.2852 179.0049 39.5823 22.8969 17.3096 18.1061
# 3 29.6299 39.5823 67.8433 15.5605 37.6440 7.1625
# 4 18.7408 22.8969 15.5605 33.0829 12.8064 15.0210
# 5 29.4059 17.3096 37.6440 12.8064 38.1712 15.8619
# 6 21.2368 18.1061 7.1625 15.0210 15.8619 32.7938
#
#
#
# Elastic Compliance Matrix: (Units=1/GPa)
#
#
# Indices 1 2 3 4 5 6 
#
# 1 0.012212 -0.001518 0.000291 -0.001968 -0.007204 -0.002748
# 2 -0.001518 0.007328 -0.006203 -0.001967 0.006206 -0.003809
# 3 0.000291 -0.006203 0.043052 -0.007223 -0.045378 0.019091
# 4 -0.001968 -0.001967 -0.007223 0.042881 0.002091 -0.016714
# 5 -0.007204 0.006206 -0.045378 0.002091 0.086042 -0.031425
# 6 -0.002748 -0.003809 0.019091 -0.016714 -0.031425 0.053062
#
#
# Mechanical properties :
#
#
# Convention : Reuss Voigt Hill
#
# Bulk Modulus (GPa) = 20.95019 63.89506 42.42263
# Shear Modulus (GPa) = 18.15895 37.44712 27.80303
#
# Velocity S-wave (km/s) = 2.66050 3.82056 3.29203
# Velocity P-wave (km/s) = 4.19570 6.66094 5.56651
#
# Compressibility (1/GPa) = 0.04773227
#
# Stress axis : x y z
#
# Youngs Moduli (GPa) = 81.88894 136.46381 23.22785
#
# Poissons Ratio (x) = 0.20718 -0.00677
# Poissons Ratio (y) = 0.12432 0.14408
# Poissons Ratio (z) = -0.02386 0.84644
#
# Static dielectric constant tensor:
#      x y z
#    x 2.056750 0.113110 -0.026800 
#    y 0.113110 2.132330 0.056700 
#    z -0.026800 0.056700 2.071710 
# 
# From -- ./inp_files/88211.got.cif
#   From: 2010.05.17/outbox.cif.g08.bks.cpg/sg2_45_cif.got.tgz:88211.got - 2010.06.03 11:33:40.
