data_PCOD9111156
_publ_section_title
;
Structure prediction by ZEFSAII (Michael W. Deem and Ramdas Pophale) SiO2 
 PCOD9111156
Probable space group: P -1
;
_chemical_formula_sum "Si O2"
_cell_formula_units_Z 16
_cell_length_a 7.016144
_cell_length_b 8.356959
_cell_length_c 15.703379
_cell_angle_alpha 112.274587
_cell_angle_beta 64.423796
_cell_angle_gamma 80.644631
_cell_volume 707.432432
_symmetry_space_group_name_H-M "P -1"
_symmetry_group_IT_number 2
_symmetry_cell_setting 'triclinic'
loop_
_space_group_symop_operation_xyz
x,y,z
-x,-y,-z
loop_
_atom_site_type_symbol
_atom_site_label
_atom_site_fract_x
_atom_site_fract_y
_atom_site_fract_z
Si Si1 0.360013 0.390854 0.221169
Si Si2 0.868188 0.750285 0.131696
Si Si3 0.807326 0.253534 0.578874
Si Si4 0.119830 0.506449 0.757256
Si Si5 0.340419 0.045354 0.454369
Si Si6 0.628779 0.526629 0.063228
Si Si7 0.489441 0.685942 0.497849
Si Si8 0.811632 0.111779 0.130529
O O1 0.284704 0.525822 0.344830
O O2 0.550455 0.186448 0.160718
O O3 0.483678 0.496680 0.161727
O O4 0.130506 0.412358 0.220974
O O5 0.678675 0.713484 0.102666
O O6 0.837339 0.965806 0.173211
O O7 0.873189 0.639414 0.197226
O O8 0.117537 0.635209 0.019877
O O9 0.755858 0.220228 0.483902
O O10 0.068025 0.163196 0.541140
O O11 0.664945 0.139767 0.626241
O O12 0.311637 0.388107 0.628048
O O13 0.161015 0.693275 0.813128
O O14 0.444841 0.184522 0.422410
O O15 0.500000 0.000000 0.500000
O O16 0.500000 0.500000 0.000000
O O17 0.500000 0.500000 0.500000
O O18 0.000000 0.000000 0.000000
#
# Coordination Sequence:
#
# PCOD9111156 Si02
#       8
#     2   2   2   2   2   2   2   2
#     4  12  23  42  71  98 145 186 228 288 350 406
#     4  11  23  43  69  95 140 187 229 283 348 403
#     4  10  20  42  69  97 132 176 223 283 351 427
#     4  12  25  47  70 100 143 183 237 293 343 423
#     4   9  20  40  70  99 124 169 228 281 350 423
#     4  11  21  39  69 102 130 186 233 283 342 409
#     4  11  23  44  71  97 133 177 227 291 356 412
#     4  12  25  44  68 105 143 186 239 285 341 409
#
# _framework density 22.617001999999999
#
# number of rings (size 3 to 8) (size 9 to 14) (size 15 to 20)
#    0.000    1.000    6.250    0.750    0.000    2.000 
#    9.000    0.000    5.500    0.000    0.000    0.000 
#    0.000    0.000    0.000    0.000    0.000    0.000 
#
# Total GULP energy -89187.318366 kJ/mol
# GULP energy per Si atom -5574.207398 kJ/mol
# Density = 2.256552 g / cm^3
# Si number density = 22.617002 Si / 1000 Ang^3
#
#
#
# Elastic Constant Matrix: (Units=GPa)
#
#
# Indices 1 2 3 4 5 6 
#
# 1 174.5119 45.5714 19.4557 4.8562 -5.0357 -2.8161
# 2 45.5714 146.2193 19.9362 5.0325 4.5292 1.5176
# 3 19.4557 19.9362 66.2119 9.3930 -13.3112 -4.9680
# 4 4.8562 5.0325 9.3930 24.6443 -3.2204 -6.4592
# 5 -5.0357 4.5292 -13.3112 -3.2204 29.9772 11.6914
# 6 -2.8161 1.5176 -4.9680 -6.4592 11.6914 32.8314
#
#
#
# Elastic Compliance Matrix: (Units=1/GPa)
#
#
# Indices 1 2 3 4 5 6 
#
# 1 0.006370 -0.001849 -0.001104 -0.000323 0.000776 0.000125
# 2 -0.001849 0.007823 -0.002221 -0.000743 -0.002517 -0.000106
# 3 -0.001104 -0.002221 0.018452 -0.005610 0.008221 -0.001231
# 4 -0.000323 -0.000743 -0.005610 0.044999 -0.000840 0.008310
# 5 0.000776 -0.002517 0.008221 -0.000840 0.042895 -0.014013
# 6 0.000125 -0.000106 -0.001231 0.008310 -0.014013 0.036913
#
#
# Mechanical properties :
#
#
# Convention : Reuss Voigt Hill
#
# Bulk Modulus (GPa) = 44.84728 61.87441 53.36085
# Shear Modulus (GPa) = 28.53373 37.62256 33.07815
#
# Velocity S-wave (km/s) = 3.55576 4.08298 3.82846
# Velocity P-wave (km/s) = 6.06053 7.04589 6.57170
#
# Compressibility (1/GPa) = 0.02229789
#
# Stress axis : x y z
#
# Youngs Moduli (GPa) = 156.99773 127.83314 54.19377
#
# Poissons Ratio (x) = 0.23635 0.05982
# Poissons Ratio (y) = 0.29027 0.12034
# Poissons Ratio (z) = 0.17330 0.28387
#
# Static dielectric constant tensor:
#      x y z
#    x 1.872560 0.013070 0.038450 
#    y 0.013070 1.995710 -0.023170 
#    z 0.038450 -0.023170 1.897430 
# 
# From -- ./inp_files/547362.got.cif
#   From: 2010.05.17/outbox.cif.g08.bks.cpg/sg2_274_cif.got.tgz:547362.got - 2010.06.03 11:33:40.
