data_PCOD9111389
_publ_section_title
;
Structure prediction by ZEFSAII (Michael W. Deem and Ramdas Pophale) SiO2 
 PCOD9111389
Probable space group: P -1
;
_chemical_formula_sum "Si O2"
_cell_formula_units_Z 16
_cell_length_a 10.128154
_cell_length_b 6.986474
_cell_length_c 13.370825
_cell_angle_alpha 82.414641
_cell_angle_beta 54.926801
_cell_angle_gamma 85.871821
_cell_volume 767.538212
_symmetry_space_group_name_H-M "P -1"
_symmetry_group_IT_number 2
_symmetry_cell_setting 'triclinic'
loop_
_space_group_symop_operation_xyz
x,y,z
-x,-y,-z
loop_
_atom_site_type_symbol
_atom_site_label
_atom_site_fract_x
_atom_site_fract_y
_atom_site_fract_z
Si Si1 0.132659 0.626840 0.245337
Si Si2 0.774328 0.857116 0.148010
Si Si3 0.152618 0.775755 0.013411
Si Si4 0.333542 0.570713 0.771720
Si Si5 0.675666 0.932176 0.399065
Si Si6 0.303958 0.449559 0.366641
Si Si7 0.224864 0.522542 0.602977
Si Si8 0.927659 0.897203 0.443711
O O1 0.197805 0.676513 0.104448
O O2 0.257915 0.540861 0.274966
O O3 0.969683 0.496010 0.313115
O O4 0.063806 0.818691 0.315280
O O5 0.672825 0.662273 0.194349
O O6 0.716192 0.971912 0.263658
O O7 0.958436 0.792138 0.093507
O O8 0.778903 0.007351 0.044943
O O9 0.214245 0.656470 0.899927
O O10 0.517070 0.633936 0.705260
O O11 0.283299 0.611279 0.675877
O O12 0.702474 0.698219 0.408486
O O13 0.803770 0.010951 0.418887
O O14 0.500000 0.000000 0.500000
O O15 0.286967 0.589165 0.462198
O O16 0.169935 0.286466 0.457502
O O17 0.000000 0.000000 0.500000
#
# Coordination Sequence:
#
# PCOD9111389 Si02
#       8
#     2   2   2   2   2   2   2   2
#     4  10  20  43  59  86 127 165 206 254 298 387
#     4  10  22  41  61  96 124 163 211 261 306 368
#     4  11  22  41  66  87 132 166 217 250 302 379
#     4  11  22  40  67  95 123 165 207 260 321 362
#     4   9  18  35  62  90 128 148 198 271 315 355
#     4  10  22  40  61  91 128 156 203 266 315 363
#     4   9  19  38  63  93 120 158 210 253 319 375
#     4  10  21  40  60  91 122 162 204 248 319 379
#
# _framework density 20.845866000000001
#
# number of rings (size 3 to 8) (size 9 to 14) (size 15 to 20)
#    0.000    2.250    3.750    2.250    3.500    2.500 
#    6.750    0.625    0.000    0.000    0.000    0.000 
#    0.000    0.000    0.000    0.000    0.000    0.000 
#
# Total GULP energy -89354.880276 kJ/mol
# GULP energy per Si atom -5584.680017 kJ/mol
# Density = 2.079842 g / cm^3
# Si number density = 20.845866 Si / 1000 Ang^3
#
#
#
# Elastic Constant Matrix: (Units=GPa)
#
#
# Indices 1 2 3 4 5 6 
#
# 1 113.5015 17.7905 56.9441 18.2289 23.4390 -7.7667
# 2 17.7905 41.5598 22.5355 9.5500 5.2033 7.9848
# 3 56.9441 22.5355 138.1167 16.4995 20.1744 -3.6199
# 4 18.2289 9.5500 16.4995 37.0870 -10.8247 9.0173
# 5 23.4390 5.2033 20.1744 -10.8247 34.9502 -4.3024
# 6 -7.7667 7.9848 -3.6199 9.0173 -4.3024 19.1284
#
#
#
# Elastic Compliance Matrix: (Units=1/GPa)
#
#
# Indices 1 2 3 4 5 6 
#
# 1 0.015197 -0.003133 -0.002693 -0.010853 -0.010331 0.009762
# 2 -0.003133 0.030931 -0.003423 -0.002269 -0.003008 -0.014438
# 3 -0.002693 -0.003423 0.010194 -0.004470 -0.004541 0.003351
# 4 -0.010853 -0.002269 -0.004470 0.046453 0.021967 -0.021263
# 5 -0.010331 -0.003008 -0.004541 0.021967 0.044914 -0.004051
# 6 0.009762 -0.014438 0.003351 -0.021263 -0.004051 0.072015
#
#
# Mechanical properties :
#
#
# Convention : Reuss Voigt Hill
#
# Bulk Modulus (GPa) = 26.43822 54.19090 40.31456
# Shear Modulus (GPa) = 19.93535 31.29364 25.61450
#
# Velocity S-wave (km/s) = 3.09580 3.87872 3.50917
# Velocity P-wave (km/s) = 5.04865 6.79056 5.98334
#
# Compressibility (1/GPa) = 0.03782402
#
# Stress axis : x y z
#
# Youngs Moduli (GPa) = 65.80204 32.32984 98.09559
#
# Poissons Ratio (x) = 0.10130 0.26417
# Poissons Ratio (y) = 0.20617 0.33578
# Poissons Ratio (z) = 0.17720 0.11066
#
# Static dielectric constant tensor:
#      x y z
#    x 1.748190 -0.009810 0.025580 
#    y -0.009810 1.867270 -0.019160 
#    z 0.025580 -0.019160 1.740630 
# 
# From -- ./inp_files/379058.got.cif
#   From: 2010.05.17/outbox.cif.g08.bks.cpg/sg2_190_cif.got.tgz:379058.got - 2010.06.03 11:33:40.
