data_PCOD9111628
_publ_section_title
;
Structure prediction by ZEFSAII (Michael W. Deem and Ramdas Pophale) SiO2 
 PCOD9111628
Probable space group: P -1
;
_chemical_formula_sum "Si O2"
_cell_formula_units_Z 15
_cell_length_a 15.445755
_cell_length_b 12.243065
_cell_length_c 9.566457
_cell_angle_alpha 65.541281
_cell_angle_beta 132.416406
_cell_angle_gamma 151.724715
_cell_volume 542.433595
_symmetry_space_group_name_H-M "P -1"
_symmetry_group_IT_number 2
_symmetry_cell_setting 'triclinic'
loop_
_space_group_symop_operation_xyz
x,y,z
-x,-y,-z
loop_
_atom_site_type_symbol
_atom_site_label
_atom_site_fract_x
_atom_site_fract_y
_atom_site_fract_z
Si Si1 0.634340 0.291204 0.153940
Si Si2 0.683976 0.582711 0.504076
Si Si3 0.437692 0.531554 0.038442
Si Si4 0.010781 0.332616 0.391364
Si Si5 0.000000 0.500000 0.000000
Si Si6 0.079274 0.667850 0.233764
Si Si7 0.117544 0.058466 0.241890
Si Si8 0.564200 0.958200 0.307715
O O1 0.803047 0.452872 0.393604
O O2 0.558551 0.086005 0.167204
O O3 0.819393 0.481519 0.119009
O O4 0.443632 0.228931 0.981342
O O5 0.558866 0.578430 0.280174
O O6 0.850515 0.645728 0.555433
O O7 0.411149 0.274241 0.428633
O O8 0.847852 0.799659 0.688018
O O9 0.500000 0.500000 0.000000
O O10 0.119953 0.248551 0.820569
O O11 0.004548 0.453967 0.229725
O O12 0.743686 0.057369 0.331836
O O13 0.181868 0.778592 0.131870
O O14 0.264990 0.656925 0.172432
O O15 0.287508 0.889432 0.462426
O O16 0.000000 0.000000 0.000000
#
# Coordination Sequence:
#
# PCOD9111628 Si02
#       8
#     2   2   2   2   1   2   2   2
#     4   9  19  42  64  91 129 175 213 264 322 379
#     4  10  20  43  67  95 129 171 218 275 325 375
#     4  11  21  40  65  99 128 170 224 265 318 391
#     4   9  18  41  68  92 124 172 214 263 327 388
#     4  12  22  42  60 104 128 160 218 262 332 394
#     4   9  21  42  62  91 127 167 211 262 325 389
#     4   9  22  43  63  90 131 174 222 268 319 381
#     4   9  21  42  69  90 134 165 210 271 323 395
#
# _framework density 27.653155999999999
#
# number of rings (size 3 to 8) (size 9 to 14) (size 15 to 20)
#    0.000    2.400    1.333    2.000    0.000    2.667 
#   21.600    1.333    0.000    0.000    0.000    0.000 
#    0.000    0.000    0.000    0.000    0.000    0.000 
#
# Total GULP energy -83673.118674 kJ/mol
# GULP energy per Si atom -5578.207912 kJ/mol
# Density = 2.759022 g / cm^3
# Si number density = 27.653156 Si / 1000 Ang^3
#
#
#
# Elastic Constant Matrix: (Units=GPa)
#
#
# Indices 1 2 3 4 5 6 
#
# 1 239.7525 28.0232 67.1626 24.1478 -10.9701 2.4460
# 2 28.0232 46.1863 23.7329 4.2122 6.9624 3.5287
# 3 67.1626 23.7329 130.6374 28.8597 -13.9803 -2.5326
# 4 24.1478 4.2122 28.8597 39.7521 1.4811 9.8302
# 5 -10.9701 6.9624 -13.9803 1.4811 69.1539 8.0770
# 6 2.4460 3.5287 -2.5326 9.8302 8.0770 36.0096
#
#
#
# Elastic Compliance Matrix: (Units=1/GPa)
#
#
# Indices 1 2 3 4 5 6 
#
# 1 0.005122 -0.002133 -0.001820 -0.001593 0.000692 0.000013
# 2 -0.002133 0.025827 -0.004633 0.002710 -0.003625 -0.002639
# 3 -0.001820 -0.004633 0.011385 -0.007473 0.002301 0.002902
# 4 -0.001593 0.002710 -0.007473 0.033674 -0.001647 -0.009506
# 5 0.000692 -0.003625 0.002301 -0.001647 0.015741 -0.002611
# 6 0.000013 -0.002639 0.002902 -0.009506 -0.002611 0.031413
#
#
# Mechanical properties :
#
#
# Convention : Reuss Voigt Hill
#
# Bulk Modulus (GPa) = 39.74060 72.71262 56.22661
# Shear Modulus (GPa) = 33.62003 48.82696 41.22350
#
# Velocity S-wave (km/s) = 3.49058 4.20657 3.86519
# Velocity P-wave (km/s) = 5.53605 7.06720 6.34796
#
# Compressibility (1/GPa) = 0.02516318
#
# Stress axis : x y z
#
# Youngs Moduli (GPa) = 195.23713 38.71880 87.83270
#
# Poissons Ratio (x) = 0.08258 0.15981
# Poissons Ratio (y) = 0.41639 0.40696
# Poissons Ratio (z) = 0.35524 0.17940
#
# Static dielectric constant tensor:
#      x y z
#    x 3.418090 1.416920 -0.830740 
#    y 1.416920 3.957500 -0.952160 
#    z -0.830740 -0.952160 2.807100 
# 
# From -- ./inp_files/450156.got.cif
#   From: 2010.05.17/outbox.cif.g08.bks.cpg/sg2_226_cif.got.tgz:450156.got - 2010.06.03 11:33:40.
