data_PCOD9111983
_publ_section_title
;
Structure prediction by ZEFSAII (Michael W. Deem and Ramdas Pophale) SiO2 
 PCOD9111983
Probable space group: P -1
;
_chemical_formula_sum "Si O2"
_cell_formula_units_Z 13
_cell_length_a 12.054933
_cell_length_b 8.965724
_cell_length_c 5.734580
_cell_angle_alpha 116.179164
_cell_angle_beta 72.516620
_cell_angle_gamma 81.749651
_cell_volume 502.180378
_symmetry_space_group_name_H-M "P -1"
_symmetry_group_IT_number 2
_symmetry_cell_setting 'triclinic'
loop_
_space_group_symop_operation_xyz
x,y,z
-x,-y,-z
loop_
_atom_site_type_symbol
_atom_site_label
_atom_site_fract_x
_atom_site_fract_y
_atom_site_fract_z
Si Si1 0.910306 0.189331 0.767586
Si Si2 0.739230 0.453712 0.347236
Si Si3 0.581633 0.728202 0.309264
Si Si4 0.922376 0.652204 0.489469
Si Si5 0.325002 0.749255 0.363704
Si Si6 0.266155 0.083978 0.950586
Si Si7 0.500000 0.000000 0.000000
O O1 0.783551 0.229611 0.733362
O O2 0.990026 0.314141 0.737034
O O3 0.848544 0.269246 0.106527
O O4 0.000000 0.000000 0.500000
O O5 0.641584 0.540276 0.264906
O O6 0.807646 0.597106 0.437539
O O7 0.669403 0.415482 0.588210
O O8 0.466541 0.736764 0.217821
O O9 0.680562 0.780366 0.127058
O O10 0.532773 0.870054 0.647073
O O11 0.000000 0.500000 0.500000
O O12 0.867659 0.823857 0.801439
O O13 0.276462 0.927036 0.665531
O O14 0.356350 0.020279 0.068724
#
# Coordination Sequence:
#
# PCOD9111983 Si02
#       7
#     2   2   2   2   2   2   1
#     4  12  29  46  71 103 142 189 232 285 343 420
#     4  12  26  47  71 105 139 186 231 290 353 399
#     4  11  25  44  77 104 138 182 234 290 347 416
#     4  12  25  47  72  99 142 185 235 287 340 418
#     4  11  26  46  67 107 140 181 228 292 346 413
#     4  11  25  44  74 102 139 185 234 283 350 410
#     4  10  20  44  66 104 136 174 230 280 348 396
#
# _framework density 25.887111000000001
#
# number of rings (size 3 to 8) (size 9 to 14) (size 15 to 20)
#    0.000    0.615    3.077    4.615    4.308    8.000 
#    0.000    0.000    0.000    0.000    0.000    0.000 
#    0.000    0.000    0.000    0.000    0.000    0.000 
#
# Total GULP energy -72536.205666 kJ/mol
# GULP energy per Si atom -5579.708128 kJ/mol
# Density = 2.582819 g / cm^3
# Si number density = 25.887111 Si / 1000 Ang^3
#
#
#
# Elastic Constant Matrix: (Units=GPa)
#
#
# Indices 1 2 3 4 5 6 
#
# 1 94.7843 7.5390 11.4774 4.4365 -3.1323 -6.6520
# 2 7.5390 63.3323 -1.3304 -0.7873 -12.0466 7.0198
# 3 11.4774 -1.3304 100.8162 23.0196 -25.2740 -0.3654
# 4 4.4365 -0.7873 23.0196 40.1294 5.3019 -11.6958
# 5 -3.1323 -12.0466 -25.2740 5.3019 37.1281 2.6915
# 6 -6.6520 7.0198 -0.3654 -11.6958 2.6915 42.9488
#
#
#
# Elastic Compliance Matrix: (Units=1/GPa)
#
#
# Indices 1 2 3 4 5 6 
#
# 1 0.010983 -0.001754 -0.001599 0.000419 -0.000946 0.002148
# 2 -0.001754 0.018350 0.003737 -0.004275 0.009321 -0.004987
# 3 -0.001599 0.003737 0.016720 -0.012767 0.014653 -0.005111
# 4 0.000419 -0.004275 -0.012767 0.037751 -0.016300 0.011957
# 5 -0.000946 0.009321 0.014653 -0.016300 0.042809 -0.008667
# 6 0.002148 -0.004987 -0.005111 0.011957 -0.008667 0.028187
#
#
# Mechanical properties :
#
#
# Convention : Reuss Voigt Hill
#
# Bulk Modulus (GPa) = 21.35788 32.70053 27.02920
# Shear Modulus (GPa) = 29.47430 40.12440 34.79935
#
# Velocity S-wave (km/s) = 3.37793 3.94124 3.67041
# Velocity P-wave (km/s) = 4.84584 5.77673 5.33164
#
# Compressibility (1/GPa) = 0.04682113
#
# Stress axis : x y z
#
# Youngs Moduli (GPa) = 91.04830 54.49685 59.80739
#
# Poissons Ratio (x) = 0.09558 0.09562
# Poissons Ratio (y) = 0.15968 -0.22347
# Poissons Ratio (z) = 0.14556 -0.20363
#
# Static dielectric constant tensor:
#      x y z
#    x 2.003610 -0.126010 0.069660 
#    y -0.126010 2.380930 -0.147710 
#    z 0.069660 -0.147710 2.200060 
# 
# From -- ./inp_files/21941.got.cif
#   From: 2010.05.17/outbox.cif.g08.bks.cpg/sg2_11_cif.got.tgz:21941.got - 2010.06.03 11:33:40.
