data_PCOD9111590
_publ_section_title
;
Structure prediction by ZEFSAII (Michael W. Deem and Ramdas Pophale) SiO2 
 PCOD9111590
Probable space group: P -1
;
_chemical_formula_sum "Si O2"
_cell_formula_units_Z 16
_cell_length_a 10.514438
_cell_length_b 11.535509
_cell_length_c 12.007958
_cell_angle_alpha 69.257161
_cell_angle_beta 95.016087
_cell_angle_gamma 39.841444
_cell_volume 698.198981
_symmetry_space_group_name_H-M "P -1"
_symmetry_group_IT_number 2
_symmetry_cell_setting 'triclinic'
loop_
_space_group_symop_operation_xyz
x,y,z
-x,-y,-z
loop_
_atom_site_type_symbol
_atom_site_label
_atom_site_fract_x
_atom_site_fract_y
_atom_site_fract_z
Si Si1 0.035982 0.485625 0.376214
Si Si2 0.518257 0.199348 0.586274
Si Si3 0.797973 0.948239 0.905453
Si Si4 0.298149 0.004341 0.877073
Si Si5 0.327135 0.601109 0.570652
Si Si6 0.979071 0.276025 0.313048
Si Si7 0.133582 0.833157 0.253574
Si Si8 0.822033 0.528366 0.984793
O O1 0.312864 0.308502 0.456529
O O2 0.014314 0.373977 0.350518
O O3 0.000000 0.500000 0.500000
O O4 0.839824 0.749967 0.229485
O O5 0.399167 0.416495 0.567437
O O6 0.633100 0.033644 0.760734
O O7 0.758580 0.006789 0.592991
O O8 0.056120 0.659251 0.037029
O O9 0.636181 0.070102 0.962511
O O10 0.876083 0.023078 0.851832
O O11 0.094976 0.065337 0.821994
O O12 0.532163 0.801142 0.881029
O O13 0.593140 0.441163 0.671040
O O14 0.192653 0.670764 0.646748
O O15 0.161615 0.811849 0.397207
O O16 0.869557 0.408635 0.141100
O O17 0.000000 0.500000 0.000000
#
# Coordination Sequence:
#
# PCOD9111590 Si02
#       8
#     2   2   2   2   2   2   2   2
#     4  12  24  40  67  96 131 169 216 271 323 383
#     4  10  21  42  64  95 130 166 216 265 323 376
#     4  10  24  44  69  93 131 174 213 268 321 385
#     4  12  25  43  67  97 129 175 216 264 325 382
#     4  10  20  43  66  98 130 168 213 269 332 373
#     4  11  23  41  67  95 130 174 214 267 326 386
#     4  10  21  42  70  92 132 169 216 272 316 383
#     4  11  26  44  65  97 133 173 216 263 324 390
#
# _framework density 22.916101999999999
#
# number of rings (size 3 to 8) (size 9 to 14) (size 15 to 20)
#    0.000    1.250    2.500    3.000    3.500    1.500 
#    6.750   13.750    0.000    0.000    0.000    0.000 
#    0.000    0.000    0.000    0.000    0.000    0.000 
#
# Total GULP energy -89335.660507 kJ/mol
# GULP energy per Si atom -5583.478782 kJ/mol
# Density = 2.286394 g / cm^3
# Si number density = 22.916102 Si / 1000 Ang^3
#
#
#
# Elastic Constant Matrix: (Units=GPa)
#
#
# Indices 1 2 3 4 5 6 
#
# 1 71.6327 22.6347 13.0732 -14.4305 -5.5135 -19.8394
# 2 22.6347 103.8612 17.3591 -21.3080 -10.5391 -24.0125
# 3 13.0732 17.3591 51.1114 -10.4045 -10.6052 -11.0087
# 4 -14.4305 -21.3080 -10.4045 27.0806 -10.4898 -0.0437
# 5 -5.5135 -10.5391 -10.6052 -10.4898 39.7792 1.1491
# 6 -19.8394 -24.0125 -11.0087 -0.0437 1.1491 48.0158
#
#
#
# Elastic Compliance Matrix: (Units=1/GPa)
#
#
# Indices 1 2 3 4 5 6 
#
# 1 0.019142 0.001236 0.000767 0.014055 0.006644 0.008557
# 2 0.001236 0.015372 0.001504 0.016764 0.008824 0.008347
# 3 0.000767 0.001504 0.025948 0.016007 0.011448 0.006759
# 4 0.014055 0.016764 0.016007 0.075424 0.030049 0.017210
# 5 0.006644 0.008824 0.011448 0.030049 0.039117 0.008874
# 6 0.008557 0.008347 0.006759 0.017210 0.008874 0.029889
#
#
# Mechanical properties :
#
#
# Convention : Reuss Voigt Hill
#
# Bulk Modulus (GPa) = 14.81988 36.97103 25.89545
# Shear Modulus (GPa) = 22.68909 34.54435 28.61672
#
# Velocity S-wave (km/s) = 3.14999 3.88677 3.53761
# Velocity P-wave (km/s) = 4.43970 6.02585 5.29253
#
# Compressibility (1/GPa) = 0.06747694
#
# Stress axis : x y z
#
# Youngs Moduli (GPa) = 52.24004 65.05392 38.53907
#
# Poissons Ratio (x) = -0.08043 -0.02955
# Poissons Ratio (y) = -0.06458 -0.05798
# Poissons Ratio (z) = -0.04006 -0.09786
#
# Static dielectric constant tensor:
#      x y z
#    x 1.978970 0.007290 -0.007500 
#    y 0.007290 1.870930 -0.030930 
#    z -0.007500 -0.030930 1.919540 
# 
# From -- ./inp_files/433815.got.cif
#   From: 2010.05.17/outbox.cif.g08.bks.cpg/sg2_217_cif.got.tgz:433815.got - 2010.06.03 11:33:40.
