data_PCOD9111329
_publ_section_title
;
Structure prediction by ZEFSAII (Michael W. Deem and Ramdas Pophale) SiO2 
 PCOD9111329
Probable space group: P -1
;
_chemical_formula_sum "Si O2"
_cell_formula_units_Z 16
_cell_length_a 8.144476
_cell_length_b 12.730366
_cell_length_c 11.712864
_cell_angle_alpha 137.061221
_cell_angle_beta 57.682352
_cell_angle_gamma 103.287861
_cell_volume 671.044975
_symmetry_space_group_name_H-M "P -1"
_symmetry_group_IT_number 2
_symmetry_cell_setting 'triclinic'
loop_
_space_group_symop_operation_xyz
x,y,z
-x,-y,-z
loop_
_atom_site_type_symbol
_atom_site_label
_atom_site_fract_x
_atom_site_fract_y
_atom_site_fract_z
Si Si1 0.785234 0.633752 0.171297
Si Si2 0.138370 0.918737 0.493729
Si Si3 0.787210 0.085724 0.886459
Si Si4 0.400474 0.171178 0.813075
Si Si5 0.198198 0.376635 0.374614
Si Si6 0.786773 0.965815 0.023407
Si Si7 0.828332 0.765582 0.499567
Si Si8 0.534181 0.397994 0.115281
O O1 0.754125 0.747881 0.164555
O O2 0.614163 0.541108 0.156932
O O3 0.972031 0.986759 0.278793
O O4 0.000000 0.500000 0.000000
O O5 0.372283 0.901613 0.379511
O O6 0.069362 0.755103 0.397555
O O7 0.000000 0.000000 0.500000
O O8 0.242365 0.263434 0.621258
O O9 0.706751 0.092608 0.050406
O O10 0.716225 0.250532 0.976842
O O11 0.721356 0.945050 0.730452
O O12 0.328724 0.052859 0.832087
O O13 0.424864 0.320201 0.998866
O O14 0.199076 0.203149 0.182040
O O15 0.382437 0.436415 0.307905
O O16 0.000000 0.500000 0.500000
O O17 0.200922 0.357925 0.494183
O O18 0.000000 0.000000 0.000000
#
# Coordination Sequence:
#
# PCOD9111329 Si02
#       8
#     2   2   2   2   2   2   2   2
#     4  12  28  41  70 105 145 185 238 293 347 420
#     4  10  20  42  72  98 137 182 230 285 355 420
#     4   9  22  45  73  95 143 181 234 284 364 408
#     4  11  24  44  71 103 141 189 234 287 363 420
#     4  10  24  44  71  98 140 188 233 287 358 424
#     4  10  24  44  73 104 138 181 239 300 344 424
#     4   9  23  43  68  98 139 186 225 296 347 412
#     4  11  24  44  74 102 136 193 234 287 358 431
#
# _framework density 23.843411
#
# number of rings (size 3 to 8) (size 9 to 14) (size 15 to 20)
#    0.750    1.000    1.250    1.125    7.000    6.000 
#    0.000   11.875    0.000    0.000    0.000    0.000 
#    0.000    0.000    0.000    0.000    0.000    0.000 
#
# Total GULP energy -89384.068749 kJ/mol
# GULP energy per Si atom -5586.504297 kJ/mol
# Density = 2.378914 g / cm^3
# Si number density = 23.843411 Si / 1000 Ang^3
#
#
#
# Elastic Constant Matrix: (Units=GPa)
#
#
# Indices 1 2 3 4 5 6 
#
# 1 96.3390 47.0492 20.2963 -18.7875 6.3715 -8.3187
# 2 47.0492 149.1343 37.2227 -34.2680 3.2150 -4.1258
# 3 20.2963 37.2227 55.3840 -22.9669 -12.2430 -11.5112
# 4 -18.7875 -34.2680 -22.9669 39.9921 4.2815 -0.5951
# 5 6.3715 3.2150 -12.2430 4.2815 28.1000 -2.9519
# 6 -8.3187 -4.1258 -11.5112 -0.5951 -2.9519 51.2611
#
#
#
# Elastic Compliance Matrix: (Units=1/GPa)
#
#
# Indices 1 2 3 4 5 6 
#
# 1 0.013172 -0.002771 -0.002423 0.002872 -0.004040 0.001171
# 2 -0.002771 0.009878 -0.004465 0.004937 -0.003282 -0.000789
# 3 -0.002423 -0.004465 0.031296 0.011651 0.013677 0.007198
# 4 0.002872 0.004937 0.011651 0.037488 -0.001449 0.003832
# 5 -0.004040 -0.003282 0.013677 -0.001449 0.043546 0.004642
# 6 0.001171 -0.000789 0.007198 0.003832 0.004642 0.021563
#
#
# Mechanical properties :
#
#
# Convention : Reuss Voigt Hill
#
# Bulk Modulus (GPa) = 28.55058 56.66595 42.60827
# Shear Modulus (GPa) = 26.60466 36.95659 31.78063
#
# Velocity S-wave (km/s) = 3.34399 3.94124 3.65484
# Velocity P-wave (km/s) = 5.18748 6.67298 5.97656
#
# Compressibility (1/GPa) = 0.03502556
#
# Stress axis : x y z
#
# Youngs Moduli (GPa) = 75.91646 101.23957 31.95334
#
# Poissons Ratio (x) = 0.28058 0.07744
# Poissons Ratio (y) = 0.21040 0.14267
# Poissons Ratio (z) = 0.18398 0.45204
#
# Static dielectric constant tensor:
#      x y z
#    x 1.983270 0.032140 -0.061770 
#    y 0.032140 1.947660 -0.076740 
#    z -0.061770 -0.076740 2.028080 
# 
# From -- ./inp_files/499371.got.cif
#   From: 2010.05.17/outbox.cif.g08.bks.cpg/sg2_250_cif.got.tgz:499371.got - 2010.06.03 11:33:40.
