data_PCOD9111669
_publ_section_title
;
Structure prediction by ZEFSAII (Michael W. Deem and Ramdas Pophale) SiO2 
 PCOD9111669
Probable space group: P -1
;
_chemical_formula_sum "Si O2"
_cell_formula_units_Z 16
_cell_length_a 7.797443
_cell_length_b 15.371613
_cell_length_c 13.222525
_cell_angle_alpha 121.318258
_cell_angle_beta 36.647701
_cell_angle_gamma 119.962699
_cell_volume 797.525203
_symmetry_space_group_name_H-M "P -1"
_symmetry_group_IT_number 2
_symmetry_cell_setting 'triclinic'
loop_
_space_group_symop_operation_xyz
x,y,z
-x,-y,-z
loop_
_atom_site_type_symbol
_atom_site_label
_atom_site_fract_x
_atom_site_fract_y
_atom_site_fract_z
Si Si1 0.255848 0.069242 0.758989
Si Si2 0.389137 0.275084 0.212820
Si Si3 0.375108 0.592150 0.168622
Si Si4 0.495541 0.671142 0.375596
Si Si5 0.167235 0.856671 0.584106
Si Si6 0.923661 0.196188 0.838304
Si Si7 0.714561 0.520636 0.505040
Si Si8 0.440219 0.206641 0.931944
O O1 0.598552 0.094743 0.581331
O O2 0.238237 0.126979 0.908056
O O3 0.076045 0.118829 0.786941
O O4 0.157944 0.947320 0.724090
O O5 0.365267 0.386864 0.332338
O O6 0.154538 0.190682 0.329812
O O7 0.718431 0.252244 0.043111
O O8 0.302120 0.255696 0.123898
O O9 0.532633 0.622554 0.218649
O O10 0.421393 0.695768 0.142334
O O11 0.039904 0.554827 0.332298
O O12 0.500000 0.500000 0.000000
O O13 0.304695 0.761093 0.504583
O O14 0.331785 0.583429 0.471150
O O15 0.818456 0.723807 0.286021
O O16 0.693656 0.153832 0.834085
O O17 0.500000 0.500000 0.500000
#
# Coordination Sequence:
#
# PCOD9111669 Si02
#       8
#     2   2   2   2   2   2   2   2
#     4  10  20  43  68  91 125 175 218 260 332 368
#     4  10  23  41  62  92 131 168 213 267 316 382
#     4  12  24  38  67  92 124 174 211 258 324 384
#     4  11  22  43  62  90 130 169 216 256 320 385
#     4  10  21  40  67  90 127 171 213 276 312 382
#     4   9  22  39  64  91 127 165 215 262 309 382
#     4  12  26  40  61  96 132 167 213 265 321 382
#     4  10  21  40  66  91 131 164 215 262 317 378
#
# _framework density 20.062062999999998
#
# number of rings (size 3 to 8) (size 9 to 14) (size 15 to 20)
#    0.750    0.750    3.750    1.875    3.500    1.500 
#    0.000    6.875    0.000    0.000    0.000    0.000 
#    0.000    0.000    0.000    0.000    0.000    0.000 
#
# Total GULP energy -89239.434654 kJ/mol
# GULP energy per Si atom -5577.464666 kJ/mol
# Density = 2.001640 g / cm^3
# Si number density = 20.062063 Si / 1000 Ang^3
#
#
#
# Elastic Constant Matrix: (Units=GPa)
#
#
# Indices 1 2 3 4 5 6 
#
# 1 60.4825 11.7747 -10.9042 16.0429 21.0207 3.4160
# 2 11.7747 101.2281 24.4981 20.6834 14.2390 16.4210
# 3 -10.9042 24.4981 73.1177 11.0341 -0.5241 0.3129
# 4 16.0429 20.6834 11.0341 32.4037 11.9851 6.0036
# 5 21.0207 14.2390 -0.5241 11.9851 30.4107 -3.0363
# 6 3.4160 16.4210 0.3129 6.0036 -3.0363 18.4703
#
#
#
# Elastic Compliance Matrix: (Units=1/GPa)
#
#
# Indices 1 2 3 4 5 6 
#
# 1 0.024706 0.000455 0.004620 -0.007765 -0.014643 -0.004935
# 2 0.000455 0.014704 -0.004424 -0.002856 -0.007487 -0.013384
# 3 0.004620 -0.004424 0.016930 -0.007206 0.002565 0.005556
# 4 -0.007765 -0.002856 -0.007206 0.046175 -0.012919 -0.013036
# 5 -0.014643 -0.007487 0.002565 -0.012919 0.053881 0.022377
# 6 -0.004935 -0.013384 0.005556 -0.013036 0.022377 0.074775
#
#
# Mechanical properties :
#
#
# Convention : Reuss Voigt Hill
#
# Bulk Modulus (GPa) = 17.34863 31.72949 24.53906
# Shear Modulus (GPa) = 20.07367 30.22094 25.14731
#
# Velocity S-wave (km/s) = 3.16662 3.88541 3.54429
# Velocity P-wave (km/s) = 4.69428 5.99821 5.38585
#
# Compressibility (1/GPa) = 0.05764145
#
# Stress axis : x y z
#
# Youngs Moduli (GPa) = 40.47656 68.00790 59.06692
#
# Poissons Ratio (x) = -0.03096 -0.27288
# Poissons Ratio (y) = -0.01842 0.26132
# Poissons Ratio (z) = -0.18700 0.30088
#
# Static dielectric constant tensor:
#      x y z
#    x 1.722120 0.019660 0.005470 
#    y 0.019660 1.721280 -0.027900 
#    z 0.005470 -0.027900 1.742500 
# 
# From -- ./inp_files/505445.got.cif
#   From: 2010.05.17/outbox.cif.g08.bks.cpg/sg2_253_cif.got.tgz:505445.got - 2010.06.03 11:33:40.
