data_PCOD9111246
_publ_section_title
;
Structure prediction by ZEFSAII (Michael W. Deem and Ramdas Pophale) SiO2 
 PCOD9111246
Probable space group: P -1
;
_chemical_formula_sum "Si O2"
_cell_formula_units_Z 16
_cell_length_a 8.520971
_cell_length_b 12.340485
_cell_length_c 14.159303
_cell_angle_alpha 152.169589
_cell_angle_beta 97.820790
_cell_angle_gamma 93.497824
_cell_volume 633.492255
_symmetry_space_group_name_H-M "P -1"
_symmetry_group_IT_number 2
_symmetry_cell_setting 'triclinic'
loop_
_space_group_symop_operation_xyz
x,y,z
-x,-y,-z
loop_
_atom_site_type_symbol
_atom_site_label
_atom_site_fract_x
_atom_site_fract_y
_atom_site_fract_z
Si Si1 0.130285 0.100076 0.673776
Si Si2 0.882568 0.157798 0.850821
Si Si3 0.595133 0.841762 0.936795
Si Si4 0.461581 0.482118 0.154849
Si Si5 0.705616 0.314652 0.415027
Si Si6 0.688520 0.759083 0.677738
Si Si7 0.156232 0.595641 0.305887
Si Si8 0.390366 0.690590 0.137134
O O1 0.251651 0.396116 0.904772
O O2 0.010979 0.079728 0.739003
O O3 0.214176 0.893293 0.525153
O O4 0.000000 0.000000 0.500000
O O5 0.816626 0.980707 0.798429
O O6 0.723081 0.147885 0.764846
O O7 0.978532 0.438572 0.117718
O O8 0.476873 0.601509 0.805611
O O9 0.694125 0.794045 0.818853
O O10 0.500000 0.000000 0.000000
O O11 0.712611 0.050941 0.181410
O O12 0.284708 0.481786 0.183152
O O13 0.504710 0.302211 0.944737
O O14 0.495023 0.715290 0.262702
O O15 0.730816 0.510452 0.482425
O O16 0.504653 0.265667 0.386466
O O17 0.833455 0.427629 0.599060
#
# Coordination Sequence:
#
# PCOD9111246 Si02
#       8
#     2   2   2   2   2   2   2   2
#     4  12  25  44  68  99 141 189 230 277 347 418
#     4  12  26  47  71 102 146 189 226 285 357 422
#     4  10  20  42  70  98 138 175 224 293 350 402
#     4  11  23  42  74 103 133 181 233 290 346 408
#     4  10  22  41  69 104 134 177 235 289 344 410
#     4  10  23  44  70 100 137 181 231 288 352 411
#     4  12  25  44  72 101 146 181 229 294 350 413
#     4  11  23  44  71 101 136 182 237 283 344 413
#
# _framework density 25.256820000000001
#
# number of rings (size 3 to 8) (size 9 to 14) (size 15 to 20)
#    0.000    1.000    3.750    3.375    0.000    4.000 
#    0.000    1.250    0.000    0.000    0.000    0.000 
#    0.000    0.000    0.000    0.000    0.000    0.000 
#
# Total GULP energy -89173.853731 kJ/mol
# GULP energy per Si atom -5573.365858 kJ/mol
# Density = 2.519933 g / cm^3
# Si number density = 25.256820 Si / 1000 Ang^3
#
#
#
# Elastic Constant Matrix: (Units=GPa)
#
#
# Indices 1 2 3 4 5 6 
#
# 1 50.1941 31.0321 18.8568 -1.7332 -15.9480 -0.1393
# 2 31.0321 179.9907 39.1815 -5.8385 -0.3832 9.6426
# 3 18.8568 39.1815 105.0767 -5.6426 -8.9032 11.6960
# 4 -1.7332 -5.8385 -5.6426 49.5133 -6.1374 -0.5348
# 5 -15.9480 -0.3832 -8.9032 -6.1374 22.0905 4.8556
# 6 -0.1393 9.6426 11.6960 -0.5348 4.8556 46.9371
#
#
#
# Elastic Compliance Matrix: (Units=1/GPa)
#
#
# Indices 1 2 3 4 5 6 
#
# 1 0.030710 -0.004759 -0.001570 0.003115 0.022504 -0.000832
# 2 -0.004759 0.006823 -0.001980 -0.000093 -0.004030 -0.000507
# 3 -0.001570 -0.001980 0.011313 0.001521 0.004443 -0.002859
# 4 0.003115 -0.000093 0.001521 0.021583 0.009086 -0.001045
# 5 0.022504 -0.004030 0.004443 0.009086 0.067315 -0.007072
# 6 -0.000832 -0.000507 -0.002859 -0.001045 -0.007072 0.022839
#
#
# Mechanical properties :
#
#
# Convention : Reuss Voigt Hill
#
# Bulk Modulus (GPa) = 31.02893 57.04471 44.03682
# Shear Modulus (GPa) = 26.60358 40.12094 33.36226
#
# Velocity S-wave (km/s) = 3.24901 3.98995 3.63839
# Velocity P-wave (km/s) = 5.13681 6.62277 5.92655
#
# Compressibility (1/GPa) = 0.03222799
#
# Stress axis : x y z
#
# Youngs Moduli (GPa) = 32.56233 146.56263 88.39160
#
# Poissons Ratio (x) = 0.69756 0.13875
# Poissons Ratio (y) = 0.15498 0.17503
# Poissons Ratio (z) = 0.05111 0.29022
#
# Static dielectric constant tensor:
#      x y z
#    x 2.049080 -0.031980 0.027230 
#    y -0.031980 2.016420 -0.021070 
#    z 0.027230 -0.021070 2.143880 
# 
# From -- ./inp_files/501241.got.cif
#   From: 2010.05.17/outbox.cif.g08.bks.cpg/sg2_251_cif.got.tgz:501241.got - 2010.06.03 11:33:40.
