data_PCOD9111819
_publ_section_title
;
Structure prediction by ZEFSAII (Michael W. Deem and Ramdas Pophale) SiO2 
 PCOD9111819
Probable space group: P -1
;
_chemical_formula_sum "Si O2"
_cell_formula_units_Z 15
_cell_length_a 17.620838
_cell_length_b 11.521916
_cell_length_c 8.959618
_cell_angle_alpha 111.085193
_cell_angle_beta 90.562101
_cell_angle_gamma 149.438724
_cell_volume 637.784999
_symmetry_space_group_name_H-M "P -1"
_symmetry_group_IT_number 2
_symmetry_cell_setting 'triclinic'
loop_
_space_group_symop_operation_xyz
x,y,z
-x,-y,-z
loop_
_atom_site_type_symbol
_atom_site_label
_atom_site_fract_x
_atom_site_fract_y
_atom_site_fract_z
Si Si1 0.938189 0.588802 0.397894
Si Si2 0.326769 0.986889 0.274920
Si Si3 0.951121 0.360320 0.166335
Si Si4 0.417044 0.317921 0.758660
Si Si5 0.500000 0.500000 0.500000
Si Si6 0.663725 0.252636 0.991025
Si Si7 0.706940 0.535165 0.897394
Si Si8 0.928032 0.717695 0.739757
O O1 0.844132 0.529918 0.499237
O O2 0.875939 0.348549 0.278843
O O3 0.875457 0.546329 0.215356
O O4 0.175911 0.957040 0.597899
O O5 0.173287 0.743529 0.297425
O O6 0.375938 0.922770 0.199707
O O7 0.505299 0.356448 0.455493
O O8 0.187361 0.836751 0.072665
O O9 0.969639 0.246564 0.161982
O O10 0.470208 0.465737 0.670646
O O11 0.518368 0.335837 0.768712
O O12 0.500000 0.500000 0.000000
O O13 0.667895 0.387085 0.967436
O O14 0.500000 0.000000 0.000000
O O15 0.766111 0.535709 0.760611
O O16 0.898826 0.915971 0.110171
#
# Coordination Sequence:
#
# PCOD9111819 Si02
#       8
#     2   2   2   2   1   2   2   2
#     4  11  25  47  76 110 146 208 261 316 390 470
#     4  10  22  41  72 106 143 197 257 311 377 473
#     4  10  20  43  71 104 144 193 262 310 376 461
#     4  12  27  49  77 119 154 202 271 328 377 485
#     4  12  26  46  78 110 154 206 254 322 400 438
#     4  11  27  49  74 108 157 207 254 328 395 470
#     4  11  26  46  74 112 160 195 257 328 398 456
#     4  11  23  43  72 109 149 198 248 327 390 456
#
# _framework density 23.518896000000002
#
# number of rings (size 3 to 8) (size 9 to 14) (size 15 to 20)
#    0.000    1.067    4.000    1.200    1.867    5.867 
#    0.000    2.000    0.000    0.000    0.000    0.000 
#    0.000    0.000    0.000    0.000    0.000    0.000 
#
# Total GULP energy -83651.376953 kJ/mol
# GULP energy per Si atom -5576.758464 kJ/mol
# Density = 2.346537 g / cm^3
# Si number density = 23.518896 Si / 1000 Ang^3
#
#
#
# Elastic Constant Matrix: (Units=GPa)
#
#
# Indices 1 2 3 4 5 6 
#
# 1 155.3217 66.4610 40.4362 -14.3888 -6.5841 -16.4027
# 2 66.4610 111.7467 31.7115 -20.3040 1.5652 -16.8779
# 3 40.4362 31.7115 67.5691 -22.0349 -3.1856 9.9849
# 4 -14.3888 -20.3040 -22.0349 33.7587 11.9284 1.5226
# 5 -6.5841 1.5652 -3.1856 11.9284 45.9115 -8.9564
# 6 -16.4027 -16.8779 9.9849 1.5226 -8.9564 53.5885
#
#
#
# Elastic Compliance Matrix: (Units=1/GPa)
#
#
# Indices 1 2 3 4 5 6 
#
# 1 0.009847 -0.004525 -0.005023 -0.002840 0.002547 0.003031
# 2 -0.004525 0.013809 -0.002577 0.005305 -0.002103 0.002942
# 3 -0.005023 -0.002577 0.024652 0.014244 -0.004193 -0.008048
# 4 -0.002840 0.005305 0.014244 0.045535 -0.012450 -0.005227
# 5 0.002547 -0.002103 -0.004193 -0.012450 0.026262 0.005642
# 6 0.003031 0.002942 -0.008048 -0.005227 0.005642 0.023106
#
#
# Mechanical properties :
#
#
# Convention : Reuss Voigt Hill
#
# Bulk Modulus (GPa) = 41.56599 67.98389 54.77494
# Shear Modulus (GPa) = 28.49314 39.72032 34.10673
#
# Velocity S-wave (km/s) = 3.48444 4.11404 3.81226
# Velocity P-wave (km/s) = 5.82239 7.17885 6.53591
#
# Compressibility (1/GPa) = 0.02405813
#
# Stress axis : x y z
#
# Youngs Moduli (GPa) = 101.55180 72.41672 40.56461
#
# Poissons Ratio (x) = 0.32768 0.20377
# Poissons Ratio (y) = 0.45951 0.10453
# Poissons Ratio (z) = 0.51013 0.18660
#
# Static dielectric constant tensor:
#      x y z
#    x 1.868430 0.052930 -0.011890 
#    y 0.052930 1.923440 -0.002270 
#    z -0.011890 -0.002270 1.994710 
# 
# From -- ./inp_files/332266.got.cif
#   From: 2010.05.17/outbox.cif.g08.bks.cpg/sg2_167_cif.got.tgz:332266.got - 2010.06.03 11:33:40.
