data_PCOD9111796
_publ_section_title
;
Structure prediction by ZEFSAII (Michael W. Deem and Ramdas Pophale) SiO2 
 PCOD9111796
Probable space group: P -1
;
_chemical_formula_sum "Si O2"
_cell_formula_units_Z 14
_cell_length_a 9.571068
_cell_length_b 16.386869
_cell_length_c 13.387011
_cell_angle_alpha 155.037903
_cell_angle_beta 35.077478
_cell_angle_gamma 136.971847
_cell_volume 508.698579
_symmetry_space_group_name_H-M "P -1"
_symmetry_group_IT_number 2
_symmetry_cell_setting 'triclinic'
loop_
_space_group_symop_operation_xyz
x,y,z
-x,-y,-z
loop_
_atom_site_type_symbol
_atom_site_label
_atom_site_fract_x
_atom_site_fract_y
_atom_site_fract_z
Si Si1 0.303695 0.746146 0.469766
Si Si2 0.423004 0.258868 0.404827
Si Si3 0.987192 0.237723 0.781201
Si Si4 0.452944 0.183676 0.080759
Si Si5 0.592881 0.837845 0.142629
Si Si6 0.760207 0.454746 0.900846
Si Si7 0.082972 0.675865 0.714261
O O1 0.438253 0.934645 0.567410
O O2 0.500378 0.573241 0.179451
O O3 0.183964 0.804658 0.708564
O O4 0.141925 0.652193 0.375043
O O5 0.170440 0.309656 0.667464
O O6 0.084814 0.368498 0.959291
O O7 0.679377 0.357009 0.391555
O O8 0.632840 0.727435 0.664621
O O9 0.703472 0.277801 0.008202
O O10 0.486717 0.038606 0.163239
O O11 0.000000 0.000000 0.500000
O O12 0.330450 0.190828 0.051099
O O13 0.340712 0.730217 0.185396
O O14 0.822880 0.769872 0.002986
O O15 0.000000 0.500000 0.500000
#
# Coordination Sequence:
#
# PCOD9111796 Si02
#       7
#     2   2   2   2   2   2   2
#     4  11  23  43  69 102 145 189 230 303 365 425
#     4  10  21  43  68 104 137 189 241 285 364 433
#     4  10  20  43  70  97 143 189 237 298 353 431
#     4  10  23  40  69 100 141 189 236 291 361 429
#     4  12  24  46  71 108 146 185 242 304 362 435
#     4  11  24  43  69 105 143 185 248 293 366 438
#     4  12  23  43  72 102 146 183 240 306 358 432
#
# _framework density 27.521211000000001
#
# number of rings (size 3 to 8) (size 9 to 14) (size 15 to 20)
#    0.000    1.143    4.286    1.714    2.000    0.571 
#    2.571    5.714    0.000    1.714    0.000    0.000 
#    0.000    0.000    0.000    0.000    0.000    0.000 
#
# Total GULP energy -78052.618221 kJ/mol
# GULP energy per Si atom -5575.187016 kJ/mol
# Density = 2.745857 g / cm^3
# Si number density = 27.521211 Si / 1000 Ang^3
#
#
#
# Elastic Constant Matrix: (Units=GPa)
#
#
# Indices 1 2 3 4 5 6 
#
# 1 145.5106 38.3569 24.8777 -15.8814 6.2327 25.1784
# 2 38.3569 122.3185 12.4980 17.7800 0.4818 35.2000
# 3 24.8777 12.4980 43.5980 -14.4461 14.0712 2.4526
# 4 -15.8814 17.7800 -14.4461 52.7302 7.7574 6.1746
# 5 6.2327 0.4818 14.0712 7.7574 35.5603 4.1187
# 6 25.1784 35.2000 2.4526 6.1746 4.1187 49.4917
#
#
#
# Elastic Compliance Matrix: (Units=1/GPa)
#
#
# Indices 1 2 3 4 5 6 
#
# 1 0.008828 -0.001916 -0.003178 0.002895 -0.000514 -0.003289
# 2 -0.001916 0.012224 -0.005446 -0.006019 0.004457 -0.007070
# 3 -0.003178 -0.005446 0.035704 0.012702 -0.016676 0.003524
# 4 0.002895 -0.006019 0.012702 0.027041 -0.011321 -0.000253
# 5 -0.000514 0.004457 -0.016676 -0.011321 0.037660 -0.003804
# 6 -0.003289 -0.007070 0.003524 -0.000253 -0.003804 0.027081
#
#
# Mechanical properties :
#
#
# Convention : Reuss Voigt Hill
#
# Bulk Modulus (GPa) = 28.02957 51.43251 39.73104
# Shear Modulus (GPa) = 27.54673 43.26938 35.40805
#
# Velocity S-wave (km/s) = 3.16718 3.96942 3.59077
# Velocity P-wave (km/s) = 4.85608 6.30375 5.62667
#
# Compressibility (1/GPa) = 0.03567660
#
# Stress axis : x y z
#
# Youngs Moduli (GPa) = 113.27799 81.80320 28.00806
#
# Poissons Ratio (x) = 0.15671 0.08900
# Poissons Ratio (y) = 0.21701 0.15254
# Poissons Ratio (z) = 0.35998 0.44553
#
# Static dielectric constant tensor:
#      x y z
#    x 2.311670 -0.053390 0.027470 
#    y -0.053390 2.300130 -0.003850 
#    z 0.027470 -0.003850 2.128510 
# 
# From -- ./inp_files/570475.got.cif
#   From: 2010.05.17/outbox.cif.g08.bks.cpg/sg2_286_cif.got.tgz:570475.got - 2010.06.03 11:33:40.
