data_PCOD9111723
_publ_section_title
;
Structure prediction by ZEFSAII (Michael W. Deem and Ramdas Pophale) SiO2 
 PCOD9111723
Probable space group: P -1
;
_chemical_formula_sum "Si O2"
_cell_formula_units_Z 16
_cell_length_a 18.189540
_cell_length_b 9.922482
_cell_length_c 7.076325
_cell_angle_alpha 47.741040
_cell_angle_beta 128.596056
_cell_angle_gamma 127.810442
_cell_volume 696.195903
_symmetry_space_group_name_H-M "P -1"
_symmetry_group_IT_number 2
_symmetry_cell_setting 'triclinic'
loop_
_space_group_symop_operation_xyz
x,y,z
-x,-y,-z
loop_
_atom_site_type_symbol
_atom_site_label
_atom_site_fract_x
_atom_site_fract_y
_atom_site_fract_z
Si Si1 0.795454 0.147738 0.283231
Si Si2 0.294153 0.648644 0.800135
Si Si3 0.904167 0.548065 0.873577
Si Si4 0.029411 0.033975 0.291419
Si Si5 0.586780 0.442546 0.594556
Si Si6 0.672921 0.803156 0.168940
Si Si7 0.828955 0.729303 0.223184
Si Si8 0.470683 0.773289 0.679243
O O1 0.760588 0.198034 0.384266
O O2 0.835429 0.354215 0.046898
O O3 0.881892 0.051484 0.521163
O O4 0.708087 0.000576 0.156819
O O5 0.220474 0.430722 0.861269
O O6 0.365335 0.691053 0.693241
O O7 0.365770 0.660982 0.081066
O O8 0.937585 0.735124 0.888052
O O9 0.857423 0.611320 0.552877
O O10 0.000000 0.500000 0.000000
O O11 0.927683 0.900963 0.155039
O O12 0.000000 0.000000 0.500000
O O13 0.500000 0.500000 0.500000
O O14 0.671412 0.633328 0.471402
O O15 0.540179 0.312379 0.464633
O O16 0.748733 0.813466 0.109587
O O17 0.560854 0.738512 0.970506
O O18 0.500000 0.000000 0.500000
#
# Coordination Sequence:
#
# PCOD9111723 Si02
#       8
#     2   2   2   2   2   2   2   2
#     4  12  25  42  73 108 146 191 243 301 368 437
#     4  12  28  46  70 110 149 193 250 303 366 443
#     4  11  20  43  76 104 144 193 239 304 372 426
#     4  10  20  43  69 105 145 186 241 303 358 438
#     4  12  25  48  76 101 148 193 245 313 367 428
#     4  12  23  45  76 104 143 195 248 294 368 440
#     4  11  22  44  72 105 145 190 247 296 364 439
#     4  12  28  48  70 108 151 192 243 306 369 438
#
# _framework density 22.982036000000001
#
# number of rings (size 3 to 8) (size 9 to 14) (size 15 to 20)
#    0.000    0.500    7.500    2.625    3.500    1.500 
#    0.000    0.625    0.000    0.000    0.000    0.000 
#    0.000    0.000    0.000    0.000    0.000    0.000 
#
# Total GULP energy -89619.265162 kJ/mol
# GULP energy per Si atom -5601.204073 kJ/mol
# Density = 2.292973 g / cm^3
# Si number density = 22.982036 Si / 1000 Ang^3
#
#
#
# Elastic Constant Matrix: (Units=GPa)
#
#
# Indices 1 2 3 4 5 6 
#
# 1 127.4903 40.3884 17.8983 21.8739 6.3667 -29.2336
# 2 40.3884 184.9451 22.5475 21.1360 -6.1614 -12.0353
# 3 17.8983 22.5475 43.3673 2.7212 -3.7720 -7.6673
# 4 21.8739 21.1360 2.7212 40.6579 -3.8293 -3.1972
# 5 6.3667 -6.1614 -3.7720 -3.8293 25.8802 -1.0235
# 6 -29.2336 -12.0353 -7.6673 -3.1972 -1.0235 46.1637
#
#
#
# Elastic Compliance Matrix: (Units=1/GPa)
#
#
# Indices 1 2 3 4 5 6 
#
# 1 0.011016 -0.001236 -0.002919 -0.005010 -0.003944 0.005735
# 2 -0.001236 0.006300 -0.002468 -0.002315 0.001114 0.000314
# 3 -0.002919 -0.002468 0.026179 0.001666 0.004274 0.002066
# 4 -0.005010 -0.002315 0.001666 0.028756 0.005124 -0.001394
# 5 -0.003944 0.001114 0.004274 0.005124 0.041247 -0.000228
# 6 0.005735 0.000314 0.002066 -0.001394 -0.000228 0.025617
#
#
# Mechanical properties :
#
#
# Convention : Reuss Voigt Hill
#
# Bulk Modulus (GPa) = 33.05691 57.49679 45.27685
# Shear Modulus (GPa) = 30.77983 40.87159 35.82571
#
# Velocity S-wave (km/s) = 3.66361 4.22170 3.95252
# Velocity P-wave (km/s) = 5.68429 6.98829 6.36974
#
# Compressibility (1/GPa) = 0.03025086
#
# Stress axis : x y z
#
# Youngs Moduli (GPa) = 90.77304 158.73330 38.19834
#
# Poissons Ratio (x) = 0.19613 0.11150
# Poissons Ratio (y) = 0.11216 0.09426
# Poissons Ratio (z) = 0.26497 0.39171
#
# Static dielectric constant tensor:
#      x y z
#    x 1.956110 -0.008950 0.018060 
#    y -0.008950 1.859340 -0.001070 
#    z 0.018060 -0.001070 1.895810 
# 
# From -- ./inp_files/106566.got.cif
#   From: 2010.05.17/outbox.cif.g08.bks.cpg/sg2_54_cif.got.tgz:106566.got - 2010.06.03 11:33:40.
