data_PCOD9111431
_publ_section_title
;
Structure prediction by ZEFSAII (Michael W. Deem and Ramdas Pophale) SiO2 
 PCOD9111431
Probable space group: P -1
;
_chemical_formula_sum "Si O2"
_cell_formula_units_Z 14
_cell_length_a 8.352716
_cell_length_b 11.578143
_cell_length_c 17.723591
_cell_angle_alpha 28.149458
_cell_angle_beta 98.030589
_cell_angle_gamma 81.427234
_cell_volume 650.676384
_symmetry_space_group_name_H-M "P -1"
_symmetry_group_IT_number 2
_symmetry_cell_setting 'triclinic'
loop_
_space_group_symop_operation_xyz
x,y,z
-x,-y,-z
loop_
_atom_site_type_symbol
_atom_site_label
_atom_site_fract_x
_atom_site_fract_y
_atom_site_fract_z
Si Si1 0.465015 0.770631 0.666681
Si Si2 0.366653 0.715721 0.934500
Si Si3 0.021104 0.823207 0.178072
Si Si4 0.653993 0.872096 0.197746
Si Si5 0.683288 0.414697 0.372388
Si Si6 0.873309 0.812907 0.474839
Si Si7 0.724268 0.320916 0.588557
O O1 0.421082 0.627359 0.677676
O O2 0.500000 0.000000 0.500000
O O3 0.276111 0.961493 0.600479
O O4 0.644751 0.500812 0.883929
O O5 0.464523 0.848937 0.914019
O O6 0.181953 0.000970 0.714711
O O7 0.500000 0.500000 0.000000
O O8 0.144150 0.465131 0.374430
O O9 0.128470 0.879061 0.219928
O O10 0.812169 0.905947 0.148024
O O11 0.000000 0.000000 0.000000
O O12 0.561207 0.757680 0.199337
O O13 0.768033 0.569253 0.430781
O O14 0.722025 0.214132 0.565237
O O15 0.898265 0.325030 0.412985
O O16 0.500000 0.500000 0.500000
#
# Coordination Sequence:
#
# PCOD9111431 Si02
#       7
#     2   2   2   2   2   2   2
#     4  11  25  38  63  94 126 160 211 263 312 364
#     4  10  21  38  64  89 122 168 200 247 317 370
#     4  11  22  38  66  95 123 164 210 259 310 372
#     4   9  20  40  64  86 125 165 208 245 316 373
#     4   9  21  41  64  87 124 167 205 257 310 371
#     4  10  20  43  63  85 125 167 210 245 315 384
#     4  10  21  37  63  91 127 157 202 263 310 362
#
# _framework density 21.516072999999999
#
# number of rings (size 3 to 8) (size 9 to 14) (size 15 to 20)
#    0.857    1.143    1.429    1.714    4.000    0.571 
#    5.143    0.714    0.000    0.000    0.000    0.000 
#    0.000    0.000    0.000    0.000    0.000    0.000 
#
# Total GULP energy -77992.099048 kJ/mol
# GULP energy per Si atom -5570.864218 kJ/mol
# Density = 2.146710 g / cm^3
# Si number density = 21.516073 Si / 1000 Ang^3
#
#
#
# Elastic Constant Matrix: (Units=GPa)
#
#
# Indices 1 2 3 4 5 6 
#
# 1 65.5150 27.6860 24.9055 19.6940 -9.4382 -8.2054
# 2 27.6860 159.4899 42.9310 6.5207 -3.6761 2.4506
# 3 24.9055 42.9310 128.2042 29.4857 -29.1309 1.7464
# 4 19.6940 6.5207 29.4857 48.3034 -9.4996 -2.5494
# 5 -9.4382 -3.6761 -29.1309 -9.4996 25.4719 4.5979
# 6 -8.2054 2.4506 1.7464 -2.5494 4.5979 27.9917
#
#
#
# Elastic Compliance Matrix: (Units=1/GPa)
#
#
# Indices 1 2 3 4 5 6 
#
# 1 0.019766 -0.002957 -0.000863 -0.006348 0.002622 0.005098
# 2 -0.002957 0.007435 -0.002804 0.001365 -0.002577 -0.000795
# 3 -0.000863 -0.002804 0.013012 -0.004842 0.012963 -0.003390
# 4 -0.006348 0.001365 -0.004842 0.026499 0.002120 0.000387
# 5 0.002622 -0.002577 0.012963 0.002120 0.057099 -0.009000
# 6 0.005098 -0.000795 -0.003390 0.000387 -0.009000 0.039014
#
#
# Mechanical properties :
#
#
# Convention : Reuss Voigt Hill
#
# Bulk Modulus (GPa) = 37.08581 60.47267 48.77924
# Shear Modulus (GPa) = 27.01799 37.53249 32.27524
#
# Velocity S-wave (km/s) = 3.54745 4.18112 3.87725
# Velocity P-wave (km/s) = 5.83549 7.17467 6.53945
#
# Compressibility (1/GPa) = 0.02696449
#
# Stress axis : x y z
#
# Youngs Moduli (GPa) = 50.59186 134.49742 76.85331
#
# Poissons Ratio (x) = 0.39774 0.06634
# Poissons Ratio (y) = 0.14961 0.21548
# Poissons Ratio (z) = 0.04367 0.37711
#
# Static dielectric constant tensor:
#      x y z
#    x 1.753870 -0.013900 0.001870 
#    y -0.013900 1.858820 0.009400 
#    z 0.001870 0.009400 1.876210 
# 
# From -- ./inp_files/558881.got.cif
#   From: 2010.05.17/outbox.cif.g08.bks.cpg/sg2_280_cif.got.tgz:558881.got - 2010.06.03 11:33:40.
