data_PCOD9111867
_publ_section_title
;
Structure prediction by ZEFSAII (Michael W. Deem and Ramdas Pophale) SiO2 
 PCOD9111867
Probable space group: P -1
;
_chemical_formula_sum "Si O2"
_cell_formula_units_Z 14
_cell_length_a 11.498480
_cell_length_b 11.340988
_cell_length_c 10.788923
_cell_angle_alpha 105.877720
_cell_angle_beta 83.232082
_cell_angle_gamma 155.308697
_cell_volume 534.533329
_symmetry_space_group_name_H-M "P -1"
_symmetry_group_IT_number 2
_symmetry_cell_setting 'triclinic'
loop_
_space_group_symop_operation_xyz
x,y,z
-x,-y,-z
loop_
_atom_site_type_symbol
_atom_site_label
_atom_site_fract_x
_atom_site_fract_y
_atom_site_fract_z
Si Si1 0.665579 0.771454 0.962381
Si Si2 0.990840 0.960532 0.769178
Si Si3 0.089501 0.372463 0.969346
Si Si4 0.047058 0.834515 0.322519
Si Si5 0.762556 0.027695 0.403814
Si Si6 0.269006 0.705642 0.250967
Si Si7 0.790713 0.382941 0.363681
O O1 0.755654 0.794218 0.086437
O O2 0.375004 0.571793 0.948514
O O3 0.914749 0.117370 0.012264
O O4 0.710458 0.725357 0.824158
O O5 0.999083 0.073778 0.696656
O O6 0.052661 0.893034 0.674451
O O7 0.198837 0.597996 0.088981
O O8 0.896508 0.190474 0.816665
O O9 0.777077 0.498938 0.322486
O O10 0.271058 0.052487 0.473307
O O11 0.976384 0.350497 0.485118
O O12 0.456217 0.773548 0.307609
O O13 0.961013 0.449089 0.274757
O O14 0.490321 0.031665 0.338491
#
# Coordination Sequence:
#
# PCOD9111867 Si02
#       7
#     2   2   2   2   2   2   2
#     4  10  23  41  71 104 133 171 230 272 333 402
#     4  10  20  43  72  99 139 173 221 278 341 400
#     4  11  23  45  69 103 132 178 224 281 329 399
#     4   9  24  42  68 102 144 166 225 274 350 391
#     4  10  22  45  69 103 132 183 217 284 332 403
#     4  12  23  46  72  94 134 181 234 268 327 392
#     4  10  26  43  69  99 135 178 226 278 322 405
#
# _framework density 26.191068000000001
#
# number of rings (size 3 to 8) (size 9 to 14) (size 15 to 20)
#    0.857    0.857    1.429    2.143    0.000    8.571 
#    0.000    0.714    0.000    0.000    0.000    0.000 
#    0.000    0.000    0.000    0.000    0.000    0.000 
#
# Total GULP energy -78262.891733 kJ/mol
# GULP energy per Si atom -5590.206552 kJ/mol
# Density = 2.613146 g / cm^3
# Si number density = 26.191068 Si / 1000 Ang^3
#
#
#
# Elastic Constant Matrix: (Units=GPa)
#
#
# Indices 1 2 3 4 5 6 
#
# 1 135.0931 32.1454 56.3743 -17.6250 -7.6342 14.1306
# 2 32.1454 58.3833 7.6580 -7.4099 10.9630 17.8274
# 3 56.3743 7.6580 143.5449 -9.9955 -4.5560 6.4678
# 4 -17.6250 -7.4099 -9.9955 32.8504 -1.6355 5.7208
# 5 -7.6342 10.9630 -4.5560 -1.6355 67.5207 -6.5866
# 6 14.1306 17.8274 6.4678 5.7208 -6.5866 39.6088
#
#
#
# Elastic Compliance Matrix: (Units=1/GPa)
#
#
# Indices 1 2 3 4 5 6 
#
# 1 0.010823 -0.004906 -0.003600 0.003925 0.001741 -0.001343
# 2 -0.004906 0.024755 0.001289 0.005029 -0.005461 -0.011237
# 3 -0.003600 0.001289 0.008420 0.001063 -0.000105 -0.000842
# 4 0.003925 0.005029 0.001063 0.035561 -0.000320 -0.009027
# 5 0.001741 -0.005461 -0.000105 -0.000320 0.016329 0.004616
# 6 -0.001343 -0.011237 -0.000842 -0.009027 0.004616 0.032992
#
#
# Mechanical properties :
#
#
# Convention : Reuss Voigt Hill
#
# Bulk Modulus (GPa) = 33.82312 58.81963 46.32137
# Shear Modulus (GPa) = 32.64403 44.05222 38.34812
#
# Velocity S-wave (km/s) = 3.53424 4.10561 3.83060
# Velocity P-wave (km/s) = 5.44027 6.70682 6.10647
#
# Compressibility (1/GPa) = 0.02956557
#
# Stress axis : x y z
#
# Youngs Moduli (GPa) = 92.39888 40.39585 118.76526
#
# Poissons Ratio (x) = 0.19816 0.42750
# Poissons Ratio (y) = 0.45326 -0.15309
# Poissons Ratio (z) = 0.33260 -0.05207
#
# Static dielectric constant tensor:
#      x y z
#    x 2.118700 -0.063940 0.065600 
#    y -0.063940 2.126210 -0.009050 
#    z 0.065600 -0.009050 2.079900 
# 
# From -- ./inp_files/423788.got.cif
#   From: 2010.05.17/outbox.cif.g08.bks.cpg/sg2_212_cif.got.tgz:423788.got - 2010.06.03 11:33:40.
