data_PCOD9111556
_publ_section_title
;
Structure prediction by ZEFSAII (Michael W. Deem and Ramdas Pophale) SiO2 
 PCOD9111556
Probable space group: P -1
;
_chemical_formula_sum "Si O2"
_cell_formula_units_Z 16
_cell_length_a 11.900233
_cell_length_b 11.665732
_cell_length_c 5.897720
_cell_angle_alpha 101.572076
_cell_angle_beta 89.316427
_cell_angle_gamma 57.020048
_cell_volume 665.508514
_symmetry_space_group_name_H-M "P -1"
_symmetry_group_IT_number 2
_symmetry_cell_setting 'triclinic'
loop_
_space_group_symop_operation_xyz
x,y,z
-x,-y,-z
loop_
_atom_site_type_symbol
_atom_site_label
_atom_site_fract_x
_atom_site_fract_y
_atom_site_fract_z
Si Si1 0.788554 0.184868 0.604670
Si Si2 0.045042 0.658269 0.954066
Si Si3 0.823004 0.608305 0.909530
Si Si4 0.417924 0.729804 0.980293
Si Si5 0.372806 0.303500 0.672609
Si Si6 0.454791 0.138603 0.204202
Si Si7 0.693069 0.415751 0.356668
Si Si8 0.054942 0.052646 0.821815
O O1 0.708770 0.179001 0.814392
O O2 0.707948 0.339120 0.560345
O O3 0.934198 0.136422 0.675144
O O4 0.819945 0.078574 0.357934
O O5 0.956874 0.602142 0.840846
O O6 0.930740 0.823489 0.052245
O O7 0.124945 0.556717 0.130099
O O8 0.160444 0.650823 0.793491
O O9 0.764805 0.658407 0.188932
O O10 0.696929 0.730818 0.816731
O O11 0.545072 0.678945 0.122247
O O12 0.437526 0.823575 0.844353
O O13 0.396097 0.617925 0.814801
O O14 0.443455 0.155711 0.483994
O O15 0.356541 0.423290 0.552225
O O16 0.500000 0.000000 0.000000
O O17 0.000000 0.000000 0.000000
#
# Coordination Sequence:
#
# PCOD9111556 Si02
#       8
#     2   2   2   2   2   2   2   2
#     4  11  23  36  61  98 130 174 213 260 344 396
#     4  10  20  43  66  91 140 171 217 283 330 397
#     4   9  23  43  65  96 127 179 228 276 333 396
#     4  11  23  42  66  97 134 171 223 280 341 399
#     4  10  24  42  68  97 129 178 228 273 346 390
#     4  11  26  46  66  94 132 176 232 289 329 401
#     4  11  22  41  66 101 136 169 220 283 335 412
#     4  11  22  39  59  94 136 172 213 267 331 401
#
# _framework density 24.041768000000001
#
# number of rings (size 3 to 8) (size 9 to 14) (size 15 to 20)
#    0.000    1.500    2.500    1.125    1.750    9.000 
#    2.250    1.875    0.000    0.000    0.000    0.000 
#    0.000    0.000    0.000    0.000    0.000    0.000 
#
# Total GULP energy -89266.871150 kJ/mol
# GULP energy per Si atom -5579.179447 kJ/mol
# Density = 2.398705 g / cm^3
# Si number density = 24.041768 Si / 1000 Ang^3
#
#
#
# Elastic Constant Matrix: (Units=GPa)
#
#
# Indices 1 2 3 4 5 6 
#
# 1 118.9026 17.2091 29.0500 7.4244 -0.1233 -2.9365
# 2 17.2091 92.6526 31.2075 13.3689 15.5878 8.0157
# 3 29.0500 31.2075 75.3866 19.1994 10.2388 11.2750
# 4 7.4244 13.3689 19.1994 34.2910 -1.1330 13.4110
# 5 -0.1233 15.5878 10.2388 -1.1330 27.2554 -6.5081
# 6 -2.9365 8.0157 11.2750 13.4110 -6.5081 29.8512
#
#
#
# Elastic Compliance Matrix: (Units=1/GPa)
#
#
# Indices 1 2 3 4 5 6 
#
# 1 0.009719 -0.001186 -0.004058 -0.000766 0.003130 0.003834
# 2 -0.001186 0.014015 -0.003200 -0.002388 -0.007700 -0.003277
# 3 -0.004058 -0.003200 0.019730 -0.007050 -0.007180 -0.005390
# 4 -0.000766 -0.002388 -0.007050 0.039821 0.002284 -0.014163
# 5 0.003130 -0.007700 -0.007180 0.002284 0.047334 0.014381
# 6 0.003834 -0.003277 -0.005390 -0.014163 0.014381 0.046291
#
#
# Mechanical properties :
#
#
# Convention : Reuss Voigt Hill
#
# Bulk Modulus (GPa) = 37.62875 49.09720 43.36298
# Shear Modulus (GPa) = 24.67221 32.24454 28.45838
#
# Velocity S-wave (km/s) = 3.20695 3.66620 3.44423
# Velocity P-wave (km/s) = 5.42200 6.19575 5.82174
#
# Compressibility (1/GPa) = 0.02657542
#
# Stress axis : x y z
#
# Youngs Moduli (GPa) = 102.89097 71.35279 50.68381
#
# Poissons Ratio (x) = 0.08465 0.20565
# Poissons Ratio (y) = 0.12206 0.16221
# Poissons Ratio (z) = 0.41749 0.22836
#
# Static dielectric constant tensor:
#      x y z
#    x 1.921240 -0.036730 0.061410 
#    y -0.036730 1.990800 -0.019350 
#    z 0.061410 -0.019350 2.035710 
# 
# From -- ./inp_files/71237.got.cif
#   From: 2010.05.17/outbox.cif.g08.bks.cpg/sg2_36_cif.got.tgz:71237.got - 2010.06.03 11:33:40.
