data_PCOD9111478
_publ_section_title
;
Structure prediction by ZEFSAII (Michael W. Deem and Ramdas Pophale) SiO2 
 PCOD9111478
Probable space group: P -1
;
_chemical_formula_sum "Si O2"
_cell_formula_units_Z 12
_cell_length_a 15.829857
_cell_length_b 14.852940
_cell_length_c 11.990211
_cell_angle_alpha 26.599383
_cell_angle_beta 25.699977
_cell_angle_gamma 27.493050
_cell_volume 497.021488
_symmetry_space_group_name_H-M "P -1"
_symmetry_group_IT_number 2
_symmetry_cell_setting 'triclinic'
loop_
_space_group_symop_operation_xyz
x,y,z
-x,-y,-z
loop_
_atom_site_type_symbol
_atom_site_label
_atom_site_fract_x
_atom_site_fract_y
_atom_site_fract_z
Si Si1 0.820462 0.014833 0.083690
Si Si2 0.425016 0.100294 0.309347
Si Si3 0.901400 0.440585 0.794675
Si Si4 0.139121 0.058207 0.361542
Si Si5 0.532559 0.799953 0.308332
Si Si6 0.154498 0.596493 0.488429
O O1 0.650258 0.995797 0.219853
O O2 0.738359 0.970103 0.349338
O O3 0.044625 0.815432 0.003611
O O4 0.804381 0.258707 0.818073
O O5 0.333399 0.364631 0.132861
O O6 0.449210 0.011628 0.254949
O O7 0.361619 0.415011 0.502623
O O8 0.022161 0.475620 0.720960
O O9 0.000000 0.500000 0.500000
O O10 0.981972 0.219459 0.462573
O O11 0.328241 0.837101 0.433834
O O12 0.273363 0.185480 0.008456
O O13 0.000000 0.000000 0.500000
#
# Coordination Sequence:
#
# PCOD9111478 Si02
#       6
#     2   2   2   2   2   2
#     4  10  23  40  66 100 140 174 225 269 344 409
#     4  10  20  43  64  98 136 179 220 280 330 409
#     4  10  22  41  65  98 137 179 219 269 332 410
#     4  11  26  47  71  99 132 182 235 288 341 402
#     4  11  24  46  70 100 138 176 234 284 344 403
#     4  12  24  44  69 101 137 180 222 285 341 409
#
# _framework density 24.143825
#
# number of rings (size 3 to 8) (size 9 to 14) (size 15 to 20)
#    0.000    1.333    3.333    1.500    0.000    5.333 
#    0.000    0.000    0.000    0.000    0.000    0.000 
#    0.000    0.000    0.000    0.000    0.000    0.000 
#
# Total GULP energy -67171.727814 kJ/mol
# GULP energy per Si atom -5597.643985 kJ/mol
# Density = 2.408887 g / cm^3
# Si number density = 24.143825 Si / 1000 Ang^3
#
#
#
# Elastic Constant Matrix: (Units=GPa)
#
#
# Indices 1 2 3 4 5 6 
#
# 1 141.5277 27.8133 7.7073 8.8630 -25.1918 -24.2002
# 2 27.8133 131.1105 13.7924 -9.8634 -1.4968 -27.2652
# 3 7.7073 13.7924 63.2134 -4.9056 -0.7725 -11.1283
# 4 8.8630 -9.8634 -4.9056 28.1464 -1.2433 15.4044
# 5 -25.1918 -1.4968 -0.7725 -1.2433 30.0939 -2.6807
# 6 -24.2002 -27.2652 -11.1283 15.4044 -2.6807 35.8754
#
#
#
# Elastic Compliance Matrix: (Units=1/GPa)
#
#
# Indices 1 2 3 4 5 6 
#
# 1 0.011973 -0.000514 0.000271 -0.010615 0.010735 0.013130
# 2 -0.000514 0.009165 -0.000802 -0.000328 0.000575 0.006554
# 3 0.000271 -0.000802 0.016832 -0.000070 0.001053 0.004904
# 4 -0.010615 -0.000328 -0.000070 0.055922 -0.009457 -0.032150
# 5 0.010735 0.000575 0.001053 -0.009457 0.043243 0.015297
# 6 0.013130 0.006554 0.004904 -0.032150 0.015297 0.058181
#
#
# Mechanical properties :
#
#
# Convention : Reuss Voigt Hill
#
# Bulk Modulus (GPa) = 27.86981 48.27528 38.07255
# Shear Modulus (GPa) = 23.88173 37.92569 30.90371
#
# Velocity S-wave (km/s) = 3.14848 3.96766 3.58157
# Velocity P-wave (km/s) = 4.97851 6.40532 5.73644
#
# Compressibility (1/GPa) = 0.03588112
#
# Stress axis : x y z
#
# Youngs Moduli (GPa) = 83.52405 109.10628 59.41075
#
# Poissons Ratio (x) = 0.05607 -0.01611
# Poissons Ratio (y) = 0.04293 0.04763
# Poissons Ratio (z) = -0.02265 0.08747
#
# Static dielectric constant tensor:
#      x y z
#    x 1.896290 -0.049140 0.009140 
#    y -0.049140 1.899360 -0.002850 
#    z 0.009140 -0.002850 1.945950 
# 
# From -- ./inp_files/454270.got.cif
#   From: 2010.05.17/outbox.cif.g08.bks.cpg/sg2_228_cif.got.tgz:454270.got - 2010.06.03 11:33:40.
