data_PCOD9111921
_publ_section_title
;
Structure prediction by ZEFSAII (Michael W. Deem and Ramdas Pophale) SiO2 
 PCOD9111921
Probable space group: P -1
;
_chemical_formula_sum "Si O2"
_cell_formula_units_Z 16
_cell_length_a 13.475256
_cell_length_b 10.513806
_cell_length_c 8.642831
_cell_angle_alpha 53.662381
_cell_angle_beta 101.956822
_cell_angle_gamma 134.922672
_cell_volume 648.740618
_symmetry_space_group_name_H-M "P -1"
_symmetry_group_IT_number 2
_symmetry_cell_setting 'triclinic'
loop_
_space_group_symop_operation_xyz
x,y,z
-x,-y,-z
loop_
_atom_site_type_symbol
_atom_site_label
_atom_site_fract_x
_atom_site_fract_y
_atom_site_fract_z
Si Si1 0.418667 0.134914 0.759984
Si Si2 0.859765 0.368196 0.802108
Si Si3 0.747592 0.710256 0.171826
Si Si4 0.004855 0.786945 0.069818
Si Si5 0.359717 0.835571 0.381061
Si Si6 0.327462 0.348498 0.452163
Si Si7 0.408596 0.675267 0.808006
Si Si8 0.865136 0.670853 0.799023
O O1 0.523143 0.125183 0.719322
O O2 0.359761 0.199260 0.572818
O O3 0.527077 0.369373 0.735716
O O4 0.279199 0.884429 0.975022
O O5 0.995165 0.400341 0.808042
O O6 0.795281 0.339827 0.634758
O O7 0.900478 0.569015 0.768479
O O8 0.702239 0.644638 0.382073
O O9 0.615700 0.518133 0.148068
O O10 0.877480 0.730337 0.164112
O O11 0.833910 0.973091 0.985841
O O12 0.988856 0.833244 0.855261
O O13 0.365086 0.752149 0.605491
O O14 0.429165 0.088199 0.249646
O O15 0.189772 0.241582 0.377805
O O16 0.283631 0.545765 0.993283
#
# Coordination Sequence:
#
# PCOD9111921 Si02
#       8
#     2   2   2   2   2   2   2   2
#     4  11  21  37  66  95 124 157 200 254 312 373
#     4  12  21  41  64  95 123 164 205 250 310 368
#     4  10  20  44  60  81 128 165 200 256 302 354
#     4  10  24  40  64  86 124 169 209 253 298 356
#     4  11  21  38  64  93 128 163 194 255 318 367
#     4  11  22  39  67  94 122 164 201 251 319 365
#     4  10  21  38  61  89 125 161 198 254 309 365
#     4  11  22  40  64  92 123 163 209 257 298 357
#
# _framework density 24.663169
#
# number of rings (size 3 to 8) (size 9 to 14) (size 15 to 20)
#    0.000    1.250    5.000    1.500    0.000    0.500 
#    0.000   15.625    0.000    0.000    0.000    0.000 
#    0.000    0.000    0.000    0.000    0.000    0.000 
#
# Total GULP energy -89506.516342 kJ/mol
# GULP energy per Si atom -5594.157271 kJ/mol
# Density = 2.460703 g / cm^3
# Si number density = 24.663169 Si / 1000 Ang^3
#
#
#
# Elastic Constant Matrix: (Units=GPa)
#
#
# Indices 1 2 3 4 5 6 
#
# 1 83.1789 2.6892 17.7286 25.4548 19.6494 -3.9312
# 2 2.6892 103.1340 -5.0493 2.2500 11.0006 -2.2841
# 3 17.7286 -5.0493 57.7626 9.9018 5.3972 -1.2944
# 4 25.4548 2.2500 9.9018 36.3575 5.1330 -4.5069
# 5 19.6494 11.0006 5.3972 5.1330 35.7989 -0.2440
# 6 -3.9312 -2.2841 -1.2944 -4.5069 -0.2440 13.3040
#
#
#
# Elastic Compliance Matrix: (Units=1/GPa)
#
#
# Indices 1 2 3 4 5 6 
#
# 1 0.017735 0.000505 -0.002845 -0.010376 -0.007963 0.001389
# 2 0.000505 0.010165 0.001201 -0.000602 -0.003484 0.001744
# 3 -0.002845 0.001201 0.018930 -0.003046 -0.001224 0.000153
# 4 -0.010376 -0.000602 -0.003046 0.036582 0.001155 0.008948
# 5 -0.007963 -0.003484 -0.001224 0.001155 0.033380 -0.002067
# 6 0.001389 0.001744 0.000153 0.008948 -0.002067 0.078883
#
#
# Mechanical properties :
#
#
# Convention : Reuss Voigt Hill
#
# Bulk Modulus (GPa) = 22.44555 30.53472 26.49013
# Shear Modulus (GPa) = 23.49578 32.33921 27.91750
#
# Velocity S-wave (km/s) = 3.08988 3.62503 3.36810
# Velocity P-wave (km/s) = 4.67444 5.47071 5.08818
#
# Compressibility (1/GPa) = 0.04455226
#
# Stress axis : x y z
#
# Youngs Moduli (GPa) = 56.38718 98.37580 52.82490
#
# Poissons Ratio (x) = -0.04966 0.15029
# Poissons Ratio (y) = -0.02846 -0.06346
# Poissons Ratio (z) = 0.16043 -0.11819
#
# Static dielectric constant tensor:
#      x y z
#    x 1.948290 0.043540 -0.025710 
#    y 0.043540 2.015980 -0.061660 
#    z -0.025710 -0.061660 1.987750 
# 
# From -- ./inp_files/242586.got.cif
#   From: 2010.05.17/outbox.cif.g08.bks.cpg/sg2_122_cif.got.tgz:242586.got - 2010.06.03 11:33:40.
