data_PCOD9111294
_publ_section_title
;
Structure prediction by ZEFSAII (Michael W. Deem and Ramdas Pophale) SiO2 
 PCOD9111294
Probable space group: P -1
;
_chemical_formula_sum "Si O2"
_cell_formula_units_Z 16
_cell_length_a 9.931468
_cell_length_b 31.291198
_cell_length_c 6.324397
_cell_angle_alpha 114.768874
_cell_angle_beta 132.278048
_cell_angle_gamma 34.709873
_cell_volume 785.011225
_symmetry_space_group_name_H-M "P -1"
_symmetry_group_IT_number 2
_symmetry_cell_setting 'triclinic'
loop_
_space_group_symop_operation_xyz
x,y,z
-x,-y,-z
loop_
_atom_site_type_symbol
_atom_site_label
_atom_site_fract_x
_atom_site_fract_y
_atom_site_fract_z
Si Si1 0.344604 0.687342 0.274882
Si Si2 0.233600 0.257959 0.250886
Si Si3 0.724257 0.081451 0.508416
Si Si4 0.449768 0.044804 0.234974
Si Si5 0.213956 0.357438 0.690241
Si Si6 0.991925 0.090829 0.140690
Si Si7 0.491986 0.741934 0.806391
Si Si8 0.870236 0.515866 0.646167
O O1 0.538458 0.663830 0.226546
O O2 0.295490 0.747268 0.465582
O O3 0.552979 0.609456 0.479054
O O4 0.040557 0.721667 0.976563
O O5 0.553266 0.162749 0.404327
O O6 0.200418 0.307137 0.484839
O O7 0.255238 0.282006 0.106208
O O8 0.468581 0.094744 0.291848
O O9 0.862899 0.071319 0.852517
O O10 0.000000 0.000000 0.500000
O O11 0.144811 0.092354 0.128588
O O12 0.737935 0.977744 0.555744
O O13 0.500000 0.000000 0.000000
O O14 0.904314 0.452204 0.548559
O O15 0.335868 0.326503 0.988899
O O16 0.726718 0.175116 0.144153
O O17 0.000000 0.500000 0.500000
O O18 0.000000 0.500000 0.000000
#
# Coordination Sequence:
#
# PCOD9111294 Si02
#       8
#     2   2   2   2   2   2   2   2
#     4  10  24  41  69  97 134 175 224 276 334 406
#     4  11  26  41  63 102 129 174 225 275 336 402
#     4  12  24  42  65  85 132 171 214 273 333 394
#     4  11  25  42  65  91 120 164 224 269 332 400
#     4  10  22  44  68  92 138 174 221 274 340 399
#     4  11  25  42  63  93 124 170 217 273 337 396
#     4  11  23  41  65  93 134 171 215 279 333 397
#     4  10  20  42  72 103 137 188 232 280 352 420
#
# _framework density 20.381874
#
# number of rings (size 3 to 8) (size 9 to 14) (size 15 to 20)
#    0.000    1.250    3.750    1.125    3.500    2.500 
#    0.000    0.625    0.000    0.000    0.000    0.000 
#    0.000    0.000    0.000    0.000    0.000    0.000 
#
# Total GULP energy -89117.225261 kJ/mol
# GULP energy per Si atom -5569.826579 kJ/mol
# Density = 2.033548 g / cm^3
# Si number density = 20.381874 Si / 1000 Ang^3
#
#
#
# Elastic Constant Matrix: (Units=GPa)
#
#
# Indices 1 2 3 4 5 6 
#
# 1 78.2607 10.9449 46.2664 15.9838 8.1135 17.2020
# 2 10.9449 106.2738 24.8880 17.1639 4.2273 17.6070
# 3 46.2664 24.8880 80.8709 8.7187 5.2794 6.6938
# 4 15.9838 17.1639 8.7187 30.6308 7.7714 -4.0358
# 5 8.1135 4.2273 5.2794 7.7714 33.8077 1.0439
# 6 17.2020 17.6070 6.6938 -4.0358 1.0439 30.1501
#
#
#
# Elastic Compliance Matrix: (Units=1/GPa)
#
#
# Indices 1 2 3 4 5 6 
#
# 1 0.028012 0.006254 -0.014613 -0.016165 -0.000935 -0.018521
# 2 0.006254 0.013841 -0.005693 -0.011113 0.000579 -0.011895
# 3 -0.014613 -0.005693 0.021237 0.005975 -0.000711 0.007772
# 4 -0.016165 -0.011113 0.005975 0.050439 -0.007920 0.021412
# 5 -0.000935 0.000579 -0.000711 -0.007920 0.031718 -0.001805
# 6 -0.018521 -0.011895 0.007772 0.021412 -0.001805 0.051884
#
#
# Mechanical properties :
#
#
# Convention : Reuss Voigt Hill
#
# Bulk Modulus (GPa) = 28.58345 47.73379 38.15862
# Shear Modulus (GPa) = 21.10619 31.13814 26.12217
#
# Velocity S-wave (km/s) = 3.22147 3.91287 3.58388
# Velocity P-wave (km/s) = 5.28124 6.62455 5.99067
#
# Compressibility (1/GPa) = 0.03498527
#
# Stress axis : x y z
#
# Youngs Moduli (GPa) = 35.69920 72.24796 47.08835
#
# Poissons Ratio (x) = -0.45183 0.68812
# Poissons Ratio (y) = -0.22326 0.26806
# Poissons Ratio (z) = 0.52169 0.41128
#
# Static dielectric constant tensor:
#      x y z
#    x 1.754360 -0.005170 -0.053560 
#    y -0.005170 1.717430 0.003250 
#    z -0.053560 0.003250 1.768180 
# 
# From -- ./inp_files/47707.got.cif
#   From: 2010.05.17/outbox.cif.g08.bks.cpg/sg2_24_cif.got.tgz:47707.got - 2010.06.03 11:33:40.
