data_PCOD9111409
_publ_section_title
;
Structure prediction by ZEFSAII (Michael W. Deem and Ramdas Pophale) SiO2 
 PCOD9111409
Probable space group: P -1
;
_chemical_formula_sum "Si O2"
_cell_formula_units_Z 14
_cell_length_a 11.977086
_cell_length_b 8.950995
_cell_length_c 14.604503
_cell_angle_alpha 95.075464
_cell_angle_beta 151.195730
_cell_angle_gamma 91.243233
_cell_volume 735.194125
_symmetry_space_group_name_H-M "P -1"
_symmetry_group_IT_number 2
_symmetry_cell_setting 'triclinic'
loop_
_space_group_symop_operation_xyz
x,y,z
-x,-y,-z
loop_
_atom_site_type_symbol
_atom_site_label
_atom_site_fract_x
_atom_site_fract_y
_atom_site_fract_z
Si Si1 0.958708 0.670097 0.003599
Si Si2 0.551251 0.675460 0.572537
Si Si3 0.054557 0.762892 0.567907
Si Si4 0.767147 0.501271 0.220201
Si Si5 0.025913 0.694406 0.258009
Si Si6 0.529515 0.115773 0.613456
Si Si7 0.824904 0.026880 0.502337
O O1 0.896676 0.670843 0.066479
O O2 0.202687 0.794621 0.174258
O O3 0.758204 0.710154 0.796712
O O4 0.000000 0.500000 0.000000
O O5 0.500000 0.500000 0.500000
O O6 0.303629 0.704546 0.436194
O O7 0.610106 0.762133 0.523174
O O8 0.858029 0.632365 0.369064
O O9 0.199133 0.662357 0.726400
O O10 0.200093 0.867971 0.598008
O O11 0.937469 0.883885 0.545958
O O12 0.929689 0.557954 0.251620
O O13 0.500000 0.500000 0.000000
O O14 0.010336 0.853944 0.304106
O O15 0.500000 0.000000 0.500000
O O16 0.413530 0.037746 0.616975
#
# Coordination Sequence:
#
# PCOD9111409 Si02
#       7
#     2   2   2   2   2   2   2
#     4  11  22  38  61  93 124 169 213 250 319 374
#     4  11  22  40  62  91 129 171 210 258 318 377
#     4   9  22  41  67  87 125 170 205 263 322 374
#     4  10  22  42  64  97 119 158 222 263 317 380
#     4  10  22  40  61  88 133 161 210 271 309 377
#     4  11  22  41  61  94 133 162 208 268 313 383
#     4  10  20  43  62  89 130 170 207 260 324 376
#
# _framework density 19.042590000000001
#
# number of rings (size 3 to 8) (size 9 to 14) (size 15 to 20)
#    0.000    1.714    5.714    0.000    2.000    5.143 
#    0.000    9.286    0.000    0.000    0.000    0.000 
#    0.000    0.000    0.000    0.000    0.000    0.000 
#
# Total GULP energy -78065.557613 kJ/mol
# GULP energy per Si atom -5576.111258 kJ/mol
# Density = 1.899925 g / cm^3
# Si number density = 19.042590 Si / 1000 Ang^3
#
#
#
# Elastic Constant Matrix: (Units=GPa)
#
#
# Indices 1 2 3 4 5 6 
#
# 1 109.2519 51.3922 35.7822 7.2844 -2.3996 15.4611
# 2 51.3922 132.6854 37.9775 6.0414 0.4893 15.6647
# 3 35.7822 37.9775 124.9687 -13.3022 -8.5114 15.7689
# 4 7.2844 6.0414 -13.3022 29.2822 1.3398 -5.6398
# 5 -2.3996 0.4893 -8.5114 1.3398 23.7608 4.4882
# 6 15.4611 15.6647 15.7689 -5.6398 4.4882 26.9044
#
#
#
# Elastic Compliance Matrix: (Units=1/GPa)
#
#
# Indices 1 2 3 4 5 6 
#
# 1 0.012572 -0.003410 -0.002277 -0.004529 0.001752 -0.005146
# 2 -0.003410 0.009912 -0.001958 -0.002667 -0.000507 -0.003138
# 3 -0.002277 -0.001958 0.010453 0.004905 0.003902 -0.003301
# 4 -0.004529 -0.002667 0.004905 0.040144 -0.002830 0.010168
# 5 0.001752 -0.000507 0.003902 -0.002830 0.045957 -0.011258
# 6 -0.005146 -0.003138 -0.003301 0.010168 -0.011258 0.047898
#
#
# Mechanical properties :
#
#
# Convention : Reuss Voigt Hill
#
# Bulk Modulus (GPa) = 56.66846 68.57886 62.62366
# Shear Modulus (GPa) = 26.58044 32.10641 29.34342
#
# Velocity S-wave (km/s) = 3.74015 4.11059 3.92974
# Velocity P-wave (km/s) = 6.96240 7.65642 7.31764
#
# Compressibility (1/GPa) = 0.01764650
#
# Stress axis : x y z
#
# Youngs Moduli (GPa) = 79.54275 100.88976 95.66315
#
# Poissons Ratio (x) = 0.34407 0.21780
# Poissons Ratio (y) = 0.27127 0.18732
# Poissons Ratio (z) = 0.18110 0.19756
#
# Static dielectric constant tensor:
#      x y z
#    x 1.690780 0.007640 -0.007310 
#    y 0.007640 1.682050 -0.000020 
#    z -0.007310 -0.000020 1.641610 
# 
# From -- ./inp_files/354436.got.cif
#   From: 2010.05.17/outbox.cif.g08.bks.cpg/sg2_178_cif.got.tgz:354436.got - 2010.06.03 11:33:40.
