data_PCOD9111885
_publ_section_title
;
Structure prediction by ZEFSAII (Michael W. Deem and Ramdas Pophale) SiO2 
 PCOD9111885
Probable space group: P -1
;
_chemical_formula_sum "Si O2"
_cell_formula_units_Z 14
_cell_length_a 16.775766
_cell_length_b 8.281432
_cell_length_c 7.691304
_cell_angle_alpha 76.957967
_cell_angle_beta 147.023597
_cell_angle_gamma 105.943357
_cell_volume 559.200426
_symmetry_space_group_name_H-M "P -1"
_symmetry_group_IT_number 2
_symmetry_cell_setting 'triclinic'
loop_
_space_group_symop_operation_xyz
x,y,z
-x,-y,-z
loop_
_atom_site_type_symbol
_atom_site_label
_atom_site_fract_x
_atom_site_fract_y
_atom_site_fract_z
Si Si1 0.355143 0.622538 0.231438
Si Si2 0.677488 0.555495 0.455297
Si Si3 0.245791 0.389729 0.779917
Si Si4 0.910527 0.369908 0.054278
Si Si5 0.432919 0.060843 0.541149
Si Si6 0.659660 0.894927 0.179924
Si Si7 0.148611 0.929738 0.240344
O O1 0.587351 0.438631 0.462811
O O2 0.481140 0.750494 0.340959
O O3 0.292170 0.468483 0.029934
O O4 0.212612 0.704660 0.008881
O O5 0.668185 0.501191 0.249365
O O6 0.655176 0.746007 0.349200
O O7 0.842933 0.535126 0.830183
O O8 0.274981 0.199703 0.840043
O O9 0.072752 0.393081 0.424501
O O10 0.891966 0.248697 0.883640
O O11 0.500000 0.000000 0.500000
O O12 0.259358 0.031060 0.273180
O O13 0.503649 0.943838 0.835164
O O14 0.762928 0.051918 0.418981
O O15 0.000000 0.000000 0.000000
#
# Coordination Sequence:
#
# PCOD9111885 Si02
#       7
#     2   2   2   2   2   2   2
#     4  10  23  43  74 112 155 207 249 329 380 456
#     4   8  21  42  71 109 149 203 254 307 380 457
#     4  10  20  43  73 114 156 198 266 309 387 461
#     4  10  20  43  75 110 155 207 250 317 386 455
#     4  12  26  51  73 114 159 200 257 324 391 459
#     4  10  25  44  76 114 150 203 254 315 386 465
#     4  12  24  49  80 108 153 206 260 312 390 463
#
# _framework density 25.035747000000001
#
# number of rings (size 3 to 8) (size 9 to 14) (size 15 to 20)
#    1.714    0.000    2.857    1.286    2.000    1.143 
#    2.571   10.714    0.000    0.000    0.000    1.000 
#    0.000    0.000    0.000    0.000    0.000    0.000 
#
# Total GULP energy -78140.128992 kJ/mol
# GULP energy per Si atom -5581.437785 kJ/mol
# Density = 2.497876 g / cm^3
# Si number density = 25.035747 Si / 1000 Ang^3
#
#
#
# Elastic Constant Matrix: (Units=GPa)
#
#
# Indices 1 2 3 4 5 6 
#
# 1 144.6198 48.9074 55.0599 2.4681 18.7311 -19.1569
# 2 48.9074 79.7797 45.2118 -0.1066 6.1804 -2.9473
# 3 55.0599 45.2118 113.5558 -10.5743 18.5964 -3.4206
# 4 2.4681 -0.1066 -10.5743 43.8757 -6.5406 -8.7107
# 5 18.7311 6.1804 18.5964 -6.5406 43.7930 4.6978
# 6 -19.1569 -2.9473 -3.4206 -8.7107 4.6978 44.7681
#
#
#
# Elastic Compliance Matrix: (Units=1/GPa)
#
#
# Indices 1 2 3 4 5 6 
#
# 1 0.010442 -0.004459 -0.002714 -0.000919 -0.003265 0.004131
# 2 -0.004459 0.018201 -0.005506 -0.001083 0.001677 -0.001517
# 3 -0.002714 -0.005506 0.013127 0.002895 -0.003245 0.000383
# 4 -0.000919 -0.001083 0.002895 0.024775 0.002554 0.004309
# 5 -0.003265 0.001677 -0.003245 0.002554 0.026160 -0.003783
# 6 0.004131 -0.001517 0.000383 0.004309 -0.003783 0.025270
#
#
# Mechanical properties :
#
#
# Convention : Reuss Voigt Hill
#
# Bulk Modulus (GPa) = 60.93166 70.70151 65.81659
# Shear Modulus (GPa) = 33.60191 39.07243 36.33717
#
# Velocity S-wave (km/s) = 3.66752 3.95481 3.81387
# Velocity P-wave (km/s) = 6.50577 7.01110 6.76316
#
# Compressibility (1/GPa) = 0.01641183
#
# Stress axis : x y z
#
# Youngs Moduli (GPa) = 95.77145 54.94335 76.17911
#
# Poissons Ratio (x) = 0.24497 0.20676
# Poissons Ratio (y) = 0.42700 0.41944
# Poissons Ratio (z) = 0.25994 0.30251
#
# Static dielectric constant tensor:
#      x y z
#    x 2.075190 -0.019430 0.033930 
#    y -0.019430 2.035450 -0.018720 
#    z 0.033930 -0.018720 1.970200 
# 
# From -- ./inp_files/329081.got.cif
#   From: 2010.05.17/outbox.cif.g08.bks.cpg/sg2_165_cif.got.tgz:329081.got - 2010.06.03 11:33:40.
