data_PCOD9111540
_publ_section_title
;
Structure prediction by ZEFSAII (Michael W. Deem and Ramdas Pophale) SiO2 
 PCOD9111540
Probable space group: P -1
;
_chemical_formula_sum "Si O2"
_cell_formula_units_Z 14
_cell_length_a 12.670358
_cell_length_b 13.922418
_cell_length_c 8.008928
_cell_angle_alpha 150.313462
_cell_angle_beta 133.022963
_cell_angle_gamma 45.428671
_cell_volume 487.774762
_symmetry_space_group_name_H-M "P -1"
_symmetry_group_IT_number 2
_symmetry_cell_setting 'triclinic'
loop_
_space_group_symop_operation_xyz
x,y,z
-x,-y,-z
loop_
_atom_site_type_symbol
_atom_site_label
_atom_site_fract_x
_atom_site_fract_y
_atom_site_fract_z
Si Si1 0.588830 0.161935 0.234957
Si Si2 0.783809 0.115754 0.713346
Si Si3 0.543286 0.800566 0.411002
Si Si4 0.800063 0.733079 0.337486
Si Si5 0.013948 0.680404 0.962639
Si Si6 0.717866 0.577155 0.524718
Si Si7 0.809268 0.349564 0.573309
O O1 0.702720 0.096652 0.417583
O O2 0.433405 0.314610 0.368387
O O3 0.669516 0.276970 0.369733
O O4 0.556247 0.978787 0.820907
O O5 0.626888 0.204336 0.784316
O O6 0.911398 0.216765 0.943444
O O7 0.854750 0.911484 0.589749
O O8 0.635198 0.817432 0.370058
O O9 0.644256 0.586133 0.275834
O O10 0.906035 0.565022 0.320854
O O11 0.789859 0.585199 0.952521
O O12 0.062516 0.751931 0.303840
O O13 0.838405 0.701803 0.813260
O O14 0.811586 0.370227 0.408383
#
# Coordination Sequence:
#
# PCOD9111540 Si02
#       7
#     2   2   2   2   2   2   2
#     4  10  21  40  64  98 119 161 212 258 309 356
#     4  10  20  43  66  88 125 166 210 253 300 374
#     4  11  23  39  64  96 123 160 207 264 310 354
#     4  10  22  42  67  89 127 161 211 252 307 373
#     4   9  23  40  65  95 119 168 212 243 312 374
#     4  11  20  40  65  89 131 160 203 267 302 364
#     4   9  20  41  62  94 118 164 213 244 304 371
#
# _framework density 28.701774
#
# number of rings (size 3 to 8) (size 9 to 14) (size 15 to 20)
#    0.857    1.143    0.000    4.714    0.000    1.143 
#    5.143    6.429    0.000    0.000    0.000    0.000 
#    0.000    0.000    0.000    0.000    0.000    0.000 
#
# Total GULP energy -78265.632850 kJ/mol
# GULP energy per Si atom -5590.402346 kJ/mol
# Density = 2.863645 g / cm^3
# Si number density = 28.701774 Si / 1000 Ang^3
#
#
#
# Elastic Constant Matrix: (Units=GPa)
#
#
# Indices 1 2 3 4 5 6 
#
# 1 226.6095 51.2581 46.8196 10.6355 55.2664 23.2046
# 2 51.2581 124.4535 23.4988 11.9274 24.9685 26.9876
# 3 46.8196 23.4988 106.9680 -5.6895 40.9100 -0.6947
# 4 10.6355 11.9274 -5.6895 40.8982 11.3326 6.6754
# 5 55.2664 24.9685 40.9100 11.3326 62.5259 15.0532
# 6 23.2046 26.9876 -0.6947 6.6754 15.0532 58.4064
#
#
#
# Elastic Compliance Matrix: (Units=1/GPa)
#
#
# Indices 1 2 3 4 5 6 
#
# 1 0.005930 -0.001333 -0.000766 -0.000027 -0.004033 -0.000707
# 2 -0.001333 0.009985 -0.001535 -0.002020 -0.000540 -0.003733
# 3 -0.000766 -0.001535 0.013874 0.004674 -0.009371 0.003060
# 4 -0.000027 -0.002020 0.004674 0.027739 -0.007178 -0.000320
# 5 -0.004033 -0.000540 -0.009371 -0.007178 0.028348 -0.004746
# 6 -0.000707 -0.003733 0.003060 -0.000320 -0.004746 0.020423
#
#
# Mechanical properties :
#
#
# Convention : Reuss Voigt Hill
#
# Bulk Modulus (GPa) = 44.40559 77.90934 61.15746
# Shear Modulus (GPa) = 41.29707 54.79641 48.04674
#
# Velocity S-wave (km/s) = 3.79731 4.37414 4.09589
# Velocity P-wave (km/s) = 5.89331 7.26045 6.61231
#
# Compressibility (1/GPa) = 0.02251969
#
# Stress axis : x y z
#
# Youngs Moduli (GPa) = 168.63949 100.14737 72.07908
#
# Poissons Ratio (x) = 0.13346 0.05525
# Poissons Ratio (y) = 0.22474 0.11067
# Poissons Ratio (z) = 0.12926 0.15377
#
# Static dielectric constant tensor:
#      x y z
#    x 2.160640 0.025250 -0.110330 
#    y 0.025250 2.364650 0.067060 
#    z -0.110330 0.067060 2.296180 
# 
# From -- ./inp_files/274754.got.cif
#   From: 2010.05.17/outbox.cif.g08.bks.cpg/sg2_138_cif.got.tgz:274754.got - 2010.06.03 11:33:40.
