data_PCOD9111407
_publ_section_title
;
Structure prediction by ZEFSAII (Michael W. Deem and Ramdas Pophale) SiO2 
 PCOD9111407
Probable space group: P -1
;
_chemical_formula_sum "Si O2"
_cell_formula_units_Z 16
_cell_length_a 13.975530
_cell_length_b 7.417820
_cell_length_c 8.147129
_cell_angle_alpha 105.615187
_cell_angle_beta 64.225008
_cell_angle_gamma 101.531577
_cell_volume 729.143892
_symmetry_space_group_name_H-M "P -1"
_symmetry_group_IT_number 2
_symmetry_cell_setting 'triclinic'
loop_
_space_group_symop_operation_xyz
x,y,z
-x,-y,-z
loop_
_atom_site_type_symbol
_atom_site_label
_atom_site_fract_x
_atom_site_fract_y
_atom_site_fract_z
Si Si1 0.116587 0.570765 0.991594
Si Si2 0.261178 0.327112 0.632183
Si Si3 0.113044 0.115591 0.471980
Si Si4 0.479231 0.212289 0.540876
Si Si5 0.544829 0.190286 0.108889
Si Si6 0.395234 0.482288 0.254017
Si Si7 0.225935 0.942347 0.083873
Si Si8 0.803562 0.640054 0.813081
O O1 0.209652 0.502433 0.790262
O O2 0.133078 0.795539 0.048247
O O3 0.135520 0.469577 0.125458
O O4 0.000000 0.500000 0.000000
O O5 0.158554 0.181523 0.629874
O O6 0.355524 0.253691 0.651638
O O7 0.321078 0.378317 0.428511
O O8 0.123448 0.295930 0.384654
O O9 0.199364 0.985139 0.302706
O O10 0.000000 0.000000 0.500000
O O11 0.515290 0.241486 0.331650
O O12 0.548114 0.336973 0.652782
O O13 0.500000 0.000000 0.500000
O O14 0.486759 0.351510 0.099692
O O15 0.668258 0.161211 0.023450
O O16 0.500000 0.000000 0.000000
O O17 0.304700 0.487638 0.185065
O O18 0.228897 0.152061 0.056577
#
# Coordination Sequence:
#
# PCOD9111407 Si02
#       8
#     2   2   2   2   2   2   2   2
#     4  12  25  42  65  95 126 164 216 273 324 376
#     4  10  21  41  61  88 128 166 206 264 315 373
#     4   9  19  42  64  86 124 169 210 262 311 371
#     4  11  24  36  60  97 128 167 210 255 321 386
#     4  11  19  38  65  92 128 171 204 254 322 380
#     4  10  20  43  62  88 132 171 206 264 316 389
#     4  10  21  40  65  90 125 165 214 251 319 381
#     4   9  23  41  67  90 124 166 215 258 326 377
#
# _framework density 21.943542000000001
#
# number of rings (size 3 to 8) (size 9 to 14) (size 15 to 20)
#    0.750    1.000    1.250    4.500    1.750    2.500 
#    0.000    7.500    0.000    0.000    0.000    0.000 
#    0.000    0.000    0.000    0.000    0.000    0.000 
#
# Total GULP energy -89183.760610 kJ/mol
# GULP energy per Si atom -5573.985038 kJ/mol
# Density = 2.189360 g / cm^3
# Si number density = 21.943542 Si / 1000 Ang^3
#
#
#
# Elastic Constant Matrix: (Units=GPa)
#
#
# Indices 1 2 3 4 5 6 
#
# 1 176.3980 64.1820 20.1593 6.7131 26.3671 19.1118
# 2 64.1820 71.5536 20.0732 25.2823 13.5466 15.1926
# 3 20.1593 20.0732 53.2509 21.1643 2.6601 5.4085
# 4 6.7131 25.2823 21.1643 38.9152 9.2089 10.4864
# 5 26.3671 13.5466 2.6601 9.2089 32.0885 11.2920
# 6 19.1118 15.1926 5.4085 10.4864 11.2920 43.5460
#
#
#
# Elastic Compliance Matrix: (Units=1/GPa)
#
#
# Indices 1 2 3 4 5 6 
#
# 1 0.010293 -0.009854 -0.002920 0.007913 -0.005946 -0.001080
# 2 -0.009854 0.029006 -0.000432 -0.016680 0.001410 -0.002090
# 3 -0.002920 -0.000432 0.025427 -0.014229 0.004357 0.000571
# 4 0.007913 -0.016680 -0.014229 0.046491 -0.010048 -0.004476
# 5 -0.005946 0.001410 0.004357 -0.010048 0.040243 -0.006439
# 6 -0.001080 -0.002090 0.000571 -0.004476 -0.006439 0.026844
#
#
# Mechanical properties :
#
#
# Convention : Reuss Voigt Hill
#
# Bulk Modulus (GPa) = 26.10074 56.67016 41.38545
# Shear Modulus (GPa) = 22.98983 36.02913 29.50948
#
# Velocity S-wave (km/s) = 3.24030 4.05643 3.67112
# Velocity P-wave (km/s) = 5.09114 6.91528 6.07210
#
# Compressibility (1/GPa) = 0.03831310
#
# Stress axis : x y z
#
# Youngs Moduli (GPa) = 97.15586 34.47567 39.32820
#
# Poissons Ratio (x) = 0.33972 0.11484
# Poissons Ratio (y) = 0.95736 0.01700
# Poissons Ratio (z) = 0.28371 0.01490
#
# Static dielectric constant tensor:
#      x y z
#    x 1.733700 0.064960 -0.046400 
#    y 0.064960 1.823680 0.003340 
#    z -0.046400 0.003340 1.798420 
# 
# From -- ./inp_files/244996.got.cif
#   From: 2010.05.17/outbox.cif.g08.bks.cpg/sg2_123_cif.got.tgz:244996.got - 2010.06.03 11:33:40.
