data_PCOD9111045
_publ_section_title
;
Structure prediction by ZEFSAII (Michael W. Deem and Ramdas Pophale) SiO2 
 PCOD9111045
Probable space group: P -1
;
_chemical_formula_sum "Si O2"
_cell_formula_units_Z 16
_cell_length_a 12.396460
_cell_length_b 15.442995
_cell_length_c 9.230074
_cell_angle_alpha 84.765607
_cell_angle_beta 99.487577
_cell_angle_gamma 27.621605
_cell_volume 690.737340
_symmetry_space_group_name_H-M "P -1"
_symmetry_group_IT_number 2
_symmetry_cell_setting 'triclinic'
loop_
_space_group_symop_operation_xyz
x,y,z
-x,-y,-z
loop_
_atom_site_type_symbol
_atom_site_label
_atom_site_fract_x
_atom_site_fract_y
_atom_site_fract_z
Si Si1 0.367175 0.736771 0.257325
Si Si2 0.069922 0.806638 0.987738
Si Si3 0.849365 0.185136 0.524655
Si Si4 0.211784 0.050111 0.817225
Si Si5 0.683606 0.835874 0.202796
Si Si6 0.824424 0.343090 0.263384
Si Si7 0.856713 0.562144 0.097403
Si Si8 0.298531 0.095384 0.337763
O O1 0.363429 0.699628 0.423606
O O2 0.656645 0.542439 0.274336
O O3 0.177300 0.959804 0.178375
O O4 0.232288 0.764483 0.113198
O O5 0.225659 0.642460 0.918811
O O6 0.947355 0.834885 0.081505
O O7 0.739399 0.325985 0.351306
O O8 0.000000 0.000000 0.500000
O O9 0.061487 0.087934 0.680582
O O10 0.192187 0.161014 0.726829
O O11 0.530626 0.791005 0.955767
O O12 0.878056 0.617522 0.222974
O O13 0.480519 0.945536 0.260480
O O14 0.500000 0.000000 0.000000
O O15 0.150438 0.122534 0.375828
O O16 0.037305 0.345511 0.199392
O O17 0.000000 0.500000 0.000000
O O18 0.500000 0.000000 0.500000
#
# Coordination Sequence:
#
# PCOD9111045 Si02
#       8
#     2   2   2   2   2   2   2   2
#     4  10  22  42  63  91 125 167 219 264 319 390
#     4  10  21  39  65  93 127 164 214 273 315 377
#     4  11  23  44  65  92 135 174 210 275 326 388
#     4  10  21  41  68  97 132 175 220 261 328 389
#     4  10  20  42  68  94 136 172 217 268 321 394
#     4  12  23  39  67  91 129 170 213 264 334 378
#     4  11  22  41  70  95 131 175 224 263 320 396
#     4  12  26  43  65 100 138 167 217 278 327 385
#
# _framework density 23.163651999999999
#
# number of rings (size 3 to 8) (size 9 to 14) (size 15 to 20)
#    0.000    1.250    3.750    3.750    0.000    0.500 
#    2.250    3.750    0.000    0.000    0.000    0.000 
#    0.000    0.000    0.000    0.000    0.000    0.000 
#
# Total GULP energy -89397.705127 kJ/mol
# GULP energy per Si atom -5587.356570 kJ/mol
# Density = 2.311093 g / cm^3
# Si number density = 23.163652 Si / 1000 Ang^3
#
#
#
# Elastic Constant Matrix: (Units=GPa)
#
#
# Indices 1 2 3 4 5 6 
#
# 1 70.5445 34.1751 14.6771 18.0785 -0.3183 -15.4107
# 2 34.1751 135.2825 35.0711 38.4311 -12.0356 -12.5004
# 3 14.6771 35.0711 70.0168 31.1302 -2.8265 -10.0251
# 4 18.0785 38.4311 31.1302 45.4159 -2.6137 -9.4331
# 5 -0.3183 -12.0356 -2.8265 -2.6137 44.0633 11.4917
# 6 -15.4107 -12.5004 -10.0251 -9.4331 11.4917 45.0458
#
#
#
# Elastic Compliance Matrix: (Units=1/GPa)
#
#
# Indices 1 2 3 4 5 6 
#
# 1 0.017705 -0.003254 0.000072 -0.003429 -0.002272 0.005031
# 2 -0.003254 0.010697 -0.001751 -0.006523 0.002542 -0.000549
# 3 0.000072 -0.001751 0.020967 -0.012594 -0.000309 0.001646
# 4 -0.003429 -0.006523 -0.012594 0.037982 -0.000993 0.002421
# 5 -0.002272 0.002542 -0.000309 -0.000993 0.025052 -0.006740
# 6 0.005031 -0.000549 0.001646 0.002421 -0.006740 0.026361
#
#
# Mechanical properties :
#
#
# Convention : Reuss Voigt Hill
#
# Bulk Modulus (GPa) = 25.31577 49.29894 37.30736
# Shear Modulus (GPa) = 30.90266 39.69970 35.30118
#
# Velocity S-wave (km/s) = 3.65650 4.14439 3.90807
# Velocity P-wave (km/s) = 5.36465 6.65060 6.04193
#
# Compressibility (1/GPa) = 0.03950106
#
# Stress axis : x y z
#
# Youngs Moduli (GPa) = 56.48243 93.48688 47.69319
#
# Poissons Ratio (x) = 0.30424 -0.00343
# Poissons Ratio (y) = 0.18382 0.08353
# Poissons Ratio (z) = -0.00406 0.16373
#
# Static dielectric constant tensor:
#      x y z
#    x 1.969060 0.007010 0.004500 
#    y 0.007010 1.992940 -0.047360 
#    z 0.004500 -0.047360 1.890330 
# 
# From -- ./inp_files/38208.got.cif
#   From: 2010.05.17/outbox.cif.g08.bks.cpg/sg2_20_cif.got.tgz:38208.got - 2010.06.03 11:33:40.
