data_PCOD9111451
_publ_section_title
;
Structure prediction by ZEFSAII (Michael W. Deem and Ramdas Pophale) SiO2 
 PCOD9111451
Probable space group: P -1
;
_chemical_formula_sum "Si O2"
_cell_formula_units_Z 16
_cell_length_a 15.180949
_cell_length_b 23.553529
_cell_length_c 4.937307
_cell_angle_alpha 116.678251
_cell_angle_beta 63.414699
_cell_angle_gamma 155.498458
_cell_volume 650.573540
_symmetry_space_group_name_H-M "P -1"
_symmetry_group_IT_number 2
_symmetry_cell_setting 'triclinic'
loop_
_space_group_symop_operation_xyz
x,y,z
-x,-y,-z
loop_
_atom_site_type_symbol
_atom_site_label
_atom_site_fract_x
_atom_site_fract_y
_atom_site_fract_z
Si Si1 0.483877 0.914381 0.861476
Si Si2 0.183939 0.173363 0.345591
Si Si3 0.438158 0.645414 0.205936
Si Si4 0.513551 0.567181 0.315845
Si Si5 0.021451 0.663567 0.802827
Si Si6 0.748633 0.906771 0.551347
Si Si7 0.060491 0.300860 0.529336
Si Si8 0.735359 0.011126 0.218635
O O1 0.244650 0.758730 0.769637
O O2 0.638906 0.963932 0.551684
O O3 0.557693 0.943277 0.126968
O O4 0.500000 0.000000 0.000000
O O5 0.256619 0.285635 0.564172
O O6 0.200572 0.134324 0.488367
O O7 0.374296 0.261380 0.071849
O O8 0.930289 0.025922 0.330780
O O9 0.458487 0.598767 0.288394
O O10 0.509854 0.755587 0.451494
O O11 0.187871 0.496542 0.161338
O O12 0.315577 0.445253 0.526100
O O13 0.500000 0.500000 0.000000
O O14 0.999358 0.677123 0.555820
O O15 0.025569 0.728669 0.125128
O O16 0.765786 0.964523 0.901952
O O17 0.953764 0.176735 0.289877
#
# Coordination Sequence:
#
# PCOD9111451 Si02
#       8
#     2   2   2   2   2   2   2   2
#     4  12  23  42  66  95 130 169 209 268 337 382
#     4  10  20  43  64  87 128 174 213 255 324 378
#     4  10  22  41  63  88 125 176 211 262 315 389
#     4  10  21  36  57  95 129 162 211 262 321 380
#     4  11  22  40  66  90 124 165 212 254 328 383
#     4  10  24  40  64  93 125 172 219 261 311 384
#     4  11  20  38  61  93 128 164 203 262 320 381
#     4  12  24  41  65 100 130 164 217 271 314 388
#
# _framework density 24.593685000000001
#
# number of rings (size 3 to 8) (size 9 to 14) (size 15 to 20)
#    0.000    1.250    3.750    2.250    1.750    0.500 
#    4.500    1.250    0.000    0.000    0.000    0.000 
#    0.000    0.000    0.000    0.000    0.000    0.000 
#
# Total GULP energy -89365.051165 kJ/mol
# GULP energy per Si atom -5585.315698 kJ/mol
# Density = 2.453771 g / cm^3
# Si number density = 24.593685 Si / 1000 Ang^3
#
#
#
# Elastic Constant Matrix: (Units=GPa)
#
#
# Indices 1 2 3 4 5 6 
#
# 1 46.3690 23.8783 2.7638 8.1034 5.9744 3.3885
# 2 23.8783 222.2722 49.2774 26.9737 -14.0808 6.9747
# 3 2.7638 49.2774 80.7680 5.3392 4.3385 -1.0129
# 4 8.1034 26.9737 5.3392 48.8209 -0.2820 0.2981
# 5 5.9744 -14.0808 4.3385 -0.2820 36.4708 -0.5038
# 6 3.3885 6.9747 -1.0129 0.2981 -0.5038 30.9985
#
#
#
# Elastic Compliance Matrix: (Units=1/GPa)
#
#
# Indices 1 2 3 4 5 6 
#
# 1 0.024242 -0.002857 0.001344 -0.002611 -0.005282 -0.002024
# 2 -0.002857 0.006169 -0.003689 -0.002505 0.003254 -0.001119
# 3 0.001344 -0.003689 0.014770 0.000174 -0.003385 0.001109
# 4 -0.002611 -0.002505 0.000174 0.022275 -0.000379 0.000634
# 5 -0.005282 0.003254 -0.003385 -0.000379 0.029944 0.000225
# 6 -0.002024 -0.001119 0.001109 0.000634 0.000225 0.032767
#
#
# Mechanical properties :
#
#
# Convention : Reuss Voigt Hill
#
# Bulk Modulus (GPa) = 28.75396 55.69424 42.22410
# Shear Modulus (GPa) = 32.85963 41.49066 37.17515
#
# Velocity S-wave (km/s) = 3.65924 4.11182 3.89211
# Velocity P-wave (km/s) = 5.43786 6.72590 6.11588
#
# Compressibility (1/GPa) = 0.03477782
#
# Stress axis : x y z
#
# Youngs Moduli (GPa) = 41.25115 162.10025 67.70365
#
# Poissons Ratio (x) = 0.46305 -0.09101
# Poissons Ratio (y) = 0.11784 0.24978
# Poissons Ratio (z) = -0.05545 0.59803
#
# Static dielectric constant tensor:
#      x y z
#    x 2.049020 0.061380 -0.003000 
#    y 0.061380 2.034740 -0.013570 
#    z -0.003000 -0.013570 1.974380 
# 
# From -- ./inp_files/75687.got.cif
#   From: 2010.05.17/outbox.cif.g08.bks.cpg/sg2_38_cif.got.tgz:75687.got - 2010.06.03 11:33:40.
