data_PCOD9111322
_publ_section_title
;
Structure prediction by ZEFSAII (Michael W. Deem and Ramdas Pophale) SiO2 
 PCOD9111322
Probable space group: P -1
;
_chemical_formula_sum "Si O2"
_cell_formula_units_Z 16
_cell_length_a 7.799134
_cell_length_b 11.876785
_cell_length_c 12.660070
_cell_angle_alpha 50.724227
_cell_angle_beta 57.284582
_cell_angle_gamma 90.148025
_cell_volume 648.023120
_symmetry_space_group_name_H-M "P -1"
_symmetry_group_IT_number 2
_symmetry_cell_setting 'triclinic'
loop_
_space_group_symop_operation_xyz
x,y,z
-x,-y,-z
loop_
_atom_site_type_symbol
_atom_site_label
_atom_site_fract_x
_atom_site_fract_y
_atom_site_fract_z
Si Si1 0.023565 0.933765 0.917821
Si Si2 0.181228 0.925262 0.487187
Si Si3 0.832601 0.865451 0.458827
Si Si4 0.229982 0.407862 0.060616
Si Si5 0.497641 0.824653 0.127841
Si Si6 0.718907 0.502759 0.743210
Si Si7 0.721277 0.317717 0.488778
Si Si8 0.982981 0.608923 0.087349
O O1 0.756755 0.853300 0.008693
O O2 0.095090 0.793514 0.993055
O O3 0.165867 0.059989 0.699465
O O4 0.000000 0.000000 0.000000
O O5 0.340868 0.844583 0.465597
O O6 0.090921 0.942647 0.390342
O O7 0.935920 0.767745 0.715254
O O8 0.289652 0.081341 0.440652
O O9 0.725180 0.665922 0.592897
O O10 0.168692 0.546616 0.043837
O O11 0.498613 0.448507 0.930315
O O12 0.111805 0.376479 0.002974
O O13 0.331517 0.663698 0.204232
O O14 0.426683 0.755622 0.312391
O O15 0.500000 0.000000 0.000000
O O16 0.998493 0.593175 0.625447
O O17 0.751288 0.470008 0.315496
#
# Coordination Sequence:
#
# PCOD9111322 Si02
#       8
#     2   2   2   2   2   2   2   2
#     4  12  27  46  69  97 139 186 223 279 342 409
#     4   9  18  40  65  94 134 170 221 280 326 387
#     4  10  21  39  66  98 129 172 226 275 330 390
#     4  10  20  42  72  96 130 179 225 280 344 393
#     4  12  26  46  68  94 137 182 236 283 331 400
#     4  11  23  42  70 100 133 179 232 279 334 400
#     4  10  24  39  67 102 136 179 223 279 337 402
#     4  10  22  42  68  96 138 173 223 274 342 407
#
# _framework density 24.690477000000001
#
# number of rings (size 3 to 8) (size 9 to 14) (size 15 to 20)
#    0.000    1.500    2.500    1.875    3.500    7.000 
#    2.250    0.625    0.000    0.000    0.000    0.000 
#    0.000    0.000    0.000    0.000    0.000    0.000 
#
# Total GULP energy -89256.396154 kJ/mol
# GULP energy per Si atom -5578.524760 kJ/mol
# Density = 2.463428 g / cm^3
# Si number density = 24.690477 Si / 1000 Ang^3
#
#
#
# Elastic Constant Matrix: (Units=GPa)
#
#
# Indices 1 2 3 4 5 6 
#
# 1 83.3851 9.0155 26.4945 -3.2229 -6.3902 -1.4481
# 2 9.0155 182.2354 52.7452 -23.7981 25.8655 -12.7662
# 3 26.4945 52.7452 98.4316 15.6855 24.8601 -0.6958
# 4 -3.2229 -23.7981 15.6855 36.7430 -1.9368 2.2160
# 5 -6.3902 25.8655 24.8601 -1.9368 40.8813 6.6246
# 6 -1.4481 -12.7662 -0.6958 2.2160 6.6246 16.7535
#
#
#
# Elastic Compliance Matrix: (Units=1/GPa)
#
#
# Indices 1 2 3 4 5 6 
#
# 1 0.014782 0.000965 -0.006986 0.005336 0.006450 -0.001533
# 2 0.000965 0.008903 -0.005466 0.007623 -0.002895 0.006777
# 3 -0.006986 -0.005466 0.019780 -0.013278 -0.010616 0.002007
# 4 0.005336 0.007623 -0.013278 0.038730 0.006222 -0.001865
# 5 0.006450 -0.002895 -0.010616 0.006222 0.036887 -0.017498
# 6 -0.001533 0.006777 0.002007 -0.001865 -0.017498 0.071970
#
#
# Mechanical properties :
#
#
# Convention : Reuss Voigt Hill
#
# Bulk Modulus (GPa) = 48.80336 60.06252 54.43294
# Shear Modulus (GPa) = 22.63926 37.26202 29.95064
#
# Velocity S-wave (km/s) = 3.03136 3.88901 3.48666
# Velocity P-wave (km/s) = 5.66226 6.67420 6.18894
#
# Compressibility (1/GPa) = 0.02049039
#
# Stress axis : x y z
#
# Youngs Moduli (GPa) = 67.65098 112.32324 50.55653
#
# Poissons Ratio (x) = -0.10835 0.35317
# Poissons Ratio (y) = -0.06526 0.27634
# Poissons Ratio (z) = 0.47259 0.61395
#
# Static dielectric constant tensor:
#      x y z
#    x 2.020150 0.031320 0.028930 
#    y 0.031320 2.060810 -0.017920 
#    z 0.028930 -0.017920 2.012670 
# 
# From -- ./inp_files/392033.got.cif
#   From: 2010.05.17/outbox.cif.g08.bks.cpg/sg2_197_cif.got.tgz:392033.got - 2010.06.03 11:33:40.
