data_PCOD9111506
_publ_section_title
;
Structure prediction by ZEFSAII (Michael W. Deem and Ramdas Pophale) SiO2 
 PCOD9111506
Probable space group: P -1
;
_chemical_formula_sum "Si O2"
_cell_formula_units_Z 12
_cell_length_a 13.249430
_cell_length_b 8.410178
_cell_length_c 19.860098
_cell_angle_alpha 126.310110
_cell_angle_beta 161.202322
_cell_angle_gamma 57.474530
_cell_volume 572.388843
_symmetry_space_group_name_H-M "P -1"
_symmetry_group_IT_number 2
_symmetry_cell_setting 'triclinic'
loop_
_space_group_symop_operation_xyz
x,y,z
-x,-y,-z
loop_
_atom_site_type_symbol
_atom_site_label
_atom_site_fract_x
_atom_site_fract_y
_atom_site_fract_z
Si Si1 0.639965 0.437087 0.774481
Si Si2 0.402190 0.540935 0.023992
Si Si3 0.681809 0.630226 0.589700
Si Si4 0.300003 0.663215 0.726655
Si Si5 0.663853 0.013046 0.754933
Si Si6 0.841208 0.921986 0.448695
O O1 0.451679 0.410675 0.579300
O O2 0.495246 0.603779 0.770156
O O3 0.623727 0.233080 0.756348
O O4 0.000000 0.500000 0.000000
O O5 0.485709 0.361618 0.079638
O O6 0.610544 0.731489 0.232524
O O7 0.500000 0.500000 0.000000
O O8 0.042066 0.583168 0.809328
O O9 0.500000 0.500000 0.500000
O O10 0.650143 0.857383 0.646733
O O11 0.000000 0.500000 0.500000
O O12 0.132328 0.862309 0.662483
O O13 0.386203 0.955482 0.619199
O O14 0.000000 0.000000 0.000000
O O15 0.000000 0.000000 0.500000
#
# Coordination Sequence:
#
# PCOD9111506 Si02
#       6
#     2   2   2   2   2   2
#     4  12  25  44  73  97 135 183 228 287 343 407
#     4  11  23  43  69  97 134 175 229 280 335 410
#     4  12  26  43  69 102 136 183 230 281 346 407
#     4  10  20  43  65  93 130 174 222 268 340 393
#     4  12  24  46  66 100 144 175 232 287 336 411
#     4  11  25  43  69 100 136 182 221 281 343 406
#
# _framework density 20.964769
#
# number of rings (size 3 to 8) (size 9 to 14) (size 15 to 20)
#    0.000    0.667    5.000    4.500    7.000    0.000 
#    0.000    0.833    0.000    0.000    0.000    0.000 
#    0.000    0.000    0.000    0.000    0.000    0.000 
#
# Total GULP energy -67112.698098 kJ/mol
# GULP energy per Si atom -5592.724841 kJ/mol
# Density = 2.091705 g / cm^3
# Si number density = 20.964769 Si / 1000 Ang^3
#
#
#
# Elastic Constant Matrix: (Units=GPa)
#
#
# Indices 1 2 3 4 5 6 
#
# 1 163.0341 25.6349 74.7850 -26.1074 5.1862 -14.1355
# 2 25.6349 40.9839 38.6188 -23.5500 2.1411 -2.7559
# 3 74.7850 38.6188 142.0835 -36.0147 3.9452 -4.4527
# 4 -26.1074 -23.5500 -36.0147 35.3619 -2.4408 2.6215
# 5 5.1862 2.1411 3.9452 -2.4408 56.9243 -5.0693
# 6 -14.1355 -2.7559 -4.4527 2.6215 -5.0693 42.8201
#
#
#
# Elastic Compliance Matrix: (Units=1/GPa)
#
#
# Indices 1 2 3 4 5 6 
#
# 1 0.008434 -0.000489 -0.003748 0.001905 -0.000211 0.002221
# 2 -0.000489 0.043032 -0.005738 0.022396 -0.000161 0.000621
# 3 -0.003748 -0.005738 0.011987 0.005666 -0.000094 -0.000718
# 4 0.001905 0.022396 0.005666 0.050447 0.000724 -0.000343
# 5 -0.000211 -0.000161 -0.000094 0.000724 0.017806 0.001974
# 6 0.002221 0.000621 -0.000718 -0.000343 0.001974 0.024307
#
#
# Mechanical properties :
#
#
# Convention : Reuss Voigt Hill
#
# Bulk Modulus (GPa) = 22.98706 69.35320 46.17013
# Shear Modulus (GPa) = 26.25181 40.82545 33.53863
#
# Velocity S-wave (km/s) = 3.54246 4.41765 4.00404
# Velocity P-wave (km/s) = 5.26502 7.69243 6.59143
#
# Compressibility (1/GPa) = 0.04350273
#
# Stress axis : x y z
#
# Youngs Moduli (GPa) = 118.56517 23.23869 83.42375
#
# Poissons Ratio (x) = 0.01136 0.31269
# Poissons Ratio (y) = 0.05794 0.47871
# Poissons Ratio (z) = 0.44440 0.13335
#
# Static dielectric constant tensor:
#      x y z
#    x 1.774360 0.028240 0.002610 
#    y 0.028240 1.811760 -0.001960 
#    z 0.002610 -0.001960 1.723370 
# 
# From -- ./inp_files/146687.got.cif
#   From: 2010.05.17/outbox.cif.g08.bks.cpg/sg2_74_cif.got.tgz:146687.got - 2010.06.03 11:33:40.
