data_PCOD9111635
_publ_section_title
;
Structure prediction by ZEFSAII (Michael W. Deem and Ramdas Pophale) SiO2 
 PCOD9111635
Probable space group: P -1
;
_chemical_formula_sum "Si O2"
_cell_formula_units_Z 14
_cell_length_a 7.648720
_cell_length_b 17.010063
_cell_length_c 7.414167
_cell_angle_alpha 125.370015
_cell_angle_beta 46.557334
_cell_angle_gamma 114.342094
_cell_volume 570.945118
_symmetry_space_group_name_H-M "P -1"
_symmetry_group_IT_number 2
_symmetry_cell_setting 'triclinic'
loop_
_space_group_symop_operation_xyz
x,y,z
-x,-y,-z
loop_
_atom_site_type_symbol
_atom_site_label
_atom_site_fract_x
_atom_site_fract_y
_atom_site_fract_z
Si Si1 0.370238 0.401020 0.423943
Si Si2 0.158983 0.199157 0.788977
Si Si3 0.452764 0.385879 0.921190
Si Si4 0.335771 0.770302 0.957676
Si Si5 0.769001 0.871042 0.969818
Si Si6 0.085667 0.693158 0.389598
Si Si7 0.225089 0.039087 0.262568
O O1 0.500000 0.500000 0.500000
O O2 0.087357 0.398096 0.650456
O O3 0.397654 0.380553 0.165950
O O4 0.498993 0.317754 0.334362
O O5 0.254335 0.310585 0.879819
O O6 0.248893 0.135358 0.810398
O O7 0.253550 0.145989 0.472821
O O8 0.866508 0.194637 0.988087
O O9 0.708322 0.334896 0.656024
O O10 0.500000 0.500000 0.000000
O O11 0.505076 0.848001 0.042726
O O12 0.182161 0.726735 0.174346
O O13 0.862379 0.953791 0.874802
O O14 0.931789 0.779101 0.690860
O O15 0.000000 0.000000 0.500000
O O16 0.500000 0.000000 0.000000
#
# Coordination Sequence:
#
# PCOD9111635 Si02
#       7
#     2   2   2   2   2   2   2
#     4  10  23  39  61  99 148 202 256 333 377 442
#     4  12  25  49  81 108 155 217 246 336 403 454
#     4  11  26  40  64 113 147 198 273 304 380 472
#     4  10  22  43  68 106 144 200 261 310 390 464
#     4  11  24  50  77 113 151 194 266 314 399 493
#     4  10  20  43  67  96 153 197 255 322 371 470
#     4  12  30  53  83 123 156 202 267 335 412 493
#
# _framework density 24.520745999999999
#
# number of rings (size 3 to 8) (size 9 to 14) (size 15 to 20)
#    0.000    1.143    5.714    0.857    4.000    6.286 
#    0.000    0.000    0.000    0.000    0.000    0.000 
#    0.000    0.000    0.000    0.000    0.000    0.000 
#
# Total GULP energy -78118.059020 kJ/mol
# GULP energy per Si atom -5579.861359 kJ/mol
# Density = 2.446494 g / cm^3
# Si number density = 24.520746 Si / 1000 Ang^3
#
#
#
# Elastic Constant Matrix: (Units=GPa)
#
#
# Indices 1 2 3 4 5 6 
#
# 1 136.5598 24.7234 32.1776 -4.0408 -12.9532 -10.2004
# 2 24.7234 101.7048 21.2157 -15.3416 -8.9836 -11.9540
# 3 32.1776 21.2157 65.5231 -6.5075 -0.2415 1.1946
# 4 -4.0408 -15.3416 -6.5075 38.2583 -0.6070 2.1122
# 5 -12.9532 -8.9836 -0.2415 -0.6070 46.4779 -7.1037
# 6 -10.2004 -11.9540 1.1946 2.1122 -7.1037 45.7609
#
#
#
# Elastic Compliance Matrix: (Units=1/GPa)
#
#
# Indices 1 2 3 4 5 6 
#
# 1 0.008861 -0.000816 -0.004137 -0.000180 0.002638 0.002288
# 2 -0.000816 0.011892 -0.003100 0.004019 0.002600 0.003224
# 3 -0.004137 -0.003100 0.018494 0.001577 -0.002033 -0.002603
# 4 -0.000180 0.004019 0.001577 0.028025 0.001077 -0.000158
# 5 0.002638 0.002600 -0.002033 0.001077 0.023509 0.004920
# 6 0.002288 0.003224 -0.002603 -0.000158 0.004920 0.024044
#
#
# Mechanical properties :
#
#
# Convention : Reuss Voigt Hill
#
# Bulk Modulus (GPa) = 43.21384 51.11346 47.16365
# Shear Modulus (GPa) = 36.06353 41.14415 38.60384
#
# Velocity S-wave (km/s) = 3.83918 4.10070 3.97209
# Velocity P-wave (km/s) = 6.10852 6.58113 6.34922
#
# Compressibility (1/GPa) = 0.02314074
#
# Stress axis : x y z
#
# Youngs Moduli (GPa) = 112.85199 84.08889 54.07230
#
# Poissons Ratio (x) = 0.06864 0.22370
# Poissons Ratio (y) = 0.09212 0.16761
# Poissons Ratio (z) = 0.46688 0.26066
#
# Static dielectric constant tensor:
#      x y z
#    x 1.988600 0.024420 -0.037890 
#    y 0.024420 2.086990 -0.022300 
#    z -0.037890 -0.022300 1.983120 
# 
# From -- ./inp_files/215667.got.cif
#   From: 2010.05.17/outbox.cif.g08.bks.cpg/sg2_108_cif.got.tgz:215667.got - 2010.06.03 11:33:40.
