data_PCOD9111593
_publ_section_title
;
Structure prediction by ZEFSAII (Michael W. Deem and Ramdas Pophale) SiO2 
 PCOD9111593
Probable space group: P -1
;
_chemical_formula_sum "Si O2"
_cell_formula_units_Z 14
_cell_length_a 15.024365
_cell_length_b 8.373738
_cell_length_c 12.112669
_cell_angle_alpha 127.543610
_cell_angle_beta 62.564758
_cell_angle_gamma 147.970225
_cell_volume 635.145648
_symmetry_space_group_name_H-M "P -1"
_symmetry_group_IT_number 2
_symmetry_cell_setting 'triclinic'
loop_
_space_group_symop_operation_xyz
x,y,z
-x,-y,-z
loop_
_atom_site_type_symbol
_atom_site_label
_atom_site_fract_x
_atom_site_fract_y
_atom_site_fract_z
Si Si1 0.517259 0.573862 0.389708
Si Si2 0.313379 0.777837 0.877242
Si Si3 0.793898 0.756172 0.710474
Si Si4 0.649574 0.472758 0.090576
Si Si5 0.155892 0.634130 0.519054
Si Si6 0.090591 0.334770 0.649555
Si Si7 0.296528 0.189092 0.992028
O O1 0.500000 0.500000 0.500000
O O2 0.352703 0.415018 0.363811
O O3 0.557844 0.447374 0.232276
O O4 0.674961 0.976814 0.447491
O O5 0.245671 0.535187 0.914954
O O6 0.270426 0.582343 0.709131
O O7 0.506373 0.135700 0.953503
O O8 0.238074 0.873372 0.929637
O O9 0.829305 0.575534 0.611945
O O10 0.742527 0.728390 0.850799
O O11 0.957460 0.148321 0.745237
O O12 0.751694 0.791676 0.089403
O O13 0.120958 0.556343 0.636887
O O14 0.000000 0.500000 0.500000
O O15 0.000000 0.000000 0.500000
O O16 0.500000 0.500000 0.000000
#
# Coordination Sequence:
#
# PCOD9111593 Si02
#       7
#     2   2   2   2   2   2   2
#     4  12  25  42  72 106 142 181 247 299 357 439
#     4  10  21  41  66  97 135 191 231 288 355 425
#     4  11  24  45  69 106 139 188 245 295 359 431
#     4  10  23  40  70  99 140 188 237 286 364 424
#     4  11  26  45  69 104 142 193 235 303 373 420
#     4  10  24  43  69  96 145 184 236 295 363 415
#     4  10  20  43  66  98 142 182 239 293 349 430
#
# _framework density 22.042187999999999
#
# number of rings (size 3 to 8) (size 9 to 14) (size 15 to 20)
#    0.000    1.429    2.857    2.143   10.000    4.000 
#    2.571    0.714    0.000    0.000    0.000    0.000 
#    0.000    0.000    0.000    0.000    0.000    0.000 
#
# Total GULP energy -78074.014515 kJ/mol
# GULP energy per Si atom -5576.715323 kJ/mol
# Density = 2.199202 g / cm^3
# Si number density = 22.042188 Si / 1000 Ang^3
#
#
#
# Elastic Constant Matrix: (Units=GPa)
#
#
# Indices 1 2 3 4 5 6 
#
# 1 193.7717 65.7749 64.2770 -0.1682 23.5161 -36.3374
# 2 65.7749 134.6162 52.8256 -1.3105 3.0255 -27.9817
# 3 64.2770 52.8256 125.2139 -5.0840 12.9814 -7.3825
# 4 -0.1682 -1.3105 -5.0840 42.8153 -3.3856 1.8326
# 5 23.5161 3.0255 12.9814 -3.3856 41.6851 -5.4635
# 6 -36.3374 -27.9817 -7.3825 1.8326 -5.4635 39.8205
#
#
#
# Elastic Compliance Matrix: (Units=1/GPa)
#
#
# Indices 1 2 3 4 5 6 
#
# 1 0.007994 -0.001645 -0.002834 -0.000808 -0.002885 0.005255
# 2 -0.001645 0.010772 -0.003579 -0.000188 0.001991 0.005687
# 3 -0.002834 -0.003579 0.010998 0.001179 -0.001914 -0.003379
# 4 -0.000808 -0.000188 0.001179 0.023696 0.001832 -0.001490
# 5 -0.002885 0.001991 -0.001914 0.001832 0.026474 0.001960
# 6 0.005255 0.005687 -0.003379 -0.001490 0.001960 0.033615
#
#
# Mechanical properties :
#
#
# Convention : Reuss Voigt Hill
#
# Bulk Modulus (GPa) = 73.26376 91.03964 82.15170
# Shear Modulus (GPa) = 37.25424 42.91247 40.08336
#
# Velocity S-wave (km/s) = 4.11558 4.41708 4.26899
# Velocity P-wave (km/s) = 7.47624 8.21013 7.85176
#
# Compressibility (1/GPa) = 0.01364931
#
# Stress axis : x y z
#
# Youngs Moduli (GPa) = 125.09798 92.83221 90.92639
#
# Poissons Ratio (x) = 0.15267 0.25765
# Poissons Ratio (y) = 0.20574 0.32543
# Poissons Ratio (z) = 0.35448 0.33225
#
# Static dielectric constant tensor:
#      x y z
#    x 1.863040 -0.000740 -0.002080 
#    y -0.000740 1.823820 0.024670 
#    z -0.002080 0.024670 1.931090 
# 
# From -- ./inp_files/448186.got.cif
#   From: 2010.05.17/outbox.cif.g08.bks.cpg/sg2_225_cif.got.tgz:448186.got - 2010.06.03 11:33:40.
