data_PCOD9111008
_publ_section_title
;
Structure prediction by ZEFSAII (Michael W. Deem and Ramdas Pophale) SiO2 
 PCOD9111008
Probable space group: P -1
;
_chemical_formula_sum "Si O2"
_cell_formula_units_Z 14
_cell_length_a 6.967559
_cell_length_b 19.965830
_cell_length_c 4.759516
_cell_angle_alpha 66.053016
_cell_angle_beta 69.920187
_cell_angle_gamma 71.898381
_cell_volume 556.896667
_symmetry_space_group_name_H-M "P -1"
_symmetry_group_IT_number 2
_symmetry_cell_setting 'triclinic'
loop_
_space_group_symop_operation_xyz
x,y,z
-x,-y,-z
loop_
_atom_site_type_symbol
_atom_site_label
_atom_site_fract_x
_atom_site_fract_y
_atom_site_fract_z
Si Si1 0.878210 0.066454 0.766624
Si Si2 0.135029 0.838183 0.862054
Si Si3 0.433443 0.409953 0.555602
Si Si4 0.528870 0.866853 0.341371
Si Si5 0.737008 0.658269 0.708045
Si Si6 0.862817 0.456865 0.341587
Si Si7 0.217005 0.197639 0.210661
O O1 0.861797 0.139848 0.853601
O O2 0.972071 0.086591 0.389552
O O3 0.641398 0.062151 0.805210
O O4 0.000000 0.000000 0.000000
O O5 0.369520 0.823566 0.657036
O O6 0.001409 0.783959 0.883960
O O7 0.404495 0.341258 0.494807
O O8 0.657354 0.430886 0.368348
O O9 0.250445 0.483940 0.467708
O O10 0.378040 0.388345 0.935015
O O11 0.706616 0.868958 0.480167
O O12 0.629298 0.826132 0.085343
O O13 0.766560 0.731209 0.732304
O O14 0.966358 0.617095 0.555643
O O15 0.000000 0.500000 0.000000
#
# Coordination Sequence:
#
# PCOD9111008 Si02
#       7
#     2   2   2   2   2   2   2
#     4  10  20  42  68  90 124 162 206 259 315 367
#     4  10  22  40  63  90 125 165 202 258 312 362
#     4  10  22  41  62  89 123 159 203 257 317 352
#     4  10  22  41  61  87 127 164 197 262 310 358
#     4  11  24  38  60  91 121 161 211 250 298 376
#     4   9  21  41  64  91 124 158 201 263 308 357
#     4  12  23  40  62  89 127 168 214 245 311 379
#
# _framework density 25.139312
#
# number of rings (size 3 to 8) (size 9 to 14) (size 15 to 20)
#    0.857    0.857    1.429    2.571    0.000    9.714 
#    0.000    4.286    0.000    0.000    0.000    0.000 
#    0.000    0.000    0.000    0.000    0.000    0.000 
#
# Total GULP energy -77986.882443 kJ/mol
# GULP energy per Si atom -5570.491603 kJ/mol
# Density = 2.508209 g / cm^3
# Si number density = 25.139312 Si / 1000 Ang^3
#
#
#
# Elastic Constant Matrix: (Units=GPa)
#
#
# Indices 1 2 3 4 5 6 
#
# 1 137.7924 6.6753 27.3859 16.2384 -10.8744 7.9487
# 2 6.6753 25.2274 1.9127 12.5812 3.3697 7.1963
# 3 27.3859 1.9127 92.8853 22.7459 13.6684 4.4722
# 4 16.2384 12.5812 22.7459 35.4377 3.7184 8.5496
# 5 -10.8744 3.3697 13.6684 3.7184 41.1083 10.4600
# 6 7.9487 7.1963 4.4722 8.5496 10.4600 26.3995
#
#
#
# Elastic Compliance Matrix: (Units=1/GPa)
#
#
# Indices 1 2 3 4 5 6 
#
# 1 0.008492 -0.000936 -0.002538 -0.001645 0.004067 -0.002950
# 2 -0.000936 0.051274 0.004480 -0.018594 -0.002350 -0.007501
# 3 -0.002538 0.004480 0.014517 -0.009751 -0.005611 0.002465
# 4 -0.001645 -0.018594 -0.009751 0.043465 0.002386 -0.007806
# 5 0.004067 -0.002350 -0.005611 0.002386 0.030414 -0.012457
# 6 -0.002950 -0.007501 0.002465 -0.007806 -0.012457 0.047859
#
#
# Mechanical properties :
#
#
# Convention : Reuss Voigt Hill
#
# Bulk Modulus (GPa) = 13.10691 36.42811 24.76751
# Shear Modulus (GPa) = 22.78533 35.25118 29.01825
#
# Velocity S-wave (km/s) = 3.01385 3.74870 3.40118
# Velocity P-wave (km/s) = 4.16366 5.76706 5.02967
#
# Compressibility (1/GPa) = 0.07629565
#
# Stress axis : x y z
#
# Youngs Moduli (GPa) = 117.75761 19.50307 68.88543
#
# Poissons Ratio (x) = 0.01825 0.17483
# Poissons Ratio (y) = 0.11020 -0.30863
# Poissons Ratio (z) = 0.29887 -0.08738
#
# Static dielectric constant tensor:
#      x y z
#    x 2.108850 0.036660 0.005580 
#    y 0.036660 2.155150 -0.132560 
#    z 0.005580 -0.132560 1.989700 
# 
# From -- ./inp_files/10549.got.cif
#   From: 2010.05.17/outbox.cif.g08.bks.cpg/sg2_6_cif.got.tgz:10549.got - 2010.06.03 11:33:40.
