data_PCOD9111629
_publ_section_title
;
Structure prediction by ZEFSAII (Michael W. Deem and Ramdas Pophale) SiO2 
 PCOD9111629
Probable space group: P -1
;
_chemical_formula_sum "Si O2"
_cell_formula_units_Z 12
_cell_length_a 6.723717
_cell_length_b 16.472568
_cell_length_c 9.622415
_cell_angle_alpha 50.043851
_cell_angle_beta 129.081495
_cell_angle_gamma 144.857088
_cell_volume 456.658868
_symmetry_space_group_name_H-M "P -1"
_symmetry_group_IT_number 2
_symmetry_cell_setting 'triclinic'
loop_
_space_group_symop_operation_xyz
x,y,z
-x,-y,-z
loop_
_atom_site_type_symbol
_atom_site_label
_atom_site_fract_x
_atom_site_fract_y
_atom_site_fract_z
Si Si1 0.843870 0.401749 0.404263
Si Si2 0.520981 0.081543 0.630015
Si Si3 0.097286 0.161278 0.571327
Si Si4 0.189186 0.996346 0.957458
Si Si5 0.505002 0.671552 0.939539
Si Si6 0.776763 0.571078 0.715022
O O1 0.624080 0.232933 0.529702
O O2 0.609349 0.396784 0.190533
O O3 0.000000 0.500000 0.500000
O O4 0.170931 0.456446 0.388582
O O5 0.824553 0.126749 0.607282
O O6 0.153865 0.961467 0.520484
O O7 0.542676 0.011383 0.849980
O O8 0.268989 0.317194 0.418553
O O9 0.321127 0.133380 0.774551
O O10 0.868839 0.839886 0.916036
O O11 0.000000 0.000000 0.000000
O O12 0.178261 0.657149 0.854537
O O13 0.496016 0.575991 0.153735
#
# Coordination Sequence:
#
# PCOD9111629 Si02
#       6
#     2   2   2   2   2   2
#     4   9  16  30  49  69  96 129 160 187 231 288
#     4   9  16  26  46  71  93 118 163 195 229 270
#     4   9  14  29  46  68  95 121 154 201 234 273
#     4  10  17  26  48  75  94 120 160 197 238 278
#     4   9  16  30  47  72 100 119 156 200 238 276
#     4   8  16  28  51  70  97 123 150 201 247 267
#
# _framework density 26.277820999999999
#
# number of rings (size 3 to 8) (size 9 to 14) (size 15 to 20)
#    1.000    2.000    1.667    2.000    0.000    0.000 
#    0.000    8.333    0.000    1.000    0.000    2.333 
#    0.000    0.000    0.000    0.000    0.000    0.000 
#
# Total GULP energy -67200.001835 kJ/mol
# GULP energy per Si atom -5600.000153 kJ/mol
# Density = 2.621801 g / cm^3
# Si number density = 26.277821 Si / 1000 Ang^3
#
#
#
# Elastic Constant Matrix: (Units=GPa)
#
#
# Indices 1 2 3 4 5 6 
#
# 1 83.3939 34.7083 32.3512 -9.6497 -13.5916 -12.8735
# 2 34.7083 161.9482 87.6099 -4.7715 -16.6482 -38.2102
# 3 32.3512 87.6099 215.5638 -34.8525 -17.4288 -27.5999
# 4 -9.6497 -4.7715 -34.8525 50.3799 -5.3924 -1.0837
# 5 -13.5916 -16.6482 -17.4288 -5.3924 41.0662 -4.3647
# 6 -12.8735 -38.2102 -27.5999 -1.0837 -4.3647 44.8650
#
#
#
# Elastic Compliance Matrix: (Units=1/GPa)
#
#
# Indices 1 2 3 4 5 6 
#
# 1 0.014361 -0.001653 -0.000216 0.003017 0.004718 0.003112
# 2 -0.001653 0.009845 -0.002857 -0.000924 0.002790 0.006402
# 3 -0.000216 -0.002857 0.007147 0.004970 0.002699 0.002284
# 4 0.003017 -0.000924 0.004970 0.024559 0.006421 0.004354
# 5 0.004718 0.002790 0.002699 0.006421 0.029931 0.008458
# 6 0.003112 0.006402 0.002284 0.004354 0.008458 0.030967
#
#
# Mechanical properties :
#
#
# Convention : Reuss Voigt Hill
#
# Bulk Modulus (GPa) = 45.65977 85.58274 65.62125
# Shear Modulus (GPa) = 37.43564 47.67799 42.55681
#
# Velocity S-wave (km/s) = 3.77850 4.26418 4.02866
# Velocity P-wave (km/s) = 6.03735 7.54211 6.83129
#
# Compressibility (1/GPa) = 0.02190112
#
# Stress axis : x y z
#
# Youngs Moduli (GPa) = 69.63065 101.57639 139.92196
#
# Poissons Ratio (x) = 0.16790 0.03019
# Poissons Ratio (y) = 0.11509 0.39980
# Poissons Ratio (z) = 0.01503 0.29023
#
# Static dielectric constant tensor:
#      x y z
#    x 2.207720 -0.009490 -0.005650 
#    y -0.009490 1.944380 0.024780 
#    z -0.005650 0.024780 2.066650 
# 
# From -- ./inp_files/318414.got.cif
#   From: 2010.05.17/outbox.cif.g08.bks.cpg/sg2_160_cif.got.tgz:318414.got - 2010.06.03 11:33:40.
