data_PCOD9111005
_publ_section_title
;
Structure prediction by ZEFSAII (Michael W. Deem and Ramdas Pophale) SiO2 
 PCOD9111005
Probable space group: P -1
;
_chemical_formula_sum "Si O2"
_cell_formula_units_Z 14
_cell_length_a 9.523093
_cell_length_b 11.115989
_cell_length_c 9.165902
_cell_angle_alpha 73.398751
_cell_angle_beta 59.319468
_cell_angle_gamma 53.726094
_cell_volume 672.567884
_symmetry_space_group_name_H-M "P -1"
_symmetry_group_IT_number 2
_symmetry_cell_setting 'triclinic'
loop_
_space_group_symop_operation_xyz
x,y,z
-x,-y,-z
loop_
_atom_site_type_symbol
_atom_site_label
_atom_site_fract_x
_atom_site_fract_y
_atom_site_fract_z
Si Si1 0.608813 0.779129 0.419329
Si Si2 0.378025 0.645317 0.613906
Si Si3 0.806848 0.177241 0.637507
Si Si4 0.197848 0.342453 0.954237
Si Si5 0.773804 0.888164 0.514909
Si Si6 0.716574 0.923600 0.847836
Si Si7 0.550036 0.552873 0.102487
O O1 0.529086 0.688563 0.570061
O O2 0.688498 0.707780 0.243229
O O3 0.763944 0.790743 0.426368
O O4 0.417093 0.945359 0.453398
O O5 0.500000 0.500000 0.500000
O O6 0.229772 0.772276 0.532729
O O7 0.325915 0.588026 0.804362
O O8 0.653337 0.325281 0.755532
O O9 0.024131 0.122440 0.586155
O O10 0.765917 0.048658 0.746149
O O11 0.333638 0.363555 0.988177
O O12 0.161189 0.212683 0.060004
O O13 0.000000 0.500000 0.000000
O O14 0.746041 0.843102 0.705464
O O15 0.500000 0.000000 0.000000
O O16 0.500000 0.500000 0.000000
#
# Coordination Sequence:
#
# PCOD9111005 Si02
#       7
#     2   2   2   2   2   2   2
#     4  11  23  46  63 102 138 177 231 285 345 403
#     4  10  20  42  68  88 137 177 220 279 338 404
#     4  11  23  45  71 100 133 186 236 276 347 416
#     4  12  27  44  67  97 141 186 223 282 360 410
#     4  11  25  40  73 101 134 175 239 285 333 418
#     4  12  22  45  71  99 139 179 227 291 347 406
#     4  11  25  43  65 102 140 178 230 289 341 406
#
# _framework density 20.815743999999999
#
# number of rings (size 3 to 8) (size 9 to 14) (size 15 to 20)
#    0.000    0.857    7.143    0.429    6.000    0.000 
#    0.000    4.286    0.000    0.000    0.000    0.000 
#    0.000    0.000    0.000    0.000    0.000    0.000 
#
# Total GULP energy -78077.906739 kJ/mol
# GULP energy per Si atom -5576.993339 kJ/mol
# Density = 2.076837 g / cm^3
# Si number density = 20.815744 Si / 1000 Ang^3
#
#
#
# Elastic Constant Matrix: (Units=GPa)
#
#
# Indices 1 2 3 4 5 6 
#
# 1 152.1519 38.5588 51.8176 6.6818 -4.5028 4.0861
# 2 38.5588 104.4261 41.3330 -1.2872 -10.4373 -5.2085
# 3 51.8176 41.3330 80.1007 -11.9827 -4.4113 6.6938
# 4 6.6818 -1.2872 -11.9827 39.5118 10.6835 -4.5703
# 5 -4.5028 -10.4373 -4.4113 10.6835 29.7336 7.3775
# 6 4.0861 -5.2085 6.6938 -4.5703 7.3775 30.7492
#
#
#
# Elastic Compliance Matrix: (Units=1/GPa)
#
#
# Indices 1 2 3 4 5 6 
#
# 1 0.009030 -0.000989 -0.005720 -0.003934 0.001872 -0.001156
# 2 -0.000989 0.012904 -0.006336 -0.001990 0.003521 0.002556
# 3 -0.005720 -0.006336 0.020703 0.007126 -0.001751 -0.003341
# 4 -0.003934 -0.001990 0.007126 0.032524 -0.013593 0.006730
# 5 0.001872 0.003521 -0.001751 -0.013593 0.042634 -0.011521
# 6 -0.001156 0.002556 -0.003341 0.006730 -0.011521 0.037599
#
#
# Mechanical properties :
#
#
# Convention : Reuss Voigt Hill
#
# Bulk Modulus (GPa) = 60.43596 66.67750 63.55673
# Shear Modulus (GPa) = 26.73764 33.66354 30.20059
#
# Velocity S-wave (km/s) = 3.58787 4.02582 3.81314
# Velocity P-wave (km/s) = 6.80151 7.32881 7.07008
#
# Compressibility (1/GPa) = 0.01654644
#
# Stress axis : x y z
#
# Youngs Moduli (GPa) = 110.73737 77.49376 48.30219
#
# Poissons Ratio (x) = 0.07667 0.27629
# Poissons Ratio (y) = 0.10957 0.30605
# Poissons Ratio (z) = 0.63342 0.49101
#
# Static dielectric constant tensor:
#      x y z
#    x 1.778300 -0.002680 -0.018260 
#    y -0.002680 1.870200 -0.082200 
#    z -0.018260 -0.082200 1.833630 
# 
# From -- ./inp_files/185654.got.cif
#   From: 2010.05.17/outbox.cif.g08.bks.cpg/sg2_93_cif.got.tgz:185654.got - 2010.06.03 11:33:40.
