data_PCOD9111158
_publ_section_title
;
Structure prediction by ZEFSAII (Michael W. Deem and Ramdas Pophale) SiO2 
 PCOD9111158
Probable space group: P -1
;
_chemical_formula_sum "Si O2"
_cell_formula_units_Z 16
_cell_length_a 22.204197
_cell_length_b 6.752355
_cell_length_c 11.866845
_cell_angle_alpha 65.346263
_cell_angle_beta 42.316516
_cell_angle_gamma 97.885849
_cell_volume 745.933726
_symmetry_space_group_name_H-M "P -1"
_symmetry_group_IT_number 2
_symmetry_cell_setting 'triclinic'
loop_
_space_group_symop_operation_xyz
x,y,z
-x,-y,-z
loop_
_atom_site_type_symbol
_atom_site_label
_atom_site_fract_x
_atom_site_fract_y
_atom_site_fract_z
Si Si1 0.761225 0.500375 0.772602
Si Si2 0.314381 0.423390 0.921219
Si Si3 0.432555 0.363506 0.247155
Si Si4 0.960880 0.188304 0.666007
Si Si5 0.176439 0.165184 0.623484
Si Si6 0.102761 0.219391 0.950936
Si Si7 0.543754 0.757237 0.218488
Si Si8 0.640011 0.221996 0.419848
O O1 0.766984 0.597135 0.615023
O O2 0.907520 0.713761 0.563745
O O3 0.702933 0.568591 0.924661
O O4 0.671849 0.128233 0.977780
O O5 0.417450 0.415940 0.754829
O O6 0.355644 0.720635 0.732409
O O7 0.172817 0.108692 0.141607
O O8 0.280153 0.159056 0.498031
O O9 0.503199 0.651014 0.169318
O O10 0.431487 0.118693 0.357396
O O11 0.500000 0.500000 0.000000
O O12 0.000000 0.500000 0.500000
O O13 0.934930 0.072053 0.860656
O O14 0.162348 0.269711 0.735196
O O15 0.025927 0.862257 0.867843
O O16 0.211915 0.525379 0.802267
O O17 0.426624 0.682191 0.455963
#
# Coordination Sequence:
#
# PCOD9111158 Si02
#       8
#     2   2   2   2   2   2   2   2
#     4  11  24  41  68  99 132 173 215 276 326 388
#     4  11  24  43  67  99 130 169 222 265 336 393
#     4  12  27  43  66  99 132 176 226 264 328 392
#     4  10  20  42  69  98 130 169 215 273 331 392
#     4  10  21  44  66  94 133 165 226 269 321 393
#     4   9  21  41  70  96 124 175 217 268 333 380
#     4  12  24  42  66  94 132 178 215 268 333 386
#     4  11  25  43  66  96 133 170 218 274 323 390
#
# _framework density 21.449627
#
# number of rings (size 3 to 8) (size 9 to 14) (size 15 to 20)
#    0.000    1.250    2.500    3.000    1.750    5.500 
#    0.000    0.000    0.000    0.000    0.000    0.000 
#    0.000    0.000    0.000    0.000    0.000    0.000 
#
# Total GULP energy -89318.030668 kJ/mol
# GULP energy per Si atom -5582.376917 kJ/mol
# Density = 2.140081 g / cm^3
# Si number density = 21.449627 Si / 1000 Ang^3
#
#
#
# Elastic Constant Matrix: (Units=GPa)
#
#
# Indices 1 2 3 4 5 6 
#
# 1 92.0706 21.7181 41.0222 -1.5705 -21.8407 -5.8516
# 2 21.7181 52.1868 23.2697 5.3221 3.1260 -3.2447
# 3 41.0222 23.2697 75.9645 3.7800 -6.5868 2.8397
# 4 -1.5705 5.3221 3.7800 32.2983 0.7658 -3.4404
# 5 -21.8407 3.1260 -6.5868 0.7658 50.9047 3.1974
# 6 -5.8516 -3.2447 2.8397 -3.4404 3.1974 35.5589
#
#
#
# Elastic Compliance Matrix: (Units=1/GPa)
#
#
# Indices 1 2 3 4 5 6 
#
# 1 0.016914 -0.004146 -0.007541 0.002524 0.006329 0.002682
# 2 -0.004146 0.023973 -0.005367 -0.003217 -0.004022 0.001984
# 3 -0.007541 -0.005367 0.019096 -0.002079 -0.000188 -0.003440
# 4 0.002524 -0.003217 -0.002079 0.032210 0.000315 0.003376
# 5 0.006329 -0.004022 -0.000188 0.000315 0.022661 -0.001318
# 6 0.002682 0.001984 -0.003440 0.003376 -0.001318 0.029465
#
#
# Mechanical properties :
#
#
# Convention : Reuss Voigt Hill
#
# Bulk Modulus (GPa) = 38.64815 43.58245 41.11530
# Shear Modulus (GPa) = 26.73050 32.69983 29.71517
#
# Velocity S-wave (km/s) = 3.53398 3.90871 3.72606
# Velocity P-wave (km/s) = 5.89146 6.38227 6.14177
#
# Compressibility (1/GPa) = 0.02587446
#
# Stress axis : x y z
#
# Youngs Moduli (GPa) = 59.12218 41.71352 52.36660
#
# Poissons Ratio (x) = 0.17296 0.39489
# Poissons Ratio (y) = 0.24514 0.28106
# Poissons Ratio (z) = 0.44583 0.22389
#
# Static dielectric constant tensor:
#      x y z
#    x 1.812170 -0.008050 -0.015700 
#    y -0.008050 1.740470 -0.000160 
#    z -0.015700 -0.000160 1.780320 
# 
# From -- ./inp_files/123636.got.cif
#   From: 2010.05.17/outbox.cif.g08.bks.cpg/sg2_62_cif.got.tgz:123636.got - 2010.06.03 11:33:40.
