data_PCOD9111933
_publ_section_title
;
Structure prediction by ZEFSAII (Michael W. Deem and Ramdas Pophale) SiO2 
 PCOD9111933
Probable space group: P -1
;
_chemical_formula_sum "Si O2"
_cell_formula_units_Z 15
_cell_length_a 17.309983
_cell_length_b 10.016461
_cell_length_c 15.324849
_cell_angle_alpha 141.167612
_cell_angle_beta 23.869401
_cell_angle_gamma 141.865766
_cell_volume 644.720798
_symmetry_space_group_name_H-M "P -1"
_symmetry_group_IT_number 2
_symmetry_cell_setting 'triclinic'
loop_
_space_group_symop_operation_xyz
x,y,z
-x,-y,-z
loop_
_atom_site_type_symbol
_atom_site_label
_atom_site_fract_x
_atom_site_fract_y
_atom_site_fract_z
Si Si1 0.085048 0.757876 0.452454
Si Si2 0.675381 0.422193 0.736361
Si Si3 0.618500 0.256828 0.013836
Si Si4 0.644967 0.469194 0.518319
Si Si5 0.000000 0.000000 0.000000
Si Si6 0.767431 0.765015 0.383172
Si Si7 0.080368 0.448415 0.037867
Si Si8 0.619806 0.990795 0.491032
O O1 0.195433 0.675820 0.377703
O O2 0.208899 0.708916 0.218387
O O3 0.852048 0.624146 0.617345
O O4 0.114457 0.019875 0.572088
O O5 0.565916 0.214728 0.682287
O O6 0.500000 0.500000 0.000000
O O7 0.734661 0.337850 0.025356
O O8 0.464901 0.403812 0.238669
O O9 0.500000 0.000000 0.000000
O O10 0.634068 0.582582 0.492766
O O11 0.879350 0.504636 0.297505
O O12 0.539120 0.204887 0.495217
O O13 0.168567 0.925380 0.732679
O O14 0.907406 0.747369 0.008628
O O15 0.647759 0.867850 0.489310
O O16 0.905812 0.656989 0.125319
#
# Coordination Sequence:
#
# PCOD9111933 Si02
#       8
#     2   2   2   2   1   2   2   2
#     4  10  23  43  67  95 135 174 218 272 340 389
#     4  10  23  42  66  99 132 172 222 275 327 397
#     4  12  25  46  67  97 139 177 213 280 343 394
#     4  12  24  43  70 100 129 179 230 272 334 402
#     4  10  20  44  62  94 136 168 212 278 326 386
#     4  10  21  45  68  96 133 173 223 282 325 394
#     4  11  26  42  70  99 132 177 228 276 330 401
#     4  10  22  39  71  97 130 177 219 274 336 390
#
# _framework density 23.265885000000001
#
# number of rings (size 3 to 8) (size 9 to 14) (size 15 to 20)
#    0.000    1.333    4.000    1.600    1.867    4.267 
#    2.400    0.000    0.000    0.000    0.000    0.000 
#    0.000    0.000    0.000    0.000    0.000    0.000 
#
# Total GULP energy -83565.720201 kJ/mol
# GULP energy per Si atom -5571.048013 kJ/mol
# Density = 2.321293 g / cm^3
# Si number density = 23.265885 Si / 1000 Ang^3
#
#
#
# Elastic Constant Matrix: (Units=GPa)
#
#
# Indices 1 2 3 4 5 6 
#
# 1 41.1864 22.7902 18.4447 5.2381 4.5970 3.4799
# 2 22.7902 166.5868 93.0905 18.1220 18.8920 17.1747
# 3 18.4447 93.0905 196.7278 16.2222 13.2508 28.4750
# 4 5.2381 18.1220 16.2222 44.8099 -2.0120 12.1278
# 5 4.5970 18.8920 13.2508 -2.0120 29.5837 -6.8424
# 6 3.4799 17.1747 28.4750 12.1278 -6.8424 22.7715
#
#
#
# Elastic Compliance Matrix: (Units=1/GPa)
#
#
# Indices 1 2 3 4 5 6 
#
# 1 0.026663 -0.002647 -0.000819 -0.001609 -0.002408 -0.000921
# 2 -0.002647 0.009200 -0.003187 -0.001624 -0.004875 -0.003149
# 3 -0.000819 -0.003187 0.008173 0.000745 -0.003565 -0.009158
# 4 -0.001609 -0.001624 0.000745 0.026594 -0.000418 -0.013750
# 5 -0.002408 -0.004875 -0.003565 -0.000418 0.043930 0.021926
# 6 -0.000921 -0.003149 -0.009158 -0.013750 0.021926 0.071794
#
#
# Mechanical properties :
#
#
# Convention : Reuss Voigt Hill
#
# Bulk Modulus (GPa) = 32.54291 74.79465 53.66878
# Shear Modulus (GPa) = 23.82058 37.44471 30.63264
#
# Velocity S-wave (km/s) = 3.20322 4.01612 3.63248
# Velocity P-wave (km/s) = 5.26295 7.32961 6.38051
#
# Compressibility (1/GPa) = 0.03072866
#
# Stress axis : x y z
#
# Youngs Moduli (GPa) = 37.50585 108.69270 122.36097
#
# Poissons Ratio (x) = 0.28769 0.10024
# Poissons Ratio (y) = 0.09927 0.39000
# Poissons Ratio (z) = 0.03073 0.34644
#
# Static dielectric constant tensor:
#      x y z
#    x 1.992390 0.026890 -0.014060 
#    y 0.026890 1.860530 0.027210 
#    z -0.014060 0.027210 1.880240 
# 
# From -- ./inp_files/257318.got.cif
#   From: 2010.05.17/outbox.cif.g08.bks.cpg/sg2_129_cif.got.tgz:257318.got - 2010.06.03 11:33:40.
