data_PCOD9111633
_publ_section_title
;
Structure prediction by ZEFSAII (Michael W. Deem and Ramdas Pophale) SiO2 
 PCOD9111633
Probable space group: P -1
;
_chemical_formula_sum "Si O2"
_cell_formula_units_Z 16
_cell_length_a 5.514962
_cell_length_b 15.156954
_cell_length_c 7.677797
_cell_angle_alpha 108.486168
_cell_angle_beta 82.869155
_cell_angle_gamma 82.007631
_cell_volume 593.011218
_symmetry_space_group_name_H-M "P -1"
_symmetry_group_IT_number 2
_symmetry_cell_setting 'triclinic'
loop_
_space_group_symop_operation_xyz
x,y,z
-x,-y,-z
loop_
_atom_site_type_symbol
_atom_site_label
_atom_site_fract_x
_atom_site_fract_y
_atom_site_fract_z
Si Si1 0.027716 0.261182 0.729124
Si Si2 0.794825 0.505977 0.295691
Si Si3 0.712023 0.582861 0.008933
Si Si4 0.179752 0.063229 0.438591
Si Si5 0.002107 0.653903 0.574398
Si Si6 0.983519 0.159473 0.164834
Si Si7 0.395821 0.056646 0.869757
Si Si8 0.592084 0.244967 0.023723
O O1 0.179832 0.335235 0.842838
O O2 0.185910 0.158811 0.604000
O O3 0.902375 0.304908 0.586371
O O4 0.827282 0.247700 0.879909
O O5 0.621524 0.528607 0.152496
O O6 0.803122 0.416983 0.368325
O O7 0.805162 0.593488 0.478426
O O8 0.065439 0.480565 0.158627
O O9 0.548521 0.648439 0.923031
O O10 0.036400 0.100468 0.296818
O O11 0.456240 0.009430 0.330874
O O12 0.000000 0.000000 0.500000
O O13 0.893677 0.746991 0.755936
O O14 0.703384 0.208015 0.177559
O O15 0.103277 0.089700 0.955929
O O16 0.475832 0.157934 0.912880
O O17 0.500000 0.000000 0.000000
#
# Coordination Sequence:
#
# PCOD9111633 Si02
#       8
#     2   2   2   2   2   2   2   2
#     4  10  21  39  64  92 130 169 211 271 319 384
#     4   9  18  39  68  91 127 163 218 274 314 394
#     4  10  22  40  64  94 124 175 213 261 337 378
#     4  10  20  43  67  96 130 163 218 273 319 369
#     4   9  18  38  63  92 128 163 211 273 325 366
#     4  10  23  41  67  94 132 171 216 265 320 391
#     4  10  22  40  66  93 124 172 219 260 322 381
#     4  12  22  40  62  89 132 173 216 260 322 393
#
# _framework density 26.980941000000001
#
# number of rings (size 3 to 8) (size 9 to 14) (size 15 to 20)
#    0.000    2.000    1.250    2.250    0.000    2.000 
#    2.250   32.500    0.000    0.000    0.000    0.000 
#    0.000    0.000    0.000    0.000    0.000    0.000 
#
# Total GULP energy -89483.254643 kJ/mol
# GULP energy per Si atom -5592.703415 kJ/mol
# Density = 2.691953 g / cm^3
# Si number density = 26.980941 Si / 1000 Ang^3
#
#
#
# Elastic Constant Matrix: (Units=GPa)
#
#
# Indices 1 2 3 4 5 6 
#
# 1 33.6873 29.1174 18.5525 -1.0245 7.6084 -24.9261
# 2 29.1174 186.4442 46.6453 -1.3304 8.5831 -10.6487
# 3 18.5525 46.6453 132.2165 10.7775 13.7261 -18.6391
# 4 -1.0245 -1.3304 10.7775 67.0327 -18.4044 7.1138
# 5 7.6084 8.5831 13.7261 -18.4044 33.4601 -4.9526
# 6 -24.9261 -10.6487 -18.6391 7.1138 -4.9526 46.3119
#
#
#
# Elastic Compliance Matrix: (Units=1/GPa)
#
#
# Indices 1 2 3 4 5 6 
#
# 1 0.061056 -0.007302 -0.000144 -0.005288 -0.010295 0.030836
# 2 -0.007302 0.006786 -0.001972 0.000885 0.000739 -0.003220
# 3 -0.000144 -0.001972 0.009480 -0.003180 -0.004614 0.003279
# 4 -0.005288 0.000885 -0.003180 0.019268 0.012050 -0.005594
# 5 -0.010295 0.000739 -0.004614 0.012050 0.039846 -0.004818
# 6 0.030836 -0.003220 0.003279 -0.005594 -0.004818 0.039113
#
#
# Mechanical properties :
#
#
# Convention : Reuss Voigt Hill
#
# Bulk Modulus (GPa) = 17.09833 60.10872 38.60352
# Shear Modulus (GPa) = 23.37753 46.56314 34.97034
#
# Velocity S-wave (km/s) = 2.94674 4.15876 3.60406
# Velocity P-wave (km/s) = 4.23422 6.73698 5.62652
#
# Compressibility (1/GPa) = 0.05848526
#
# Stress axis : x y z
#
# Youngs Moduli (GPa) = 16.37829 147.36991 105.48596
#
# Poissons Ratio (x) = 1.07606 0.01524
# Poissons Ratio (y) = 0.11959 0.20803
# Poissons Ratio (z) = 0.00237 0.29064
#
# Static dielectric constant tensor:
#      x y z
#    x 2.284040 -0.021190 0.073010 
#    y -0.021190 2.119120 -0.075320 
#    z 0.073010 -0.075320 2.124170 
# 
# From -- ./inp_files/135641.got.cif
#   From: 2010.05.17/outbox.cif.g08.bks.cpg/sg2_68_cif.got.tgz:135641.got - 2010.06.03 11:33:40.
