data_PCOD9111440
_publ_section_title
;
Structure prediction by ZEFSAII (Michael W. Deem and Ramdas Pophale) SiO2 
 PCOD9111440
Probable space group: P -1
;
_chemical_formula_sum "Si O2"
_cell_formula_units_Z 14
_cell_length_a 8.960006
_cell_length_b 10.998243
_cell_length_c 17.431511
_cell_angle_alpha 28.716522
_cell_angle_beta 107.372793
_cell_angle_gamma 125.200004
_cell_volume 573.135508
_symmetry_space_group_name_H-M "P -1"
_symmetry_group_IT_number 2
_symmetry_cell_setting 'triclinic'
loop_
_space_group_symop_operation_xyz
x,y,z
-x,-y,-z
loop_
_atom_site_type_symbol
_atom_site_label
_atom_site_fract_x
_atom_site_fract_y
_atom_site_fract_z
Si Si1 0.490747 0.226353 0.604663
Si Si2 0.346228 0.348797 0.985808
Si Si3 0.138611 0.228088 0.738962
Si Si4 0.238808 0.791864 0.661980
Si Si5 0.838147 0.592154 0.720367
Si Si6 0.476369 0.494415 0.761222
Si Si7 0.794155 0.259756 0.048672
O O1 0.500000 0.500000 0.500000
O O2 0.717789 0.438745 0.479887
O O3 0.312976 0.031573 0.617502
O O4 0.410674 0.949615 0.811175
O O5 0.307876 0.594878 0.812170
O O6 0.435475 0.340407 0.924027
O O7 0.500000 0.500000 0.000000
O O8 0.110777 0.990951 0.171787
O O9 0.257275 0.355542 0.768324
O O10 0.180004 0.988000 0.848423
O O11 0.984440 0.521716 0.752378
O O12 0.363368 0.084364 0.452658
O O13 0.594144 0.414362 0.768355
O O14 0.820149 0.505081 0.854854
O O15 0.000000 0.000000 0.500000
O O16 0.000000 0.500000 0.000000
#
# Coordination Sequence:
#
# PCOD9111440 Si02
#       7
#     2   2   2   2   2   2   2
#     4   9  19  33  62  95 123 165 201 261 329 362
#     4  12  25  41  69  92 121 173 229 264 308 384
#     4  10  22  42  61  89 137 169 203 267 325 381
#     4  10  20  43  63  91 131 170 209 263 319 382
#     4  10  21  37  66  97 125 162 215 264 313 390
#     4  10  24  40  65  92 132 168 211 258 330 383
#     4  11  19  35  69  93 127 165 210 260 322 367
#
# _framework density 24.427032000000001
#
# number of rings (size 3 to 8) (size 9 to 14) (size 15 to 20)
#    0.000    1.714    2.857    0.857    4.000    0.571 
#    0.000    2.857    3.143    0.000    0.000    0.000 
#    0.000    0.000    0.000    0.000    0.000    0.000 
#
# Total GULP energy -78038.035751 kJ/mol
# GULP energy per Si atom -5574.145411 kJ/mol
# Density = 2.437143 g / cm^3
# Si number density = 24.427032 Si / 1000 Ang^3
#
#
#
# Elastic Constant Matrix: (Units=GPa)
#
#
# Indices 1 2 3 4 5 6 
#
# 1 90.1519 24.8780 32.2834 -6.2606 -29.6751 24.1331
# 2 24.8780 59.0350 40.0470 5.7371 -21.8599 12.7820
# 3 32.2834 40.0470 179.0715 36.5882 -48.3275 11.5089
# 4 -6.2606 5.7371 36.5882 40.8120 3.2092 -5.8631
# 5 -29.6751 -21.8599 -48.3275 3.2092 55.9543 -3.4085
# 6 24.1331 12.7820 11.5089 -5.8631 -3.4085 38.7217
#
#
#
# Elastic Compliance Matrix: (Units=1/GPa)
#
#
# Indices 1 2 3 4 5 6 
#
# 1 0.016571 -0.002481 -0.000269 0.001346 0.006985 -0.008610
# 2 -0.002481 0.023004 -0.002312 -0.002735 0.005509 -0.005290
# 3 -0.000269 -0.002312 0.010891 -0.010622 0.008779 -0.003142
# 4 0.001346 -0.002735 -0.010622 0.036612 -0.011155 0.007783
# 5 0.006985 0.005509 0.008779 -0.011155 0.031482 -0.007699
# 6 -0.008610 -0.005290 -0.003142 0.007783 -0.007699 0.034372
#
#
# Mechanical properties :
#
#
# Convention : Reuss Voigt Hill
#
# Bulk Modulus (GPa) = 24.78738 58.07502 41.43120
# Shear Modulus (GPa) = 28.32830 42.50094 35.41462
#
# Velocity S-wave (km/s) = 3.40915 4.17575 3.81177
# Velocity P-wave (km/s) = 5.06616 6.86118 6.03082
#
# Compressibility (1/GPa) = 0.04034311
#
# Stress axis : x y z
#
# Youngs Moduli (GPa) = 60.34660 43.47125 91.81625
#
# Poissons Ratio (x) = 0.10784 0.02471
# Poissons Ratio (y) = 0.14970 0.21224
# Poissons Ratio (z) = 0.01624 0.10049
#
# Static dielectric constant tensor:
#      x y z
#    x 2.284750 -0.162270 0.100900 
#    y -0.162270 2.026360 -0.091870 
#    z 0.100900 -0.091870 2.018910 
# 
# From -- ./inp_files/158659.got.cif
#   From: 2010.05.17/outbox.cif.g08.bks.cpg/sg2_80_cif.got.tgz:158659.got - 2010.06.03 11:33:40.
