data_PCOD9111134
_publ_section_title
;
Structure prediction by ZEFSAII (Michael W. Deem and Ramdas Pophale) SiO2 
 PCOD9111134
Probable space group: P -1
;
_chemical_formula_sum "Si O2"
_cell_formula_units_Z 14
_cell_length_a 7.632263
_cell_length_b 8.416490
_cell_length_c 19.931592
_cell_angle_alpha 40.029116
_cell_angle_beta 48.191828
_cell_angle_gamma 75.495298
_cell_volume 515.704634
_symmetry_space_group_name_H-M "P -1"
_symmetry_group_IT_number 2
_symmetry_cell_setting 'triclinic'
loop_
_space_group_symop_operation_xyz
x,y,z
-x,-y,-z
loop_
_atom_site_type_symbol
_atom_site_label
_atom_site_fract_x
_atom_site_fract_y
_atom_site_fract_z
Si Si1 0.235743 0.924853 0.046746
Si Si2 0.330021 0.271212 0.677725
Si Si3 0.289264 0.767906 0.771531
Si Si4 0.149481 0.745259 0.325921
Si Si5 0.625590 0.553653 0.705274
Si Si6 0.689758 0.359417 0.999669
Si Si7 0.277020 0.153776 0.543159
O O1 0.179157 0.657089 0.099944
O O2 0.332229 0.222978 0.883675
O O3 0.988177 0.858902 0.180395
O O4 0.500000 0.000000 0.000000
O O5 0.500000 0.500000 0.500000
O O6 0.485808 0.498688 0.625071
O O7 0.348922 0.001793 0.737138
O O8 0.508026 0.668520 0.755683
O O9 0.957159 0.521839 0.928046
O O10 0.353759 0.940233 0.626817
O O11 0.164423 0.561393 0.319615
O O12 0.000000 0.500000 0.500000
O O13 0.967283 0.889510 0.330314
O O14 0.455925 0.013902 0.179445
O O15 0.779977 0.837412 0.523296
O O16 0.500000 0.500000 0.000000
#
# Coordination Sequence:
#
# PCOD9111134 Si02
#       7
#     2   2   2   2   2   2   2
#     4  11  25  44  67  95 141 181 225 282 352 406
#     4  10  24  42  68  96 138 184 221 274 350 402
#     4  11  22  40  69  99 135 170 234 280 336 401
#     4   9  20  38  62  96 134 172 216 275 342 400
#     4  10  23  39  67  99 128 174 233 278 338 404
#     4  11  21  39  71 101 130 179 233 279 335 410
#     4  10  20  42  69  93 138 178 220 281 347 409
#
# _framework density 27.147321000000002
#
# number of rings (size 3 to 8) (size 9 to 14) (size 15 to 20)
#    0.000    1.714    1.429    2.143    6.000    8.000 
#    0.000    5.000    0.000    0.000    0.000    0.000 
#    0.000    0.000    0.000    0.000    0.000    0.000 
#
# Total GULP energy -77956.039137 kJ/mol
# GULP energy per Si atom -5568.288510 kJ/mol
# Density = 2.708553 g / cm^3
# Si number density = 27.147321 Si / 1000 Ang^3
#
#
#
# Elastic Constant Matrix: (Units=GPa)
#
#
# Indices 1 2 3 4 5 6 
#
# 1 40.5579 5.3700 13.4320 4.0089 6.5771 1.8651
# 2 5.3700 172.0175 31.8360 22.2991 -11.8705 -32.7200
# 3 13.4320 31.8360 144.4339 12.6920 12.4409 -4.8936
# 4 4.0089 22.2991 12.6920 57.8820 -1.6790 -12.4823
# 5 6.5771 -11.8705 12.4409 -1.6790 46.9243 -4.0780
# 6 1.8651 -32.7200 -4.8936 -12.4823 -4.0780 30.2221
#
#
#
# Elastic Compliance Matrix: (Units=1/GPa)
#
#
# Indices 1 2 3 4 5 6 
#
# 1 0.026533 -0.001447 -0.001779 -0.002066 -0.004113 -0.004901
# 2 -0.001447 0.008164 -0.001601 -0.000686 0.003437 0.008850
# 3 -0.001779 -0.001601 0.007716 -0.001284 -0.002354 -0.001222
# 4 -0.002066 -0.000686 -0.001284 0.019643 0.001814 0.007535
# 5 -0.004113 0.003437 -0.002354 0.001814 0.024106 0.007596
# 6 -0.004901 0.008850 -0.001222 0.007535 0.007596 0.046911
#
#
# Mechanical properties :
#
#
# Convention : Reuss Voigt Hill
#
# Bulk Modulus (GPa) = 30.52518 50.92059 40.72289
# Shear Modulus (GPa) = 32.54200 47.43043 39.98622
#
# Velocity S-wave (km/s) = 3.46601 4.18443 3.84205
# Velocity P-wave (km/s) = 5.22363 6.49182 5.89195
#
# Compressibility (1/GPa) = 0.03275984
#
# Stress axis : x y z
#
# Youngs Moduli (GPa) = 37.68829 122.48502 129.60081
#
# Poissons Ratio (x) = 0.17728 0.23052
# Poissons Ratio (y) = 0.05455 0.20748
# Poissons Ratio (z) = 0.06704 0.19609
#
# Static dielectric constant tensor:
#      x y z
#    x 2.442850 0.059870 -0.010990 
#    y 0.059870 2.205130 0.014170 
#    z -0.010990 0.014170 2.147620 
# 
# From -- ./inp_files/606609.got.cif
#   From: 2010.05.17/outbox.cif.g08.bks.cpg/sg2_304_cif.got.tgz:606609.got - 2010.06.03 11:33:40.
