data_PCOD9111878
_publ_section_title
;
Structure prediction by ZEFSAII (Michael W. Deem and Ramdas Pophale) SiO2 
 PCOD9111878
Probable space group: P -1
;
_chemical_formula_sum "Si O2"
_cell_formula_units_Z 14
_cell_length_a 8.124057
_cell_length_b 16.296754
_cell_length_c 10.979542
_cell_angle_alpha 35.587775
_cell_angle_beta 46.579633
_cell_angle_gamma 61.524819
_cell_volume 602.710325
_symmetry_space_group_name_H-M "P -1"
_symmetry_group_IT_number 2
_symmetry_cell_setting 'triclinic'
loop_
_space_group_symop_operation_xyz
x,y,z
-x,-y,-z
loop_
_atom_site_type_symbol
_atom_site_label
_atom_site_fract_x
_atom_site_fract_y
_atom_site_fract_z
Si Si1 0.526887 0.165241 0.836222
Si Si2 0.872104 0.317611 0.679355
Si Si3 0.057075 0.144942 0.225764
Si Si4 0.148993 0.381475 0.083171
Si Si5 0.585969 0.548581 0.533740
Si Si6 0.336627 0.842477 0.771303
Si Si7 0.663872 0.655798 0.715854
O O1 0.748107 0.229134 0.730977
O O2 0.466603 0.289001 0.624802
O O3 0.320759 0.163492 0.036323
O O4 0.500000 0.000000 0.000000
O O5 0.819780 0.481646 0.504245
O O6 0.150175 0.325668 0.512212
O O7 0.745154 0.235319 0.963313
O O8 0.030972 0.264751 0.189597
O O9 0.902131 0.147850 0.184005
O O10 0.000000 0.000000 0.500000
O O11 0.169564 0.323351 0.276380
O O12 0.408873 0.450248 0.831133
O O13 0.000000 0.500000 0.000000
O O14 0.500000 0.500000 0.500000
O O15 0.482739 0.758674 0.707877
O O16 0.500000 0.000000 0.500000
O O17 0.500000 0.500000 0.000000
#
# Coordination Sequence:
#
# PCOD9111878 Si02
#       7
#     2   2   2   2   2   2   2
#     4  11  25  44  75 113 146 201 263 309 378 458
#     4  11  25  52  76 108 159 199 258 322 386 463
#     4  12  27  48  76 104 150 202 255 322 385 454
#     4  12  23  44  75 107 148 196 263 314 369 464
#     4  10  20  43  73 103 148 191 249 317 372 441
#     4  12  28  52  73 110 163 202 250 326 396 463
#     4  12  28  48  76 116 152 202 257 315 397 468
#
# _framework density 23.228404999999999
#
# number of rings (size 3 to 8) (size 9 to 14) (size 15 to 20)
#    0.000    0.571    4.286    4.286    8.000    2.286 
#    5.143    0.000    0.000    0.000    0.000    0.000 
#    0.000    0.000    0.000    0.000    0.000    0.000 
#
# Total GULP energy -78143.253522 kJ/mol
# GULP energy per Si atom -5581.660966 kJ/mol
# Density = 2.317554 g / cm^3
# Si number density = 23.228405 Si / 1000 Ang^3
#
#
#
# Elastic Constant Matrix: (Units=GPa)
#
#
# Indices 1 2 3 4 5 6 
#
# 1 63.2924 9.2022 28.7225 10.3961 -3.1021 -0.1679
# 2 9.2022 144.9563 54.8276 -20.3977 -11.9584 -0.6431
# 3 28.7225 54.8276 146.1544 4.3147 -5.5875 -5.5054
# 4 10.3961 -20.3977 4.3147 58.0840 0.4768 -13.8038
# 5 -3.1021 -11.9584 -5.5875 0.4768 42.3848 2.5225
# 6 -0.1679 -0.6431 -5.5054 -13.8038 2.5225 37.5795
#
#
#
# Elastic Compliance Matrix: (Units=1/GPa)
#
#
# Indices 1 2 3 4 5 6 
#
# 1 0.017979 -0.000298 -0.003349 -0.003501 0.000935 -0.001764
# 2 -0.000298 0.008813 -0.003246 0.003577 0.001945 0.000857
# 3 -0.003349 -0.003246 0.008778 -0.000989 -0.000044 0.000855
# 4 -0.003501 0.003577 -0.000989 0.020982 -0.000066 0.007612
# 5 0.000935 0.001945 -0.000044 -0.000066 0.024302 -0.001625
# 6 -0.001764 0.000857 0.000855 0.007612 -0.001625 0.029648
#
#
# Mechanical properties :
#
#
# Convention : Reuss Voigt Hill
#
# Bulk Modulus (GPa) = 45.90699 59.98975 52.94837
# Shear Modulus (GPa) = 38.00838 45.05303 41.53071
#
# Velocity S-wave (km/s) = 4.04950 4.40883 4.23298
# Velocity P-wave (km/s) = 6.45529 7.19716 6.83630
#
# Compressibility (1/GPa) = 0.02178317
#
# Stress axis : x y z
#
# Youngs Moduli (GPa) = 55.62088 113.46650 113.92375
#
# Poissons Ratio (x) = 0.03382 0.38151
# Poissons Ratio (y) = 0.01658 0.36985
# Poissons Ratio (z) = 0.18626 0.36837
#
# Static dielectric constant tensor:
#      x y z
#    x 1.868700 0.035910 -0.023350 
#    y 0.035910 1.900450 -0.002070 
#    z -0.023350 -0.002070 1.785550 
# 
# From -- ./inp_files/402586.got.cif
#   From: 2010.05.17/outbox.cif.g08.bks.cpg/sg2_202_cif.got.tgz:402586.got - 2010.06.03 11:33:40.
