data_PCOD9111147
_publ_section_title
;
Structure prediction by ZEFSAII (Michael W. Deem and Ramdas Pophale) SiO2 
 PCOD9111147
Probable space group: P -1
;
_chemical_formula_sum "Si O2"
_cell_formula_units_Z 16
_cell_length_a 13.952908
_cell_length_b 16.351343
_cell_length_c 4.989068
_cell_angle_alpha 85.191440
_cell_angle_beta 95.752216
_cell_angle_gamma 150.614048
_cell_volume 555.701243
_symmetry_space_group_name_H-M "P -1"
_symmetry_group_IT_number 2
_symmetry_cell_setting 'triclinic'
loop_
_space_group_symop_operation_xyz
x,y,z
-x,-y,-z
loop_
_atom_site_type_symbol
_atom_site_label
_atom_site_fract_x
_atom_site_fract_y
_atom_site_fract_z
Si Si1 0.156461 0.998473 0.215597
Si Si2 0.312335 0.751004 0.688848
Si Si3 0.247669 0.471584 0.540632
Si Si4 0.606166 0.683848 0.950486
Si Si5 0.693394 0.056004 0.961414
Si Si6 0.973904 0.392365 0.807381
Si Si7 0.770273 0.723709 0.459274
Si Si8 0.531101 0.798900 0.364578
O O1 0.282521 0.147666 0.009619
O O2 0.271125 0.091561 0.500505
O O3 0.175677 0.917883 0.154167
O O4 0.946357 0.876532 0.264694
O O5 0.146772 0.585655 0.878181
O O6 0.431868 0.760427 0.619478
O O7 0.185436 0.688157 0.420424
O O8 0.499632 0.943838 0.777914
O O9 0.402549 0.556425 0.786509
O O10 0.085659 0.408241 0.647167
O O11 0.178014 0.332713 0.449382
O O12 0.365879 0.609549 0.306029
O O13 0.732867 0.738175 0.727257
O O14 0.594841 0.620014 0.233070
O O15 0.844052 0.241306 0.019968
O O16 0.583946 0.919401 0.187035
#
# Coordination Sequence:
#
# PCOD9111147 Si02
#       8
#     2   2   2   2   2   2   2   2
#     4  10  23  40  63  95 130 176 227 284 348 413
#     4   9  21  42  65  98 139 172 223 284 344 413
#     4  10  22  44  63  94 134 178 229 287 353 413
#     4  11  26  42  68  94 141 177 234 296 358 408
#     4  11  21  41  69  95 136 179 224 280 353 416
#     4  10  20  42  69  96 134 179 226 282 342 431
#     4  12  24  44  67 101 130 184 235 293 351 428
#     4   9  22  41  63  95 136 174 219 285 345 416
#
# _framework density 28.792452000000001
#
# number of rings (size 3 to 8) (size 9 to 14) (size 15 to 20)
#    0.000    1.750    1.250    2.625    5.250    0.500 
#    9.000    5.625    0.000    0.000    0.000    0.000 
#    0.000    0.000    0.000    0.000    0.000    0.000 
#
# Total GULP energy -89490.892179 kJ/mol
# GULP energy per Si atom -5593.180761 kJ/mol
# Density = 2.872692 g / cm^3
# Si number density = 28.792452 Si / 1000 Ang^3
#
#
#
# Elastic Constant Matrix: (Units=GPa)
#
#
# Indices 1 2 3 4 5 6 
#
# 1 80.5993 17.7905 -0.3230 15.2231 16.6816 -0.4335
# 2 17.7905 143.8763 23.6298 -22.6307 15.7758 -26.3105
# 3 -0.3230 23.6298 114.8630 -12.5293 6.4035 -7.9032
# 4 15.2231 -22.6307 -12.5293 39.1934 -11.8927 13.6831
# 5 16.6816 15.7758 6.4035 -11.8927 43.2812 -9.4512
# 6 -0.4335 -26.3105 -7.9032 13.6831 -9.4512 63.1890
#
#
#
# Elastic Compliance Matrix: (Units=1/GPa)
#
#
# Indices 1 2 3 4 5 6 
#
# 1 0.016790 -0.002833 -0.000073 -0.010720 -0.008375 -0.000005
# 2 -0.002833 0.008697 -0.001093 0.004925 -0.000041 0.002392
# 3 -0.000073 -0.001093 0.009198 0.002186 -0.000295 0.000177
# 4 -0.010720 0.004925 0.002186 0.038235 0.011581 -0.004297
# 5 -0.008375 -0.000041 -0.000295 0.011581 0.029980 0.001865
# 6 -0.000005 0.002392 0.000177 -0.004297 0.001865 0.018053
#
#
# Mechanical properties :
#
#
# Convention : Reuss Voigt Hill
#
# Bulk Modulus (GPa) = 37.47107 46.83701 42.15404
# Shear Modulus (GPa) = 36.27222 49.01549 42.64386
#
# Velocity S-wave (km/s) = 3.55319 4.13046 3.85265
# Velocity P-wave (km/s) = 5.46590 6.24900 5.87052
#
# Compressibility (1/GPa) = 0.02668726
#
# Stress axis : x y z
#
# Youngs Moduli (GPa) = 59.55911 114.98404 108.72198
#
# Poissons Ratio (x) = 0.32574 0.00791
# Poissons Ratio (y) = 0.16873 0.11883
# Poissons Ratio (z) = 0.00433 0.12568
#
# Static dielectric constant tensor:
#      x y z
#    x 2.271330 -0.074830 -0.068190 
#    y -0.074830 2.335950 -0.009460 
#    z -0.068190 -0.009460 2.266190 
# 
# From -- ./inp_files/99628.got.cif
#   From: 2010.05.17/outbox.cif.g08.bks.cpg/sg2_50_cif.got.tgz:99628.got - 2010.06.03 11:33:40.
