data_PCOD9111073
_publ_section_title
;
Structure prediction by ZEFSAII (Michael W. Deem and Ramdas Pophale) SiO2 
 PCOD9111073
Probable space group: P -1
;
_chemical_formula_sum "Si O2"
_cell_formula_units_Z 16
_cell_length_a 14.423475
_cell_length_b 14.306106
_cell_length_c 12.220976
_cell_angle_alpha 37.809775
_cell_angle_beta 58.267173
_cell_angle_gamma 31.260015
_cell_volume 708.253682
_symmetry_space_group_name_H-M "P -1"
_symmetry_group_IT_number 2
_symmetry_cell_setting 'triclinic'
loop_
_space_group_symop_operation_xyz
x,y,z
-x,-y,-z
loop_
_atom_site_type_symbol
_atom_site_label
_atom_site_fract_x
_atom_site_fract_y
_atom_site_fract_z
Si Si1 0.968258 0.876955 0.525706
Si Si2 0.309148 0.270892 0.194053
Si Si3 0.608023 0.126797 0.256971
Si Si4 0.462075 0.965635 0.937878
Si Si5 0.994025 0.428122 0.372371
Si Si6 0.587491 0.308305 0.727299
Si Si7 0.969216 0.856484 0.782335
Si Si8 0.502928 0.457401 0.212740
O O1 0.055988 0.667032 0.573381
O O2 0.975452 0.784288 0.723164
O O3 0.074193 0.914931 0.422883
O O4 0.736325 0.186635 0.355175
O O5 0.491456 0.114972 0.299560
O O6 0.402862 0.111832 0.167023
O O7 0.148961 0.344503 0.278331
O O8 0.178200 0.576684 0.969371
O O9 0.508658 0.304285 0.269395
O O10 0.847903 0.807671 0.413002
O O11 0.571053 0.311392 0.026591
O O12 0.525521 0.712458 0.144870
O O13 0.229587 0.239266 0.783292
O O14 0.500000 0.000000 0.000000
O O15 0.500000 0.500000 0.500000
O O16 0.610925 0.393006 0.738430
O O17 0.797153 0.998058 0.836308
#
# Coordination Sequence:
#
# PCOD9111073 Si02
#       8
#     2   2   2   2   2   2   2   2
#     4  10  21  40  65  96 130 178 221 278 337 400
#     4  12  24  46  69  97 136 183 226 279 338 401
#     4  10  22  43  72  92 135 183 232 275 329 401
#     4  12  28  44  66 104 144 174 222 284 343 409
#     4  11  26  44  67  98 135 184 229 270 342 406
#     4  12  24  42  68 105 136 170 226 284 338 405
#     4  11  22  38  70  96 135 173 225 283 343 392
#     4  10  20  42  68  97 129 173 227 285 328 389
#
# _framework density 22.590776000000002
#
# number of rings (size 3 to 8) (size 9 to 14) (size 15 to 20)
#    0.000    1.000    5.000    1.125    5.250    1.500 
#    0.000    0.625    2.750    0.000    0.000    0.000 
#    0.000    0.000    0.000    0.000    0.000    0.000 
#
# Total GULP energy -89279.777357 kJ/mol
# GULP energy per Si atom -5579.986085 kJ/mol
# Density = 2.253936 g / cm^3
# Si number density = 22.590776 Si / 1000 Ang^3
#
#
#
# Elastic Constant Matrix: (Units=GPa)
#
#
# Indices 1 2 3 4 5 6 
#
# 1 56.3696 -7.7539 8.1683 5.2932 17.1130 9.5982
# 2 -7.7539 49.0848 26.6611 5.7236 15.0338 -13.8491
# 3 8.1683 26.6611 105.6047 -12.6685 13.9357 3.9743
# 4 5.2932 5.7236 -12.6685 33.0217 -0.0643 6.6098
# 5 17.1130 15.0338 13.9357 -0.0643 31.2688 5.1236
# 6 9.5982 -13.8491 3.9743 6.6098 5.1236 24.3205
#
#
#
# Elastic Compliance Matrix: (Units=1/GPa)
#
#
# Indices 1 2 3 4 5 6 
#
# 1 0.027391 0.017401 -0.005167 -0.010959 -0.022326 0.007625
# 2 0.017401 0.060681 -0.016778 -0.029136 -0.038907 0.046544
# 3 -0.005167 -0.016778 0.015311 0.012588 0.006524 -0.014813
# 4 -0.010959 -0.029136 0.012588 0.048281 0.019671 -0.031589
# 5 -0.022326 -0.038907 0.006524 0.019671 0.065538 -0.033564
# 6 0.007625 0.046544 -0.014813 -0.031589 -0.033564 0.082689
#
#
# Mechanical properties :
#
#
# Convention : Reuss Voigt Hill
#
# Bulk Modulus (GPa) = 10.60506 29.46778 20.03642
# Shear Modulus (GPa) = 14.68806 29.98778 22.33792
#
# Velocity S-wave (km/s) = 2.55263 3.64735 3.14794
# Velocity P-wave (km/s) = 3.65957 5.55068 4.70120
#
# Compressibility (1/GPa) = 0.09429465
#
# Stress axis : x y z
#
# Youngs Moduli (GPa) = 36.50849 16.47949 65.31061
#
# Poissons Ratio (x) = -0.28676 0.33746
# Poissons Ratio (y) = -0.63527 1.09580
# Poissons Ratio (z) = 0.18864 0.27650
#
# Static dielectric constant tensor:
#      x y z
#    x 1.829040 0.029950 0.000010 
#    y 0.029950 1.893550 0.016510 
#    z 0.000010 0.016510 1.881320 
# 
# From -- ./inp_files/320673.got.cif
#   From: 2010.05.17/outbox.cif.g08.bks.cpg/sg2_161_cif.got.tgz:320673.got - 2010.06.03 11:33:40.
