data_PCOD9111019
_publ_section_title
;
Structure prediction by ZEFSAII (Michael W. Deem and Ramdas Pophale) SiO2 
 PCOD9111019
Probable space group: P -1
;
_chemical_formula_sum "Si O2"
_cell_formula_units_Z 14
_cell_length_a 18.312531
_cell_length_b 18.696641
_cell_length_c 5.080889
_cell_angle_alpha 83.494997
_cell_angle_beta 81.925156
_cell_angle_gamma 20.907668
_cell_volume 613.855433
_symmetry_space_group_name_H-M "P -1"
_symmetry_group_IT_number 2
_symmetry_cell_setting 'triclinic'
loop_
_space_group_symop_operation_xyz
x,y,z
-x,-y,-z
loop_
_atom_site_type_symbol
_atom_site_label
_atom_site_fract_x
_atom_site_fract_y
_atom_site_fract_z
Si Si1 0.471731 0.856387 0.010058
Si Si2 0.283716 0.729258 0.414633
Si Si3 0.276063 0.878430 0.638824
Si Si4 0.122770 0.799642 0.954607
Si Si5 0.883672 0.826746 0.306769
Si Si6 0.549835 0.036308 0.519864
Si Si7 0.675779 0.532127 0.927195
O O1 0.213168 0.017659 0.549161
O O2 0.508406 0.882096 0.200140
O O3 0.582760 0.680471 0.089285
O O4 0.232067 0.061673 0.965684
O O5 0.500000 0.500000 0.500000
O O6 0.288940 0.809913 0.425406
O O7 0.125919 0.838992 0.663116
O O8 0.759451 0.260525 0.858741
O O9 0.493866 0.679328 0.757076
O O10 0.095195 0.019217 0.874653
O O11 0.241881 0.616196 0.925869
O O12 0.547735 0.821916 0.709864
O O13 0.123786 0.617831 0.253630
O O14 0.792914 0.834890 0.456229
O O15 0.500000 0.000000 0.500000
#
# Coordination Sequence:
#
# PCOD9111019 Si02
#       7
#     2   2   2   2   2   2   2
#     4   9  21  39  63  91 121 161 199 246 305 356
#     4  12  24  42  63  90 122 163 211 262 309 358
#     4  10  21  42  63  87 124 167 205 257 311 365
#     4  11  25  43  62  89 123 163 208 263 308 357
#     4   8  21  40  62  92 123 163 203 254 302 365
#     4  10  20  42  68  92 127 161 197 247 307 364
#     4  10  20  44  61  93 122 165 210 252 300 370
#
# _framework density 22.806673
#
# number of rings (size 3 to 8) (size 9 to 14) (size 15 to 20)
#    0.857    1.143    1.429    1.714    0.000    2.286 
#   20.571    1.429    0.000    0.000    0.000    0.000 
#    0.000    0.000    0.000    0.000    0.000    0.000 
#
# Total GULP energy -78257.271351 kJ/mol
# GULP energy per Si atom -5589.805097 kJ/mol
# Density = 2.275476 g / cm^3
# Si number density = 22.806673 Si / 1000 Ang^3
#
#
#
# Elastic Constant Matrix: (Units=GPa)
#
#
# Indices 1 2 3 4 5 6 
#
# 1 173.9303 53.2148 26.5839 8.2792 13.1983 5.5899
# 2 53.2148 104.7756 21.1040 12.7237 3.9912 -7.3914
# 3 26.5839 21.1040 70.8929 -8.0017 11.1771 -1.0969
# 4 8.2792 12.7237 -8.0017 28.7107 -1.2800 -5.0163
# 5 13.1983 3.9912 11.1771 -1.2800 38.8742 10.1072
# 6 5.5899 -7.3914 -1.0969 -5.0163 10.1072 22.9622
#
#
#
# Elastic Compliance Matrix: (Units=1/GPa)
#
#
# Indices 1 2 3 4 5 6 
#
# 1 0.007280 -0.003289 -0.001845 -0.001702 -0.000908 -0.002891
# 2 -0.003289 0.012692 -0.002949 -0.004837 -0.000516 0.003916
# 3 -0.001845 -0.002949 0.017311 0.007151 -0.004860 0.004028
# 4 -0.001702 -0.004837 0.007151 0.040944 -0.001977 0.009014
# 5 -0.000908 -0.000516 -0.004860 -0.001977 0.031140 -0.014316
# 6 -0.002891 0.003916 0.004028 0.009014 -0.014316 0.053977
#
#
# Mechanical properties :
#
#
# Convention : Reuss Voigt Hill
#
# Bulk Modulus (GPa) = 47.35213 61.26716 54.30965
# Shear Modulus (GPa) = 26.80271 34.68916 30.74593
#
# Velocity S-wave (km/s) = 3.43186 3.90424 3.67565
# Velocity P-wave (km/s) = 6.04243 6.87358 6.47137
#
# Compressibility (1/GPa) = 0.02111837
#
# Stress axis : x y z
#
# Youngs Moduli (GPa) = 137.35443 78.79074 57.76665
#
# Poissons Ratio (x) = 0.25913 0.10656
# Poissons Ratio (y) = 0.45174 0.17035
# Poissons Ratio (z) = 0.25337 0.23235
#
# Static dielectric constant tensor:
#      x y z
#    x 1.835540 -0.013810 -0.039890 
#    y -0.013810 1.893580 0.021220 
#    z -0.039890 0.021220 1.912430 
# 
# From -- ./inp_files/120389.got.cif
#   From: 2010.05.17/outbox.cif.g08.bks.cpg/sg2_61_cif.got.tgz:120389.got - 2010.06.03 11:33:40.
