data_PCOD9111816
_publ_section_title
;
Structure prediction by ZEFSAII (Michael W. Deem and Ramdas Pophale) SiO2 
 PCOD9111816
Probable space group: P -1
;
_chemical_formula_sum "Si O2"
_cell_formula_units_Z 15
_cell_length_a 8.827733
_cell_length_b 25.383294
_cell_length_c 11.655880
_cell_angle_alpha 22.017835
_cell_angle_beta 133.120992
_cell_angle_gamma 141.066909
_cell_volume 607.424269
_symmetry_space_group_name_H-M "P -1"
_symmetry_group_IT_number 2
_symmetry_cell_setting 'triclinic'
loop_
_space_group_symop_operation_xyz
x,y,z
-x,-y,-z
loop_
_atom_site_type_symbol
_atom_site_label
_atom_site_fract_x
_atom_site_fract_y
_atom_site_fract_z
Si Si1 0.876128 0.297195 0.086893
Si Si2 0.500000 0.500000 0.500000
Si Si3 0.078946 0.211796 0.016772
Si Si4 0.804719 0.844783 0.553398
Si Si5 0.359313 0.770832 0.140902
Si Si6 0.680891 0.641191 0.557572
Si Si7 0.213899 0.854984 0.415214
Si Si8 0.263345 0.621878 0.735525
O O1 0.706250 0.263054 0.959738
O O2 0.732613 0.201979 0.319730
O O3 0.051592 0.230808 0.278565
O O4 0.038377 0.492471 0.802206
O O5 0.650369 0.605832 0.479248
O O6 0.544832 0.347585 0.536656
O O7 0.873874 0.250538 0.871797
O O8 0.186640 0.183648 0.247451
O O9 0.944706 0.041678 0.218623
O O10 0.296155 0.356200 0.768777
O O11 0.526373 0.748854 0.561328
O O12 0.579076 0.960502 0.879849
O O13 0.937552 0.811617 0.368703
O O14 0.699542 0.502266 0.915262
O O15 0.202954 0.730897 0.564217
#
# Coordination Sequence:
#
# PCOD9111816 Si02
#       8
#     2   1   2   2   2   2   2   2
#     4  10  23  37  72 108 136 187 248 293 350 426
#     4  12  26  44  70 104 146 184 238 286 376 428
#     4  10  23  44  71 105 140 193 235 301 356 427
#     4  10  20  43  71 102 141 186 247 295 349 423
#     4  11  24  45  70 104 145 187 239 298 361 426
#     4  11  26  41  70 100 150 186 229 301 364 420
#     4  11  24  46  69 103 146 192 240 293 353 431
#     4  11  22  46  69 103 146 190 240 297 349 425
#
# _framework density 24.694438000000002
#
# number of rings (size 3 to 8) (size 9 to 14) (size 15 to 20)
#    0.000    1.333    2.667    2.800    5.600    0.533 
#    0.000    3.333    0.000    0.000    0.000    0.000 
#    0.000    0.000    0.000    0.000    0.000    0.000 
#
# Total GULP energy -83890.925481 kJ/mol
# GULP energy per Si atom -5592.728365 kJ/mol
# Density = 2.463823 g / cm^3
# Si number density = 24.694438 Si / 1000 Ang^3
#
#
#
# Elastic Constant Matrix: (Units=GPa)
#
#
# Indices 1 2 3 4 5 6 
#
# 1 58.5506 71.4543 25.0304 3.5302 -10.4143 0.3369
# 2 71.4543 -170.7721 117.8793 -50.5784 -24.3946 -47.1763
# 3 25.0304 117.8793 62.1263 -5.2579 7.9158 9.4519
# 4 3.5302 -50.5784 -5.2579 20.7041 0.1604 6.7155
# 5 -10.4143 -24.3946 7.9158 0.1604 41.1060 -11.6196
# 6 0.3369 -47.1763 9.4519 6.7155 -11.6196 32.0409
#
#
#
# Elastic Compliance Matrix: (Units=1/GPa)
#
#
# Indices 1 2 3 4 5 6 
#
# 1 0.026452 -0.000179 -0.014612 -0.012287 0.012536 0.010891
# 2 -0.000179 -0.001476 0.003720 -0.001312 -0.002762 -0.003995
# 3 -0.014612 0.003720 0.018249 0.018223 -0.006784 -0.006032
# 4 -0.012287 -0.001312 0.018223 0.060076 -0.014735 -0.025114
# 5 0.012536 -0.002762 -0.006784 -0.014735 0.030619 0.011996
# 6 0.010891 -0.003995 -0.006032 -0.025114 0.011996 0.036607
#
#
# Mechanical properties :
#
#
# Convention : Reuss Voigt Hill
#
# Bulk Modulus (GPa) = 47.43003 42.07032 44.75017
# Shear Modulus (GPa) = 25.03789 1.13961 13.08875
#
# Velocity S-wave (km/s) = 3.18765 0.68006 2.30473
# Velocity P-wave (km/s) = 5.72683 4.20595 5.02427
#
# Compressibility (1/GPa) = 0.02108369
#
# Stress axis : x y z
#
# Youngs Moduli (GPa) = 37.80410 -677.66866 54.79848
#
# Poissons Ratio (x) = -0.12110 0.80074
# Poissons Ratio (y) = 0.00676 -0.20388
# Poissons Ratio (z) = 0.55241 2.52123
#
# Static dielectric constant tensor:
#      x y z
#    x 1.910820 -0.016440 0.038420 
#    y -0.016440 1.983990 0.038750 
#    z 0.038420 0.038750 1.915890 
# 
# From -- ./inp_files/508980.got.cif
#   From: 2010.05.17/outbox.cif.g08.bks.cpg/sg2_255_cif.got.tgz:508980.got - 2010.06.03 11:33:40.
