data_PCOD9111261
_publ_section_title
;
Structure prediction by ZEFSAII (Michael W. Deem and Ramdas Pophale) SiO2 
 PCOD9111261
Probable space group: P -1
;
_chemical_formula_sum "Si O2"
_cell_formula_units_Z 16
_cell_length_a 13.170533
_cell_length_b 8.551076
_cell_length_c 9.243696
_cell_angle_alpha 47.287115
_cell_angle_beta 100.898239
_cell_angle_gamma 72.127593
_cell_volume 599.144210
_symmetry_space_group_name_H-M "P -1"
_symmetry_group_IT_number 2
_symmetry_cell_setting 'triclinic'
loop_
_space_group_symop_operation_xyz
x,y,z
-x,-y,-z
loop_
_atom_site_type_symbol
_atom_site_label
_atom_site_fract_x
_atom_site_fract_y
_atom_site_fract_z
Si Si1 0.276693 0.912075 0.101146
Si Si2 0.444777 0.801092 0.464740
Si Si3 0.329064 0.911731 0.781947
Si Si4 0.135289 0.501844 0.707166
Si Si5 0.291075 0.312670 0.306253
Si Si6 0.895709 0.169379 0.742634
Si Si7 0.973008 0.287417 0.155933
Si Si8 0.380106 0.484606 0.844883
O O1 0.405944 0.827251 0.271409
O O2 0.234604 0.742196 0.268341
O O3 0.163558 0.220449 0.918411
O O4 0.288103 0.920435 0.928296
O O5 0.589933 0.688615 0.611892
O O6 0.415706 0.613459 0.652253
O O7 0.349674 0.090364 0.333997
O O8 0.323751 0.700599 0.822645
O O9 0.257473 0.189441 0.503611
O O10 0.482505 0.783702 0.901072
O O11 0.093284 0.614397 0.463542
O O12 0.043447 0.707294 0.679328
O O13 0.275098 0.444960 0.794337
O O14 0.164780 0.583832 0.040471
O O15 0.921622 0.985878 0.725334
O O16 0.000000 0.000000 0.000000
O O17 0.000000 0.500000 0.000000
#
# Coordination Sequence:
#
# PCOD9111261 Si02
#       8
#     2   2   2   2   2   2   2   2
#     4  12  25  49  72 109 147 191 234 308 365 426
#     4  10  20  42  71 103 152 176 238 295 364 428
#     4  10  25  41  71 108 150 184 239 290 374 431
#     4  12  26  48  78 102 142 196 241 295 368 425
#     4  10  22  40  71 106 139 196 231 295 356 435
#     4  12  30  50  70 109 147 188 250 304 353 422
#     4  12  26  49  77 103 142 199 249 292 354 429
#     4  10  23  44  70 110 143 191 237 294 357 453
#
# _framework density 26.704757000000001
#
# number of rings (size 3 to 8) (size 9 to 14) (size 15 to 20)
#    0.000    1.000    3.750    1.125   10.500    4.000 
#    0.000    0.000    0.000    0.000    0.000    0.000 
#    0.000    0.000    0.000    0.000    0.000    0.000 
#
# Total GULP energy -89822.198289 kJ/mol
# GULP energy per Si atom -5613.887393 kJ/mol
# Density = 2.664398 g / cm^3
# Si number density = 26.704757 Si / 1000 Ang^3
#
#
#
# Elastic Constant Matrix: (Units=GPa)
#
#
# Indices 1 2 3 4 5 6 
#
# 1 100.2601 10.9722 21.0597 17.1055 -13.0345 2.9740
# 2 10.9722 117.1520 24.9954 22.0799 -16.0108 -35.9514
# 3 21.0597 24.9954 114.1882 38.2990 -20.1141 -9.6548
# 4 17.1055 22.0799 38.2990 49.9268 -2.8457 -3.2810
# 5 -13.0345 -16.0108 -20.1141 -2.8457 47.8957 14.5795
# 6 2.9740 -35.9514 -9.6548 -3.2810 14.5795 32.8716
#
#
#
# Elastic Compliance Matrix: (Units=1/GPa)
#
#
# Indices 1 2 3 4 5 6 
#
# 1 0.011341 -0.001256 -0.000554 -0.002993 0.003615 -0.004464
# 2 -0.001256 0.014238 -0.000061 -0.004838 -0.000599 0.015450
# 3 -0.000554 -0.000061 0.012854 -0.009335 0.004407 0.000872
# 4 -0.002993 -0.004838 -0.009335 0.029941 -0.003607 -0.003174
# 5 0.003615 -0.000599 0.004407 -0.003607 0.026952 -0.012001
# 6 -0.004464 0.015450 0.000872 -0.003174 -0.012001 0.052985
#
#
# Mechanical properties :
#
#
# Convention : Reuss Voigt Hill
#
# Bulk Modulus (GPa) = 28.82591 49.51720 39.17156
# Shear Modulus (GPa) = 30.55922 44.44368 37.50145
#
# Velocity S-wave (km/s) = 3.38647 4.08396 3.75146
# Velocity P-wave (km/s) = 5.10966 6.38913 5.78488
#
# Compressibility (1/GPa) = 0.03469101
#
# Stress axis : x y z
#
# Youngs Moduli (GPa) = 88.17719 70.23452 77.79681
#
# Poissons Ratio (x) = 0.08821 0.04306
# Poissons Ratio (y) = 0.11075 0.00478
# Poissons Ratio (z) = 0.04881 0.00431
#
# Static dielectric constant tensor:
#      x y z
#    x 2.063760 0.015960 0.013980 
#    y 0.015960 2.085350 -0.025870 
#    z 0.013980 -0.025870 2.102340 
# 
# From -- ./inp_files/222834.got.cif
#   From: 2010.05.17/outbox.cif.g08.bks.cpg/sg2_112_cif.got.tgz:222834.got - 2010.06.03 11:33:40.
