data_PCOD9111672
_publ_section_title
;
Structure prediction by ZEFSAII (Michael W. Deem and Ramdas Pophale) SiO2 
 PCOD9111672
Probable space group: P -1
;
_chemical_formula_sum "Si O2"
_cell_formula_units_Z 14
_cell_length_a 9.241699
_cell_length_b 13.665430
_cell_length_c 8.639164
_cell_angle_alpha 50.817583
_cell_angle_beta 49.090160
_cell_angle_gamma 75.024908
_cell_volume 616.262763
_symmetry_space_group_name_H-M "P -1"
_symmetry_group_IT_number 2
_symmetry_cell_setting 'triclinic'
loop_
_space_group_symop_operation_xyz
x,y,z
-x,-y,-z
loop_
_atom_site_type_symbol
_atom_site_label
_atom_site_fract_x
_atom_site_fract_y
_atom_site_fract_z
Si Si1 0.050737 0.770801 0.809551
Si Si2 0.331171 0.482420 0.009024
Si Si3 0.400869 0.863926 0.121679
Si Si4 0.982988 0.567197 0.280192
Si Si5 0.357149 0.026425 0.443681
Si Si6 0.716502 0.392389 0.384213
Si Si7 0.069877 0.188038 0.460410
O O1 0.110061 0.658119 0.775568
O O2 0.921867 0.825447 0.720107
O O3 0.244548 0.887797 0.586026
O O4 0.958483 0.708530 0.099537
O O5 0.373525 0.522918 0.758692
O O6 0.500000 0.500000 0.000000
O O7 0.205424 0.580273 0.053406
O O8 0.191011 0.335810 0.265989
O O9 0.431520 0.740888 0.319427
O O10 0.161688 0.842359 0.300599
O O11 0.504134 0.875191 0.872587
O O12 0.500000 0.000000 0.000000
O O13 0.000000 0.500000 0.500000
O O14 0.819642 0.470175 0.384624
O O15 0.183630 0.090957 0.552737
O O16 0.500000 0.000000 0.500000
#
# Coordination Sequence:
#
# PCOD9111672 Si02
#       7
#     2   2   2   2   2   2   2
#     4  10  20  43  68  91 133 187 221 275 351 404
#     4  11  23  42  69  99 135 179 225 285 348 411
#     4  11  23  43  71  97 133 186 231 275 347 413
#     4  11  22  40  70  99 130 170 229 287 345 401
#     4  12  28  42  67 106 139 177 235 288 341 416
#     4  10  20  43  69  91 135 179 225 277 349 404
#     4  11  23  46  72  95 139 182 233 279 348 412
#
# _framework density 22.717583000000001
#
# number of rings (size 3 to 8) (size 9 to 14) (size 15 to 20)
#    0.000    1.143    7.143    1.286    6.000    0.571 
#    2.571    1.429    0.000    0.000    0.000    0.000 
#    0.000    0.000    0.000    0.000    0.000    0.000 
#
# Total GULP energy -78076.245656 kJ/mol
# GULP energy per Si atom -5576.874690 kJ/mol
# Density = 2.266588 g / cm^3
# Si number density = 22.717583 Si / 1000 Ang^3
#
#
#
# Elastic Constant Matrix: (Units=GPa)
#
#
# Indices 1 2 3 4 5 6 
#
# 1 171.7281 27.2447 44.3645 -11.1746 -0.5326 21.9475
# 2 27.2447 22.3584 15.4782 -12.2940 -8.6756 -0.4746
# 3 44.3645 15.4782 128.5653 -15.0169 4.6979 13.1713
# 4 -11.1746 -12.2940 -15.0169 34.7267 10.2183 -1.5947
# 5 -0.5326 -8.6756 4.6979 10.2183 39.9595 1.0364
# 6 21.9475 -0.4746 13.1713 -1.5947 1.0364 29.2335
#
#
#
# Elastic Compliance Matrix: (Units=1/GPa)
#
#
# Indices 1 2 3 4 5 6 
#
# 1 0.008582 -0.011314 -0.001083 -0.001503 -0.001670 -0.006162
# 2 -0.011314 0.077082 -0.004940 0.018527 0.012102 0.012553
# 3 -0.001083 -0.004940 0.009501 0.002685 -0.002805 -0.003302
# 4 -0.001503 0.018527 0.002685 0.037936 -0.006079 0.002505
# 5 -0.001670 0.012102 -0.002805 -0.006079 0.029480 0.001338
# 6 -0.006162 0.012553 -0.003302 0.002505 0.001338 0.040614
#
#
# Mechanical properties :
#
#
# Convention : Reuss Voigt Hill
#
# Bulk Modulus (GPa) = 16.53114 55.20295 35.86705
# Shear Modulus (GPa) = 19.37727 36.48824 27.93275
#
# Velocity S-wave (km/s) = 2.92372 4.01205 3.51032
# Velocity P-wave (km/s) = 4.32321 6.76864 5.67911
#
# Compressibility (1/GPa) = 0.06049188
#
# Stress axis : x y z
#
# Youngs Moduli (GPa) = 116.51798 12.97314 105.25318
#
# Poissons Ratio (x) = 0.14678 0.11396
# Poissons Ratio (y) = 1.31830 0.51996
# Poissons Ratio (z) = 0.12615 0.06409
#
# Static dielectric constant tensor:
#      x y z
#    x 1.915540 -0.014080 0.099860 
#    y -0.014080 1.935890 0.031070 
#    z 0.099860 0.031070 1.951870 
# 
# From -- ./inp_files/199351.got.cif
#   From: 2010.05.17/outbox.cif.g08.bks.cpg/sg2_100_cif.got.tgz:199351.got - 2010.06.03 11:33:40.
