data_PCOD9111245
_publ_section_title
;
Structure prediction by ZEFSAII (Michael W. Deem and Ramdas Pophale) SiO2 
 PCOD9111245
Probable space group: P -1
;
_chemical_formula_sum "Si O2"
_cell_formula_units_Z 15
_cell_length_a 9.960464
_cell_length_b 8.940334
_cell_length_c 17.069550
_cell_angle_alpha 42.805205
_cell_angle_beta 134.219201
_cell_angle_gamma 139.722297
_cell_volume 634.109532
_symmetry_space_group_name_H-M "P -1"
_symmetry_group_IT_number 2
_symmetry_cell_setting 'triclinic'
loop_
_space_group_symop_operation_xyz
x,y,z
-x,-y,-z
loop_
_atom_site_type_symbol
_atom_site_label
_atom_site_fract_x
_atom_site_fract_y
_atom_site_fract_z
Si Si1 0.500000 0.000000 0.500000
Si Si2 0.777129 0.352877 0.206237
Si Si3 0.192719 0.378462 0.415369
Si Si4 0.073467 0.110528 0.861940
Si Si5 0.111377 0.451257 0.989311
Si Si6 0.529709 0.761523 0.125382
Si Si7 0.393806 0.977099 0.291687
Si Si8 0.518226 0.501146 0.373737
O O1 0.467410 0.945518 0.602681
O O2 0.433829 0.699054 0.572566
O O3 0.829917 0.637426 0.142300
O O4 0.530691 0.159779 0.206040
O O5 0.939362 0.284428 0.344050
O O6 0.839266 0.368526 0.134556
O O7 0.296107 0.331972 0.398588
O O8 0.284915 0.326522 0.551913
O O9 0.315538 0.688489 0.346268
O O10 0.232064 0.173488 0.828798
O O11 0.037671 0.844576 0.983835
O O12 0.830746 0.040111 0.768933
O O13 0.349111 0.526989 0.089501
O O14 0.000000 0.500000 0.000000
O O15 0.489104 0.674797 0.231720
O O16 0.500000 0.000000 0.000000
#
# Coordination Sequence:
#
# PCOD9111245 Si02
#       8
#     1   2   2   2   2   2   2   2
#     4  10  20  42  70  98 136 178 222 288 340 406
#     4  11  24  42  69  99 137 178 232 282 349 415
#     4   9  22  42  68  98 132 178 218 293 341 407
#     4  11  24  43  64  97 135 184 228 285 340 405
#     4  12  25  42  64  96 135 182 230 279 340 408
#     4  12  26  43  70 102 138 184 230 284 345 409
#     4  10  23  41  66  97 134 175 229 282 347 402
#     4  10  21  43  69 100 138 174 231 279 348 408
#
# _framework density 23.65522
#
# number of rings (size 3 to 8) (size 9 to 14) (size 15 to 20)
#    0.000    1.333    1.333    3.600    1.867    4.267 
#    0.000   10.000    0.000    0.000    0.000    0.000 
#    0.000    0.000    0.000    0.000    0.000    0.000 
#
# Total GULP energy -83622.023527 kJ/mol
# GULP energy per Si atom -5574.801568 kJ/mol
# Density = 2.360138 g / cm^3
# Si number density = 23.655220 Si / 1000 Ang^3
#
#
#
# Elastic Constant Matrix: (Units=GPa)
#
#
# Indices 1 2 3 4 5 6 
#
# 1 123.1889 24.7180 23.4261 7.1790 3.2245 5.9003
# 2 24.7180 82.9517 13.3834 -15.0701 0.9687 -0.3505
# 3 23.4261 13.3834 99.9679 3.9899 -10.5676 0.1328
# 4 7.1790 -15.0701 3.9899 22.0309 -0.1577 6.1615
# 5 3.2245 0.9687 -10.5676 -0.1577 31.3134 1.8461
# 6 5.9003 -0.3505 0.1328 6.1615 1.8461 32.0314
#
#
#
# Elastic Compliance Matrix: (Units=1/GPa)
#
#
# Indices 1 2 3 4 5 6 
#
# 1 0.009494 -0.003434 -0.001719 -0.004933 -0.001432 -0.000748
# 2 -0.003434 0.015670 -0.001858 0.012612 -0.000601 -0.001580
# 3 -0.001719 -0.001858 0.011187 -0.002869 0.003962 0.000573
# 4 -0.004933 0.012612 -0.002869 0.059026 0.000054 -0.010299
# 5 -0.001432 -0.000601 0.003962 0.000054 0.033539 -0.001703
# 6 -0.000748 -0.001580 0.000573 -0.010299 -0.001703 0.033417
#
#
# Mechanical properties :
#
#
# Convention : Reuss Voigt Hill
#
# Bulk Modulus (GPa) = 44.78355 47.68484 46.23420
# Shear Modulus (GPa) = 27.20377 33.38053 30.29215
#
# Velocity S-wave (km/s) = 3.39486 3.76057 3.58239
# Velocity P-wave (km/s) = 5.86000 6.24963 6.05795
#
# Compressibility (1/GPa) = 0.02232963
#
# Stress axis : x y z
#
# Youngs Moduli (GPa) = 105.32584 63.81621 89.38794
#
# Poissons Ratio (x) = 0.21918 0.15362
# Poissons Ratio (y) = 0.36174 0.16607
# Poissons Ratio (z) = 0.18101 0.11856
#
# Static dielectric constant tensor:
#      x y z
#    x 1.893290 0.009370 0.048530 
#    y 0.009370 1.922740 -0.008970 
#    z 0.048530 -0.008970 1.938210 
# 
# From -- ./inp_files/492141.got.cif
#   From: 2010.05.17/outbox.cif.g08.bks.cpg/sg2_247_cif.got.tgz:492141.got - 2010.06.03 11:33:40.
