data_PCOD9111186
_publ_section_title
;
Structure prediction by ZEFSAII (Michael W. Deem and Ramdas Pophale) SiO2 
 PCOD9111186
Probable space group: P -1
;
_chemical_formula_sum "Si O2"
_cell_formula_units_Z 14
_cell_length_a 14.626015
_cell_length_b 14.808244
_cell_length_c 10.294751
_cell_angle_alpha 138.952945
_cell_angle_beta 122.444631
_cell_angle_gamma 29.337567
_cell_volume 664.756704
_symmetry_space_group_name_H-M "P -1"
_symmetry_group_IT_number 2
_symmetry_cell_setting 'triclinic'
loop_
_space_group_symop_operation_xyz
x,y,z
-x,-y,-z
loop_
_atom_site_type_symbol
_atom_site_label
_atom_site_fract_x
_atom_site_fract_y
_atom_site_fract_z
Si Si1 0.633417 0.997557 0.098249
Si Si2 0.478646 0.181974 0.903494
Si Si3 0.631482 0.552340 0.425620
Si Si4 0.767610 0.631755 0.432880
Si Si5 0.409959 0.676186 0.000449
Si Si6 0.036782 0.243130 0.438201
Si Si7 0.900139 0.555786 0.165832
O O1 0.591640 0.098692 0.031752
O O2 0.548038 0.192180 0.351195
O O3 0.500000 0.000000 0.000000
O O4 0.869571 0.717757 0.990450
O O5 0.460094 0.337479 0.971760
O O6 0.266705 0.333496 0.932730
O O7 0.618230 0.919447 0.652977
O O8 0.650130 0.620659 0.379924
O O9 0.838104 0.369903 0.461521
O O10 0.620157 0.406228 0.222602
O O11 0.947208 0.436130 0.463908
O O12 0.845213 0.547040 0.254420
O O13 0.500000 0.500000 0.000000
O O14 0.202045 0.967575 0.204867
O O15 0.119664 0.259003 0.625687
#
# Coordination Sequence:
#
# PCOD9111186 Si02
#       7
#     2   2   2   2   2   2   2
#     4  12  23  47  67 103 141 177 228 279 345 410
#     4  12  25  41  72 105 138 177 229 284 343 399
#     4  10  24  44  68  97 137 184 222 273 344 413
#     4  10  20  42  70 104 126 168 239 286 328 387
#     4  12  26  44  65 105 143 176 229 283 339 411
#     4  10  21  38  72  99 126 180 224 282 344 383
#     4  12  22  39  72 109 130 171 228 296 337 389
#
# _framework density 21.060337000000001
#
# number of rings (size 3 to 8) (size 9 to 14) (size 15 to 20)
#    0.857    0.000    5.714    3.000    2.000    1.143 
#    5.143    0.714    0.000    0.000    0.000    0.000 
#    0.000    0.000    0.000    0.000    0.000    0.000 
#
# Total GULP energy -78229.497118 kJ/mol
# GULP energy per Si atom -5587.821223 kJ/mol
# Density = 2.101240 g / cm^3
# Si number density = 21.060337 Si / 1000 Ang^3
#
#
#
# Elastic Constant Matrix: (Units=GPa)
#
#
# Indices 1 2 3 4 5 6 
#
# 1 92.3301 32.9809 57.2154 10.1831 8.0272 -13.4609
# 2 32.9809 74.6753 37.1747 13.5419 7.8331 -17.0207
# 3 57.2154 37.1747 161.8479 14.4313 3.8008 -33.1752
# 4 10.1831 13.5419 14.4313 21.1812 -5.8683 -4.8671
# 5 8.0272 7.8331 3.8008 -5.8683 44.0602 2.3902
# 6 -13.4609 -17.0207 -33.1752 -4.8671 2.3902 36.4157
#
#
#
# Elastic Compliance Matrix: (Units=1/GPa)
#
#
# Indices 1 2 3 4 5 6 
#
# 1 0.015338 -0.004050 -0.004290 -0.002498 -0.002019 -0.000333
# 2 -0.004050 0.019043 -0.000841 -0.009508 -0.004147 0.005639
# 3 -0.004290 -0.000841 0.009418 -0.002524 -0.000559 0.006300
# 4 -0.002498 -0.009508 -0.002524 0.058942 0.010238 -0.000461
# 5 -0.002019 -0.004147 -0.000559 0.010238 0.025403 -0.003493
# 6 -0.000333 0.005639 0.006300 -0.000461 -0.003493 0.035881
#
#
# Mechanical properties :
#
#
# Convention : Reuss Voigt Hill
#
# Bulk Modulus (GPa) = 39.31253 64.84393 52.07823
# Shear Modulus (GPa) = 26.19634 33.76357 29.97996
#
# Velocity S-wave (km/s) = 3.53068 4.00832 3.77706
# Velocity P-wave (km/s) = 5.94374 7.23040 6.61841
#
# Compressibility (1/GPa) = 0.02543718
#
# Stress axis : x y z
#
# Youngs Moduli (GPa) = 65.19612 52.51193 106.17819
#
# Poissons Ratio (x) = 0.21265 0.45553
# Poissons Ratio (y) = 0.26402 0.08934
# Poissons Ratio (z) = 0.27971 0.04418
#
# Static dielectric constant tensor:
#      x y z
#    x 1.804510 -0.011200 -0.003120 
#    y -0.011200 1.842780 -0.045320 
#    z -0.003120 -0.045320 1.727380 
# 
# From -- ./inp_files/455941.got.cif
#   From: 2010.05.17/outbox.cif.g08.bks.cpg/sg2_228_cif.got.tgz:455941.got - 2010.06.03 11:33:40.
