data_PCOD9111870
_publ_section_title
;
Structure prediction by ZEFSAII (Michael W. Deem and Ramdas Pophale) SiO2 
 PCOD9111870
Probable space group: P -1
;
_chemical_formula_sum "Si O2"
_cell_formula_units_Z 15
_cell_length_a 7.872519
_cell_length_b 11.879616
_cell_length_c 9.214366
_cell_angle_alpha 81.673601
_cell_angle_beta 83.577124
_cell_angle_gamma 124.850143
_cell_volume 679.345456
_symmetry_space_group_name_H-M "P -1"
_symmetry_group_IT_number 2
_symmetry_cell_setting 'triclinic'
loop_
_space_group_symop_operation_xyz
x,y,z
-x,-y,-z
loop_
_atom_site_type_symbol
_atom_site_label
_atom_site_fract_x
_atom_site_fract_y
_atom_site_fract_z
Si Si1 0.462349 0.663353 0.691082
Si Si2 0.068131 0.803730 0.730927
Si Si3 0.469410 0.702478 0.250214
Si Si4 0.510586 0.986526 0.174102
Si Si5 0.500000 0.500000 0.500000
Si Si6 0.004325 0.529131 0.665156
Si Si7 0.628396 0.668736 0.959069
Si Si8 0.672357 0.981823 0.556720
O O1 0.562863 0.588154 0.631222
O O2 0.498628 0.692648 0.852745
O O3 0.211091 0.549122 0.705045
O O4 0.571834 0.818165 0.586865
O O5 0.120441 0.917891 0.580538
O O6 0.043230 0.675865 0.671055
O O7 0.860851 0.746895 0.854610
O O8 0.268573 0.876918 0.807443
O O9 0.507247 0.851283 0.241552
O O10 0.484137 0.621487 0.399337
O O11 0.227001 0.597412 0.232731
O O12 0.627753 0.720828 0.108162
O O13 0.321278 0.973364 0.285362
O O14 0.500000 0.000000 0.000000
O O15 0.000000 0.500000 0.500000
O O16 0.500000 0.500000 0.000000
O O17 0.500000 0.000000 0.500000
#
# Coordination Sequence:
#
# PCOD9111870 Si02
#       8
#     2   2   2   2   1   2   2   2
#     4  12  24  42  72 105 143 186 234 301 360 428
#     4  11  24  46  73 100 147 192 236 295 363 435
#     4  12  26  45  73 103 152 183 242 301 356 440
#     4  11  24  47  75 110 142 188 248 307 355 423
#     4  12  22  42  64 104 144 186 222 298 364 418
#     4  12  23  41  75 109 130 189 246 294 357 418
#     4  12  26  47  64 102 150 187 229 300 370 426
#     4  10  20  43  73 100 139 180 241 291 347 418
#
# _framework density 22.080074
#
# number of rings (size 3 to 8) (size 9 to 14) (size 15 to 20)
#    0.000    0.533    6.667    3.200    0.000    2.667 
#    0.000    1.333    0.000    0.000    0.000    0.000 
#    0.000    0.000    0.000    0.000    0.000    0.000 
#
# Total GULP energy -83585.675891 kJ/mol
# GULP energy per Si atom -5572.378393 kJ/mol
# Density = 2.202982 g / cm^3
# Si number density = 22.080074 Si / 1000 Ang^3
#
#
#
# Elastic Constant Matrix: (Units=GPa)
#
#
# Indices 1 2 3 4 5 6 
#
# 1 47.0380 42.7245 39.0458 -4.0372 -5.4335 5.5682
# 2 42.7245 129.0755 38.8192 -0.6850 -10.1777 -22.7143
# 3 39.0458 38.8192 137.6577 1.4484 -14.7722 4.5399
# 4 -4.0372 -0.6850 1.4484 39.4404 1.5941 -3.4055
# 5 -5.4335 -10.1777 -14.7722 1.5941 43.7705 -3.6576
# 6 5.5682 -22.7143 4.5399 -3.4055 -3.6576 47.3785
#
#
#
# Elastic Compliance Matrix: (Units=1/GPa)
#
#
# Indices 1 2 3 4 5 6 
#
# 1 0.040971 -0.013127 -0.007787 0.003432 -0.001575 -0.010237
# 2 -0.013127 0.013786 -0.000195 -0.000470 0.002222 0.008308
# 3 -0.007787 -0.000195 0.009793 -0.001257 0.002337 -0.000027
# 4 0.003432 -0.000470 -0.001257 0.025893 -0.000943 0.001280
# 5 -0.001575 0.002222 0.002337 -0.000943 0.024227 0.002829
# 6 -0.010237 0.008308 -0.000027 0.001280 0.002829 0.026606
#
#
# Mechanical properties :
#
#
# Convention : Reuss Voigt Hill
#
# Bulk Modulus (GPa) = 44.77852 61.66114 53.21983
# Shear Modulus (GPa) = 26.18661 38.99665 32.59163
#
# Velocity S-wave (km/s) = 3.44755 4.20711 3.84613
# Velocity P-wave (km/s) = 6.01428 7.18238 6.62412
#
# Compressibility (1/GPa) = 0.02233214
#
# Stress axis : x y z
#
# Youngs Moduli (GPa) = 24.40745 72.53765 102.11503
#
# Poissons Ratio (x) = 0.95222 0.79516
# Poissons Ratio (y) = 0.32040 0.01989
# Poissons Ratio (z) = 0.19006 0.01413
#
# Static dielectric constant tensor:
#      x y z
#    x 1.894700 0.004050 -0.020760 
#    y 0.004050 1.806260 -0.024930 
#    z -0.020760 -0.024930 1.900730 
# 
# From -- ./inp_files/187545.got.cif
#   From: 2010.05.17/outbox.cif.g08.bks.cpg/sg2_94_cif.got.tgz:187545.got - 2010.06.03 11:33:40.
