data_PCOD9111778
_publ_section_title
;
Structure prediction by ZEFSAII (Michael W. Deem and Ramdas Pophale) SiO2 
 PCOD9111778
Probable space group: P -1
;
_chemical_formula_sum "Si O2"
_cell_formula_units_Z 13
_cell_length_a 14.291512
_cell_length_b 8.607331
_cell_length_c 13.141472
_cell_angle_alpha 58.056494
_cell_angle_beta 149.748924
_cell_angle_gamma 100.756469
_cell_volume 535.275121
_symmetry_space_group_name_H-M "P -1"
_symmetry_group_IT_number 2
_symmetry_cell_setting 'triclinic'
loop_
_space_group_symop_operation_xyz
x,y,z
-x,-y,-z
loop_
_atom_site_type_symbol
_atom_site_label
_atom_site_fract_x
_atom_site_fract_y
_atom_site_fract_z
Si Si1 0.806359 0.475068 0.286796
Si Si2 0.266324 0.638382 0.431713
Si Si3 0.245831 0.884134 0.148058
Si Si4 0.500000 0.000000 0.500000
Si Si5 0.497625 0.216744 0.929449
Si Si6 0.084069 0.938866 0.757852
Si Si7 0.228329 0.482571 0.000772
O O1 0.573152 0.668278 0.066193
O O2 0.000000 0.500000 0.500000
O O3 0.797122 0.512978 0.145356
O O4 0.888057 0.218708 0.479619
O O5 0.266098 0.676501 0.297693
O O6 0.308520 0.418199 0.600684
O O7 0.497846 0.610325 0.696877
O O8 0.025602 0.878924 0.165388
O O9 0.426104 0.911973 0.362590
O O10 0.254245 0.864154 0.042003
O O11 0.252387 0.274541 0.151001
O O12 0.757282 0.121035 0.171886
O O13 0.500000 0.000000 0.000000
O O14 0.043059 0.746647 0.780593
#
# Coordination Sequence:
#
# PCOD9111778 Si02
#       7
#     2   2   2   1   2   2   2
#     4  12  23  43  66  93 140 173 213 280 323 385
#     4   9  21  40  66  92 131 169 215 265 323 387
#     4  10  20  43  70  93 130 173 217 270 330 377
#     4  10  22  38  68  98 128 172 220 268 328 392
#     4  11  23  38  62 102 126 173 217 261 331 390
#     4  11  23  42  70  96 128 179 219 269 323 392
#     4  10  24  41  64 100 128 174 223 265 329 390
#
# _framework density 24.286577000000001
#
# number of rings (size 3 to 8) (size 9 to 14) (size 15 to 20)
#    0.000    1.538    3.077    1.385    0.000    8.000 
#    2.769    0.000    3.385    6.462    0.000    0.000 
#    0.000    0.000    0.000    0.000    0.000    0.000 
#
# Total GULP energy -72416.442306 kJ/mol
# GULP energy per Si atom -5570.495562 kJ/mol
# Density = 2.423130 g / cm^3
# Si number density = 24.286577 Si / 1000 Ang^3
#
#
#
# Elastic Constant Matrix: (Units=GPa)
#
#
# Indices 1 2 3 4 5 6 
#
# 1 42.0056 16.5242 8.7603 18.4206 4.9425 -18.0870
# 2 16.5242 117.2584 50.5846 -5.7788 -11.8388 -24.9663
# 3 8.7603 50.5846 124.8409 -7.8135 -24.3149 -5.4995
# 4 18.4206 -5.7788 -7.8135 51.1529 -4.1946 -6.9377
# 5 4.9425 -11.8388 -24.3149 -4.1946 31.5869 -1.7844
# 6 -18.0870 -24.9663 -5.4995 -6.9377 -1.7844 31.9163
#
#
#
# Elastic Compliance Matrix: (Units=1/GPa)
#
#
# Indices 1 2 3 4 5 6 
#
# 1 0.040220 -0.002070 -0.004329 -0.014036 -0.011320 0.016744
# 2 -0.002070 0.012896 -0.003883 0.003096 0.003092 0.009091
# 3 -0.004329 -0.003883 0.011646 0.003284 0.008493 -0.002296
# 4 -0.014036 0.003096 0.003284 0.026408 0.009465 0.001303
# 5 -0.011320 0.003092 0.008493 0.009465 0.042491 0.001901
# 6 0.016744 0.009091 -0.002296 0.001303 0.001901 0.047926
#
#
# Mechanical properties :
#
#
# Convention : Reuss Voigt Hill
#
# Bulk Modulus (GPa) = 22.62595 48.42700 35.52647
# Shear Modulus (GPa) = 23.05373 36.81360 29.93367
#
# Velocity S-wave (km/s) = 3.08431 3.89755 3.51453
# Velocity P-wave (km/s) = 4.69259 6.34332 5.57934
#
# Compressibility (1/GPa) = 0.04419705
#
# Stress axis : x y z
#
# Youngs Moduli (GPa) = 24.86312 77.54597 85.86524
#
# Poissons Ratio (x) = 0.16051 0.37173
# Poissons Ratio (y) = 0.05146 0.33345
# Poissons Ratio (z) = 0.10764 0.30114
#
# Static dielectric constant tensor:
#      x y z
#    x 2.043020 0.125220 0.100140 
#    y 0.125220 2.051110 0.028700 
#    z 0.100140 0.028700 2.257890 
# 
# From -- ./inp_files/444245.got.cif
#   From: 2010.05.17/outbox.cif.g08.bks.cpg/sg2_223_cif.got.tgz:444245.got - 2010.06.03 11:33:40.
