data_PCOD9111130
_publ_section_title
;
Structure prediction by ZEFSAII (Michael W. Deem and Ramdas Pophale) SiO2 
 PCOD9111130
Probable space group: P -1
;
_chemical_formula_sum "Si O2"
_cell_formula_units_Z 16
_cell_length_a 15.257475
_cell_length_b 11.052461
_cell_length_c 7.111337
_cell_angle_alpha 93.669013
_cell_angle_beta 39.070966
_cell_angle_gamma 102.261946
_cell_volume 728.616603
_symmetry_space_group_name_H-M "P -1"
_symmetry_group_IT_number 2
_symmetry_cell_setting 'triclinic'
loop_
_space_group_symop_operation_xyz
x,y,z
-x,-y,-z
loop_
_atom_site_type_symbol
_atom_site_label
_atom_site_fract_x
_atom_site_fract_y
_atom_site_fract_z
Si Si1 0.929023 0.168057 0.753369
Si Si2 0.104684 0.630486 0.902433
Si Si3 0.074054 0.825647 0.682414
Si Si4 0.351080 0.036184 0.775932
Si Si5 0.257594 0.273485 0.838708
Si Si6 0.208324 0.088102 0.398095
Si Si7 0.319319 0.356124 0.159815
Si Si8 0.352127 0.518710 0.462259
O O1 0.905440 0.185103 0.575266
O O2 0.056372 0.100460 0.566165
O O3 0.962173 0.298837 0.820134
O O4 0.782499 0.078820 0.071134
O O5 0.131074 0.726194 0.694409
O O6 0.251532 0.600779 0.718831
O O7 0.000000 0.500000 0.000000
O O8 0.157501 0.969012 0.606038
O O9 0.900629 0.788383 0.990610
O O10 0.500000 0.000000 0.500000
O O11 0.340915 0.164635 0.704475
O O12 0.311827 0.057534 0.060965
O O13 0.337726 0.398020 0.606575
O O14 0.238923 0.317830 0.090976
O O15 0.286406 0.230947 0.331825
O O16 0.294177 0.465202 0.346763
O O17 0.485906 0.401552 0.827482
#
# Coordination Sequence:
#
# PCOD9111130 Si02
#       8
#     2   2   2   2   2   2   2   2
#     4  11  22  42  68  91 132 173 207 272 325 375
#     4  12  27  39  62  97 133 164 225 265 305 383
#     4  11  22  42  66  99 122 171 216 265 323 389
#     4  10  21  39  68 103 126 159 220 274 317 384
#     4  11  21  41  74  90 127 172 216 257 335 378
#     4  10  20  42  69  93 126 171 214 261 335 379
#     4  10  23  43  68  85 132 174 216 264 320 385
#     4  11  25  45  59  97 130 176 219 261 313 392
#
# _framework density 21.959422
#
# number of rings (size 3 to 8) (size 9 to 14) (size 15 to 20)
#    0.000    1.250    5.000    1.875    3.500    3.000 
#    9.000    0.625    0.000    0.000    0.000    0.000 
#    0.000    0.000    0.000    0.000    0.000    0.000 
#
# Total GULP energy -89391.473448 kJ/mol
# GULP energy per Si atom -5586.967091 kJ/mol
# Density = 2.190944 g / cm^3
# Si number density = 21.959422 Si / 1000 Ang^3
#
#
#
# Elastic Constant Matrix: (Units=GPa)
#
#
# Indices 1 2 3 4 5 6 
#
# 1 39.3647 31.0427 22.1413 -6.7038 10.0989 -8.7481
# 2 31.0427 137.1473 45.6817 -24.9114 -3.4140 -15.6232
# 3 22.1413 45.6817 117.0211 -3.2961 -16.8531 -8.8421
# 4 -6.7038 -24.9114 -3.2961 53.9753 4.2291 4.2113
# 5 10.0989 -3.4140 -16.8531 4.2291 31.0701 4.3340
# 6 -8.7481 -15.6232 -8.8421 4.2113 4.3340 35.3263
#
#
#
# Elastic Compliance Matrix: (Units=1/GPa)
#
#
# Indices 1 2 3 4 5 6 
#
# 1 0.041857 -0.005943 -0.007800 0.002930 -0.019988 0.007888
# 2 -0.005943 0.010399 -0.002553 0.003683 0.000918 0.001937
# 3 -0.007800 -0.002553 0.012231 -0.002058 0.009294 -0.000894
# 4 0.002930 0.003683 -0.002058 0.020824 -0.004486 -0.000093
# 5 -0.019988 0.000918 0.009294 -0.004486 0.045447 -0.007258
# 6 0.007888 0.001937 -0.000894 -0.000093 -0.007258 0.031795
#
#
# Mechanical properties :
#
#
# Convention : Reuss Voigt Hill
#
# Bulk Modulus (GPa) = 31.35209 54.58495 42.96852
# Shear Modulus (GPa) = 24.29833 37.05219 30.67526
#
# Velocity S-wave (km/s) = 3.33003 4.11213 3.74158
# Velocity P-wave (km/s) = 5.39387 6.88893 6.18673
#
# Compressibility (1/GPa) = 0.03189580
#
# Stress axis : x y z
#
# Youngs Moduli (GPa) = 23.89099 96.16058 81.76129
#
# Poissons Ratio (x) = 0.57147 0.63772
# Poissons Ratio (y) = 0.14198 0.20872
# Poissons Ratio (z) = 0.18634 0.24548
#
# Static dielectric constant tensor:
#      x y z
#    x 1.839150 0.052190 0.030530 
#    y 0.052190 1.803360 -0.016580 
#    z 0.030530 -0.016580 1.804520 
# 
# From -- ./inp_files/328990.got.cif
#   From: 2010.05.17/outbox.cif.g08.bks.cpg/sg2_165_cif.got.tgz:328990.got - 2010.06.03 11:33:40.
