data_PCOD9111781
_publ_section_title
;
Structure prediction by ZEFSAII (Michael W. Deem and Ramdas Pophale) SiO2 
 PCOD9111781
Probable space group: P -1
;
_chemical_formula_sum "Si O2"
_cell_formula_units_Z 16
_cell_length_a 8.027221
_cell_length_b 14.187647
_cell_length_c 9.388759
_cell_angle_alpha 75.731562
_cell_angle_beta 113.848461
_cell_angle_gamma 133.709280
_cell_volume 706.050638
_symmetry_space_group_name_H-M "P -1"
_symmetry_group_IT_number 2
_symmetry_cell_setting 'triclinic'
loop_
_space_group_symop_operation_xyz
x,y,z
-x,-y,-z
loop_
_atom_site_type_symbol
_atom_site_label
_atom_site_fract_x
_atom_site_fract_y
_atom_site_fract_z
Si Si1 0.385928 0.085768 0.476718
Si Si2 0.801526 0.788559 0.743816
Si Si3 0.956694 0.310857 0.654193
Si Si4 0.371825 0.556415 0.880575
Si Si5 0.214094 0.393134 0.408488
Si Si6 0.150730 0.659397 0.894489
Si Si7 0.417601 0.933506 0.732585
Si Si8 0.849574 0.178844 0.938265
O O1 0.223226 0.118966 0.374859
O O2 0.661744 0.218643 0.571382
O O3 0.421783 0.045412 0.353195
O O4 0.274117 0.970271 0.593108
O O5 0.567636 0.680403 0.801950
O O6 0.816929 0.712674 0.658081
O O7 0.026268 0.853387 0.902863
O O8 0.135837 0.452964 0.736924
O O9 0.064316 0.334751 0.525457
O O10 0.978035 0.232779 0.808342
O O11 0.285430 0.603691 0.952842
O O12 0.500000 0.500000 0.000000
O O13 0.500000 0.500000 0.500000
O O14 0.101162 0.435049 0.248505
O O15 0.299262 0.795251 0.807190
O O16 0.126071 0.706381 0.019738
O O17 0.580624 0.046780 0.861484
#
# Coordination Sequence:
#
# PCOD9111781 Si02
#       8
#     2   2   2   2   2   2   2   2
#     4  10  22  40  71  98 130 175 219 278 334 391
#     4  11  22  42  60 101 134 171 224 269 327 397
#     4  11  22  43  65  98 135 173 217 274 332 394
#     4  12  24  42  68  98 140 173 218 276 332 396
#     4  11  23  39  66  97 132 174 225 271 329 394
#     4  11  24  45  69  98 133 179 220 274 332 396
#     4  10  20  43  70  94 132 174 226 270 336 387
#     4  10  24  42  68  98 135 176 221 272 330 399
#
# _framework density 22.661263000000002
#
# number of rings (size 3 to 8) (size 9 to 14) (size 15 to 20)
#    0.000    1.250    5.000    0.375    1.750    2.000 
#    4.500    2.500    0.000    0.000    0.000    0.000 
#    0.000    0.000    0.000    0.000    0.000    0.000 
#
# Total GULP energy -89311.364755 kJ/mol
# GULP energy per Si atom -5581.960297 kJ/mol
# Density = 2.260968 g / cm^3
# Si number density = 22.661263 Si / 1000 Ang^3
#
#
#
# Elastic Constant Matrix: (Units=GPa)
#
#
# Indices 1 2 3 4 5 6 
#
# 1 99.5643 23.1129 42.1082 -2.5992 18.5489 -20.1288
# 2 23.1129 64.1453 32.4542 -3.4067 13.0559 2.2162
# 3 42.1082 32.4542 125.5588 2.1833 -0.3670 -8.3503
# 4 -2.5992 -3.4067 2.1833 38.3304 -3.3197 6.3216
# 5 18.5489 13.0559 -0.3670 -3.3197 25.7083 -14.0487
# 6 -20.1288 2.2162 -8.3503 6.3216 -14.0487 38.7090
#
#
#
# Elastic Compliance Matrix: (Units=1/GPa)
#
#
# Indices 1 2 3 4 5 6 
#
# 1 0.014376 -0.001755 -0.004114 -0.000253 -0.007353 0.004061
# 2 -0.001755 0.022844 -0.006034 0.002494 -0.015276 -0.009474
# 3 -0.004114 -0.006034 0.011203 -0.001377 0.008081 0.003780
# 4 -0.000253 0.002494 -0.001377 0.027187 -0.000414 -0.005162
# 5 -0.007353 -0.015276 0.008081 -0.000414 0.064118 0.022132
# 6 0.004061 -0.009474 0.003780 -0.005162 0.022132 0.038179
#
#
# Mechanical properties :
#
#
# Convention : Reuss Voigt Hill
#
# Bulk Modulus (GPa) = 40.62585 53.84658 47.23622
# Shear Modulus (GPa) = 23.81871 33.32240 28.57055
#
# Velocity S-wave (km/s) = 3.24555 3.83881 3.55458
# Velocity P-wave (km/s) = 5.65784 6.59255 6.14300
#
# Compressibility (1/GPa) = 0.02461487
#
# Stress axis : x y z
#
# Youngs Moduli (GPa) = 69.56240 43.77511 89.26281
#
# Poissons Ratio (x) = 0.07684 0.36726
# Poissons Ratio (y) = 0.12211 0.53862
# Poissons Ratio (z) = 0.28621 0.26414
#
# Static dielectric constant tensor:
#      x y z
#    x 1.952600 0.034750 0.033860 
#    y 0.034750 1.907870 -0.006380 
#    z 0.033860 -0.006380 1.852850 
# 
# From -- ./inp_files/207040.got.cif
#   From: 2010.05.17/outbox.cif.g08.bks.cpg/sg2_104_cif.got.tgz:207040.got - 2010.06.03 11:33:40.
