data_PCOD9111972
_publ_section_title
;
Structure prediction by ZEFSAII (Michael W. Deem and Ramdas Pophale) SiO2 
 PCOD9111972
Probable space group: P -1
;
_chemical_formula_sum "Si O2"
_cell_formula_units_Z 16
_cell_length_a 20.242662
_cell_length_b 8.507041
_cell_length_c 10.841226
_cell_angle_alpha 126.341760
_cell_angle_beta 149.951148
_cell_angle_gamma 48.591063
_cell_volume 700.132424
_symmetry_space_group_name_H-M "P -1"
_symmetry_group_IT_number 2
_symmetry_cell_setting 'triclinic'
loop_
_space_group_symop_operation_xyz
x,y,z
-x,-y,-z
loop_
_atom_site_type_symbol
_atom_site_label
_atom_site_fract_x
_atom_site_fract_y
_atom_site_fract_z
Si Si1 0.694476 0.266314 0.322126
Si Si2 0.158230 0.008974 0.012415
Si Si3 0.906697 0.391699 0.370490
Si Si4 0.378225 0.455256 0.896400
Si Si5 0.425011 0.684541 0.303033
Si Si6 0.305451 0.426750 0.170749
Si Si7 0.162833 0.122843 0.795177
Si Si8 0.912941 0.204692 0.869947
O O1 0.662047 0.472802 0.276878
O O2 0.781357 0.225708 0.572901
O O3 0.794808 0.084210 0.312637
O O4 0.532743 0.272818 0.076426
O O5 0.114060 0.802123 0.828078
O O6 0.179621 0.082228 0.946759
O O7 0.314585 0.906851 0.275083
O O8 0.040700 0.193287 0.980411
O O9 0.759534 0.555031 0.261964
O O10 0.000000 0.500000 0.500000
O O11 0.001749 0.269490 0.580341
O O12 0.401415 0.642317 0.102575
O O13 0.382778 0.515399 0.234643
O O14 0.584257 0.651472 0.575502
O O15 0.161613 0.603303 0.070173
O O16 0.263621 0.240769 0.967358
O O17 0.000000 0.000000 0.000000
#
# Coordination Sequence:
#
# PCOD9111972 Si02
#       8
#     2   2   2   2   2   2   2   2
#     4  11  22  41  69 100 130 169 226 276 331 388
#     4  11  22  41  67  93 132 175 218 272 335 391
#     4  11  22  39  65  98 131 172 219 269 327 396
#     4  10  21  41  70  97 127 179 220 273 328 387
#     4  10  20  44  65  93 131 184 213 263 337 398
#     4  11  25  41  67  96 138 175 219 269 332 403
#     4  12  23  41  68 102 128 172 224 276 331 392
#     4  12  24  42  65  96 132 179 217 269 335 397
#
# _framework density 22.852819
#
# number of rings (size 3 to 8) (size 9 to 14) (size 15 to 20)
#    0.000    1.000    6.250    2.625    0.000    1.000 
#    0.000    6.250    0.000    0.000    0.000    0.000 
#    0.000    0.000    0.000    0.000    0.000    0.000 
#
# Total GULP energy -89217.323235 kJ/mol
# GULP energy per Si atom -5576.082702 kJ/mol
# Density = 2.280081 g / cm^3
# Si number density = 22.852819 Si / 1000 Ang^3
#
#
#
# Elastic Constant Matrix: (Units=GPa)
#
#
# Indices 1 2 3 4 5 6 
#
# 1 92.9817 15.9886 24.9206 -11.2751 14.7609 -0.5089
# 2 15.9886 36.8007 27.7570 -20.8981 9.1403 2.4727
# 3 24.9206 27.7570 101.2036 -42.7737 0.9001 10.6714
# 4 -11.2751 -20.8981 -42.7737 30.4300 -4.7387 -1.9443
# 5 14.7609 9.1403 0.9001 -4.7387 44.9432 -15.4520
# 6 -0.5089 2.4727 10.6714 -1.9443 -15.4520 17.3811
#
#
#
# Elastic Compliance Matrix: (Units=1/GPa)
#
#
# Indices 1 2 3 4 5 6 
#
# 1 0.012509 -0.003746 -0.003278 -0.003223 -0.003951 -0.000961
# 2 -0.003746 0.049665 0.004213 0.036098 -0.010249 -0.014836
# 3 -0.003278 0.004213 0.027846 0.039742 -0.001060 -0.014288
# 4 -0.003223 0.036098 0.039742 0.110817 -0.001901 -0.018923
# 5 -0.003951 -0.010249 -0.001060 -0.001901 0.037539 0.035154
# 6 -0.000961 -0.014836 -0.014288 -0.018923 0.035154 0.097524
#
#
# Mechanical properties :
#
#
# Convention : Reuss Voigt Hill
#
# Bulk Modulus (GPa) = 11.84878 40.92428 26.38653
# Shear Modulus (GPa) = 13.52615 29.37217 21.44916
#
# Velocity S-wave (km/s) = 2.43550 3.58896 3.06695
# Velocity P-wave (km/s) = 3.62008 5.92628 4.91049
#
# Compressibility (1/GPa) = 0.08439689
#
# Stress axis : x y z
#
# Youngs Moduli (GPa) = 79.94366 20.13505 35.91208
#
# Poissons Ratio (x) = 0.07543 0.11773
# Poissons Ratio (y) = 0.29948 -0.15131
# Poissons Ratio (z) = 0.26209 -0.08484
#
# Static dielectric constant tensor:
#      x y z
#    x 1.883670 0.032410 -0.026020 
#    y 0.032410 1.880870 -0.049290 
#    z -0.026020 -0.049290 1.931310 
# 
# From -- ./inp_files/470102.got.cif
#   From: 2010.05.17/outbox.cif.g08.bks.cpg/sg2_236_cif.got.tgz:470102.got - 2010.06.03 11:33:40.
