data_PCOD9111395
_publ_section_title
;
Structure prediction by ZEFSAII (Michael W. Deem and Ramdas Pophale) SiO2 
 PCOD9111395
Probable space group: P -1
;
_chemical_formula_sum "Si O2"
_cell_formula_units_Z 16
_cell_length_a 23.988183
_cell_length_b 15.566224
_cell_length_c 13.431724
_cell_angle_alpha 149.217800
_cell_angle_beta 155.924963
_cell_angle_gamma 19.285974
_cell_volume 675.621026
_symmetry_space_group_name_H-M "P -1"
_symmetry_group_IT_number 2
_symmetry_cell_setting 'triclinic'
loop_
_space_group_symop_operation_xyz
x,y,z
-x,-y,-z
loop_
_atom_site_type_symbol
_atom_site_label
_atom_site_fract_x
_atom_site_fract_y
_atom_site_fract_z
Si Si1 0.126188 0.135545 0.819264
Si Si2 0.748842 0.290106 0.968784
Si Si3 0.819699 0.415015 0.763074
Si Si4 0.376579 0.970278 0.527582
Si Si5 0.840306 0.901511 0.500681
Si Si6 0.599440 0.299600 0.340127
Si Si7 0.920649 0.535684 0.713946
Si Si8 0.442735 0.220610 0.744580
O O1 0.942934 0.228236 0.681012
O O2 0.011277 0.384457 0.814965
O O3 0.262848 0.912766 0.736073
O O4 0.306547 0.021770 0.077782
O O5 0.699896 0.138090 0.750063
O O6 0.633248 0.452769 0.838224
O O7 0.629495 0.524392 0.086476
O O8 0.992956 0.114748 0.204139
O O9 0.623098 0.711968 0.700602
O O10 0.714788 0.368467 0.609178
O O11 0.989456 0.362520 0.048380
O O12 0.246509 0.113009 0.559683
O O13 0.358106 0.153728 0.614234
O O14 0.969300 0.669854 0.401429
O O15 0.643187 0.157158 0.369669
O O16 0.676005 0.713771 0.484799
#
# Coordination Sequence:
#
# PCOD9111395 Si02
#       8
#     2   2   2   2   2   2   2   2
#     4  10  20  43  61  83 127 153 195 258 295 348
#     4   9  21  40  59  86 120 156 200 246 290 352
#     4  11  22  38  62  93 116 157 204 242 303 361
#     4  11  23  40  62  90 122 162 198 247 297 355
#     4  10  22  42  59  86 124 156 198 247 297 351
#     4   9  21  40  63  87 117 159 197 248 303 352
#     4  10  22  38  60  89 116 157 198 245 295 358
#     4  10  22  41  61  90 122 158 201 242 305 352
#
# _framework density 23.681913999999999
#
# number of rings (size 3 to 8) (size 9 to 14) (size 15 to 20)
#    0.000    2.000    1.250    1.125    1.750    5.000 
#    4.500    0.000    0.000    8.250    0.000    0.000 
#    0.000    0.000    0.000    0.000    0.000    0.000 
#
# Total GULP energy -89363.113083 kJ/mol
# GULP energy per Si atom -5585.194568 kJ/mol
# Density = 2.362801 g / cm^3
# Si number density = 23.681914 Si / 1000 Ang^3
#
#
#
# Elastic Constant Matrix: (Units=GPa)
#
#
# Indices 1 2 3 4 5 6 
#
# 1 41.5213 17.6271 10.0980 4.1962 0.1288 -15.8175
# 2 17.6271 79.3807 17.4822 -10.2810 -11.4358 -13.3919
# 3 10.0980 17.4822 105.4110 -11.6742 -24.2489 -8.2532
# 4 4.1962 -10.2810 -11.6742 44.3956 1.2132 0.7756
# 5 0.1288 -11.4358 -24.2489 1.2132 23.1963 -2.0855
# 6 -15.8175 -13.3919 -8.2532 0.7756 -2.0855 30.3734
#
#
#
# Elastic Compliance Matrix: (Units=1/GPa)
#
#
# Indices 1 2 3 4 5 6 
#
# 1 0.032947 -0.005705 -0.002711 -0.005270 -0.004318 0.013744
# 2 -0.005705 0.016400 0.000795 0.004208 0.009177 0.004998
# 3 -0.002711 0.000795 0.013716 0.003578 0.014881 0.003596
# 4 -0.005270 0.004208 0.003578 0.024819 0.004524 -0.000240
# 5 -0.004318 0.009177 0.014881 0.004524 0.063888 0.010112
# 6 0.013744 0.004998 0.003596 -0.000240 0.010112 0.043962
#
#
# Mechanical properties :
#
#
# Convention : Reuss Voigt Hill
#
# Bulk Modulus (GPa) = 20.91155 35.19196 28.05175
# Shear Modulus (GPa) = 22.03486 31.66676 26.85081
#
# Velocity S-wave (km/s) = 3.05364 3.66070 3.37086
# Velocity P-wave (km/s) = 4.61327 5.72365 5.19820
#
# Compressibility (1/GPa) = 0.04782047
#
# Stress axis : x y z
#
# Youngs Moduli (GPa) = 30.35165 60.97692 72.91000
#
# Poissons Ratio (x) = 0.34788 0.19766
# Poissons Ratio (y) = 0.17316 -0.05798
# Poissons Ratio (z) = 0.08228 -0.04849
#
# Static dielectric constant tensor:
#      x y z
#    x 1.854760 -0.012940 -0.035240 
#    y -0.012940 1.970220 0.020580 
#    z -0.035240 0.020580 1.915970 
# 
# From -- ./inp_files/395596.got.cif
#   From: 2010.05.17/outbox.cif.g08.bks.cpg/sg2_198_cif.got.tgz:395596.got - 2010.06.03 11:33:40.
