data_PCOD9111312
_publ_section_title
;
Structure prediction by ZEFSAII (Michael W. Deem and Ramdas Pophale) SiO2 
 PCOD9111312
Probable space group: P -1
;
_chemical_formula_sum "Si O2"
_cell_formula_units_Z 12
_cell_length_a 9.314556
_cell_length_b 9.408922
_cell_length_c 9.323138
_cell_angle_alpha 137.965251
_cell_angle_beta 69.327907
_cell_angle_gamma 101.241217
_cell_volume 508.917532
_symmetry_space_group_name_H-M "P -1"
_symmetry_group_IT_number 2
_symmetry_cell_setting 'triclinic'
loop_
_space_group_symop_operation_xyz
x,y,z
-x,-y,-z
loop_
_atom_site_type_symbol
_atom_site_label
_atom_site_fract_x
_atom_site_fract_y
_atom_site_fract_z
Si Si1 0.938108 0.780052 0.304975
Si Si2 0.711344 0.501234 0.306147
Si Si3 0.720161 0.286143 0.875691
Si Si4 0.817712 0.052236 0.081329
Si Si5 0.673026 0.053635 0.444818
Si Si6 0.645632 0.885320 0.782307
O O1 0.855814 0.643484 0.346246
O O2 0.104535 0.663044 0.117022
O O3 0.803813 0.861812 0.302738
O O4 0.000000 0.000000 0.500000
O O5 0.774210 0.275890 0.182171
O O6 0.607514 0.664409 0.564600
O O7 0.634402 0.454213 0.143863
O O8 0.695122 0.257749 0.693933
O O9 0.689065 0.053503 0.772664
O O10 0.716372 0.073305 0.277974
O O11 0.772546 0.870502 0.851405
O O12 0.000000 0.000000 0.000000
O O13 0.500000 0.000000 0.500000
O O14 0.500000 0.000000 0.000000
#
# Coordination Sequence:
#
# PCOD9111312 Si02
#       6
#     2   2   2   2   2   2
#     4  10  20  42  72  92 132 181 237 274 332 417
#     4  11  23  44  74  97 134 191 234 276 344 416
#     4  10  22  41  71  97 127 181 242 272 330 419
#     4  11  27  44  67 107 145 176 230 294 352 406
#     4  11  22  44  68 100 144 177 220 302 344 392
#     4  11  23  45  69  96 138 187 231 279 337 426
#
# _framework density 23.579457000000001
#
# number of rings (size 3 to 8) (size 9 to 14) (size 15 to 20)
#    0.000    1.333    3.333    3.500    2.333    3.333 
#    3.000    0.833    0.000    0.000    0.000    0.000 
#    0.000    0.000    0.000    0.000    0.000    0.000 
#
# Total GULP energy -66956.353841 kJ/mol
# GULP energy per Si atom -5579.696153 kJ/mol
# Density = 2.352579 g / cm^3
# Si number density = 23.579457 Si / 1000 Ang^3
#
#
#
# Elastic Constant Matrix: (Units=GPa)
#
#
# Indices 1 2 3 4 5 6 
#
# 1 97.0187 10.3371 4.9967 0.2572 3.3313 7.4678
# 2 10.3371 102.6262 15.3174 -15.2601 9.5079 14.0730
# 3 4.9967 15.3174 173.3448 0.6186 34.1315 -2.6124
# 4 0.2572 -15.2601 0.6186 40.7368 0.4895 1.0001
# 5 3.3313 9.5079 34.1315 0.4895 39.8574 -3.0330
# 6 7.4678 14.0730 -2.6124 1.0001 -3.0330 32.4460
#
#
#
# Elastic Compliance Matrix: (Units=1/GPa)
#
#
# Indices 1 2 3 4 5 6 
#
# 1 0.010586 -0.000715 -0.000122 -0.000269 -0.000774 -0.002200
# 2 -0.000715 0.011540 -0.000571 0.004497 -0.002661 -0.005274
# 3 -0.000122 -0.000571 0.006969 -0.000257 -0.005796 0.000303
# 4 -0.000269 0.004497 -0.000257 0.026325 -0.001371 -0.002849
# 5 -0.000774 -0.002661 -0.005796 -0.001371 0.031059 0.003811
# 6 -0.002200 -0.005274 0.000303 -0.002849 0.003811 0.034083
#
#
# Mechanical properties :
#
#
# Convention : Reuss Voigt Hill
#
# Bulk Modulus (GPa) = 38.05003 48.25468 43.15236
# Shear Modulus (GPa) = 37.83958 45.43059 41.63509
#
# Velocity S-wave (km/s) = 4.01030 4.39418 4.20662
# Velocity P-wave (km/s) = 6.13313 6.80105 6.47571
#
# Compressibility (1/GPa) = 0.02628119
#
# Stress axis : x y z
#
# Youngs Moduli (GPa) = 94.46095 86.65691 143.48359
#
# Poissons Ratio (x) = 0.06194 0.01747
# Poissons Ratio (y) = 0.06752 0.08189
# Poissons Ratio (z) = 0.01150 0.04945
#
# Static dielectric constant tensor:
#      x y z
#    x 2.092330 -0.037170 -0.006350 
#    y -0.037170 1.958730 -0.099690 
#    z -0.006350 -0.099690 2.219550 
# 
# From -- ./inp_files/160284.got.cif
#   From: 2010.05.17/outbox.cif.g08.bks.cpg/sg2_81_cif.got.tgz:160284.got - 2010.06.03 11:33:40.
