data_PCOD9111351
_publ_section_title
;
Structure prediction by ZEFSAII (Michael W. Deem and Ramdas Pophale) SiO2 
 PCOD9111351
Probable space group: P -1
;
_chemical_formula_sum "Si O2"
_cell_formula_units_Z 16
_cell_length_a 6.036751
_cell_length_b 24.638881
_cell_length_c 8.835142
_cell_angle_alpha 138.251770
_cell_angle_beta 52.611923
_cell_angle_gamma 111.792673
_cell_volume 686.886295
_symmetry_space_group_name_H-M "P -1"
_symmetry_group_IT_number 2
_symmetry_cell_setting 'triclinic'
loop_
_space_group_symop_operation_xyz
x,y,z
-x,-y,-z
loop_
_atom_site_type_symbol
_atom_site_label
_atom_site_fract_x
_atom_site_fract_y
_atom_site_fract_z
Si Si1 0.515993 0.253105 0.982535
Si Si2 0.466674 0.500338 0.838445
Si Si3 0.014977 0.200949 0.971726
Si Si4 0.837718 0.981180 0.367530
Si Si5 0.270140 0.574520 0.683487
Si Si6 0.973954 0.611625 0.164014
Si Si7 0.965951 0.866244 0.523387
Si Si8 0.395563 0.216686 0.287872
O O1 0.625251 0.336796 0.158957
O O2 0.446336 0.204544 0.062693
O O3 0.223330 0.266661 0.044736
O O4 0.744940 0.191518 0.664909
O O5 0.741093 0.456573 0.546768
O O6 0.236268 0.439550 0.769669
O O7 0.500000 0.500000 0.000000
O O8 0.294638 0.588159 0.040649
O O9 0.706184 0.235918 0.236111
O O10 0.052059 0.171694 0.718857
O O11 0.093586 0.116984 0.859975
O O12 0.500000 0.000000 0.500000
O O13 0.982289 0.039855 0.317219
O O14 0.000000 0.000000 0.500000
O O15 0.500000 0.500000 0.500000
O O16 0.996052 0.585322 0.924204
O O17 0.841670 0.705236 0.428908
O O18 0.708823 0.853481 0.712743
#
# Coordination Sequence:
#
# PCOD9111351 Si02
#       8
#     2   2   2   2   2   2   2   2
#     4  11  21  42  64  90 132 172 218 285 336 406
#     4  10  22  41  63  90 121 164 216 276 336 400
#     4  10  24  41  67  98 133 177 229 278 346 411
#     4  10  20  42  74 102 142 190 237 289 353 421
#     4  10  21  41  64  89 124 169 217 272 338 405
#     4  10  21  41  60  87 127 163 213 274 333 401
#     4  10  22  42  67  94 136 178 225 278 344 409
#     4  11  23  41  61  98 135 174 220 281 342 410
#
# _framework density 23.293520000000001
#
# number of rings (size 3 to 8) (size 9 to 14) (size 15 to 20)
#    0.000    1.750    3.750    0.000    0.000    3.000 
#    4.500    0.625    0.000    0.000    0.000    0.000 
#    0.000    0.000    0.000    0.000    0.000    0.000 
#
# Total GULP energy -89108.488009 kJ/mol
# GULP energy per Si atom -5569.280501 kJ/mol
# Density = 2.324050 g / cm^3
# Si number density = 23.293520 Si / 1000 Ang^3
#
#
#
# Elastic Constant Matrix: (Units=GPa)
#
#
# Indices 1 2 3 4 5 6 
#
# 1 67.0438 18.5021 13.1732 -2.1878 -9.0801 9.1410
# 2 18.5021 116.0679 9.9487 -14.3019 -4.7711 12.5531
# 3 13.1732 9.9487 54.8293 -15.7535 -6.2126 0.0268
# 4 -2.1878 -14.3019 -15.7535 44.5823 -1.5823 -8.4652
# 5 -9.0801 -4.7711 -6.2126 -1.5823 25.5021 -0.1940
# 6 9.1410 12.5531 0.0268 -8.4652 -0.1940 27.6127
#
#
#
# Elastic Compliance Matrix: (Units=1/GPa)
#
#
# Indices 1 2 3 4 5 6 
#
# 1 0.017544 -0.001917 -0.003902 -0.002011 0.004771 -0.005515
# 2 -0.001917 0.009619 -0.000503 0.002278 0.001113 -0.003031
# 3 -0.003902 -0.000503 0.022195 0.008430 0.004478 0.004114
# 4 -0.002011 0.002278 0.008430 0.027713 0.003545 0.008143
# 5 0.004771 0.001113 0.004478 0.003545 0.042425 -0.000705
# 6 -0.005515 -0.003031 0.004114 0.008143 -0.000705 0.041907
#
#
# Mechanical properties :
#
#
# Convention : Reuss Voigt Hill
#
# Bulk Modulus (GPa) = 27.23770 35.68767 31.46269
# Shear Modulus (GPa) = 26.84090 32.62720 29.73405
#
# Velocity S-wave (km/s) = 3.39822 3.74665 3.57668
# Velocity P-wave (km/s) = 5.20729 5.83701 5.53112
#
# Compressibility (1/GPa) = 0.03671382
#
# Stress axis : x y z
#
# Youngs Moduli (GPa) = 57.00004 103.96481 45.05613
#
# Poissons Ratio (x) = 0.19934 0.17579
# Poissons Ratio (y) = 0.10929 0.02265
# Poissons Ratio (z) = 0.22239 0.05225
#
# Static dielectric constant tensor:
#      x y z
#    x 2.104130 -0.019380 -0.020690 
#    y -0.019380 1.941490 -0.034700 
#    z -0.020690 -0.034700 1.868590 
# 
# From -- ./inp_files/142630.got.cif
#   From: 2010.05.17/outbox.cif.g08.bks.cpg/sg2_72_cif.got.tgz:142630.got - 2010.06.03 11:33:40.
