data_PCOD9111468
_publ_section_title
;
Structure prediction by ZEFSAII (Michael W. Deem and Ramdas Pophale) SiO2 
 PCOD9111468
Probable space group: P -1
;
_chemical_formula_sum "Si O2"
_cell_formula_units_Z 16
_cell_length_a 10.490740
_cell_length_b 13.903835
_cell_length_c 12.955117
_cell_angle_alpha 121.086005
_cell_angle_beta 32.606185
_cell_angle_gamma 138.035380
_cell_volume 648.351398
_symmetry_space_group_name_H-M "P -1"
_symmetry_group_IT_number 2
_symmetry_cell_setting 'triclinic'
loop_
_space_group_symop_operation_xyz
x,y,z
-x,-y,-z
loop_
_atom_site_type_symbol
_atom_site_label
_atom_site_fract_x
_atom_site_fract_y
_atom_site_fract_z
Si Si1 0.309582 0.859584 0.756344
Si Si2 0.420977 0.300867 0.519994
Si Si3 0.342354 0.435723 0.185275
Si Si4 0.275141 0.840122 0.463303
Si Si5 0.249539 0.964680 0.069056
Si Si6 0.607223 0.733790 0.145893
Si Si7 0.861028 0.649426 0.435525
Si Si8 0.550570 0.281789 0.996139
O O1 0.368055 0.745105 0.656714
O O2 0.552855 0.988480 0.578158
O O3 0.370802 0.944532 0.869841
O O4 0.950031 0.787611 0.947325
O O5 0.108311 0.180150 0.735674
O O6 0.615791 0.470176 0.521862
O O7 0.301482 0.299980 0.486331
O O8 0.366008 0.572175 0.277887
O O9 0.988571 0.273799 0.335310
O O10 0.500000 0.500000 0.000000
O O11 0.534538 0.406832 0.107972
O O12 0.561064 0.842129 0.282721
O O13 0.060682 0.747435 0.454679
O O14 0.288301 0.112195 0.120878
O O15 0.500000 0.000000 0.000000
O O16 0.514971 0.725105 0.085043
O O17 0.115099 0.673258 0.196290
#
# Coordination Sequence:
#
# PCOD9111468 Si02
#       8
#     2   2   2   2   2   2   2   2
#     4  12  25  44  69 105 134 182 232 278 338 415
#     4  11  25  44  68 101 138 176 234 281 340 397
#     4  10  22  39  64 100 133 181 228 271 339 413
#     4  11  22  42  70  95 138 186 220 283 348 398
#     4  12  24  44  69 102 135 180 222 287 343 399
#     4  10  22  42  64  98 136 176 228 279 329 404
#     4  10  22  45  65  96 137 179 222 288 335 399
#     4  10  20  43  64  93 141 171 222 277 337 398
#
# _framework density 24.677973000000001
#
# number of rings (size 3 to 8) (size 9 to 14) (size 15 to 20)
#    0.000    1.250    3.750    2.250    1.750    4.000 
#    4.500    4.375    0.000    0.000    0.000    0.000 
#    0.000    0.000    0.000    0.000    0.000    0.000 
#
# Total GULP energy -89425.190052 kJ/mol
# GULP energy per Si atom -5589.074378 kJ/mol
# Density = 2.462181 g / cm^3
# Si number density = 24.677973 Si / 1000 Ang^3
#
#
#
# Elastic Constant Matrix: (Units=GPa)
#
#
# Indices 1 2 3 4 5 6 
#
# 1 112.0029 41.6393 33.1764 6.3703 -18.5287 -20.3265
# 2 41.6393 146.3091 20.6234 -25.5488 2.9258 -32.2497
# 3 33.1764 20.6234 87.4045 -16.4625 -11.9496 -12.3411
# 4 6.3703 -25.5488 -16.4625 48.7460 -3.6963 -5.6873
# 5 -18.5287 2.9258 -11.9496 -3.6963 37.2238 3.6911
# 6 -20.3265 -32.2497 -12.3411 -5.6873 3.6911 48.7884
#
#
#
# Elastic Compliance Matrix: (Units=1/GPa)
#
#
# Indices 1 2 3 4 5 6 
#
# 1 0.012722 -0.003732 -0.004008 -0.004499 0.004800 0.000932
# 2 -0.003732 0.010465 0.000834 0.006838 -0.002383 0.006551
# 3 -0.004008 0.000834 0.014872 0.006586 0.003052 0.003181
# 4 -0.004499 0.006838 0.006586 0.027885 0.001367 0.007459
# 5 0.004800 -0.002383 0.003052 0.001367 0.030652 -0.000963
# 6 0.000932 0.006551 0.003181 0.007459 -0.000963 0.026962
#
#
# Mechanical properties :
#
#
# Convention : Reuss Voigt Hill
#
# Bulk Modulus (GPa) = 41.23957 59.62162 50.43060
# Shear Modulus (GPa) = 34.37540 43.63680 39.00610
#
# Velocity S-wave (km/s) = 3.73629 4.20962 3.97999
# Velocity P-wave (km/s) = 5.94647 6.91666 6.44983
#
# Compressibility (1/GPa) = 0.02424856
#
# Stress axis : x y z
#
# Youngs Moduli (GPa) = 78.60319 95.55556 67.23848
#
# Poissons Ratio (x) = 0.35661 0.26949
# Poissons Ratio (y) = 0.29335 -0.05611
# Poissons Ratio (z) = 0.31504 -0.07974
#
# Static dielectric constant tensor:
#      x y z
#    x 1.972360 0.037720 0.049670 
#    y 0.037720 2.039170 0.092620 
#    z 0.049670 0.092620 2.123270 
# 
# From -- ./inp_files/397609.got.cif
#   From: 2010.05.17/outbox.cif.g08.bks.cpg/sg2_199_cif.got.tgz:397609.got - 2010.06.03 11:33:40.
