data_PCOD9111210
_publ_section_title
;
Structure prediction by ZEFSAII (Michael W. Deem and Ramdas Pophale) SiO2 
 PCOD9111210
Probable space group: P -1
;
_chemical_formula_sum "Si O2"
_cell_formula_units_Z 16
_cell_length_a 15.934679
_cell_length_b 28.946292
_cell_length_c 20.541654
_cell_angle_alpha 163.683710
_cell_angle_beta 163.035655
_cell_angle_gamma 16.979097
_cell_volume 685.939836
_symmetry_space_group_name_H-M "P -1"
_symmetry_group_IT_number 2
_symmetry_cell_setting 'triclinic'
loop_
_space_group_symop_operation_xyz
x,y,z
-x,-y,-z
loop_
_atom_site_type_symbol
_atom_site_label
_atom_site_fract_x
_atom_site_fract_y
_atom_site_fract_z
Si Si1 0.559143 0.223612 0.223924
Si Si2 0.199836 0.522840 0.008168
Si Si3 0.851202 0.842898 0.498600
Si Si4 0.453264 0.910522 0.520998
Si Si5 0.246258 0.489200 0.846757
Si Si6 0.815365 0.886271 0.036503
Si Si7 0.147095 0.904506 0.911970
Si Si8 0.323976 0.515725 0.236872
O O1 0.176897 0.324096 0.067837
O O2 0.755086 0.251626 0.348412
O O3 0.643568 0.325038 0.483092
O O4 0.701898 0.002757 0.043032
O O5 0.228145 0.321500 0.769273
O O6 0.324289 0.509617 0.007999
O O7 0.321287 0.558955 0.216369
O O8 0.838184 0.955839 0.705788
O O9 0.701956 0.953165 0.471433
O O10 0.709382 0.713533 0.412625
O O11 0.154672 0.895106 0.313993
O O12 0.629782 0.001308 0.817312
O O13 0.500000 0.500000 0.000000
O O14 0.914787 0.670223 0.825807
O O15 0.500000 0.000000 0.000000
O O16 0.371087 0.685343 0.794517
O O17 0.000000 0.000000 0.000000
O O18 0.000000 0.500000 0.000000
#
# Coordination Sequence:
#
# PCOD9111210 Si02
#       8
#     2   2   2   2   2   2   2   2
#     4  11  22  39  67  98 132 168 214 279 328 396
#     4  12  21  37  69  95 132 173 212 264 340 390
#     4  11  22  39  67 100 135 174 211 263 349 400
#     4  10  23  42  65  95 136 171 213 277 325 396
#     4  10  23  42  67  90 128 179 226 268 320 387
#     4  10  20  42  70  91 118 175 233 271 321 371
#     4  12  25  38  61 101 144 170 210 261 330 416
#     4  12  23  40  63 100 139 166 213 271 332 402
#
# _framework density 23.325661
#
# number of rings (size 3 to 8) (size 9 to 14) (size 15 to 20)
#    0.000    1.000    5.000    2.625    1.750    1.000 
#    0.000    0.625   11.000    6.750    0.000    0.000 
#    0.000    0.000    0.000    0.000    0.000    0.000 
#
# Total GULP energy -89362.714395 kJ/mol
# GULP energy per Si atom -5585.169650 kJ/mol
# Density = 2.327257 g / cm^3
# Si number density = 23.325661 Si / 1000 Ang^3
#
#
#
# Elastic Constant Matrix: (Units=GPa)
#
#
# Indices 1 2 3 4 5 6 
#
# 1 116.0760 20.6054 8.9580 2.6081 -0.8755 10.4715
# 2 20.6054 147.5623 20.4873 15.7924 -1.6703 5.9911
# 3 8.9580 20.4873 71.9711 -9.6160 -11.0963 22.7572
# 4 2.6081 15.7924 -9.6160 26.9515 -2.9509 0.7164
# 5 -0.8755 -1.6703 -11.0963 -2.9509 39.5793 -10.5213
# 6 10.4715 5.9911 22.7572 0.7164 -10.5213 37.8516
#
#
#
# Elastic Compliance Matrix: (Units=1/GPa)
#
#
# Indices 1 2 3 4 5 6 
#
# 1 0.009043 -0.001117 -0.000183 -0.000283 -0.000547 -0.002362
# 2 -0.001117 0.007977 -0.003338 -0.005871 -0.000812 0.000939
# 3 -0.000183 -0.003338 0.020095 0.009797 0.003361 -0.010754
# 4 -0.000283 -0.005871 0.009797 0.044693 0.004645 -0.004437
# 5 -0.000547 -0.000812 0.003361 0.004645 0.028098 0.005982
# 6 -0.002362 0.000939 -0.010754 -0.004437 0.005982 0.035136
#
#
# Mechanical properties :
#
#
# Convention : Reuss Voigt Hill
#
# Bulk Modulus (GPa) = 35.92205 48.41232 42.16719
# Shear Modulus (GPa) = 30.56259 39.91373 35.23816
#
# Velocity S-wave (km/s) = 3.62367 4.14109 3.89099
# Velocity P-wave (km/s) = 5.73948 6.60794 6.18896
#
# Compressibility (1/GPa) = 0.02783805
#
# Stress axis : x y z
#
# Youngs Moduli (GPa) = 110.58544 125.35504 49.76361
#
# Poissons Ratio (x) = 0.14007 0.00910
# Poissons Ratio (y) = 0.12357 0.16613
# Poissons Ratio (z) = 0.02022 0.41847
#
# Static dielectric constant tensor:
#      x y z
#    x 1.992510 -0.062420 0.006810 
#    y -0.062420 1.978770 -0.033090 
#    z 0.006810 -0.033090 1.992660 
# 
# From -- ./inp_files/574560.got.cif
#   From: 2010.05.17/outbox.cif.g08.bks.cpg/sg2_288_cif.got.tgz:574560.got - 2010.06.03 11:33:40.
