data_PCOD9111650
_publ_section_title
;
Structure prediction by ZEFSAII (Michael W. Deem and Ramdas Pophale) SiO2 
 PCOD9111650
Probable space group: P -1
;
_chemical_formula_sum "Si O2"
_cell_formula_units_Z 14
_cell_length_a 5.441830
_cell_length_b 19.814592
_cell_length_c 7.367794
_cell_angle_alpha 125.846899
_cell_angle_beta 109.105491
_cell_angle_gamma 81.415925
_cell_volume 607.565197
_symmetry_space_group_name_H-M "P -1"
_symmetry_group_IT_number 2
_symmetry_cell_setting 'triclinic'
loop_
_space_group_symop_operation_xyz
x,y,z
-x,-y,-z
loop_
_atom_site_type_symbol
_atom_site_label
_atom_site_fract_x
_atom_site_fract_y
_atom_site_fract_z
Si Si1 0.873942 0.545931 0.207489
Si Si2 0.224037 0.933327 0.467874
Si Si3 0.591033 0.225992 0.914104
Si Si4 0.912698 0.821747 0.502156
Si Si5 0.605622 0.375899 0.897529
Si Si6 0.235032 0.684112 0.550695
Si Si7 0.301519 0.034609 0.150879
O O1 0.698158 0.609210 0.155701
O O2 0.066242 0.604592 0.465987
O O3 0.723226 0.466286 0.135868
O O4 0.000000 0.500000 0.000000
O O5 0.255336 0.858940 0.210721
O O6 0.514539 0.975461 0.643033
O O7 0.124140 0.882313 0.544303
O O8 0.000000 0.000000 0.500000
O O9 0.297184 0.205553 0.744048
O O10 0.693016 0.298986 0.914889
O O11 0.600563 0.266621 0.178640
O O12 0.747169 0.867940 0.688439
O O13 0.055384 0.751820 0.529205
O O14 0.640699 0.355172 0.659789
O O15 0.500000 0.000000 0.000000
O O16 0.000000 0.000000 0.000000
#
# Coordination Sequence:
#
# PCOD9111650 Si02
#       7
#     2   2   2   2   2   2   2
#     4   9  20  40  70  98 138 184 230 299 356 433
#     4  11  26  47  71 104 148 191 249 312 368 437
#     4  11  25  42  69 105 142 191 239 300 364 445
#     4  11  24  45  67 101 148 181 244 312 357 438
#     4  10  20  43  68 100 143 178 237 301 354 435
#     4  11  23  41  70 100 139 192 235 290 376 428
#     4  11  24  45  73 101 135 191 244 307 375 445
#
# _framework density 23.042794000000001
#
# number of rings (size 3 to 8) (size 9 to 14) (size 15 to 20)
#    0.000    1.429    4.286    0.000    2.000    5.143 
#    0.000    6.429    0.000    0.000    0.000    0.000 
#    0.000    0.000    0.000    0.000    0.000    0.000 
#
# Total GULP energy -77952.652122 kJ/mol
# GULP energy per Si atom -5568.046580 kJ/mol
# Density = 2.299035 g / cm^3
# Si number density = 23.042794 Si / 1000 Ang^3
#
#
#
# Elastic Constant Matrix: (Units=GPa)
#
#
# Indices 1 2 3 4 5 6 
#
# 1 64.4006 18.6651 41.0728 -2.5966 8.7926 -18.4342
# 2 18.6651 87.6492 47.5641 16.3950 8.0957 -7.9323
# 3 41.0728 47.5641 172.2117 -0.9340 8.4889 -11.4442
# 4 -2.5966 16.3950 -0.9340 23.7325 -2.7192 -2.0196
# 5 8.7926 8.0957 8.4889 -2.7192 43.7981 3.6030
# 6 -18.4342 -7.9323 -11.4442 -2.0196 3.6030 36.8092
#
#
#
# Elastic Compliance Matrix: (Units=1/GPa)
#
#
# Indices 1 2 3 4 5 6 
#
# 1 0.022159 -0.002169 -0.003804 0.004185 -0.003878 0.010057
# 2 -0.002169 0.016600 -0.003943 -0.012095 -0.002691 0.000865
# 3 -0.003804 -0.003943 0.007796 0.002616 0.000161 -0.000203
# 4 0.004185 -0.012095 0.002616 0.051731 0.003873 0.002762
# 5 -0.003878 -0.002691 0.000161 0.003873 0.024702 -0.004677
# 6 0.010057 0.000865 -0.000203 0.002762 -0.004677 0.032936
#
#
# Mechanical properties :
#
#
# Convention : Reuss Voigt Hill
#
# Bulk Modulus (GPa) = 37.42078 59.87395 48.64737
# Shear Modulus (GPa) = 27.07623 35.33194 31.20408
#
# Velocity S-wave (km/s) = 3.43161 3.92001 3.68391
# Velocity P-wave (km/s) = 5.65475 6.82121 6.26518
#
# Compressibility (1/GPa) = 0.02672312
#
# Stress axis : x y z
#
# Youngs Moduli (GPa) = 45.12802 60.24123 128.27405
#
# Poissons Ratio (x) = 0.13068 0.48792
# Poissons Ratio (y) = 0.09789 0.50578
# Poissons Ratio (z) = 0.17165 0.23753
#
# Static dielectric constant tensor:
#      x y z
#    x 2.008210 0.067810 0.030370 
#    y 0.067810 1.870700 0.021950 
#    z 0.030370 0.021950 1.965810 
# 
# From -- ./inp_files/142453.got.cif
#   From: 2010.05.17/outbox.cif.g08.bks.cpg/sg2_72_cif.got.tgz:142453.got - 2010.06.03 11:33:40.
