data_PCOD9111020
_publ_section_title
;
Structure prediction by ZEFSAII (Michael W. Deem and Ramdas Pophale) SiO2 
 PCOD9111020
Probable space group: P -1
;
_chemical_formula_sum "Si O2"
_cell_formula_units_Z 16
_cell_length_a 15.112417
_cell_length_b 13.918947
_cell_length_c 12.300341
_cell_angle_alpha 42.315630
_cell_angle_beta 28.462811
_cell_angle_gamma 37.371086
_cell_volume 740.987907
_symmetry_space_group_name_H-M "P -1"
_symmetry_group_IT_number 2
_symmetry_cell_setting 'triclinic'
loop_
_space_group_symop_operation_xyz
x,y,z
-x,-y,-z
loop_
_atom_site_type_symbol
_atom_site_label
_atom_site_fract_x
_atom_site_fract_y
_atom_site_fract_z
Si Si1 0.506979 0.184170 0.179006
Si Si2 0.315245 0.126537 0.850925
Si Si3 0.228620 0.988794 0.275215
Si Si4 0.060034 0.820887 0.287668
Si Si5 0.293886 0.830044 0.544618
Si Si6 0.787178 0.732385 0.789129
Si Si7 0.086522 0.329824 0.610611
Si Si8 0.900114 0.390462 0.001939
O O1 0.363852 0.233691 0.181381
O O2 0.336181 0.258011 0.395475
O O3 0.628436 0.991775 0.213382
O O4 0.696594 0.229134 0.934491
O O5 0.507153 0.164663 0.624118
O O6 0.101131 0.284706 0.945235
O O7 0.295761 0.017755 0.060517
O O8 0.263575 0.119555 0.200066
O O9 0.329226 0.834278 0.373040
O O10 0.000000 0.000000 0.500000
O O11 0.005911 0.710779 0.520668
O O12 0.980152 0.788169 0.286278
O O13 0.911331 0.004287 0.335365
O O14 0.257821 0.682538 0.743868
O O15 0.807215 0.578807 0.959171
O O16 0.000000 0.500000 0.500000
O O17 0.985024 0.357989 0.814233
#
# Coordination Sequence:
#
# PCOD9111020 Si02
#       8
#     2   2   2   2   2   2   2   2
#     4  11  21  42  71  96 124 178 227 260 325 402
#     4  12  23  42  69  99 130 171 223 273 325 387
#     4  11  21  44  76  94 127 183 216 260 338 404
#     4  10  20  42  68  92 127 178 224 260 320 401
#     4  11  23  42  64 101 131 168 221 275 318 392
#     4  10  23  43  66  96 139 168 215 274 327 397
#     4  11  23  44  65  93 137 179 216 270 332 389
#     4  12  25  43  64  98 140 166 217 287 324 371
#
# _framework density 21.592794999999999
#
# number of rings (size 3 to 8) (size 9 to 14) (size 15 to 20)
#    0.000    1.000    8.750    1.125    0.000    4.000 
#    0.000    0.625    0.000    0.000    0.000    0.000 
#    0.000    0.000    0.000    0.000    0.000    0.000 
#
# Total GULP energy -89283.972252 kJ/mol
# GULP energy per Si atom -5580.248266 kJ/mol
# Density = 2.154365 g / cm^3
# Si number density = 21.592795 Si / 1000 Ang^3
#
#
#
# Elastic Constant Matrix: (Units=GPa)
#
#
# Indices 1 2 3 4 5 6 
#
# 1 40.0676 -4.5116 35.4848 5.4698 -12.4404 0.8425
# 2 -4.5116 50.4671 43.2900 -11.0300 -6.0192 1.3107
# 3 35.4848 43.2900 177.1348 -13.3856 -29.0447 -10.4901
# 4 5.4698 -11.0300 -13.3856 37.7921 -5.0855 -2.8985
# 5 -12.4404 -6.0192 -29.0447 -5.0855 47.4087 2.6005
# 6 0.8425 1.3107 -10.4901 -2.8985 2.6005 11.0444
#
#
#
# Elastic Compliance Matrix: (Units=1/GPa)
#
#
# Indices 1 2 3 4 5 6 
#
# 1 0.040310 0.013712 -0.012261 -0.006973 0.005122 -0.019384
# 2 0.013712 0.031480 -0.010790 0.002520 0.002070 -0.014856
# 3 -0.012261 -0.010790 0.012377 0.004483 0.002680 0.014517
# 4 -0.006973 0.002520 0.004483 0.031225 0.003941 0.011758
# 5 0.005122 0.002070 0.002680 0.003941 0.024925 -0.002926
# 6 -0.019384 -0.014856 0.014517 0.011758 -0.002926 0.111348
#
#
# Mechanical properties :
#
#
# Convention : Reuss Voigt Hill
#
# Bulk Modulus (GPa) = 15.27017 46.24397 30.75707
# Shear Modulus (GPa) = 17.11309 32.14280 24.62794
#
# Velocity S-wave (km/s) = 2.81826 3.86241 3.38089
# Velocity P-wave (km/s) = 4.20444 6.43069 5.43282
#
# Compressibility (1/GPa) = 0.06548717
#
# Stress axis : x y z
#
# Youngs Moduli (GPa) = 24.80753 31.76636 80.79826
#
# Poissons Ratio (x) = -0.43557 0.99068
# Poissons Ratio (y) = -0.34015 0.87182
# Poissons Ratio (z) = 0.30417 0.34276
#
# Static dielectric constant tensor:
#      x y z
#    x 1.830440 0.009360 0.035410 
#    y 0.009360 1.825680 0.027810 
#    z 0.035410 0.027810 1.797540 
# 
# From -- ./inp_files/454457.got.cif
#   From: 2010.05.17/outbox.cif.g08.bks.cpg/sg2_228_cif.got.tgz:454457.got - 2010.06.03 11:33:40.
