data_PCOD9111292
_publ_section_title
;
Structure prediction by ZEFSAII (Michael W. Deem and Ramdas Pophale) SiO2 
 PCOD9111292
Probable space group: P -1
;
_chemical_formula_sum "Si O2"
_cell_formula_units_Z 16
_cell_length_a 8.627960
_cell_length_b 9.292900
_cell_length_c 13.830683
_cell_angle_alpha 94.710195
_cell_angle_beta 42.747082
_cell_angle_gamma 81.046139
_cell_volume 710.909964
_symmetry_space_group_name_H-M "P -1"
_symmetry_group_IT_number 2
_symmetry_cell_setting 'triclinic'
loop_
_space_group_symop_operation_xyz
x,y,z
-x,-y,-z
loop_
_atom_site_type_symbol
_atom_site_label
_atom_site_fract_x
_atom_site_fract_y
_atom_site_fract_z
Si Si1 0.406225 0.099134 0.950498
Si Si2 0.119879 0.393683 0.817551
Si Si3 0.052797 0.575711 0.577357
Si Si4 0.743445 0.974695 0.603470
Si Si5 0.466174 0.274529 0.377727
Si Si6 0.290920 0.430486 0.106230
Si Si7 0.945954 0.261302 0.063630
Si Si8 0.643703 0.216802 0.505915
O O1 0.585940 0.039158 0.774945
O O2 0.378735 0.273691 0.997903
O O3 0.134798 0.128419 0.032862
O O4 0.500000 0.000000 0.000000
O O5 0.066055 0.567554 0.888625
O O6 0.397676 0.335783 0.663845
O O7 0.943063 0.430173 0.810576
O O8 0.049102 0.271699 0.910240
O O9 0.297516 0.443933 0.491821
O O10 0.135508 0.725120 0.559089
O O11 0.000000 0.500000 0.500000
O O12 0.804402 0.610285 0.751502
O O13 0.651621 0.066878 0.551849
O O14 0.711721 0.812776 0.585556
O O15 0.000000 0.000000 0.500000
O O16 0.674643 0.261151 0.202021
O O17 0.613858 0.207639 0.404270
O O18 0.500000 0.500000 0.000000
#
# Coordination Sequence:
#
# PCOD9111292 Si02
#       8
#     2   2   2   2   2   2   2   2
#     4  11  27  48  69 102 148 194 234 294 371 435
#     4  10  20  42  72 103 135 181 238 303 353 415
#     4  12  27  43  76 111 147 186 240 305 366 433
#     4  12  30  48  70 103 151 197 239 301 369 441
#     4  12  26  46  74 107 141 193 246 296 366 430
#     4  11  27  45  72 106 142 190 242 300 362 430
#     4  10  22  42  72 100 138 182 243 295 353 427
#     4  12  23  49  73 104 143 190 247 301 358 433
#
# _framework density 22.506366
#
# number of rings (size 3 to 8) (size 9 to 14) (size 15 to 20)
#    0.000    0.750    3.750    3.000   10.500    0.500 
#    2.250    0.000    0.000    0.000    0.000    0.000 
#    0.000    0.000    0.000    0.000    0.000    0.000 
#
# Total GULP energy -89205.738832 kJ/mol
# GULP energy per Si atom -5575.358677 kJ/mol
# Density = 2.245514 g / cm^3
# Si number density = 22.506366 Si / 1000 Ang^3
#
#
#
# Elastic Constant Matrix: (Units=GPa)
#
#
# Indices 1 2 3 4 5 6 
#
# 1 49.4545 19.6463 3.8441 -18.3546 -4.4446 -5.7230
# 2 19.6463 91.9173 24.7214 -13.9606 -9.4250 1.1137
# 3 3.8441 24.7214 113.2664 -20.0569 -8.4177 12.9821
# 4 -18.3546 -13.9606 -20.0569 31.3060 1.3941 -3.8454
# 5 -4.4446 -9.4250 -8.4177 1.3941 35.9157 3.2998
# 6 -5.7230 1.1137 12.9821 -3.8454 3.2998 32.6692
#
#
#
# Elastic Compliance Matrix: (Units=1/GPa)
#
#
# Indices 1 2 3 4 5 6 
#
# 1 0.028986 -0.004091 0.002425 0.017393 0.001845 0.006114
# 2 -0.004091 0.012846 -0.002132 0.001820 0.002325 -0.000328
# 3 0.002425 -0.002132 0.011005 0.007013 0.002350 -0.003287
# 4 0.017393 0.001820 0.007013 0.048057 0.001888 0.005664
# 5 0.001845 0.002325 0.002350 0.001888 0.029475 -0.003445
# 6 0.006114 -0.000328 -0.003287 0.005664 -0.003445 0.034013
#
#
# Mechanical properties :
#
#
# Convention : Reuss Voigt Hill
#
# Bulk Modulus (GPa) = 22.10381 39.00684 30.55533
# Shear Modulus (GPa) = 26.72968 33.73994 30.23481
#
# Velocity S-wave (km/s) = 3.44997 3.87606 3.66920
# Velocity P-wave (km/s) = 5.07072 6.11563 5.61752
#
# Compressibility (1/GPa) = 0.04524107
#
# Stress axis : x y z
#
# Youngs Moduli (GPa) = 34.49970 77.84529 90.86664
#
# Poissons Ratio (x) = 0.31846 -0.22038
# Poissons Ratio (y) = 0.14114 0.19375
# Poissons Ratio (z) = -0.08367 0.16599
#
# Static dielectric constant tensor:
#      x y z
#    x 1.929980 -0.066360 0.038780 
#    y -0.066360 1.881410 -0.004080 
#    z 0.038780 -0.004080 1.793760 
# 
# From -- ./inp_files/447886.got.cif
#   From: 2010.05.17/outbox.cif.g08.bks.cpg/sg2_224_cif.got.tgz:447886.got - 2010.06.03 11:33:40.
