data_PCOD9111131
_publ_section_title
;
Structure prediction by ZEFSAII (Michael W. Deem and Ramdas Pophale) SiO2 
 PCOD9111131
Probable space group: P -1
;
_chemical_formula_sum "Si O2"
_cell_formula_units_Z 15
_cell_length_a 12.023150
_cell_length_b 13.357222
_cell_length_c 7.847343
_cell_angle_alpha 55.656757
_cell_angle_beta 82.832687
_cell_angle_gamma 46.157702
_cell_volume 671.466722
_symmetry_space_group_name_H-M "P -1"
_symmetry_group_IT_number 2
_symmetry_cell_setting 'triclinic'
loop_
_space_group_symop_operation_xyz
x,y,z
-x,-y,-z
loop_
_atom_site_type_symbol
_atom_site_label
_atom_site_fract_x
_atom_site_fract_y
_atom_site_fract_z
Si Si1 0.575629 0.820593 0.568211
Si Si2 0.642805 0.295920 0.090162
Si Si3 0.030283 0.736331 0.568429
Si Si4 0.991753 0.976080 0.827448
Si Si5 0.500000 0.000000 0.000000
Si Si6 0.594748 0.683191 0.051842
Si Si7 0.848435 0.711397 0.381043
Si Si8 0.238763 0.996145 0.366286
O O1 0.611802 0.701506 0.829718
O O2 0.741369 0.722403 0.529443
O O3 0.422320 0.910118 0.380454
O O4 0.500000 0.000000 0.500000
O O5 0.556719 0.293412 0.951734
O O6 0.703328 0.151667 0.362313
O O7 0.500000 0.500000 0.000000
O O8 0.816325 0.221999 0.073876
O O9 0.048015 0.866171 0.417449
O O10 0.922362 0.770233 0.399342
O O11 0.219241 0.522366 0.735811
O O12 0.910702 0.808841 0.688649
O O13 0.850644 0.994527 0.783076
O O14 0.000000 0.000000 0.000000
O O15 0.292005 0.151123 0.867646
O O16 0.540144 0.844718 0.015943
O O17 0.000000 0.500000 0.500000
#
# Coordination Sequence:
#
# PCOD9111131 Si02
#       8
#     2   2   2   2   1   2   2   2
#     4  11  22  43  67  98 132 173 241 274 332 424
#     4  10  20  42  69  93 130 177 230 275 348 413
#     4  11  22  45  67  98 138 184 230 278 350 415
#     4  11  24  43  66 102 136 174 228 290 346 410
#     4  12  22  40  64  96 142 186 220 282 356 390
#     4  11  23  40  70 101 134 186 229 288 348 414
#     4  12  25  45  64 100 142 182 224 286 346 411
#     4  10  21  41  70  92 135 178 224 283 342 406
#
# _framework density 22.339155999999999
#
# number of rings (size 3 to 8) (size 9 to 14) (size 15 to 20)
#    0.000    1.067    4.000    4.800    0.000    2.667 
#    9.600    1.333    0.000    0.000    0.000    0.000 
#    0.000    0.000    0.000    0.000    0.000    0.000 
#
# Total GULP energy -83617.166585 kJ/mol
# GULP energy per Si atom -5574.477772 kJ/mol
# Density = 2.228831 g / cm^3
# Si number density = 22.339156 Si / 1000 Ang^3
#
#
#
# Elastic Constant Matrix: (Units=GPa)
#
#
# Indices 1 2 3 4 5 6 
#
# 1 138.4551 40.7315 28.8783 -8.8764 50.9395 21.9772
# 2 40.7315 133.8080 24.3228 -27.9815 20.8559 0.0357
# 3 28.8783 24.3228 69.9926 -13.9996 35.2114 -2.2293
# 4 -8.8764 -27.9815 -13.9996 37.7722 0.7104 13.6974
# 5 50.9395 20.8559 35.2114 0.7104 42.8114 9.4032
# 6 21.9772 0.0357 -2.2293 13.6974 9.4032 47.1330
#
#
#
# Elastic Compliance Matrix: (Units=1/GPa)
#
#
# Indices 1 2 3 4 5 6 
#
# 1 0.015758 -0.000821 0.006753 0.007729 -0.023002 -0.004685
# 2 -0.000821 0.009911 0.000529 0.007797 -0.004189 -0.001030
# 3 0.006753 0.000529 0.031673 0.013917 -0.034850 0.001257
# 4 0.007729 0.007797 0.013917 0.043682 -0.022725 -0.011112
# 5 -0.023002 -0.004189 -0.034850 -0.022725 0.081955 -0.000666
# 6 -0.004685 -0.001030 0.001257 -0.011112 -0.000666 0.026823
#
#
# Mechanical properties :
#
#
# Convention : Reuss Voigt Hill
#
# Bulk Modulus (GPa) = 14.23246 58.90232 36.56739
# Shear Modulus (GPa) = 22.69606 42.09820 32.39713
#
# Velocity S-wave (km/s) = 3.19090 4.34580 3.81233
# Velocity P-wave (km/s) = 4.46774 7.18372 5.98191
#
# Compressibility (1/GPa) = 0.07026192
#
# Stress axis : x y z
#
# Youngs Moduli (GPa) = 63.46060 100.89751 31.57268
#
# Poissons Ratio (x) = 0.08288 -0.21319
# Poissons Ratio (y) = 0.05213 -0.01670
# Poissons Ratio (z) = -0.42852 -0.05338
#
# Static dielectric constant tensor:
#      x y z
#    x 1.745440 0.046440 0.068190 
#    y 0.046440 1.751210 -0.016880 
#    z 0.068190 -0.016880 1.769120 
# 
# From -- ./inp_files/262071.got.cif
#   From: 2010.05.17/outbox.cif.g08.bks.cpg/sg2_132_cif.got.tgz:262071.got - 2010.06.03 11:33:40.
