data_PCOD9111095
_publ_section_title
;
Structure prediction by ZEFSAII (Michael W. Deem and Ramdas Pophale) SiO2 
 PCOD9111095
Probable space group: P -1
;
_chemical_formula_sum "Si O2"
_cell_formula_units_Z 14
_cell_length_a 19.517871
_cell_length_b 8.538250
_cell_length_c 9.557875
_cell_angle_alpha 96.930839
_cell_angle_beta 51.583435
_cell_angle_gamma 139.008708
_cell_volume 601.881273
_symmetry_space_group_name_H-M "P -1"
_symmetry_group_IT_number 2
_symmetry_cell_setting 'triclinic'
loop_
_space_group_symop_operation_xyz
x,y,z
-x,-y,-z
loop_
_atom_site_type_symbol
_atom_site_label
_atom_site_fract_x
_atom_site_fract_y
_atom_site_fract_z
Si Si1 0.048100 0.059274 0.104726
Si Si2 0.546380 0.175776 0.324772
Si Si3 0.096555 0.794447 0.988229
Si Si4 0.026223 0.875210 0.528503
Si Si5 0.325746 0.151890 0.016572
Si Si6 0.631522 0.111501 0.947146
Si Si7 0.603403 0.734165 0.527151
O O1 0.959175 0.045520 0.320373
O O2 0.263463 0.430097 0.879134
O O3 0.002546 0.804018 0.168961
O O4 0.000000 0.000000 0.000000
O O5 0.403647 0.087131 0.458751
O O6 0.500000 0.000000 0.500000
O O7 0.568635 0.080299 0.170433
O O8 0.204211 0.023928 0.737598
O O9 0.000000 0.500000 0.000000
O O10 0.215288 0.927315 0.988540
O O11 0.842101 0.485954 0.699689
O O12 0.193996 0.053387 0.264236
O O13 0.000000 0.000000 0.500000
O O14 0.381407 0.095713 0.039453
O O15 0.500660 0.515400 0.771055
O O16 0.500000 0.000000 0.000000
O O17 0.500000 0.500000 0.500000
#
# Coordination Sequence:
#
# PCOD9111095 Si02
#       7
#     2   2   2   2   2   2   2
#     4  11  25  43  68 107 143 184 244 292 366 432
#     4  11  22  42  70  98 143 188 231 299 356 424
#     4  11  24  41  73 110 142 188 244 301 362 435
#     4  11  23  49  74  99 148 194 238 305 366 437
#     4  11  22  48  76  98 150 196 242 304 367 435
#     4  11  27  45  67 108 145 190 247 296 367 439
#     4  10  20  42  68  99 136 184 236 290 359 425
#
# _framework density 23.260400000000001
#
# number of rings (size 3 to 8) (size 9 to 14) (size 15 to 20)
#    0.000    1.143    4.286    3.000    6.000    2.286 
#    2.571    1.429    0.000    0.000    0.000    0.000 
#    0.000    0.000    0.000    0.000    0.000    0.000 
#
# Total GULP energy -78106.961283 kJ/mol
# GULP energy per Si atom -5579.068663 kJ/mol
# Density = 2.320746 g / cm^3
# Si number density = 23.260400 Si / 1000 Ang^3
#
#
#
# Elastic Constant Matrix: (Units=GPa)
#
#
# Indices 1 2 3 4 5 6 
#
# 1 135.0787 31.5118 45.7025 10.4475 8.6086 -24.3449
# 2 31.5118 92.2178 49.6911 16.2197 1.3481 -11.2269
# 3 45.7025 49.6911 173.3768 26.0106 5.2212 -14.9534
# 4 10.4475 16.2197 26.0106 22.9317 -14.0904 5.6822
# 5 8.6086 1.3481 5.2212 -14.0904 37.5685 7.7794
# 6 -24.3449 -11.2269 -14.9534 5.6822 7.7794 45.3239
#
#
#
# Elastic Compliance Matrix: (Units=1/GPa)
#
#
# Indices 1 2 3 4 5 6 
#
# 1 0.010504 -0.000330 0.000202 -0.012390 -0.008872 0.008703
# 2 -0.000330 0.015185 -0.001185 -0.015371 -0.007392 0.006389
# 3 0.000202 -0.001185 0.009524 -0.017407 -0.009249 0.006727
# 4 -0.012390 -0.015371 -0.017407 0.129537 0.063365 -0.043321
# 5 -0.008872 -0.007392 -0.009249 0.063365 0.059733 -0.027845
# 6 0.008703 0.006389 0.006727 -0.043321 -0.027845 0.040750
#
#
# Mechanical properties :
#
#
# Convention : Reuss Voigt Hill
#
# Bulk Modulus (GPa) = 30.68729 72.72043 51.70386
# Shear Modulus (GPa) = 17.93900 39.41601 28.67750
#
# Velocity S-wave (km/s) = 2.78011 4.12096 3.51506
# Velocity P-wave (km/s) = 4.85045 7.34674 6.22501
#
# Compressibility (1/GPa) = 0.03258678
#
# Stress axis : x y z
#
# Youngs Moduli (GPa) = 95.20346 65.85547 104.99318
#
# Poissons Ratio (x) = 0.02172 -0.02123
# Poissons Ratio (y) = 0.03140 0.12447
# Poissons Ratio (z) = -0.01925 0.07807
#
# Static dielectric constant tensor:
#      x y z
#    x 1.984960 0.412730 -0.603280 
#    y 0.412730 3.339490 -2.037010 
#    z -0.603280 -2.037010 4.774590 
# 
# From -- ./inp_files/343629.got.cif
#   From: 2010.05.17/outbox.cif.g08.bks.cpg/sg2_172_cif.got.tgz:343629.got - 2010.06.03 11:33:40.
