data_PCOD9111508
_publ_section_title
;
Structure prediction by ZEFSAII (Michael W. Deem and Ramdas Pophale) SiO2 
 PCOD9111508
Probable space group: P -1
;
_chemical_formula_sum "Si O2"
_cell_formula_units_Z 16
_cell_length_a 8.285679
_cell_length_b 20.089670
_cell_length_c 17.442777
_cell_angle_alpha 160.110150
_cell_angle_beta 131.209217
_cell_angle_gamma 58.739869
_cell_volume 683.334171
_symmetry_space_group_name_H-M "P -1"
_symmetry_group_IT_number 2
_symmetry_cell_setting 'triclinic'
loop_
_space_group_symop_operation_xyz
x,y,z
-x,-y,-z
loop_
_atom_site_type_symbol
_atom_site_label
_atom_site_fract_x
_atom_site_fract_y
_atom_site_fract_z
Si Si1 0.604771 0.543255 0.287232
Si Si2 0.978965 0.451538 0.675880
Si Si3 0.630482 0.986822 0.713277
Si Si4 0.759935 0.020355 0.085317
Si Si5 0.764411 0.898400 0.359053
Si Si6 0.796016 0.283976 0.234089
Si Si7 0.533921 0.557667 0.464802
Si Si8 0.230605 0.895721 0.276767
O O1 0.561470 0.561753 0.384545
O O2 0.834711 0.502283 0.287198
O O3 0.618982 0.759781 0.488280
O O4 0.389395 0.346471 0.970858
O O5 0.908385 0.197445 0.385966
O O6 0.725322 0.470496 0.619783
O O7 0.125521 0.643255 0.986472
O O8 0.393652 0.985237 0.601097
O O9 0.804754 0.076549 0.793422
O O10 0.695830 0.135636 0.968916
O O11 0.843577 0.140075 0.158846
O O12 0.500000 0.000000 0.000000
O O13 0.724478 0.777372 0.797032
O O14 0.852339 0.960197 0.540197
O O15 0.000000 0.000000 0.500000
O O16 0.604674 0.362265 0.295665
O O17 0.000000 0.500000 0.500000
O O18 0.500000 0.000000 0.500000
#
# Coordination Sequence:
#
# PCOD9111508 Si02
#       8
#     2   2   2   2   2   2   2   2
#     4  12  23  44  70  99 140 177 231 284 349 417
#     4  11  23  44  68  98 137 185 225 283 352 403
#     4  11  24  42  68 102 131 181 231 276 354 409
#     4  10  24  43  64 103 139 178 233 286 347 412
#     4  11  24  46  70  98 136 181 229 290 348 413
#     4  12  24  42  73 101 139 190 235 279 356 422
#     4  11  24  44  69  98 146 181 228 292 345 416
#     4  10  20  43  65  93 133 170 229 282 337 405
#
# _framework density 23.414604000000001
#
# number of rings (size 3 to 8) (size 9 to 14) (size 15 to 20)
#    0.000    1.000    5.000    2.250    1.750    4.000 
#    6.750    0.000    0.000    0.000    0.000    0.000 
#    0.000    0.000    0.000    0.000    0.000    0.000 
#
# Total GULP energy -89169.278764 kJ/mol
# GULP energy per Si atom -5573.079923 kJ/mol
# Density = 2.336131 g / cm^3
# Si number density = 23.414604 Si / 1000 Ang^3
#
#
#
# Elastic Constant Matrix: (Units=GPa)
#
#
# Indices 1 2 3 4 5 6 
#
# 1 130.1963 27.3417 68.5179 -3.9972 -6.7908 -2.9194
# 2 27.3417 73.7002 41.7394 12.4779 -15.4029 1.8284
# 3 68.5179 41.7394 219.2559 -4.2592 -20.1891 -1.3330
# 4 -3.9972 12.4779 -4.2592 36.5869 -0.5765 -6.4241
# 5 -6.7908 -15.4029 -20.1891 -0.5765 42.3747 -5.1041
# 6 -2.9194 1.8284 -1.3330 -6.4241 -5.1041 35.2263
#
#
#
# Elastic Compliance Matrix: (Units=1/GPa)
#
#
# Indices 1 2 3 4 5 6 
#
# 1 0.009598 -0.002565 -0.002509 0.001818 -0.000432 0.001103
# 2 -0.002565 0.018060 -0.002348 -0.006959 0.004720 -0.001824
# 3 -0.002509 -0.002348 0.005977 0.001360 0.001687 0.000633
# 4 0.001818 -0.006959 0.001360 0.031141 -0.000422 0.006181
# 5 -0.000432 0.004720 0.001687 -0.000422 0.026470 0.003542
# 6 0.001103 -0.001824 0.000633 0.006181 0.003542 0.030238
#
#
# Mechanical properties :
#
#
# Convention : Reuss Voigt Hill
#
# Bulk Modulus (GPa) = 53.21682 77.59449 65.40566
# Shear Modulus (GPa) = 35.06499 41.87448 38.46974
#
# Velocity S-wave (km/s) = 3.87404 4.23353 4.05777
# Velocity P-wave (km/s) = 6.54128 7.55700 7.06741
#
# Compressibility (1/GPa) = 0.01879105
#
# Stress axis : x y z
#
# Youngs Moduli (GPa) = 104.19172 55.37133 167.29528
#
# Poissons Ratio (x) = 0.14204 0.41969
# Poissons Ratio (y) = 0.26728 0.39280
# Poissons Ratio (z) = 0.26139 0.13001
#
# Static dielectric constant tensor:
#      x y z
#    x 1.963850 -0.035220 -0.007300 
#    y -0.035220 1.885250 -0.003250 
#    z -0.007300 -0.003250 1.888940 
# 
# From -- ./inp_files/562827.got.cif
#   From: 2010.05.17/outbox.cif.g08.bks.cpg/sg2_282_cif.got.tgz:562827.got - 2010.06.03 11:33:40.
