data_PCOD9111546
_publ_section_title
;
Structure prediction by ZEFSAII (Michael W. Deem and Ramdas Pophale) SiO2 
 PCOD9111546
Probable space group: P -1
;
_chemical_formula_sum "Si O2"
_cell_formula_units_Z 14
_cell_length_a 12.638194
_cell_length_b 9.727823
_cell_length_c 12.239176
_cell_angle_alpha 120.416326
_cell_angle_beta 46.777042
_cell_angle_gamma 141.994657
_cell_volume 673.270535
_symmetry_space_group_name_H-M "P -1"
_symmetry_group_IT_number 2
_symmetry_cell_setting 'triclinic'
loop_
_space_group_symop_operation_xyz
x,y,z
-x,-y,-z
loop_
_atom_site_type_symbol
_atom_site_label
_atom_site_fract_x
_atom_site_fract_y
_atom_site_fract_z
Si Si1 0.134405 0.551249 0.026502
Si Si2 0.443834 0.263291 0.256501
Si Si3 0.263644 0.194571 0.575569
Si Si4 0.022470 0.330854 0.438644
Si Si5 0.014777 0.759803 0.333264
Si Si6 0.967408 0.885114 0.090052
Si Si7 0.326043 0.328329 0.139060
O O1 0.369925 0.711613 0.890468
O O2 0.060063 0.316770 0.008666
O O3 0.080459 0.642927 0.188910
O O4 0.000000 0.500000 0.000000
O O5 0.447119 0.325562 0.407038
O O6 0.418376 0.354152 0.202651
O O7 0.226314 0.010034 0.306572
O O8 0.118840 0.217343 0.630708
O O9 0.231442 0.221404 0.737306
O O10 0.168715 0.940120 0.546187
O O11 0.191933 0.383939 0.264522
O O12 0.000000 0.500000 0.500000
O O13 0.093804 0.359989 0.524324
O O14 0.166414 0.073467 0.101550
O O15 0.000000 0.000000 0.000000
O O16 0.500000 0.500000 0.000000
#
# Coordination Sequence:
#
# PCOD9111546 Si02
#       7
#     2   2   2   2   2   2   2
#     4  12  25  40  62  96 130 168 207 267 324 387
#     4  11  21  41  69  93 121 172 224 263 310 377
#     4  10  20  43  66  90 129 168 215 270 315 380
#     4  10  21  36  63  98 125 157 214 275 316 356
#     4  11  20  42  67  92 127 167 219 268 309 383
#     4  11  24  42  61  92 138 167 202 262 335 379
#     4  11  22  41  68  95 125 168 220 262 315 384
#
# _framework density 20.794017
#
# number of rings (size 3 to 8) (size 9 to 14) (size 15 to 20)
#    0.000    1.143    5.714    2.143    6.000    0.571 
#    2.571    0.000    0.000    1.714    0.000    0.000 
#    0.000    0.000    0.000    0.000    0.000    0.000 
#
# Total GULP energy -77984.430799 kJ/mol
# GULP energy per Si atom -5570.316486 kJ/mol
# Density = 2.074669 g / cm^3
# Si number density = 20.794017 Si / 1000 Ang^3
#
#
#
# Elastic Constant Matrix: (Units=GPa)
#
#
# Indices 1 2 3 4 5 6 
#
# 1 72.0955 22.0770 10.5249 -7.3739 6.1766 -16.3777
# 2 22.0770 58.0827 40.4105 -5.6453 5.9593 -21.3928
# 3 10.5249 40.4105 118.2561 -7.8726 0.7412 -11.6272
# 4 -7.3739 -5.6453 -7.8726 47.8609 -1.6422 -0.2002
# 5 6.1766 5.9593 0.7412 -1.6422 42.3447 -3.8701
# 6 -16.3777 -21.3928 -11.6272 -0.2002 -3.8701 44.7003
#
#
#
# Elastic Compliance Matrix: (Units=1/GPa)
#
#
# Indices 1 2 3 4 5 6 
#
# 1 0.016481 -0.005127 0.000791 0.002036 -0.001280 0.003689
# 2 -0.005127 0.028861 -0.008371 0.001200 -0.002246 0.009567
# 3 0.000791 -0.008371 0.011238 0.001009 0.000840 -0.000716
# 4 0.002036 0.001200 0.001009 0.021540 0.000509 0.001723
# 5 -0.001280 -0.002246 0.000840 0.000509 0.024194 0.000771
# 6 0.003689 0.009567 -0.000716 0.001723 0.000771 0.028190
#
#
# Mechanical properties :
#
#
# Convention : Reuss Voigt Hill
#
# Bulk Modulus (GPa) = 32.08661 43.82880 37.95771
# Shear Modulus (GPa) = 30.06515 38.67597 34.37056
#
# Velocity S-wave (km/s) = 3.80657 4.31740 4.07001
# Velocity P-wave (km/s) = 5.89781 6.78061 6.35456
#
# Compressibility (1/GPa) = 0.03116565
#
# Stress axis : x y z
#
# Youngs Moduli (GPa) = 60.67642 34.64920 88.98439
#
# Poissons Ratio (x) = 0.17765 -0.07043
# Poissons Ratio (y) = 0.31109 0.74492
# Poissons Ratio (z) = -0.04802 0.29006
#
# Static dielectric constant tensor:
#      x y z
#    x 1.722060 0.077670 0.081770 
#    y 0.077670 1.761570 -0.046410 
#    z 0.081770 -0.046410 1.711710 
# 
# From -- ./inp_files/153971.got.cif
#   From: 2010.05.17/outbox.cif.g08.bks.cpg/sg2_77_cif.got.tgz:153971.got - 2010.06.03 11:33:40.
