data_PCOD9111919
_publ_section_title
;
Structure prediction by ZEFSAII (Michael W. Deem and Ramdas Pophale) SiO2 
 PCOD9111919
Probable space group: P -1
;
_chemical_formula_sum "Si O2"
_cell_formula_units_Z 14
_cell_length_a 20.088053
_cell_length_b 8.627993
_cell_length_c 9.141086
_cell_angle_alpha 99.376355
_cell_angle_beta 98.044921
_cell_angle_gamma 30.793568
_cell_volume 800.255075
_symmetry_space_group_name_H-M "P -1"
_symmetry_group_IT_number 2
_symmetry_cell_setting 'triclinic'
loop_
_space_group_symop_operation_xyz
x,y,z
-x,-y,-z
loop_
_atom_site_type_symbol
_atom_site_label
_atom_site_fract_x
_atom_site_fract_y
_atom_site_fract_z
Si Si1 0.602921 0.899806 0.931360
Si Si2 0.102921 0.688511 0.068640
Si Si3 0.749997 0.828610 0.470679
Si Si4 0.485672 0.864540 0.390439
Si Si5 0.250000 0.160479 0.859424
Si Si6 0.249998 0.858782 0.640673
Si Si7 0.985668 0.192780 0.609560
O O1 0.750000 0.535189 0.922064
O O2 0.558909 0.015040 0.770462
O O3 0.627501 0.015672 0.041495
O O4 0.500000 0.000000 0.000000
O O5 0.058909 0.749324 0.229538
O O6 0.127501 0.474325 0.958504
O O7 0.000000 0.000000 0.000000
O O8 0.749998 0.766141 0.293066
O O9 0.876231 0.515092 0.544900
O O10 0.623762 0.020032 0.544901
O O11 0.749998 0.016228 0.474168
O O12 0.622076 0.501516 0.377865
O O13 0.500000 0.000000 0.500000
O O14 0.249999 0.975949 0.799205
O O15 0.122070 0.010197 0.622132
O O16 0.000000 0.000000 0.500000
#
# Coordination Sequence:
#
# PCOD9111919 Si02
#       7
#     2   2   2   2   2   2   2
#     4  10  22  41  63  92 126 164 210 261 315 371
#     4  10  22  41  63  92 126 164 210 261 315 371
#     4  10  20  44  59  93 130 155 217 256 316 372
#     4  12  23  40  67  96 125 168 214 258 315 379
#     4   8  21  40  61  86 128 162 204 257 311 366
#     4  10  25  38  66  91 128 169 203 269 319 364
#     4  12  23  40  67  96 125 168 214 258 315 379
#
# _framework density 17.494420999999999
#
# number of rings (size 3 to 8) (size 9 to 14) (size 15 to 20)
#    1.714    0.000    1.429    3.429    2.000    1.143 
#    0.000    0.000    0.000    0.000    0.000    0.000 
#    0.000    0.000    0.000    0.000    0.000    0.000 
#
# Total GULP energy -77977.113432 kJ/mol
# GULP energy per Si atom -5569.793817 kJ/mol
# Density = 1.745460 g / cm^3
# Si number density = 17.494421 Si / 1000 Ang^3
#
#
#
# Elastic Constant Matrix: (Units=GPa)
#
#
# Indices 1 2 3 4 5 6 
#
# 1 143.3497 76.0623 69.9762 10.9141 11.2671 -20.2941
# 2 76.0623 176.0103 72.7087 -0.6725 8.6764 -8.5772
# 3 69.9762 72.7087 155.5078 -1.0239 -2.2537 -2.1255
# 4 10.9141 -0.6725 -1.0239 35.1786 0.0048 1.6476
# 5 11.2671 8.6764 -2.2537 0.0048 35.2304 6.9701
# 6 -20.2941 -8.5772 -2.1255 1.6476 6.9701 35.1823
#
#
#
# Elastic Compliance Matrix: (Units=1/GPa)
#
#
# Indices 1 2 3 4 5 6 
#
# 1 0.012372 -0.003054 -0.004139 -0.004359 -0.004917 0.007320
# 2 -0.003054 0.008072 -0.002407 0.001020 -0.001215 0.000254
# 3 -0.004139 -0.002407 0.009432 0.001658 0.003134 -0.003103
# 4 -0.004359 0.001020 0.001658 0.030032 0.002031 -0.003975
# 5 -0.004917 -0.001215 0.003134 0.002031 0.032325 -0.009442
# 6 0.007320 0.000254 -0.003103 -0.003975 -0.009442 0.034577
#
#
# Mechanical properties :
#
#
# Convention : Reuss Voigt Hill
#
# Bulk Modulus (GPa) = 93.67384 101.37359 97.52371
# Shear Modulus (GPa) = 33.42945 38.19296 35.81121
#
# Velocity S-wave (km/s) = 4.37608 4.67749 4.52929
# Velocity P-wave (km/s) = 8.89914 9.34044 9.12246
#
# Compressibility (1/GPa) = 0.01067534
#
# Stress axis : x y z
#
# Youngs Moduli (GPa) = 80.83060 123.88660 106.01723
#
# Poissons Ratio (x) = 0.37837 0.43880
# Poissons Ratio (y) = 0.24687 0.25520
# Poissons Ratio (z) = 0.33455 0.29822
#
# Static dielectric constant tensor:
#      x y z
#    x 1.582600 0.007830 0.011290 
#    y 0.007830 1.574640 0.007240 
#    z 0.011290 0.007240 1.591800 
# 
# From -- ./inp_files/342822.got.cif
#   From: 2010.05.17/outbox.cif.g08.bks.cpg/sg2_172_cif.got.tgz:342822.got - 2010.06.03 11:33:40.
