data_PCOD9111554
_publ_section_title
;
Structure prediction by ZEFSAII (Michael W. Deem and Ramdas Pophale) SiO2 
 PCOD9111554
Probable space group: P -1
;
_chemical_formula_sum "Si O2"
_cell_formula_units_Z 13
_cell_length_a 6.108239
_cell_length_b 14.150133
_cell_length_c 11.968649
_cell_angle_alpha 32.089420
_cell_angle_beta 74.369498
_cell_angle_gamma 63.536775
_cell_volume 479.096520
_symmetry_space_group_name_H-M "P -1"
_symmetry_group_IT_number 2
_symmetry_cell_setting 'triclinic'
loop_
_space_group_symop_operation_xyz
x,y,z
-x,-y,-z
loop_
_atom_site_type_symbol
_atom_site_label
_atom_site_fract_x
_atom_site_fract_y
_atom_site_fract_z
Si Si1 0.910140 0.720818 0.921055
Si Si2 0.012066 0.046848 0.670774
Si Si3 0.622386 0.614599 0.257289
Si Si4 0.945543 0.751137 0.333809
Si Si5 0.500000 0.000000 0.000000
Si Si6 0.520341 0.665790 0.588071
Si Si7 0.719325 0.717640 0.728148
O O1 0.691287 0.796290 0.780239
O O2 0.059326 0.850523 0.797305
O O3 0.796249 0.682814 0.087751
O O4 0.116610 0.514270 0.058806
O O5 0.709268 0.147546 0.618602
O O6 0.090811 0.064397 0.766963
O O7 0.114565 0.179727 0.452817
O O8 0.508745 0.521258 0.270173
O O9 0.782989 0.432750 0.501429
O O10 0.452265 0.813169 0.145254
O O11 0.772764 0.661756 0.509674
O O12 0.793395 0.840072 0.153920
O O13 0.509827 0.722225 0.664169
#
# Coordination Sequence:
#
# PCOD9111554 Si02
#       7
#     2   2   2   2   1   2   2
#     4  11  21  41  66  95 137 177 214 271 330 388
#     4  10  21  41  64  96 137 174 219 273 324 396
#     4  11  24  45  65  99 136 170 224 283 325 397
#     4  10  23  45  65  96 137 166 223 286 325 397
#     4  12  26  42  72  98 118 186 228 262 362 394
#     4  10  20  43  66  91 136 174 211 277 329 386
#     4  10  22  40  64  99 134 176 220 264 325 397
#
# _framework density 27.134408000000001
#
# number of rings (size 3 to 8) (size 9 to 14) (size 15 to 20)
#    0.000    1.538    4.615    1.846    2.154    1.846 
#    0.000    9.231    0.000    0.000    0.000    0.000 
#    0.000    0.000    0.000    0.000    0.000    0.000 
#
# Total GULP energy -72432.034602 kJ/mol
# GULP energy per Si atom -5571.694969 kJ/mol
# Density = 2.707265 g / cm^3
# Si number density = 27.134408 Si / 1000 Ang^3
#
#
#
# Elastic Constant Matrix: (Units=GPa)
#
#
# Indices 1 2 3 4 5 6 
#
# 1 83.2528 39.7114 45.7088 -7.9069 4.8935 42.3563
# 2 39.7114 171.8048 97.3276 -0.6702 -12.3850 48.9769
# 3 45.7088 97.3276 200.9256 22.6691 -62.1553 4.3149
# 4 -7.9069 -0.6702 22.6691 96.2462 -15.8290 -25.2681
# 5 4.8935 -12.3850 -62.1553 -15.8290 81.1074 19.7215
# 6 42.3563 48.9769 4.3149 -25.2681 19.7215 73.5650
#
#
#
# Elastic Compliance Matrix: (Units=1/GPa)
#
#
# Indices 1 2 3 4 5 6 
#
# 1 0.020988 0.002113 -0.006358 -0.000525 -0.002872 -0.012528
# 2 0.002113 0.010837 -0.005829 -0.000667 -0.001120 -0.008018
# 3 -0.006358 -0.005829 0.011375 -0.000867 0.006892 0.004729
# 4 -0.000525 -0.000667 -0.000867 0.011866 0.000424 0.004759
# 5 -0.002872 -0.001120 0.006892 0.000424 0.018373 -0.002784
# 6 -0.012528 -0.008018 0.004729 0.004759 -0.002784 0.028249
#
#
# Mechanical properties :
#
#
# Convention : Reuss Voigt Hill
#
# Bulk Modulus (GPa) = 43.38215 91.27541 67.32878
# Shear Modulus (GPa) = 38.60440 68.39941 53.50191
#
# Velocity S-wave (km/s) = 3.77598 5.02617 4.44524
# Velocity P-wave (km/s) = 5.91889 8.20941 7.15638
#
# Compressibility (1/GPa) = 0.02305096
#
# Stress axis : x y z
#
# Youngs Moduli (GPa) = 47.64738 92.27835 87.91043
#
# Poissons Ratio (x) = -0.19501 0.55897
# Poissons Ratio (y) = -0.10069 0.51244
# Poissons Ratio (z) = 0.30296 0.53790
#
# Static dielectric constant tensor:
#      x y z
#    x 2.174520 0.018700 0.045170 
#    y 0.018700 2.271740 0.070100 
#    z 0.045170 0.070100 2.192640 
# 
# From -- ./inp_files/95991.got.cif
#   From: 2010.05.17/outbox.cif.g08.bks.cpg/sg2_48_cif.got.tgz:95991.got - 2010.06.03 11:33:40.
