data_PCOD9111644
_publ_section_title
;
Structure prediction by ZEFSAII (Michael W. Deem and Ramdas Pophale) SiO2 
 PCOD9111644
Probable space group: P -1
;
_chemical_formula_sum "Si O2"
_cell_formula_units_Z 14
_cell_length_a 7.231252
_cell_length_b 7.157762
_cell_length_c 11.907818
_cell_angle_alpha 69.142539
_cell_angle_beta 111.538733
_cell_angle_gamma 108.972137
_cell_volume 522.165436
_symmetry_space_group_name_H-M "P -1"
_symmetry_group_IT_number 2
_symmetry_cell_setting 'triclinic'
loop_
_space_group_symop_operation_xyz
x,y,z
-x,-y,-z
loop_
_atom_site_type_symbol
_atom_site_label
_atom_site_fract_x
_atom_site_fract_y
_atom_site_fract_z
Si Si1 0.124073 0.881292 0.267448
Si Si2 0.337003 0.326175 0.782947
Si Si3 0.310782 0.712778 0.974857
Si Si4 0.133213 0.280378 0.083281
Si Si5 0.290773 0.771560 0.702993
Si Si6 0.843546 0.741746 0.655138
Si Si7 0.527373 0.782111 0.406166
O O1 0.284273 0.741404 0.350443
O O2 0.897286 0.761583 0.217655
O O3 0.192475 0.061818 0.150671
O O4 0.117417 0.019799 0.347201
O O5 0.488937 0.240926 0.916311
O O6 0.375318 0.571740 0.742584
O O7 0.375708 0.265886 0.678124
O O8 0.255880 0.463887 0.997357
O O9 0.320686 0.814121 0.833912
O O10 0.108928 0.754691 0.980919
O O11 0.163822 0.364823 0.201813
O O12 0.047290 0.722911 0.639927
O O13 0.405543 0.969656 0.619713
O O14 0.638670 0.688793 0.549715
#
# Coordination Sequence:
#
# PCOD9111644 Si02
#       7
#     2   2   2   2   2   2   2
#     4  10  23  44  67 101 134 177 223 272 335 397
#     4  12  26  42  67 108 133 173 230 272 335 398
#     4  10  20  43  67  98 138 173 226 275 329 399
#     4   8  19  40  72  94 127 184 219 266 337 395
#     4  11  24  44  71  95 137 181 216 281 336 392
#     4   9  21  46  72  94 134 180 224 269 341 397
#     4  12  24  46  71  96 138 179 219 279 334 400
#
# _framework density 26.811425
#
# number of rings (size 3 to 8) (size 9 to 14) (size 15 to 20)
#    0.857    0.857    1.429    2.143    0.000    6.286 
#    0.000    3.571    0.000    0.000    0.000    0.000 
#    0.000    0.000    0.000    0.000    0.000    0.000 
#
# Total GULP energy -78534.287466 kJ/mol
# GULP energy per Si atom -5609.591962 kJ/mol
# Density = 2.675040 g / cm^3
# Si number density = 26.811425 Si / 1000 Ang^3
#
#
#
# Elastic Constant Matrix: (Units=GPa)
#
#
# Indices 1 2 3 4 5 6 
#
# 1 111.2946 10.6910 53.2303 2.3902 38.3093 22.3118
# 2 10.6910 67.8926 31.0638 -4.8295 7.5047 -1.3787
# 3 53.2303 31.0638 163.6743 0.1479 32.0981 14.2815
# 4 2.3902 -4.8295 0.1479 40.7372 2.9401 10.2417
# 5 38.3093 7.5047 32.0981 2.9401 43.5569 4.2598
# 6 22.3118 -1.3787 14.2815 10.2417 4.2598 39.4897
#
#
#
# Elastic Compliance Matrix: (Units=1/GPa)
#
#
# Indices 1 2 3 4 5 6 
#
# 1 0.015277 -0.000225 -0.002097 0.001684 -0.011272 -0.007102
# 2 -0.000225 0.016371 -0.003036 0.001650 -0.000638 0.001437
# 3 -0.002097 -0.003036 0.008203 0.000393 -0.003547 -0.001607
# 4 0.001684 0.001650 0.000393 0.026791 -0.003115 -0.007648
# 5 -0.011272 -0.000638 -0.003547 -0.003115 0.035354 0.004623
# 6 -0.007102 0.001437 -0.001607 -0.007648 0.004623 0.031452
#
#
# Mechanical properties :
#
#
# Convention : Reuss Voigt Hill
#
# Bulk Modulus (GPa) = 34.32184 59.20354 46.76269
# Shear Modulus (GPa) = 32.49391 41.28184 36.88787
#
# Velocity S-wave (km/s) = 3.48507 3.92817 3.71324
# Velocity P-wave (km/s) = 5.38733 6.53479 5.98860
#
# Compressibility (1/GPa) = 0.02913596
#
# Stress axis : x y z
#
# Youngs Moduli (GPa) = 65.45673 61.08530 121.90064
#
# Poissons Ratio (x) = 0.01372 0.25565
# Poissons Ratio (y) = 0.01471 0.37006
# Poissons Ratio (z) = 0.13728 0.18544
#
# Static dielectric constant tensor:
#      x y z
#    x 2.047950 0.023560 0.004610 
#    y 0.023560 2.109490 0.010300 
#    z 0.004610 0.010300 2.039380 
# 
# From -- ./inp_files/490680.got.cif
#   From: 2010.05.17/outbox.cif.g08.bks.cpg/sg2_246_cif.got.tgz:490680.got - 2010.06.03 11:33:40.
