data_PCOD9111753
_publ_section_title
;
Structure prediction by ZEFSAII (Michael W. Deem and Ramdas Pophale) SiO2 
 PCOD9111753
Probable space group: P -1
;
_chemical_formula_sum "Si O2"
_cell_formula_units_Z 16
_cell_length_a 15.264747
_cell_length_b 8.802069
_cell_length_c 7.842398
_cell_angle_alpha 49.909536
_cell_angle_beta 82.428278
_cell_angle_gamma 107.823089
_cell_volume 684.732986
_symmetry_space_group_name_H-M "P -1"
_symmetry_group_IT_number 2
_symmetry_cell_setting 'triclinic'
loop_
_space_group_symop_operation_xyz
x,y,z
-x,-y,-z
loop_
_atom_site_type_symbol
_atom_site_label
_atom_site_fract_x
_atom_site_fract_y
_atom_site_fract_z
Si Si1 0.437161 0.116979 0.986337
Si Si2 0.105043 0.229394 0.750885
Si Si3 0.279741 0.456366 0.011901
Si Si4 0.061123 0.268728 0.344573
Si Si5 0.424270 0.414146 0.246227
Si Si6 0.238014 0.081161 0.006933
Si Si7 0.124755 0.680743 0.584239
Si Si8 0.340905 0.930540 0.518795
O O1 0.513388 0.393830 0.768411
O O2 0.333689 0.052286 0.958213
O O3 0.500000 0.000000 0.000000
O O4 0.396972 0.022497 0.256502
O O5 0.095631 0.282551 0.520479
O O6 0.193122 0.168967 0.809186
O O7 0.122516 0.448590 0.698623
O O8 0.000000 0.000000 0.000000
O O9 0.276663 0.277601 0.002936
O O10 0.348214 0.717604 0.740546
O O11 0.163969 0.397792 0.113972
O O12 0.326419 0.424610 0.196616
O O13 0.982706 0.361536 0.286909
O O14 0.000000 0.000000 0.500000
O O15 0.388033 0.148516 0.474440
O O16 0.500000 0.500000 0.000000
O O17 0.151298 0.844077 0.290812
O O18 0.220455 0.830978 0.577719
#
# Coordination Sequence:
#
# PCOD9111753 Si02
#       8
#     2   2   2   2   2   2   2   2
#     4  10  23  46  75 102 140 180 233 294 344 418
#     4  12  25  45  71  99 135 193 233 279 356 410
#     4  12  22  43  68 104 137 182 233 285 339 416
#     4  12  25  44  68 104 142 180 242 288 331 417
#     4  10  20  43  69  97 136 178 225 284 351 406
#     4  11  22  46  73  99 142 185 227 289 358 409
#     4  11  22  44  70  99 146 184 226 290 350 407
#     4  10  22  41  73  99 137 186 222 281 361 403
#
# _framework density 23.366772000000001
#
# number of rings (size 3 to 8) (size 9 to 14) (size 15 to 20)
#    0.000    1.000    7.500    0.375    0.000    4.500 
#    2.250    1.875    0.000    0.000    0.000    0.000 
#    0.000    0.000    0.000    0.000    0.000    0.000 
#
# Total GULP energy -89602.376717 kJ/mol
# GULP energy per Si atom -5600.148545 kJ/mol
# Density = 2.331359 g / cm^3
# Si number density = 23.366772 Si / 1000 Ang^3
#
#
#
# Elastic Constant Matrix: (Units=GPa)
#
#
# Indices 1 2 3 4 5 6 
#
# 1 136.8976 31.2035 24.8094 3.4074 -18.9640 -29.6714
# 2 31.2035 59.0395 42.4448 -20.5176 -7.4433 -15.1438
# 3 24.8094 42.4448 94.6274 -25.1396 8.6874 -10.5421
# 4 3.4074 -20.5176 -25.1396 40.9944 -2.7705 5.1911
# 5 -18.9640 -7.4433 8.6874 -2.7705 33.9782 -3.4270
# 6 -29.6714 -15.1438 -10.5421 5.1911 -3.4270 31.2707
#
#
#
# Elastic Compliance Matrix: (Units=1/GPa)
#
#
# Indices 1 2 3 4 5 6 
#
# 1 0.011816 -0.002016 -0.002916 -0.004640 0.007616 0.010857
# 2 -0.002016 0.033939 -0.012156 0.009173 0.011187 0.010128
# 3 -0.002916 -0.012156 0.018596 0.005495 -0.009029 -0.004286
# 4 -0.004640 0.009173 0.005495 0.033218 0.000362 -0.003582
# 5 0.007616 0.011187 -0.009029 0.000362 0.039873 0.013909
# 6 0.010857 0.010128 -0.004286 -0.003582 0.013909 0.047860
#
#
# Mechanical properties :
#
#
# Convention : Reuss Voigt Hill
#
# Bulk Modulus (GPa) = 33.14050 54.16444 43.65247
# Shear Modulus (GPa) = 21.78301 34.05578 27.91940
#
# Velocity S-wave (km/s) = 3.05654 3.82179 3.46039
# Velocity P-wave (km/s) = 5.16431 6.53492 5.88962
#
# Compressibility (1/GPa) = 0.03017456
#
# Stress axis : x y z
#
# Youngs Moduli (GPa) = 84.62789 29.46478 53.77460
#
# Poissons Ratio (x) = 0.05941 0.15680
# Poissons Ratio (y) = 0.17063 0.65370
# Poissons Ratio (z) = 0.24676 0.35819
#
# Static dielectric constant tensor:
#      x y z
#    x 1.908760 0.018520 0.002710 
#    y 0.018520 1.862620 0.019580 
#    z 0.002710 0.019580 1.889310 
# 
# From -- ./inp_files/297381.got.cif
#   From: 2010.05.17/outbox.cif.g08.bks.cpg/sg2_149_cif.got.tgz:297381.got - 2010.06.03 11:33:40.
