data_PCOD9111698
_publ_section_title
;
Structure prediction by ZEFSAII (Michael W. Deem and Ramdas Pophale) SiO2 
 PCOD9111698
Probable space group: P -1
;
_chemical_formula_sum "Si O2"
_cell_formula_units_Z 16
_cell_length_a 14.530852
_cell_length_b 14.360856
_cell_length_c 11.571639
_cell_angle_alpha 57.626931
_cell_angle_beta 151.445049
_cell_angle_gamma 140.692575
_cell_volume 642.945205
_symmetry_space_group_name_H-M "P -1"
_symmetry_group_IT_number 2
_symmetry_cell_setting 'triclinic'
loop_
_space_group_symop_operation_xyz
x,y,z
-x,-y,-z
loop_
_atom_site_type_symbol
_atom_site_label
_atom_site_fract_x
_atom_site_fract_y
_atom_site_fract_z
Si Si1 0.617288 0.659604 0.583240
Si Si2 0.188098 0.843445 0.965128
Si Si3 0.810398 0.379676 0.007756
Si Si4 0.322437 0.269386 0.133020
Si Si5 0.945828 0.289015 0.655281
Si Si6 0.315564 0.116453 0.822677
Si Si7 0.649709 0.220355 0.604116
Si Si8 0.612349 0.357150 0.165471
O O1 0.500000 0.500000 0.500000
O O2 0.395017 0.657094 0.295287
O O3 0.637834 0.657619 0.745537
O O4 0.935446 0.802418 0.780774
O O5 0.351457 0.002882 0.963522
O O6 0.085345 0.695402 0.872448
O O7 0.377635 0.871910 0.257234
O O8 0.584236 0.269210 0.936972
O O9 0.080008 0.576844 0.204792
O O10 0.356499 0.157569 0.285554
O O11 0.576740 0.382693 0.240374
O O12 0.053727 0.210951 0.810050
O O13 0.252879 0.487623 0.864895
O O14 0.764389 0.208664 0.625489
O O15 0.785480 0.313796 0.384320
O O16 0.319042 0.191754 0.892116
O O17 0.000000 0.000000 0.500000
#
# Coordination Sequence:
#
# PCOD9111698 Si02
#       8
#     2   2   2   2   2   2   2   2
#     4  12  22  38  70 105 134 173 226 285 332 393
#     4  12  24  41  64  97 139 177 220 281 336 401
#     4  12  23  43  66 102 134 181 226 275 339 404
#     4  11  22  39  70 104 130 172 226 284 334 399
#     4  10  20  43  68  97 135 171 224 284 330 399
#     4  12  27  47  68  96 142 181 224 280 343 408
#     4  11  21  38  72  99 135 171 225 280 334 393
#     4  10  24  44  65  99 136 180 222 278 341 401
#
# _framework density 24.885480000000001
#
# number of rings (size 3 to 8) (size 9 to 14) (size 15 to 20)
#    0.000    0.750    6.250    1.875    0.000    1.000 
#    4.500    3.125    0.000    0.000    0.000    0.000 
#    0.000    0.000    0.000    0.000    0.000    0.000 
#
# Total GULP energy -89320.903373 kJ/mol
# GULP energy per Si atom -5582.556461 kJ/mol
# Density = 2.482884 g / cm^3
# Si number density = 24.885480 Si / 1000 Ang^3
#
#
#
# Elastic Constant Matrix: (Units=GPa)
#
#
# Indices 1 2 3 4 5 6 
#
# 1 115.4149 28.0847 20.9495 -6.7845 10.9996 2.1234
# 2 28.0847 98.7690 39.6625 -17.2974 -0.1811 22.8688
# 3 20.9495 39.6625 90.7964 -14.0974 18.9764 0.6261
# 4 -6.7845 -17.2974 -14.0974 34.3609 -4.6075 -6.6031
# 5 10.9996 -0.1811 18.9764 -4.6075 32.2614 -8.1892
# 6 2.1234 22.8688 0.6261 -6.6031 -8.1892 30.9876
#
#
#
# Elastic Compliance Matrix: (Units=1/GPa)
#
#
# Indices 1 2 3 4 5 6 
#
# 1 0.009671 -0.002701 -0.000436 0.000098 -0.002891 0.000596
# 2 -0.002701 0.016562 -0.006570 0.003466 0.002722 -0.010447
# 3 -0.000436 -0.006570 0.016099 0.002675 -0.008227 0.002949
# 4 0.000098 0.003466 0.002675 0.033711 0.004701 0.005807
# 5 -0.002891 0.002722 -0.008227 0.004701 0.040030 0.009936
# 6 0.000596 -0.010447 0.002949 0.005807 0.009936 0.043744
#
#
# Mechanical properties :
#
#
# Convention : Reuss Voigt Hill
#
# Bulk Modulus (GPa) = 43.63625 53.59707 48.61666
# Shear Modulus (GPa) = 26.75647 33.94087 30.34867
#
# Velocity S-wave (km/s) = 3.28256 3.69708 3.49597
# Velocity P-wave (km/s) = 5.65153 6.30942 5.98952
#
# Compressibility (1/GPa) = 0.02291673
#
# Stress axis : x y z
#
# Youngs Moduli (GPa) = 103.40088 60.37969 62.11652
#
# Poissons Ratio (x) = 0.16308 0.02710
# Poissons Ratio (y) = 0.27928 0.40812
# Poissons Ratio (z) = 0.04512 0.39671
#
# Static dielectric constant tensor:
#      x y z
#    x 2.018110 -0.019770 0.038730 
#    y -0.019770 1.978150 0.032800 
#    z 0.038730 0.032800 2.052910 
# 
# From -- ./inp_files/455671.got.cif
#   From: 2010.05.17/outbox.cif.g08.bks.cpg/sg2_228_cif.got.tgz:455671.got - 2010.06.03 11:33:40.
