data_PCOD9111235
_publ_section_title
;
Structure prediction by ZEFSAII (Michael W. Deem and Ramdas Pophale) SiO2 
 PCOD9111235
Probable space group: P -1
;
_chemical_formula_sum "Si O2"
_cell_formula_units_Z 13
_cell_length_a 8.764441
_cell_length_b 17.752656
_cell_length_c 9.737063
_cell_angle_alpha 35.382252
_cell_angle_beta 133.423854
_cell_angle_gamma 142.689771
_cell_volume 528.438385
_symmetry_space_group_name_H-M "P -1"
_symmetry_group_IT_number 2
_symmetry_cell_setting 'triclinic'
loop_
_space_group_symop_operation_xyz
x,y,z
-x,-y,-z
loop_
_atom_site_type_symbol
_atom_site_label
_atom_site_fract_x
_atom_site_fract_y
_atom_site_fract_z
Si Si1 0.827929 0.102753 0.247017
Si Si2 0.362547 0.781783 0.514079
Si Si3 0.616616 0.686844 0.602080
Si Si4 0.552448 0.367284 0.976013
Si Si5 0.667611 0.344261 0.779735
Si Si6 0.983136 0.192339 0.922365
Si Si7 0.000000 0.500000 0.500000
O O1 0.113602 0.191839 0.345149
O O2 0.640127 0.941122 0.447942
O O3 0.725103 0.213232 0.036964
O O4 0.831348 0.072585 0.130519
O O5 0.384456 0.678602 0.556324
O O6 0.185149 0.836028 0.272191
O O7 0.310954 0.691705 0.756975
O O8 0.587099 0.521628 0.832845
O O9 0.579150 0.722850 0.370235
O O10 0.642845 0.401998 0.825047
O O11 0.254997 0.229614 0.001574
O O12 0.875581 0.482898 0.605025
O O13 0.028332 0.352473 0.773034
#
# Coordination Sequence:
#
# PCOD9111235 Si02
#       7
#     2   2   2   2   2   2   1
#     4  11  26  44  71 102 137 190 234 273 341 421
#     4  12  25  44  73 102 141 186 233 279 340 419
#     4  12  24  42  74 102 138 183 231 287 341 410
#     4  12  27  42  71 109 138 176 231 294 347 399
#     4  11  26  46  69 103 143 177 232 284 350 409
#     4  11  22  40  72  98 137 180 230 282 339 402
#     4  10  20  42  70  96 132 178 228 274 342 406
#
# _framework density 24.600785999999999
#
# number of rings (size 3 to 8) (size 9 to 14) (size 15 to 20)
#    0.000    0.615    6.154    1.846    4.308    2.462 
#    0.000    1.538    0.000    0.000    0.000    0.000 
#    0.000    0.000    0.000    0.000    0.000    0.000 
#
# Total GULP energy -72632.960232 kJ/mol
# GULP energy per Si atom -5587.150787 kJ/mol
# Density = 2.454479 g / cm^3
# Si number density = 24.600786 Si / 1000 Ang^3
#
#
#
# Elastic Constant Matrix: (Units=GPa)
#
#
# Indices 1 2 3 4 5 6 
#
# 1 51.3542 13.0252 13.6242 8.5223 -21.8550 1.2981
# 2 13.0252 67.3793 32.5063 22.8228 -1.2628 11.1466
# 3 13.6242 32.5063 132.3198 23.4347 -1.5222 -1.3330
# 4 8.5223 22.8228 23.4347 51.7108 1.6623 7.7711
# 5 -21.8550 -1.2628 -1.5222 1.6623 43.6492 10.7407
# 6 1.2981 11.1466 -1.3330 7.7711 10.7407 19.6516
#
#
#
# Elastic Compliance Matrix: (Units=1/GPa)
#
#
# Indices 1 2 3 4 5 6 
#
# 1 0.027903 -0.002019 -0.001922 -0.002028 0.016094 -0.008822
# 2 -0.002019 0.020931 -0.004050 -0.005469 0.002410 -0.011168
# 3 -0.001922 -0.004050 0.009281 -0.002825 -0.001935 0.005228
# 4 -0.002028 -0.005469 -0.002825 0.024321 -0.000671 -0.006206
# 5 0.016094 0.002410 -0.001935 -0.000671 0.036465 -0.022226
# 6 -0.008822 -0.011168 0.005228 -0.006206 -0.022226 0.072760
#
#
# Mechanical properties :
#
#
# Convention : Reuss Voigt Hill
#
# Bulk Modulus (GPa) = 23.73405 41.04051 32.38728
# Shear Modulus (GPa) = 22.55432 35.79550 29.17491
#
# Velocity S-wave (km/s) = 3.03118 3.81866 3.44748
# Velocity P-wave (km/s) = 4.68181 6.01346 5.38892
#
# Compressibility (1/GPa) = 0.04213356
#
# Stress axis : x y z
#
# Youngs Moduli (GPa) = 35.83829 47.77665 107.74569
#
# Poissons Ratio (x) = 0.09645 0.20704
# Poissons Ratio (y) = 0.07235 0.43640
# Poissons Ratio (z) = 0.06887 0.19351
#
# Static dielectric constant tensor:
#      x y z
#    x 1.906850 -0.050200 0.022480 
#    y -0.050200 1.839040 0.007990 
#    z 0.022480 0.007990 1.895070 
# 
# From -- ./inp_files/214176.got.cif
#   From: 2010.05.17/outbox.cif.g08.bks.cpg/sg2_108_cif.got.tgz:214176.got - 2010.06.03 11:33:40.
