data_PCOD9111337
_publ_section_title
;
Structure prediction by ZEFSAII (Michael W. Deem and Ramdas Pophale) SiO2 
 PCOD9111337
Probable space group: P -1
;
_chemical_formula_sum "Si O2"
_cell_formula_units_Z 13
_cell_length_a 5.392410
_cell_length_b 16.760026
_cell_length_c 7.035348
_cell_angle_alpha 58.373555
_cell_angle_beta 97.733971
_cell_angle_gamma 67.857433
_cell_volume 454.813170
_symmetry_space_group_name_H-M "P -1"
_symmetry_group_IT_number 2
_symmetry_cell_setting 'triclinic'
loop_
_space_group_symop_operation_xyz
x,y,z
-x,-y,-z
loop_
_atom_site_type_symbol
_atom_site_label
_atom_site_fract_x
_atom_site_fract_y
_atom_site_fract_z
Si Si1 0.836411 0.449154 0.148241
Si Si2 0.746493 0.683820 0.042131
Si Si3 0.389649 0.750468 0.266800
Si Si4 0.337257 0.953401 0.161967
Si Si5 0.842567 0.881088 0.762391
Si Si6 0.000000 0.500000 0.500000
Si Si7 0.812112 0.258450 0.338619
O O1 0.863274 0.464226 0.352352
O O2 0.972008 0.325274 0.236042
O O3 0.500000 0.500000 0.000000
O O4 0.000000 0.500000 0.000000
O O5 0.641822 0.655432 0.279000
O O6 0.714366 0.802866 0.894922
O O7 0.065416 0.577782 0.245105
O O8 0.497278 0.695904 0.858227
O O9 0.496581 0.825487 0.283727
O O10 0.252465 0.728165 0.462143
O O11 0.136284 0.821504 0.999173
O O12 0.500000 0.000000 0.000000
O O13 0.329149 0.995318 0.324346
O O14 0.000000 0.000000 0.000000
O O15 0.966520 0.860372 0.585960
#
# Coordination Sequence:
#
# PCOD9111337 Si02
#       7
#     2   2   2   2   2   1   2
#     4  12  28  50  73 107 147 193 251 310 369 443
#     4  11  23  43  67 102 143 191 246 306 366 443
#     4  10  23  42  70 100 142 190 240 304 372 430
#     4  10  20  42  73 104 142 188 241 296 366 441
#     4  10  22  43  69  97 144 190 240 299 368 440
#     4  12  26  44  78 100 144 198 250 298 382 428
#     4  11  25  44  67 105 146 186 248 309 363 443
#
# _framework density 28.583165000000001
#
# number of rings (size 3 to 8) (size 9 to 14) (size 15 to 20)
#    0.000    1.231    3.077    1.846    2.154    3.692 
#    0.000    0.769    0.000    0.000    0.000    0.000 
#    0.000    0.000    0.000    0.000    0.000    0.000 
#
# Total GULP energy -72554.521218 kJ/mol
# GULP energy per Si atom -5581.117017 kJ/mol
# Density = 2.851811 g / cm^3
# Si number density = 28.583165 Si / 1000 Ang^3
#
#
#
# Elastic Constant Matrix: (Units=GPa)
#
#
# Indices 1 2 3 4 5 6 
#
# 1 153.0139 36.1744 23.2820 -2.3406 12.9047 15.9943
# 2 36.1744 143.6624 12.6633 43.9269 7.3185 28.2861
# 3 23.2820 12.6633 92.1520 17.2253 11.3011 -5.8979
# 4 -2.3406 43.9269 17.2253 62.9135 -0.5664 -4.4586
# 5 12.9047 7.3185 11.3011 -0.5664 51.0365 -12.5323
# 6 15.9943 28.2861 -5.8979 -4.4586 -12.5323 61.4275
#
#
#
# Elastic Compliance Matrix: (Units=1/GPa)
#
#
# Indices 1 2 3 4 5 6 
#
# 1 0.007621 -0.002052 -0.001945 0.002137 -0.001517 -0.001381
# 2 -0.002052 0.011339 0.000528 -0.008575 -0.002748 -0.005819
# 3 -0.001945 0.000528 0.012288 -0.003773 -0.002168 0.000727
# 4 0.002137 -0.008575 -0.003773 0.023402 0.003101 0.005361
# 5 -0.001517 -0.002748 -0.002168 0.003101 0.022421 0.006252
# 6 -0.001381 -0.005819 0.000727 0.005361 0.006252 0.021053
#
#
# Mechanical properties :
#
#
# Convention : Reuss Voigt Hill
#
# Bulk Modulus (GPa) = 41.13713 59.22977 50.18345
# Shear Modulus (GPa) = 44.18251 56.18942 50.18596
#
# Velocity S-wave (km/s) = 3.93587 4.43857 4.19476
# Velocity P-wave (km/s) = 5.92268 6.85819 6.40753
#
# Compressibility (1/GPa) = 0.02430894
#
# Stress axis : x y z
#
# Youngs Moduli (GPa) = 131.20828 88.19498 81.37787
#
# Poissons Ratio (x) = 0.18098 0.15831
# Poissons Ratio (y) = 0.26924 -0.04294
# Poissons Ratio (z) = 0.25525 -0.04654
#
# Static dielectric constant tensor:
#      x y z
#    x 2.719580 -0.598410 0.186520 
#    y -0.598410 3.054980 -0.436110 
#    z 0.186520 -0.436110 2.847640 
# 
# From -- ./inp_files/4917.got.cif
#   From: 2010.05.17/outbox.cif.g08.bks.cpg/sg2_3_cif.got.tgz:4917.got - 2010.06.03 11:33:40.
