data_PCOD9111392
_publ_section_title
;
Structure prediction by ZEFSAII (Michael W. Deem and Ramdas Pophale) SiO2 
 PCOD9111392
Probable space group: P -1
;
_chemical_formula_sum "Si O2"
_cell_formula_units_Z 14
_cell_length_a 10.965432
_cell_length_b 7.357921
_cell_length_c 19.256302
_cell_angle_alpha 131.240997
_cell_angle_beta 37.654773
_cell_angle_gamma 130.317139
_cell_volume 686.714858
_symmetry_space_group_name_H-M "P -1"
_symmetry_group_IT_number 2
_symmetry_cell_setting 'triclinic'
loop_
_space_group_symop_operation_xyz
x,y,z
-x,-y,-z
loop_
_atom_site_type_symbol
_atom_site_label
_atom_site_fract_x
_atom_site_fract_y
_atom_site_fract_z
Si Si1 0.439084 0.102137 0.249919
Si Si2 0.054477 0.636810 0.753989
Si Si3 0.698363 0.674339 0.493421
Si Si4 0.019848 0.879201 0.297710
Si Si5 0.222380 0.119122 0.135855
Si Si6 0.642819 0.349430 0.088874
Si Si7 0.218197 0.093364 0.885092
O O1 0.363717 0.217513 0.381166
O O2 0.565990 0.317131 0.194723
O O3 0.235041 0.954951 0.262524
O O4 0.588967 0.931085 0.160950
O O5 0.147124 0.505716 0.616659
O O6 0.022527 0.420022 0.772200
O O7 0.847141 0.701458 0.841167
O O8 0.205285 0.892368 0.778393
O O9 0.500000 0.500000 0.500000
O O10 0.830484 0.889743 0.436029
O O11 0.054806 0.041223 0.253754
O O12 0.440881 0.253763 0.106343
O O13 0.233371 0.858431 0.031132
O O14 0.753572 0.630443 0.087826
O O15 0.000000 0.000000 0.000000
#
# Coordination Sequence:
#
# PCOD9111392 Si02
#       7
#     2   2   2   2   2   2   2
#     4  11  21  43  61  89 123 157 208 247 296 359
#     4  10  22  37  60  89 118 159 199 242 306 349
#     4  10  21  41  61  90 124 160 199 246 305 358
#     4   9  21  38  66  87 118 162 199 250 296 353
#     4  10  20  43  60  90 122 155 206 251 297 357
#     4  10  24  38  64  89 121 161 200 251 302 354
#     4  12  24  38  61  91 123 161 200 248 305 361
#
# _framework density 20.386918999999999
#
# number of rings (size 3 to 8) (size 9 to 14) (size 15 to 20)
#    0.857    0.857    1.429    3.000    0.000    4.571 
#    2.571    8.571    0.000    0.000    0.000    0.000 
#    0.000    0.000    0.000    0.000    0.000    0.000 
#
# Total GULP energy -78092.874076 kJ/mol
# GULP energy per Si atom -5578.062434 kJ/mol
# Density = 2.034052 g / cm^3
# Si number density = 20.386919 Si / 1000 Ang^3
#
#
#
# Elastic Constant Matrix: (Units=GPa)
#
#
# Indices 1 2 3 4 5 6 
#
# 1 8.7431 -23.2841 -14.9662 -2.4305 -9.5897 2.7442
# 2 -23.2841 91.4669 30.8077 -5.4929 4.1700 5.8554
# 3 -14.9662 30.8077 92.9027 -13.6044 2.0757 7.8265
# 4 -2.4305 -5.4929 -13.6044 32.1085 -0.5196 -3.5689
# 5 -9.5897 4.1700 2.0757 -0.5196 25.2539 4.6002
# 6 2.7442 5.8554 7.8265 -3.5689 4.6002 20.8168
#
#
#
# Elastic Compliance Matrix: (Units=1/GPa)
#
#
# Indices 1 2 3 4 5 6 
#
# 1 -0.310150 -0.069041 -0.038615 -0.043138 -0.121251 0.094224
# 2 -0.069041 -0.002930 -0.012510 -0.009342 -0.028414 0.019307
# 3 -0.038615 -0.012510 0.008164 -0.000880 -0.014867 0.008674
# 4 -0.043138 -0.009342 -0.000880 0.027539 -0.017332 0.017197
# 5 -0.121251 -0.028414 -0.014867 -0.017332 -0.005973 0.027915
# 6 0.094224 0.019307 0.008674 0.017197 0.027915 0.023704
#
#
# Mechanical properties :
#
#
# Convention : Reuss Voigt Hill
#
# Bulk Modulus (GPa) = -1.83403 19.80305 8.98451
# Shear Modulus (GPa) = -24.86780 29.00619 2.06920
#
# Velocity S-wave (km/s) = -3.49634 3.77607 1.00855
# Velocity P-wave (km/s) = 4.14738 5.36156 2.40266
#
# Compressibility (1/GPa) = -0.54524801
#
# Stress axis : x y z
#
# Youngs Moduli (GPa) = -3.22425 -341.26028 122.48441
#
# Poissons Ratio (x) = -23.56101 4.72969
# Poissons Ratio (y) = -0.22261 1.53229
# Poissons Ratio (z) = -0.12450 -4.26921
#
# Static dielectric constant tensor:
#      x y z
#    x 1.733860 0.014170 -0.004310 
#    y 0.014170 1.705610 -0.013860 
#    z -0.004310 -0.013860 1.769620 
# 
# From -- ./inp_files/396764.got.cif
#   From: 2010.05.17/outbox.cif.g08.bks.cpg/sg2_199_cif.got.tgz:396764.got - 2010.06.03 11:33:40.
