data_PCOD9111625
_publ_section_title
;
Structure prediction by ZEFSAII (Michael W. Deem and Ramdas Pophale) SiO2 
 PCOD9111625
Probable space group: P -1
;
_chemical_formula_sum "Si O2"
_cell_formula_units_Z 12
_cell_length_a 10.221965
_cell_length_b 8.937705
_cell_length_c 10.081778
_cell_angle_alpha 86.475952
_cell_angle_beta 117.236933
_cell_angle_gamma 138.708480
_cell_volume 473.697550
_symmetry_space_group_name_H-M "P -1"
_symmetry_group_IT_number 2
_symmetry_cell_setting 'triclinic'
loop_
_space_group_symop_operation_xyz
x,y,z
-x,-y,-z
loop_
_atom_site_type_symbol
_atom_site_label
_atom_site_fract_x
_atom_site_fract_y
_atom_site_fract_z
Si Si1 0.907552 0.284466 0.382716
Si Si2 0.220123 0.320943 0.336598
Si Si3 0.505001 0.656778 0.913424
Si Si4 0.921688 0.202295 0.969187
Si Si5 0.012988 0.884656 0.399289
Si Si6 0.260263 0.679217 0.946528
O O1 0.109114 0.351977 0.387260
O O2 0.791131 0.072381 0.448746
O O3 0.000000 0.500000 0.500000
O O4 0.753768 0.240155 0.199695
O O5 0.500000 0.500000 0.500000
O O6 0.158070 0.345474 0.164666
O O7 0.071039 0.037951 0.292604
O O8 0.246009 0.422646 0.722814
O O9 0.500000 0.500000 0.000000
O O10 0.500695 0.228356 0.974102
O O11 0.723787 0.901088 0.905189
O O12 0.784039 0.235002 0.966130
O O13 0.038603 0.369239 0.881128
O O14 0.000000 0.000000 0.500000
#
# Coordination Sequence:
#
# PCOD9111625 Si02
#       6
#     2   2   2   2   2   2
#     4  10  20  43  67  94 132 181 235 278 337 419
#     4  10  22  44  69  98 138 182 230 290 350 408
#     4  12  23  42  71 102 136 180 231 288 344 410
#     4  10  23  46  69 101 140 180 229 287 348 415
#     4  10  22  43  65  95 136 180 235 277 349 410
#     4  10  23  44  68 101 139 180 231 280 352 417
#
# _framework density 25.332621
#
# number of rings (size 3 to 8) (size 9 to 14) (size 15 to 20)
#    0.000    1.667    3.333    0.500    0.000    3.333 
#   15.000    1.667    0.000    0.000    0.000    0.000 
#    0.000    0.000    0.000    0.000    0.000    0.000 
#
# Total GULP energy -66881.271249 kJ/mol
# GULP energy per Si atom -5573.439271 kJ/mol
# Density = 2.527496 g / cm^3
# Si number density = 25.332621 Si / 1000 Ang^3
#
#
#
# Elastic Constant Matrix: (Units=GPa)
#
#
# Indices 1 2 3 4 5 6 
#
# 1 89.5253 33.1247 17.2587 -4.5618 15.3319 -24.6659
# 2 33.1247 182.0891 36.3418 -6.4865 12.0539 -23.4217
# 3 17.2587 36.3418 79.0164 -10.8128 12.6604 -6.5131
# 4 -4.5618 -6.4865 -10.8128 57.6404 -7.8556 11.3062
# 5 15.3319 12.0539 12.6604 -7.8556 37.7279 -5.0579
# 6 -24.6659 -23.4217 -6.5131 11.3062 -5.0579 44.0142
#
#
#
# Elastic Compliance Matrix: (Units=1/GPa)
#
#
# Indices 1 2 3 4 5 6 
#
# 1 0.014540 -0.001184 -0.001523 -0.001254 -0.004326 0.007118
# 2 -0.001184 0.006551 -0.002520 -0.000388 -0.000513 0.002490
# 3 -0.001523 -0.002520 0.014883 0.002124 -0.003250 -0.000911
# 4 -0.001254 -0.000388 0.002124 0.019045 0.003200 -0.005119
# 5 -0.004326 -0.000513 -0.003250 0.003200 0.030112 -0.000540
# 6 0.007118 0.002490 -0.000911 -0.005119 -0.000540 0.029152
#
#
# Mechanical properties :
#
#
# Convention : Reuss Voigt Hill
#
# Bulk Modulus (GPa) = 39.18403 58.23125 48.70764
# Shear Modulus (GPa) = 37.52549 45.47021 41.49785
#
# Velocity S-wave (km/s) = 3.85296 4.24125 4.05176
# Velocity P-wave (km/s) = 5.94097 6.85718 6.41545
#
# Compressibility (1/GPa) = 0.02552060
#
# Stress axis : x y z
#
# Youngs Moduli (GPa) = 68.77698 152.65953 67.18859
#
# Poissons Ratio (x) = 0.18071 0.10233
# Poissons Ratio (y) = 0.08141 0.16930
# Poissons Ratio (z) = 0.10475 0.38467
#
# Static dielectric constant tensor:
#      x y z
#    x 2.037610 0.027880 0.035330 
#    y 0.027880 2.071060 0.038300 
#    z 0.035330 0.038300 2.234180 
# 
# From -- ./inp_files/412233.got.cif
#   From: 2010.05.17/outbox.cif.g08.bks.cpg/sg2_207_cif.got.tgz:412233.got - 2010.06.03 11:33:40.
