data_PCOD9111354
_publ_section_title
;
Structure prediction by ZEFSAII (Michael W. Deem and Ramdas Pophale) SiO2 
 PCOD9111354
Probable space group: P -1
;
_chemical_formula_sum "Si O2"
_cell_formula_units_Z 16
_cell_length_a 11.749258
_cell_length_b 14.321806
_cell_length_c 17.643624
_cell_angle_alpha 31.819988
_cell_angle_beta 51.247744
_cell_angle_gamma 30.564788
_cell_volume 731.547319
_symmetry_space_group_name_H-M "P -1"
_symmetry_group_IT_number 2
_symmetry_cell_setting 'triclinic'
loop_
_space_group_symop_operation_xyz
x,y,z
-x,-y,-z
loop_
_atom_site_type_symbol
_atom_site_label
_atom_site_fract_x
_atom_site_fract_y
_atom_site_fract_z
Si Si1 0.676293 0.034985 0.963470
Si Si2 0.416136 0.246498 0.412814
Si Si3 0.059406 0.147790 0.868072
Si Si4 0.255180 0.178293 0.181130
Si Si5 0.049924 0.130674 0.548227
Si Si6 0.238448 0.318366 0.603660
Si Si7 0.988066 0.792211 0.862517
Si Si8 0.208331 0.481066 0.759618
O O1 0.893424 0.894452 0.916739
O O2 0.422603 0.345899 0.817872
O O3 0.753797 0.006943 0.034302
O O4 0.693813 0.804801 0.111521
O O5 0.287129 0.323724 0.492912
O O6 0.219486 0.517274 0.250502
O O7 0.500000 0.000000 0.500000
O O8 0.665169 0.109722 0.420593
O O9 0.173322 0.172748 0.740719
O O10 0.000000 0.000000 0.000000
O O11 0.226288 0.096574 0.172383
O O12 0.030687 0.327330 0.222977
O O13 0.506646 0.902455 0.307120
O O14 0.203069 0.437934 0.010964
O O15 0.951082 0.368064 0.489038
O O16 0.883912 0.321024 0.411121
O O17 0.030954 0.946448 0.709186
#
# Coordination Sequence:
#
# PCOD9111354 Si02
#       8
#     2   2   2   2   2   2   2   2
#     4  10  22  43  68 103 145 191 230 297 360 433
#     4  12  27  51  73 105 146 192 246 300 359 427
#     4  12  29  47  74 108 143 197 250 294 355 434
#     4  10  23  44  68 111 145 191 233 297 372 446
#     4  12  25  47  75 111 143 190 237 310 365 430
#     4  12  26  48  77 103 145 193 240 301 367 427
#     4  10  25  41  71 108 149 188 238 294 374 437
#     4  10  20  42  74 103 147 182 235 299 368 427
#
# _framework density 21.871448000000001
#
# number of rings (size 3 to 8) (size 9 to 14) (size 15 to 20)
#    0.000    1.000    3.750    1.125   10.500    2.500 
#    0.000    1.250    0.000    0.000    0.000    0.000 
#    0.000    0.000    0.000    0.000    0.000    0.000 
#
# Total GULP energy -89317.705357 kJ/mol
# GULP energy per Si atom -5582.356585 kJ/mol
# Density = 2.182167 g / cm^3
# Si number density = 21.871448 Si / 1000 Ang^3
#
#
#
# Elastic Constant Matrix: (Units=GPa)
#
#
# Indices 1 2 3 4 5 6 
#
# 1 64.7625 47.5546 55.3299 4.0243 20.7978 -19.7339
# 2 47.5546 100.1803 36.9657 17.4530 -7.0470 -11.7533
# 3 55.3299 36.9657 93.8310 21.8257 -16.7571 -16.7821
# 4 4.0243 17.4530 21.8257 35.7810 -9.4813 10.4212
# 5 20.7978 -7.0470 -16.7571 -9.4813 42.0809 -4.3777
# 6 -19.7339 -11.7533 -16.7821 10.4212 -4.3777 29.1140
#
#
#
# Elastic Compliance Matrix: (Units=1/GPa)
#
#
# Indices 1 2 3 4 5 6 
#
# 1 -0.583525 0.196097 0.388417 -0.158457 0.443425 0.030932
# 2 0.196097 -0.053178 -0.132864 0.046775 -0.148632 -0.004229
# 3 0.388417 -0.132864 -0.240288 0.092565 -0.289626 -0.005554
# 4 -0.158457 0.046775 0.092565 0.004161 0.122042 -0.018303
# 5 0.443425 -0.148632 -0.289626 0.122042 -0.309851 -0.016667
# 6 0.030932 -0.004229 -0.005554 -0.018303 -0.016667 0.054451
#
#
# Mechanical properties :
#
#
# Convention : Reuss Voigt Hill
#
# Bulk Modulus (GPa) = 38.00942 59.83045 48.91994
# Shear Modulus (GPa) = -2.47187 29.32340 13.42577
#
# Velocity S-wave (km/s) = -1.06425 3.66555 2.48029
# Velocity P-wave (km/s) = 3.98825 6.73275 5.53335
#
# Compressibility (1/GPa) = 0.02630926
#
# Stress axis : x y z
#
# Youngs Moduli (GPa) = -1.71372 -18.80485 -4.16167
#
# Poissons Ratio (x) = 3.68758 1.61647
# Poissons Ratio (y) = 0.33606 -0.55294
# Poissons Ratio (z) = 0.66564 -2.49850
#
# Static dielectric constant tensor:
#      x y z
#    x 1.495970 0.105050 0.166900 
#    y 0.105050 1.804870 -0.035590 
#    z 0.166900 -0.035590 1.664960 
# 
# From -- ./inp_files/569934.got.cif
#   From: 2010.05.17/outbox.cif.g08.bks.cpg/sg2_285_cif.got.tgz:569934.got - 2010.06.03 11:33:40.
