data_PCOD9111446
_publ_section_title
;
Structure prediction by ZEFSAII (Michael W. Deem and Ramdas Pophale) SiO2 
 PCOD9111446
Probable space group: P -1
;
_chemical_formula_sum "Si O2"
_cell_formula_units_Z 15
_cell_length_a 13.146751
_cell_length_b 7.998798
_cell_length_c 7.818697
_cell_angle_alpha 63.057982
_cell_angle_beta 53.431896
_cell_angle_gamma 81.282692
_cell_volume 580.576452
_symmetry_space_group_name_H-M "P -1"
_symmetry_group_IT_number 2
_symmetry_cell_setting 'triclinic'
loop_
_space_group_symop_operation_xyz
x,y,z
-x,-y,-z
loop_
_atom_site_type_symbol
_atom_site_label
_atom_site_fract_x
_atom_site_fract_y
_atom_site_fract_z
Si Si1 0.424675 0.618460 0.396793
Si Si2 0.000000 0.500000 0.000000
Si Si3 0.415976 0.920087 0.784596
Si Si4 0.832151 0.963653 0.103386
Si Si5 0.206739 0.836818 0.591748
Si Si6 0.630281 0.841534 0.870674
Si Si7 0.972727 0.677102 0.263993
Si Si8 0.280259 0.514102 0.229911
O O1 0.500000 0.500000 0.500000
O O2 0.314565 0.703149 0.567013
O O3 0.358506 0.528672 0.327650
O O4 0.536802 0.782957 0.146913
O O5 0.079437 0.693626 0.746350
O O6 0.943658 0.428771 0.896852
O O7 0.302407 0.046585 0.848426
O O8 0.530567 0.893971 0.807605
O O9 0.500000 0.000000 0.500000
O O10 0.328298 0.708649 0.989599
O O11 0.807694 0.033201 0.289643
O O12 0.883184 0.764434 0.167495
O O13 0.941110 0.130444 0.841719
O O14 0.258029 0.977645 0.319517
O O15 0.684064 0.658651 0.834940
O O16 0.870771 0.543128 0.544473
#
# Coordination Sequence:
#
# PCOD9111446 Si02
#       8
#     2   1   2   2   2   2   2   2
#     4  11  25  40  64  97 138 173 217 270 341 391
#     4  10  22  40  70  86 132 168 226 268 340 380
#     4  11  21  38  64 101 134 165 218 268 321 385
#     4  10  22  36  69  95 124 172 218 268 324 394
#     4  11  21  40  64  95 127 175 216 271 326 389
#     4  11  24  41  67  98 135 176 220 270 326 399
#     4  10  20  43  63  96 124 173 221 272 328 389
#     4  11  23  42  68  96 135 177 222 273 321 396
#
# _framework density 25.836392
#
# number of rings (size 3 to 8) (size 9 to 14) (size 15 to 20)
#    0.000    1.333    4.000    2.000    3.733    1.600 
#    0.000    0.000    0.000    1.600    0.000    0.000 
#    0.000    0.000    0.000    0.000    0.000    0.000 
#
# Total GULP energy -83636.234351 kJ/mol
# GULP energy per Si atom -5575.748957 kJ/mol
# Density = 2.577759 g / cm^3
# Si number density = 25.836392 Si / 1000 Ang^3
#
#
#
# Elastic Constant Matrix: (Units=GPa)
#
#
# Indices 1 2 3 4 5 6 
#
# 1 72.6825 2.1355 27.4188 -5.6963 -8.5582 -6.1166
# 2 2.1355 25.0201 7.1337 9.3925 -7.1196 -17.9979
# 3 27.4188 7.1337 184.6727 -22.5204 -23.0773 -1.4006
# 4 -5.6963 9.3925 -22.5204 43.9127 1.2204 -9.4879
# 5 -8.5582 -7.1196 -23.0773 1.2204 49.1511 -10.5372
# 6 -6.1166 -17.9979 -1.4006 -9.4879 -10.5372 32.4194
#
#
#
# Elastic Compliance Matrix: (Units=1/GPa)
#
#
# Indices 1 2 3 4 5 6 
#
# 1 0.015517 0.005282 -0.001734 0.001520 0.004246 0.007610
# 2 0.005282 0.092583 -0.001606 -0.008026 0.026324 0.058533
# 3 -0.001734 -0.001606 0.006510 0.003594 0.002641 0.000973
# 4 0.001520 -0.008026 0.003594 0.027442 0.001042 0.004356
# 5 0.004246 0.026324 0.002641 0.001042 0.031717 0.026143
# 6 0.007610 0.058533 0.000973 0.004356 0.026143 0.074591
#
#
# Mechanical properties :
#
#
# Convention : Reuss Voigt Hill
#
# Bulk Modulus (GPa) = 8.43922 39.52794 23.98358
# Shear Modulus (GPa) = 17.60726 41.47581 29.54153
#
# Velocity S-wave (km/s) = 2.61337 4.01100 3.38510
# Velocity P-wave (km/s) = 3.51849 6.06493 4.95798
#
# Compressibility (1/GPa) = 0.11849432
#
# Stress axis : x y z
#
# Youngs Moduli (GPa) = 64.44526 10.80111 153.60401
#
# Poissons Ratio (x) = -0.05705 0.26638
# Poissons Ratio (y) = -0.34040 0.24667
# Poissons Ratio (z) = 0.11176 0.01735
#
# Static dielectric constant tensor:
#      x y z
#    x 2.095300 0.094310 0.023470 
#    y 0.094310 2.225000 0.110130 
#    z 0.023470 0.110130 2.040170 
# 
# From -- ./inp_files/293897.got.cif
#   From: 2010.05.17/outbox.cif.g08.bks.cpg/sg2_147_cif.got.tgz:293897.got - 2010.06.03 11:33:40.
