data_PCOD9111116
_publ_section_title
;
Structure prediction by ZEFSAII (Michael W. Deem and Ramdas Pophale) SiO2 
 PCOD9111116
Probable space group: P -1
;
_chemical_formula_sum "Si O2"
_cell_formula_units_Z 16
_cell_length_a 5.062325
_cell_length_b 16.475086
_cell_length_c 12.075314
_cell_angle_alpha 132.164301
_cell_angle_beta 69.944078
_cell_angle_gamma 122.131406
_cell_volume 631.992933
_symmetry_space_group_name_H-M "P -1"
_symmetry_group_IT_number 2
_symmetry_cell_setting 'triclinic'
loop_
_space_group_symop_operation_xyz
x,y,z
-x,-y,-z
loop_
_atom_site_type_symbol
_atom_site_label
_atom_site_fract_x
_atom_site_fract_y
_atom_site_fract_z
Si Si1 0.534401 0.801284 0.189760
Si Si2 0.741850 0.158955 0.513358
Si Si3 0.407661 0.462387 0.327079
Si Si4 0.335631 0.742594 0.937097
Si Si5 0.078865 0.313901 0.417548
Si Si6 0.166732 0.018497 0.323365
Si Si7 0.755309 0.907129 0.863920
Si Si8 0.375664 0.424839 0.058863
O O1 0.323408 0.806588 0.324477
O O2 0.507209 0.835622 0.098372
O O3 0.450520 0.661486 0.050667
O O4 0.886213 0.885419 0.254250
O O5 0.433810 0.051729 0.406568
O O6 0.825387 0.266271 0.508250
O O7 0.005472 0.110991 0.443185
O O8 0.545341 0.361022 0.204069
O O9 0.081765 0.385790 0.369415
O O10 0.617292 0.583117 0.473396
O O11 0.417610 0.501446 0.234336
O O12 0.421151 0.829523 0.898153
O O13 0.982973 0.670747 0.961160
O O14 0.116526 0.193442 0.271675
O O15 0.280216 0.038041 0.197655
O O16 0.000000 0.000000 0.000000
O O17 0.500000 0.500000 0.000000
#
# Coordination Sequence:
#
# PCOD9111116 Si02
#       8
#     2   2   2   2   2   2   2   2
#     4  11  25  43  68  96 141 182 230 286 354 414
#     4  11  26  42  72 102 145 182 237 278 352 418
#     4   9  21  45  61  95 132 173 241 279 347 407
#     4  10  23  42  68  95 137 181 226 293 348 413
#     4   9  21  41  67  93 133 183 223 292 342 411
#     4  11  25  45  69 107 140 187 230 288 348 427
#     4  10  20  42  69 104 135 174 232 288 356 422
#     4  11  27  40  67  98 131 183 235 292 349 414
#
# _framework density 25.316738999999998
#
# number of rings (size 3 to 8) (size 9 to 14) (size 15 to 20)
#    0.000    1.750    1.250    0.750    8.750    2.000 
#    0.000    5.000    0.000    0.000    0.000    0.000 
#    0.000    0.000    0.000    0.000    0.000    0.000 
#
# Total GULP energy -89418.453868 kJ/mol
# GULP energy per Si atom -5588.653367 kJ/mol
# Density = 2.525912 g / cm^3
# Si number density = 25.316739 Si / 1000 Ang^3
#
#
#
# Elastic Constant Matrix: (Units=GPa)
#
#
# Indices 1 2 3 4 5 6 
#
# 1 42.7119 -5.1427 28.3697 -4.2877 -7.5036 4.7280
# 2 -5.1427 119.6219 73.3240 -45.8753 -13.9472 6.7010
# 3 28.3697 73.3240 124.8510 4.3748 12.5008 -3.5415
# 4 -4.2877 -45.8753 4.3748 48.9293 -1.0770 6.1335
# 5 -7.5036 -13.9472 12.5008 -1.0770 28.6880 7.2907
# 6 4.7280 6.7010 -3.5415 6.1335 7.2907 27.9476
#
#
#
# Elastic Compliance Matrix: (Units=1/GPa)
#
#
# Indices 1 2 3 4 5 6 
#
# 1 0.004224 -0.020111 0.014047 -0.022165 -0.019661 0.015881
# 2 -0.020111 -0.012966 0.015743 -0.018200 -0.023866 0.018726
# 3 0.014047 0.015743 -0.007515 0.019147 0.019486 -0.016389
# 4 -0.022165 -0.018200 0.019147 -0.003211 -0.027811 0.018499
# 5 -0.019661 -0.023866 0.019486 -0.027811 0.004390 0.016476
# 6 0.015881 0.018726 -0.016389 0.018499 0.016476 0.018170
#
#
# Mechanical properties :
#
#
# Convention : Reuss Voigt Hill
#
# Bulk Modulus (GPa) = 322.42810 53.36521 187.89665
# Shear Modulus (GPa) = -328.22662 33.82190 -147.20236
#
# Velocity S-wave (km/s) = -11.39866 3.65903 -7.63351
# Velocity P-wave (km/s) = 6.75316 6.24309 1.82059
#
# Compressibility (1/GPa) = 0.00310147
#
# Stress axis : x y z
#
# Youngs Moduli (GPa) = 236.72555 -77.12354 -133.06733
#
# Poissons Ratio (x) = -1.55101 1.86915
# Poissons Ratio (y) = 4.76072 2.09491
# Poissons Ratio (z) = -3.32521 1.21417
#
# Static dielectric constant tensor:
#      x y z
#    x 2.128150 -0.047980 0.037060 
#    y -0.047980 2.034520 -0.064160 
#    z 0.037060 -0.064160 2.026430 
# 
# From -- ./inp_files/69379.got.cif
#   From: 2010.05.17/outbox.cif.g08.bks.cpg/sg2_35_cif.got.tgz:69379.got - 2010.06.03 11:33:40.
