data_PCOD9111750
_publ_section_title
;
Structure prediction by ZEFSAII (Michael W. Deem and Ramdas Pophale) SiO2 
 PCOD9111750
Probable space group: P -1
;
_chemical_formula_sum "Si O2"
_cell_formula_units_Z 16
_cell_length_a 9.882599
_cell_length_b 12.223027
_cell_length_c 15.168037
_cell_angle_alpha 32.257237
_cell_angle_beta 39.695094
_cell_angle_gamma 51.432833
_cell_volume 622.584783
_symmetry_space_group_name_H-M "P -1"
_symmetry_group_IT_number 2
_symmetry_cell_setting 'triclinic'
loop_
_space_group_symop_operation_xyz
x,y,z
-x,-y,-z
loop_
_atom_site_type_symbol
_atom_site_label
_atom_site_fract_x
_atom_site_fract_y
_atom_site_fract_z
Si Si1 0.257495 0.888616 0.429150
Si Si2 0.884629 0.645493 0.893610
Si Si3 0.016996 0.097073 0.616114
Si Si4 0.334951 0.759568 0.736140
Si Si5 0.480411 0.788061 0.098268
Si Si6 0.600277 0.728372 0.779754
Si Si7 0.940623 0.269527 0.721632
Si Si8 0.390240 0.339316 0.507277
O O1 0.458022 0.755362 0.432613
O O2 0.058954 0.780517 0.657828
O O3 0.160569 0.894657 0.376119
O O4 0.329862 0.111910 0.284956
O O5 0.158846 0.900966 0.689634
O O6 0.764179 0.459650 0.027235
O O7 0.185499 0.283599 0.376330
O O8 0.946877 0.127906 0.728889
O O9 0.708654 0.740992 0.977504
O O10 0.451729 0.847669 0.705287
O O11 0.499392 0.709228 0.609900
O O12 0.000000 0.500000 0.000000
O O13 0.406699 0.588152 0.331520
O O14 0.313386 0.769696 0.110699
O O15 0.500000 0.000000 0.000000
O O16 0.500000 0.500000 0.000000
O O17 0.144652 0.243736 0.698813
O O18 0.000000 0.500000 0.500000
#
# Coordination Sequence:
#
# PCOD9111750 Si02
#       8
#     2   2   2   2   2   2   2   2
#     4  12  25  44  68 113 150 189 246 314 381 423
#     4  11  22  43  74 105 152 186 247 311 368 444
#     4  12  24  42  73 109 148 194 244 313 371 441
#     4  11  22  40  70 105 140 194 244 299 377 430
#     4  10  23  39  69 112 140 192 251 302 363 447
#     4  12  25  41  62 106 152 190 239 308 380 437
#     4  10  23  44  68 100 141 194 250 282 362 454
#     4  10  20  43  69  96 144 194 239 299 358 447
#
# _framework density 25.699311000000002
#
# number of rings (size 3 to 8) (size 9 to 14) (size 15 to 20)
#    0.000    1.000    5.000    2.250    3.500    1.000 
#    2.250    2.500    0.000    0.000    0.000    8.750 
#    0.000    0.000    0.000    0.000    0.000    0.000 
#
# Total GULP energy -89296.195741 kJ/mol
# GULP energy per Si atom -5581.012234 kJ/mol
# Density = 2.564082 g / cm^3
# Si number density = 25.699311 Si / 1000 Ang^3
#
#
#
# Elastic Constant Matrix: (Units=GPa)
#
#
# Indices 1 2 3 4 5 6 
#
# 1 177.9277 54.1208 44.6266 0.1368 -34.8761 -51.3628
# 2 54.1208 132.5026 54.8232 1.3907 -20.8367 -31.4281
# 3 44.6266 54.8232 175.6384 -10.3451 -17.6917 -13.3139
# 4 0.1368 1.3907 -10.3451 48.7285 0.5473 -10.6008
# 5 -34.8761 -20.8367 -17.6917 0.5473 36.9192 10.8806
# 6 -51.3628 -31.4281 -13.3139 -10.6008 10.8806 47.6608
#
#
#
# Elastic Compliance Matrix: (Units=1/GPa)
#
#
# Indices 1 2 3 4 5 6 
#
# 1 0.009728 -0.000589 -0.000936 0.001659 0.005765 0.008887
# 2 -0.000589 0.010394 -0.002434 0.000242 0.002671 0.004983
# 3 -0.000936 -0.002434 0.006841 0.001365 0.001199 -0.000672
# 4 0.001659 0.000242 0.001365 0.022399 -0.000138 0.007343
# 5 0.005765 0.002671 0.001199 -0.000138 0.034498 0.000403
# 6 0.008887 0.004983 -0.000672 0.007343 0.000403 0.035198
#
#
# Mechanical properties :
#
#
# Convention : Reuss Voigt Hill
#
# Bulk Modulus (GPa) = 52.50350 88.13444 70.31897
# Shear Modulus (GPa) = 37.50245 48.82821 43.16533
#
# Velocity S-wave (km/s) = 3.82419 4.36361 4.10277
# Velocity P-wave (km/s) = 6.32246 7.73027 7.06154
#
# Compressibility (1/GPa) = 0.01904635
#
# Stress axis : x y z
#
# Youngs Moduli (GPa) = 102.79131 96.20843 146.17656
#
# Poissons Ratio (x) = 0.05670 0.13678
# Poissons Ratio (y) = 0.06058 0.35573
# Poissons Ratio (z) = 0.09619 0.23413
#
# Static dielectric constant tensor:
#      x y z
#    x 2.219980 0.008680 -0.111820 
#    y 0.008680 2.179640 0.023940 
#    z -0.111820 0.023940 2.201800 
# 
# From -- ./inp_files/610673.got.cif
#   From: 2010.05.17/outbox.cif.g08.bks.cpg/sg2_306_cif.got.tgz:610673.got - 2010.06.03 11:33:40.
