data_PCOD9111390
_publ_section_title
;
Structure prediction by ZEFSAII (Michael W. Deem and Ramdas Pophale) SiO2 
 PCOD9111390
Probable space group: P -1
;
_chemical_formula_sum "Si O2"
_cell_formula_units_Z 14
_cell_length_a 7.138531
_cell_length_b 8.428957
_cell_length_c 13.099759
_cell_angle_alpha 83.301278
_cell_angle_beta 115.800179
_cell_angle_gamma 122.644435
_cell_volume 590.247350
_symmetry_space_group_name_H-M "P -1"
_symmetry_group_IT_number 2
_symmetry_cell_setting 'triclinic'
loop_
_space_group_symop_operation_xyz
x,y,z
-x,-y,-z
loop_
_atom_site_type_symbol
_atom_site_label
_atom_site_fract_x
_atom_site_fract_y
_atom_site_fract_z
Si Si1 0.446445 0.753553 0.735003
Si Si2 0.601393 0.789844 0.060248
Si Si3 0.196795 0.565708 0.132915
Si Si4 0.045424 0.351334 0.653960
Si Si5 0.187853 0.800577 0.829474
Si Si6 0.674507 0.454979 0.482661
Si Si7 0.913058 0.137576 0.829459
O O1 0.269364 0.822882 0.729088
O O2 0.455566 0.715326 0.619895
O O3 0.282236 0.535126 0.750891
O O4 0.718726 0.917208 0.823051
O O5 0.456811 0.652011 0.131626
O O6 0.814186 0.768458 0.065038
O O7 0.758588 0.006020 0.124149
O O8 0.393602 0.773065 0.936795
O O9 0.082683 0.382010 0.192729
O O10 0.198660 0.739769 0.172835
O O11 0.000000 0.500000 0.000000
O O12 0.836703 0.401365 0.592068
O O13 0.140453 0.365080 0.560510
O O14 0.954626 0.170430 0.715252
O O15 0.500000 0.500000 0.500000
#
# Coordination Sequence:
#
# PCOD9111390 Si02
#       7
#     2   2   2   2   2   2   2
#     4  10  21  40  64  91 122 163 200 255 306 357
#     4  10  24  38  60  91 125 164 212 245 301 355
#     4  10  21  40  59  86 124 165 206 254 299 347
#     4   9  22  42  61  89 125 150 199 259 303 360
#     4  10  20  43  59  86 128 166 202 259 294 355
#     4   9  20  44  67  88 117 161 198 245 322 367
#     4  12  23  40  61  97 122 161 210 248 299 368
#
# _framework density 23.718869999999999
#
# number of rings (size 3 to 8) (size 9 to 14) (size 15 to 20)
#    0.857    1.143    2.857    0.000    0.000    6.857 
#    0.000    0.714    0.000    0.000    0.000    0.000 
#    0.000    0.000    0.000    0.000    0.000    0.000 
#
# Total GULP energy -78075.916141 kJ/mol
# GULP energy per Si atom -5576.851153 kJ/mol
# Density = 2.366488 g / cm^3
# Si number density = 23.718870 Si / 1000 Ang^3
#
#
#
# Elastic Constant Matrix: (Units=GPa)
#
#
# Indices 1 2 3 4 5 6 
#
# 1 118.5783 54.3180 29.0399 -7.6133 -4.2748 18.2142
# 2 54.3180 81.5080 28.1520 6.1738 5.9999 23.2246
# 3 29.0399 28.1520 61.5060 -2.6028 -14.3502 -3.0930
# 4 -7.6133 6.1738 -2.6028 32.5155 -2.4621 1.6956
# 5 -4.2748 5.9999 -14.3502 -2.4621 28.6773 2.5459
# 6 18.2142 23.2246 -3.0930 1.6956 2.5459 37.6909
#
#
#
# Elastic Compliance Matrix: (Units=1/GPa)
#
#
# Indices 1 2 3 4 5 6 
#
# 1 0.013465 -0.008628 -0.001423 0.005050 0.003692 -0.001784
# 2 -0.008628 0.027534 -0.012544 -0.008577 -0.012945 -0.012566
# 3 -0.001423 -0.012544 0.026965 0.004892 0.015494 0.009363
# 4 0.005050 -0.008577 0.004892 0.034491 0.007853 0.001164
# 5 0.003692 -0.012945 0.015494 0.007853 0.046203 0.003989
# 6 -0.001784 -0.012566 0.009363 0.001164 0.003989 0.035583
#
#
# Mechanical properties :
#
#
# Convention : Reuss Voigt Hill
#
# Bulk Modulus (GPa) = 43.90928 53.84579 48.87754
# Shear Modulus (GPa) = 21.09498 29.78224 25.43861
#
# Velocity S-wave (km/s) = 2.98548 3.54734 3.27847
# Velocity P-wave (km/s) = 5.51694 6.28722 5.91463
#
# Compressibility (1/GPa) = 0.02277423
#
# Stress axis : x y z
#
# Youngs Moduli (GPa) = 74.26448 36.31871 37.08510
#
# Poissons Ratio (x) = 0.31335 0.05278
# Poissons Ratio (y) = 0.64074 0.46520
# Poissons Ratio (z) = 0.10569 0.45558
#
# Static dielectric constant tensor:
#      x y z
#    x 1.951390 0.001200 -0.027950 
#    y 0.001200 1.871790 0.002220 
#    z -0.027950 0.002220 1.962840 
# 
# From -- ./inp_files/480660.got.cif
#   From: 2010.05.17/outbox.cif.g08.bks.cpg/sg2_241_cif.got.tgz:480660.got - 2010.06.03 11:33:40.
