data_PCOD9111323
_publ_section_title
;
Structure prediction by ZEFSAII (Michael W. Deem and Ramdas Pophale) SiO2 
 PCOD9111323
Probable space group: P -1
;
_chemical_formula_sum "Si O2"
_cell_formula_units_Z 16
_cell_length_a 21.534381
_cell_length_b 7.520152
_cell_length_c 5.266871
_cell_angle_alpha 117.362433
_cell_angle_beta 96.693258
_cell_angle_gamma 58.192417
_cell_volume 634.749509
_symmetry_space_group_name_H-M "P -1"
_symmetry_group_IT_number 2
_symmetry_cell_setting 'triclinic'
loop_
_space_group_symop_operation_xyz
x,y,z
-x,-y,-z
loop_
_atom_site_type_symbol
_atom_site_label
_atom_site_fract_x
_atom_site_fract_y
_atom_site_fract_z
Si Si1 0.539264 0.676711 0.855514
Si Si2 0.154815 0.975799 0.520176
Si Si3 0.768136 0.876883 0.036877
Si Si4 0.597231 0.768267 0.435874
Si Si5 0.995122 0.871826 0.665329
Si Si6 0.750769 0.325340 0.031156
Si Si7 0.390500 0.853028 0.595655
Si Si8 0.153016 0.573632 0.566480
O O1 0.457200 0.767392 0.775006
O O2 0.589584 0.391681 0.684709
O O3 0.574742 0.755156 0.702960
O O4 0.542574 0.767248 0.194989
O O5 0.168286 0.173786 0.763075
O O6 0.140427 0.816558 0.598556
O O7 0.234060 0.768788 0.308572
O O8 0.084965 0.094891 0.374321
O O9 0.766226 0.088236 0.020195
O O10 0.688281 0.990493 0.201910
O O11 0.792080 0.655625 0.722797
O O12 0.673881 0.531230 0.238837
O O13 0.606803 0.981432 0.507288
O O14 0.071600 0.615917 0.552825
O O15 0.000000 0.000000 0.500000
O O16 0.000000 0.000000 0.000000
O O17 0.806309 0.420064 0.156324
#
# Coordination Sequence:
#
# PCOD9111323 Si02
#       8
#     2   2   2   2   2   2   2   2
#     4  11  27  49  70 106 139 187 241 299 350 430
#     4  10  22  42  67  94 141 180 231 295 346 416
#     4  11  24  43  64 107 137 181 239 292 353 427
#     4  12  26  46  74 101 142 186 241 294 358 419
#     4  10  20  42  72  97 135 184 233 282 350 419
#     4  11  23  41  67  97 144 182 231 298 350 422
#     4  11  25  46  74  99 146 187 237 293 365 420
#     4  10  23  41  68  97 135 186 233 282 362 418
#
# _framework density 25.206790000000002
#
# number of rings (size 3 to 8) (size 9 to 14) (size 15 to 20)
#    0.000    1.250    2.500    2.250    3.500    6.500 
#    2.250    0.625    0.000    0.000    0.000    0.000 
#    0.000    0.000    0.000    0.000    0.000    0.000 
#
# Total GULP energy -89499.143998 kJ/mol
# GULP energy per Si atom -5593.696500 kJ/mol
# Density = 2.514942 g / cm^3
# Si number density = 25.206790 Si / 1000 Ang^3
#
#
#
# Elastic Constant Matrix: (Units=GPa)
#
#
# Indices 1 2 3 4 5 6 
#
# 1 88.3514 35.5054 22.0083 13.8544 -6.0893 -3.4749
# 2 35.5054 65.3871 17.2061 13.6019 3.5418 10.6970
# 3 22.0083 17.2061 101.2900 4.1951 -3.3734 21.4663
# 4 13.8544 13.6019 4.1951 37.8847 -3.0720 3.0187
# 5 -6.0893 3.5418 -3.3734 -3.0720 36.7044 14.4183
# 6 -3.4749 10.6970 21.4663 3.0187 14.4183 38.4116
#
#
#
# Elastic Compliance Matrix: (Units=1/GPa)
#
#
# Indices 1 2 3 4 5 6 
#
# 1 0.016148 -0.008267 -0.003104 -0.002960 0.000812 0.005426
# 2 -0.008267 0.021869 -0.000633 -0.004465 -0.001764 -0.005471
# 3 -0.003104 -0.000633 0.012629 0.001015 0.004265 -0.008843
# 4 -0.002960 -0.004465 0.001015 0.029546 0.003821 -0.003347
# 5 0.000812 -0.001764 0.004265 0.003821 0.034126 -0.014929
# 6 0.005426 -0.005471 -0.008843 -0.003347 -0.014929 0.038857
#
#
# Mechanical properties :
#
#
# Convention : Reuss Voigt Hill
#
# Bulk Modulus (GPa) = 37.54312 44.94090 41.24201
# Shear Modulus (GPa) = 26.87288 34.62071 30.74679
#
# Velocity S-wave (km/s) = 3.26866 3.71005 3.49633
# Velocity P-wave (km/s) = 5.40110 6.01833 5.71805
#
# Compressibility (1/GPa) = 0.02663604
#
# Stress axis : x y z
#
# Youngs Moduli (GPa) = 61.92896 45.72738 79.18405
#
# Poissons Ratio (x) = 0.37804 0.24582
# Poissons Ratio (y) = 0.51198 0.05011
# Poissons Ratio (z) = 0.19225 0.02894
#
# Static dielectric constant tensor:
#      x y z
#    x 2.059340 -0.084490 0.002950 
#    y -0.084490 2.072690 -0.069790 
#    z 0.002950 -0.069790 1.996800 
# 
# From -- ./inp_files/122694.got.cif
#   From: 2010.05.17/outbox.cif.g08.bks.cpg/sg2_62_cif.got.tgz:122694.got - 2010.06.03 11:33:40.
