data_PCOD9111173
_publ_section_title
;
Structure prediction by ZEFSAII (Michael W. Deem and Ramdas Pophale) SiO2 
 PCOD9111173
Probable space group: P -1
;
_chemical_formula_sum "Si O2"
_cell_formula_units_Z 15
_cell_length_a 6.289118
_cell_length_b 7.911913
_cell_length_c 16.962622
_cell_angle_alpha 69.448146
_cell_angle_beta 126.961889
_cell_angle_gamma 93.505322
_cell_volume 618.684733
_symmetry_space_group_name_H-M "P -1"
_symmetry_group_IT_number 2
_symmetry_cell_setting 'triclinic'
loop_
_space_group_symop_operation_xyz
x,y,z
-x,-y,-z
loop_
_atom_site_type_symbol
_atom_site_label
_atom_site_fract_x
_atom_site_fract_y
_atom_site_fract_z
Si Si1 0.412196 0.228686 0.666030
Si Si2 0.779760 0.823919 0.035129
Si Si3 0.361531 0.622327 0.019986
Si Si4 0.500000 0.500000 0.500000
Si Si5 0.081911 0.952361 0.435119
Si Si6 0.319954 0.526766 0.197255
Si Si7 0.687773 0.723663 0.625490
Si Si8 0.158219 0.092577 0.135808
O O1 0.408073 0.354086 0.567337
O O2 0.499320 0.346165 0.738264
O O3 0.633839 0.036798 0.739292
O O4 0.128248 0.164765 0.625762
O O5 0.539202 0.780614 0.040838
O O6 0.013643 0.641007 0.112332
O O7 0.688945 0.876869 0.916574
O O8 0.946096 0.967096 0.082935
O O9 0.398038 0.508033 0.127040
O O10 0.500000 0.500000 0.000000
O O11 0.049271 0.719418 0.919627
O O12 0.729487 0.545402 0.607982
O O13 0.107328 0.141084 0.366244
O O14 0.381657 0.825185 0.516276
O O15 0.000000 0.000000 0.500000
O O16 0.337749 0.342847 0.280952
#
# Coordination Sequence:
#
# PCOD9111173 Si02
#       8
#     2   2   2   1   2   2   2   2
#     4  10  21  44  70 103 135 186 232 285 338 411
#     4   9  19  42  66  94 131 173 224 282 335 409
#     4  11  23  43  69 102 138 178 222 285 348 404
#     4  10  20  42  70 100 138 176 234 284 334 404
#     4  11  23  45  67 100 143 181 231 285 351 396
#     4   9  22  43  69  98 137 178 234 278 342 414
#     4  10  23  45  68  99 141 182 228 291 337 417
#     4   9  20  41  68  95 134 173 228 279 336 416
#
# _framework density 24.244985
#
# number of rings (size 3 to 8) (size 9 to 14) (size 15 to 20)
#    0.000    2.133    1.333    1.200    0.000    5.333 
#   19.200    0.000    2.933    0.000    0.000    0.000 
#    0.000    0.000    0.000    0.000    0.000    0.000 
#
# Total GULP energy -83683.906648 kJ/mol
# GULP energy per Si atom -5578.927110 kJ/mol
# Density = 2.418980 g / cm^3
# Si number density = 24.244985 Si / 1000 Ang^3
#
#
#
# Elastic Constant Matrix: (Units=GPa)
#
#
# Indices 1 2 3 4 5 6 
#
# 1 105.1488 41.6222 55.0085 -2.0544 -24.5912 32.3108
# 2 41.6222 114.9628 40.8825 -3.3521 -14.6032 37.0396
# 3 55.0085 40.8825 97.7559 -3.6650 -28.4751 20.9885
# 4 -2.0544 -3.3521 -3.6650 29.4412 9.1927 -5.4834
# 5 -24.5912 -14.6032 -28.4751 9.1927 29.9079 -7.4460
# 6 32.3108 37.0396 20.9885 -5.4834 -7.4460 57.1863
#
#
#
# Elastic Compliance Matrix: (Units=1/GPa)
#
#
# Indices 1 2 3 4 5 6 
#
# 1 0.016185 -0.001298 -0.005412 -0.002940 0.007009 -0.005686
# 2 -0.001298 0.012234 -0.002864 -0.000436 0.000800 -0.006077
# 3 -0.005412 -0.002864 0.017895 -0.002219 0.011788 -0.000332
# 4 -0.002940 -0.000436 -0.002219 0.039159 -0.015665 0.004473
# 5 0.007009 0.000800 0.011788 -0.015665 0.054839 -0.003166
# 6 -0.005686 -0.006077 -0.000332 0.004473 -0.003166 0.024774
#
#
# Mechanical properties :
#
#
# Convention : Reuss Voigt Hill
#
# Bulk Modulus (GPa) = 36.81393 65.87711 51.34552
# Shear Modulus (GPa) = 25.86777 35.33069 30.59923
#
# Velocity S-wave (km/s) = 3.26994 3.82152 3.55644
# Velocity P-wave (km/s) = 5.42897 6.83392 6.17156
#
# Compressibility (1/GPa) = 0.02716363
#
# Stress axis : x y z
#
# Youngs Moduli (GPa) = 61.78690 81.74034 55.88172
#
# Poissons Ratio (x) = 0.10613 0.30244
# Poissons Ratio (y) = 0.08022 0.16007
# Poissons Ratio (z) = 0.33440 0.23414
#
# Static dielectric constant tensor:
#      x y z
#    x 1.932000 -0.074170 -0.008180 
#    y -0.074170 2.177140 0.024430 
#    z -0.008180 0.024430 1.900200 
# 
# From -- ./inp_files/547027.got.cif
#   From: 2010.05.17/outbox.cif.g08.bks.cpg/sg2_274_cif.got.tgz:547027.got - 2010.06.03 11:33:40.
