data_PCOD9111951
_publ_section_title
;
Structure prediction by ZEFSAII (Michael W. Deem and Ramdas Pophale) SiO2 
 PCOD9111951
Probable space group: P -1
;
_chemical_formula_sum "Si O2"
_cell_formula_units_Z 14
_cell_length_a 10.354940
_cell_length_b 13.771430
_cell_length_c 8.668562
_cell_angle_alpha 146.214263
_cell_angle_beta 65.822281
_cell_angle_gamma 110.874748
_cell_volume 626.803778
_symmetry_space_group_name_H-M "P -1"
_symmetry_group_IT_number 2
_symmetry_cell_setting 'triclinic'
loop_
_space_group_symop_operation_xyz
x,y,z
-x,-y,-z
loop_
_atom_site_type_symbol
_atom_site_label
_atom_site_fract_x
_atom_site_fract_y
_atom_site_fract_z
Si Si1 0.284636 0.719019 0.094397
Si Si2 0.119872 0.781355 0.523171
Si Si3 0.478046 0.813614 0.841277
Si Si4 0.048107 0.573358 0.827216
Si Si5 0.264009 0.302396 0.226077
Si Si6 0.523655 0.494080 0.798988
Si Si7 0.996973 0.119161 0.981251
O O1 0.358459 0.811871 0.033192
O O2 0.126784 0.655292 0.043581
O O3 0.381994 0.558766 0.872275
O O4 0.260597 0.812747 0.393816
O O5 0.072280 0.575660 0.281064
O O6 0.120392 0.832180 0.770967
O O7 0.003680 0.911688 0.677013
O O8 0.621942 0.755793 0.780759
O O9 0.441658 0.679420 0.542556
O O10 0.500000 0.000000 0.000000
O O11 0.171669 0.464004 0.540771
O O12 0.007307 0.739521 0.965152
O O13 0.354018 0.365057 0.117915
O O14 0.147483 0.159697 0.044467
O O15 0.500000 0.500000 0.000000
#
# Coordination Sequence:
#
# PCOD9111951 Si02
#       7
#     2   2   2   2   2   2   2
#     4  11  23  42  66  92 134 170 222 271 329 402
#     4  10  23  41  61 101 132 174 220 271 323 395
#     4  11  24  45  68  98 129 176 221 279 342 389
#     4  11  21  42  68  90 137 178 214 266 331 395
#     4  10  20  44  64  91 132 167 217 266 331 396
#     4  11  24  41  69  94 124 173 223 273 336 392
#     4  10  24  40  66  97 136 174 219 271 331 391
#
# _framework density 22.335540000000002
#
# number of rings (size 3 to 8) (size 9 to 14) (size 15 to 20)
#    0.000    1.429    2.857    3.000    4.000    6.286 
#    0.000    2.857    0.000    0.000    0.000    0.000 
#    0.000    0.000    0.000    0.000    0.000    0.000 
#
# Total GULP energy -78098.051264 kJ/mol
# GULP energy per Si atom -5578.432233 kJ/mol
# Density = 2.228470 g / cm^3
# Si number density = 22.335540 Si / 1000 Ang^3
#
#
#
# Elastic Constant Matrix: (Units=GPa)
#
#
# Indices 1 2 3 4 5 6 
#
# 1 41.8547 15.1784 -1.8158 -1.0137 2.7085 -0.2522
# 2 15.1784 183.4665 59.3126 -5.9209 -3.4925 -11.8093
# 3 -1.8158 59.3126 76.3161 -10.8303 -9.8432 6.9129
# 4 -1.0137 -5.9209 -10.8303 48.7734 -0.7345 -9.1800
# 5 2.7085 -3.4925 -9.8432 -0.7345 22.2404 0.5204
# 6 -0.2522 -11.8093 6.9129 -9.1800 0.5204 16.8073
#
#
#
# Elastic Compliance Matrix: (Units=1/GPa)
#
#
# Indices 1 2 3 4 5 6 
#
# 1 0.025391 -0.003406 0.003302 0.000216 -0.002084 -0.003188
# 2 -0.003406 0.009019 -0.008116 0.001131 -0.001965 0.010303
# 3 0.003302 -0.008116 0.022074 0.001438 0.008473 -0.014209
# 4 0.000216 0.001131 0.001438 0.023423 0.001258 0.012961
# 5 -0.002084 -0.001965 0.008473 0.001258 0.048834 -0.005722
# 6 -0.003188 0.010303 -0.014209 0.012961 -0.005722 0.079789
#
#
# Mechanical properties :
#
#
# Convention : Reuss Voigt Hill
#
# Bulk Modulus (GPa) = 24.97313 49.66530 37.31921
# Shear Modulus (GPa) = 20.98036 32.82836 26.90436
#
# Velocity S-wave (km/s) = 3.06817 3.83793 3.47443
# Velocity P-wave (km/s) = 4.87409 6.47487 5.73065
#
# Compressibility (1/GPa) = 0.04004304
#
# Stress axis : x y z
#
# Youngs Moduli (GPa) = 39.38329 110.88284 45.30235
#
# Poissons Ratio (x) = 0.37767 -0.14958
# Poissons Ratio (y) = 0.13414 0.36769
# Poissons Ratio (z) = -0.13004 0.89996
#
# Static dielectric constant tensor:
#      x y z
#    x 1.869300 0.021200 0.019920 
#    y 0.021200 1.847780 -0.010110 
#    z 0.019920 -0.010110 1.937870 
# 
# From -- ./inp_files/260823.got.cif
#   From: 2010.05.17/outbox.cif.g08.bks.cpg/sg2_131_cif.got.tgz:260823.got - 2010.06.03 11:33:40.
