data_PCOD9111911
_publ_section_title
;
Structure prediction by ZEFSAII (Michael W. Deem and Ramdas Pophale) SiO2 
 PCOD9111911
Probable space group: P -1
;
_chemical_formula_sum "Si O2"
_cell_formula_units_Z 16
_cell_length_a 18.742287
_cell_length_b 7.043773
_cell_length_c 7.853906
_cell_angle_alpha 83.527785
_cell_angle_beta 48.744795
_cell_angle_gamma 104.756667
_cell_volume 695.321235
_symmetry_space_group_name_H-M "P -1"
_symmetry_group_IT_number 2
_symmetry_cell_setting 'triclinic'
loop_
_space_group_symop_operation_xyz
x,y,z
-x,-y,-z
loop_
_atom_site_type_symbol
_atom_site_label
_atom_site_fract_x
_atom_site_fract_y
_atom_site_fract_z
Si Si1 0.728707 0.821496 0.993301
Si Si2 0.415438 0.503703 0.000449
Si Si3 0.557740 0.868281 0.502572
Si Si4 0.060989 0.868986 0.488353
Si Si5 0.161276 0.493311 0.129805
Si Si6 0.227652 0.565094 0.408161
Si Si7 0.243033 0.845258 0.670450
Si Si8 0.117185 0.080000 0.740932
O O1 0.830687 0.049799 0.796113
O O2 0.782511 0.276364 0.456593
O O3 0.669023 0.724185 0.917292
O O4 0.639292 0.834794 0.250855
O O5 0.473840 0.645214 0.731306
O O6 0.500000 0.500000 0.000000
O O7 0.220592 0.340444 0.020329
O O8 0.348388 0.609685 0.185921
O O9 0.500000 0.000000 0.500000
O O10 0.632430 0.009364 0.522324
O O11 0.966147 0.634015 0.674481
O O12 0.102508 0.965406 0.595995
O O13 0.000000 0.000000 0.500000
O O14 0.184025 0.556937 0.286699
O O15 0.206335 0.675623 0.898881
O O16 0.169494 0.330814 0.604829
O O17 0.185643 0.998704 0.755736
O O18 0.000000 0.000000 0.000000
#
# Coordination Sequence:
#
# PCOD9111911 Si02
#       8
#     2   2   2   2   2   2   2   2
#     4  10  23  45  78 104 144 194 257 301 376 458
#     4  11  24  45  73 102 139 200 246 311 381 428
#     4  12  28  46  71 110 147 197 256 314 376 439
#     4  10  20  43  77 107 140 199 247 293 379 454
#     4  10  23  49  77 110 152 201 246 307 386 448
#     4  11  25  51  73 105 158 194 256 308 373 458
#     4  12  30  47  75 117 153 195 256 317 368 455
#     4  12  26  47  75 110 151 200 250 305 383 450
#
# _framework density 23.010947000000002
#
# number of rings (size 3 to 8) (size 9 to 14) (size 15 to 20)
#    0.000    1.000    3.750    3.375    8.750    4.500 
#    0.000    1.875    0.000    0.000    0.000    0.000 
#    0.000    0.000    0.000    0.000    0.000    0.000 
#
# Total GULP energy -89545.666701 kJ/mol
# GULP energy per Si atom -5596.604169 kJ/mol
# Density = 2.295857 g / cm^3
# Si number density = 23.010947 Si / 1000 Ang^3
#
#
#
# Elastic Constant Matrix: (Units=GPa)
#
#
# Indices 1 2 3 4 5 6 
#
# 1 101.3785 43.2133 28.4340 -6.8965 -20.8175 -14.3415
# 2 43.2133 103.7702 35.5109 17.2427 -0.4824 -7.1118
# 3 28.4340 35.5109 134.6133 14.8761 -23.1131 -13.1742
# 4 -6.8965 17.2427 14.8761 32.6180 4.7969 0.9122
# 5 -20.8175 -0.4824 -23.1131 4.7969 39.4864 0.7936
# 6 -14.3415 -7.1118 -13.1742 0.9122 0.7936 42.2259
#
#
#
# Elastic Compliance Matrix: (Units=1/GPa)
#
#
# Indices 1 2 3 4 5 6 
#
# 1 0.015283 -0.006900 -0.000545 0.006019 0.006851 0.003600
# 2 -0.006900 0.014479 -0.002226 -0.007522 -0.003843 -0.000365
# 3 -0.000545 -0.002226 0.009884 -0.004392 0.005954 0.002507
# 4 0.006019 -0.007522 -0.004392 0.038557 -0.004146 -0.001348
# 5 0.006851 -0.003843 0.005954 -0.004146 0.032819 0.003010
# 6 0.003600 -0.000365 0.002507 -0.001348 0.003010 0.025598
#
#
# Mechanical properties :
#
#
# Convention : Reuss Voigt Hill
#
# Bulk Modulus (GPa) = 49.24920 61.56427 55.40674
# Shear Modulus (GPa) = 30.72576 38.37297 34.54937
#
# Velocity S-wave (km/s) = 3.65809 4.08805 3.87903
# Velocity P-wave (km/s) = 6.26827 7.00680 6.64780
#
# Compressibility (1/GPa) = 0.02030490
#
# Stress axis : x y z
#
# Youngs Moduli (GPa) = 65.43076 69.06649 101.17268
#
# Poissons Ratio (x) = 0.47653 0.05511
# Poissons Ratio (y) = 0.45145 0.22525
# Poissons Ratio (z) = 0.03564 0.15377
#
# Static dielectric constant tensor:
#      x y z
#    x 1.976900 -0.048860 -0.226730 
#    y -0.048860 1.921110 0.099570 
#    z -0.226730 0.099570 2.054300 
# 
# From -- ./inp_files/327308.got.cif
#   From: 2010.05.17/outbox.cif.g08.bks.cpg/sg2_164_cif.got.tgz:327308.got - 2010.06.03 11:33:40.
