data_PCOD9111522
_publ_section_title
;
Structure prediction by ZEFSAII (Michael W. Deem and Ramdas Pophale) SiO2 
 PCOD9111522
Probable space group: P -1
;
_chemical_formula_sum "Si O2"
_cell_formula_units_Z 16
_cell_length_a 15.237851
_cell_length_b 8.621013
_cell_length_c 5.466854
_cell_angle_alpha 105.561387
_cell_angle_beta 69.142115
_cell_angle_gamma 88.565165
_cell_volume 640.670193
_symmetry_space_group_name_H-M "P -1"
_symmetry_group_IT_number 2
_symmetry_cell_setting 'triclinic'
loop_
_space_group_symop_operation_xyz
x,y,z
-x,-y,-z
loop_
_atom_site_type_symbol
_atom_site_label
_atom_site_fract_x
_atom_site_fract_y
_atom_site_fract_z
Si Si1 0.184482 0.324728 0.543637
Si Si2 0.364857 0.131368 0.084484
Si Si3 0.893469 0.962962 0.578445
Si Si4 0.155091 0.862260 0.794559
Si Si5 0.568252 0.575084 0.151678
Si Si6 0.238115 0.595084 0.922676
Si Si7 0.478438 0.859677 0.652517
Si Si8 0.912377 0.396642 0.534080
O O1 0.265364 0.183882 0.326972
O O2 0.212611 0.418763 0.790419
O O3 0.170541 0.465749 0.419798
O O4 0.095407 0.228960 0.581417
O O5 0.444723 0.139502 0.211486
O O6 0.382397 0.275280 0.944102
O O7 0.378992 0.948666 0.890843
O O8 0.836542 0.045850 0.432360
O O9 0.859333 0.013179 0.910826
O O10 0.000000 0.000000 0.500000
O O11 0.236075 0.721255 0.751840
O O12 0.074609 0.747903 0.741747
O O13 0.656488 0.442980 0.088092
O O14 0.496640 0.677185 0.458688
O O15 0.500000 0.500000 0.000000
O O16 0.143600 0.663622 0.202332
O O17 0.500000 0.000000 0.500000
O O18 0.000000 0.500000 0.500000
#
# Coordination Sequence:
#
# PCOD9111522 Si02
#       8
#     2   2   2   2   2   2   2   2
#     4  11  25  41  76 101 141 197 246 303 363 449
#     4  10  20  43  65  97 133 181 237 288 364 440
#     4  12  27  48  74 111 150 194 248 312 375 434
#     4  11  26  49  68 107 154 189 245 310 372 442
#     4  11  23  43  70 103 138 185 241 309 371 432
#     4  11  24  47  72 103 148 196 255 298 371 457
#     4   9  20  41  65  92 134 173 229 292 354 441
#     4  11  24  45  76 106 147 199 247 302 365 445
#
# _framework density 24.973845000000001
#
# number of rings (size 3 to 8) (size 9 to 14) (size 15 to 20)
#    0.000    1.250    3.750    1.125    3.500    1.500 
#    9.000    0.000    0.000    0.000    0.000    0.000 
#    0.000    0.000    0.000    0.000    0.000    0.000 
#
# Total GULP energy -89184.412160 kJ/mol
# GULP energy per Si atom -5574.025760 kJ/mol
# Density = 2.491700 g / cm^3
# Si number density = 24.973845 Si / 1000 Ang^3
#
#
#
# Elastic Constant Matrix: (Units=GPa)
#
#
# Indices 1 2 3 4 5 6 
#
# 1 83.4037 22.5944 44.1128 8.6545 7.8705 -4.7282
# 2 22.5944 106.7129 32.4024 1.3620 17.3038 -11.5540
# 3 44.1128 32.4024 139.0772 24.4928 13.2677 -2.7110
# 4 8.6545 1.3620 24.4928 46.4912 2.3778 13.5917
# 5 7.8705 17.3038 13.2677 2.3778 39.0219 7.9458
# 6 -4.7282 -11.5540 -2.7110 13.5917 7.9458 49.0515
#
#
#
# Elastic Compliance Matrix: (Units=1/GPa)
#
#
# Indices 1 2 3 4 5 6 
#
# 1 0.014828 -0.001582 -0.004046 -0.000894 -0.001116 0.001262
# 2 -0.001582 0.011323 -0.001644 0.000150 -0.004795 0.003159
# 3 -0.004046 -0.001644 0.009886 -0.004714 -0.001808 0.001368
# 4 -0.000894 0.000150 -0.004714 0.026376 0.001718 -0.007898
# 5 -0.001116 -0.004795 -0.001808 0.001718 0.029842 -0.006647
# 6 0.001262 0.003159 0.001368 -0.007898 -0.006647 0.024593
#
#
# Mechanical properties :
#
#
# Convention : Reuss Voigt Hill
#
# Bulk Modulus (GPa) = 46.52668 58.60144 52.56406
# Shear Modulus (GPa) = 36.08656 42.25187 39.16922
#
# Velocity S-wave (km/s) = 3.80541 4.11767 3.96461
# Velocity P-wave (km/s) = 6.16269 6.79139 6.48466
#
# Compressibility (1/GPa) = 0.02149305
#
# Stress axis : x y z
#
# Youngs Moduli (GPa) = 67.43965 88.31859 101.15399
#
# Poissons Ratio (x) = 0.13973 0.40928
# Poissons Ratio (y) = 0.10669 0.16626
# Poissons Ratio (z) = 0.27287 0.14516
#
# Static dielectric constant tensor:
#      x y z
#    x 1.936630 -0.205440 -0.023280 
#    y -0.205440 1.417200 0.023510 
#    z -0.023280 0.023510 2.074620 
# 
# From -- ./inp_files/90926.got.cif
#   From: 2010.05.17/outbox.cif.g08.bks.cpg/sg2_46_cif.got.tgz:90926.got - 2010.06.03 11:33:40.
