data_PCOD9111837
_publ_section_title
;
Structure prediction by ZEFSAII (Michael W. Deem and Ramdas Pophale) SiO2 
 PCOD9111837
Probable space group: P -1
;
_chemical_formula_sum "Si O2"
_cell_formula_units_Z 16
_cell_length_a 19.184649
_cell_length_b 8.099494
_cell_length_c 12.527197
_cell_angle_alpha 130.840955
_cell_angle_beta 25.631556
_cell_angle_gamma 122.159144
_cell_volume 627.176467
_symmetry_space_group_name_H-M "P -1"
_symmetry_group_IT_number 2
_symmetry_cell_setting 'triclinic'
loop_
_space_group_symop_operation_xyz
x,y,z
-x,-y,-z
loop_
_atom_site_type_symbol
_atom_site_label
_atom_site_fract_x
_atom_site_fract_y
_atom_site_fract_z
Si Si1 0.725176 0.869782 0.401640
Si Si2 0.143002 0.476987 0.534345
Si Si3 0.132586 0.782903 0.241398
Si Si4 0.058405 0.719903 0.963041
Si Si5 0.268350 0.566578 0.171220
Si Si6 0.469624 0.176064 0.020085
Si Si7 0.367581 0.196235 0.721993
Si Si8 0.331623 0.634471 0.710641
O O1 0.738756 0.875083 0.257281
O O2 0.689601 0.622648 0.373316
O O3 0.577399 0.055563 0.723626
O O4 0.891555 0.889081 0.242560
O O5 0.137637 0.650168 0.709983
O O6 0.182206 0.562523 0.401121
O O7 0.966237 0.407543 0.741451
O O8 0.283659 0.267741 0.283170
O O9 0.186009 0.745085 0.273678
O O10 0.284918 0.754898 0.939053
O O11 0.000000 0.000000 0.500000
O O12 0.196181 0.768394 0.873834
O O13 0.000000 0.500000 0.000000
O O14 0.448920 0.615533 0.967539
O O15 0.272940 0.334098 0.006417
O O16 0.500000 0.000000 0.000000
O O17 0.486412 0.350244 0.569584
O O18 0.500000 0.000000 0.500000
#
# Coordination Sequence:
#
# PCOD9111837 Si02
#       8
#     2   2   2   2   2   2   2   2
#     4  11  23  44  72 102 135 185 239 288 347 421
#     4  12  24  47  71 102 148 186 229 301 360 421
#     4  12  27  43  73 104 140 191 246 290 358 434
#     4  10  20  43  71  97 133 181 232 283 347 416
#     4  12  27  48  70 108 148 186 232 305 366 418
#     4  12  26  42  74 106 143 188 245 288 354 427
#     4  12  26  45  70 103 144 188 236 291 360 423
#     4  11  24  45  73 100 138 186 243 295 344 424
#
# _framework density 25.511158999999999
#
# number of rings (size 3 to 8) (size 9 to 14) (size 15 to 20)
#    0.000    0.500    3.750    5.625    7.000    1.000 
#    0.000    1.250    0.000    0.000    0.000    0.000 
#    0.000    0.000    0.000    0.000    0.000    0.000 
#
# Total GULP energy -89736.747141 kJ/mol
# GULP energy per Si atom -5608.546696 kJ/mol
# Density = 2.545309 g / cm^3
# Si number density = 25.511159 Si / 1000 Ang^3
#
#
#
# Elastic Constant Matrix: (Units=GPa)
#
#
# Indices 1 2 3 4 5 6 
#
# 1 157.3882 20.3534 37.6904 -1.7841 2.1907 -13.2928
# 2 20.3534 34.0016 2.5738 10.7440 11.0336 2.5014
# 3 37.6904 2.5738 98.5503 11.0864 11.4245 -6.9354
# 4 -1.7841 10.7440 11.0864 33.8955 -3.7608 -7.5098
# 5 2.1907 11.0336 11.4245 -3.7608 59.3791 -10.2536
# 6 -13.2928 2.5014 -6.9354 -7.5098 -10.2536 33.0153
#
#
#
# Elastic Compliance Matrix: (Units=1/GPa)
#
#
# Indices 1 2 3 4 5 6 
#
# 1 0.008886 -0.008477 -0.003842 0.006082 0.003381 0.005846
# 2 -0.008477 0.046258 0.004929 -0.021471 -0.013156 -0.014852
# 3 -0.003842 0.004929 0.012565 -0.006771 -0.003976 -0.002055
# 4 0.006082 -0.021471 -0.006771 0.043522 0.010558 0.015832
# 5 0.003381 -0.013156 -0.003976 0.010558 0.022478 0.010906
# 6 0.005846 -0.014852 -0.002055 0.015832 0.010906 0.040325
#
#
# Mechanical properties :
#
#
# Convention : Reuss Voigt Hill
#
# Bulk Modulus (GPa) = 18.89284 45.68616 32.28950
# Shear Modulus (GPa) = 24.21825 40.54614 32.38219
#
# Velocity S-wave (km/s) = 3.08445 3.99099 3.56664
# Velocity P-wave (km/s) = 4.48407 6.25975 5.44479
#
# Compressibility (1/GPa) = 0.05293012
#
# Stress axis : x y z
#
# Youngs Moduli (GPa) = 112.54167 21.61785 79.58299
#
# Poissons Ratio (x) = 0.18326 0.30572
# Poissons Ratio (y) = 0.95404 -0.39229
# Poissons Ratio (z) = 0.43234 -0.10656
#
# Static dielectric constant tensor:
#      x y z
#    x 2.009510 0.099010 0.003840 
#    y 0.099010 3.163950 -0.098870 
#    z 0.003840 -0.098870 1.945340 
# 
# From -- ./inp_files/223450.got.cif
#   From: 2010.05.17/outbox.cif.g08.bks.cpg/sg2_112_cif.got.tgz:223450.got - 2010.06.03 11:33:40.
