data_PCOD9111427
_publ_section_title
;
Structure prediction by ZEFSAII (Michael W. Deem and Ramdas Pophale) SiO2 
 PCOD9111427
Probable space group: P -1
;
_chemical_formula_sum "Si O2"
_cell_formula_units_Z 14
_cell_length_a 11.031157
_cell_length_b 8.120527
_cell_length_c 9.391546
_cell_angle_alpha 49.968751
_cell_angle_beta 88.891287
_cell_angle_gamma 96.644461
_cell_volume 634.956768
_symmetry_space_group_name_H-M "P -1"
_symmetry_group_IT_number 2
_symmetry_cell_setting 'triclinic'
loop_
_space_group_symop_operation_xyz
x,y,z
-x,-y,-z
loop_
_atom_site_type_symbol
_atom_site_label
_atom_site_fract_x
_atom_site_fract_y
_atom_site_fract_z
Si Si1 0.241735 0.214193 0.023848
Si Si2 0.244668 0.623906 0.620578
Si Si3 0.591786 0.363558 0.648863
Si Si4 0.256206 0.797567 0.060404
Si Si5 0.636390 0.870008 0.645499
Si Si6 0.013266 0.408004 0.892873
Si Si7 0.587543 0.990186 0.295898
O O1 0.288825 0.224421 0.179371
O O2 0.265941 0.002005 0.055562
O O3 0.296755 0.438104 0.815038
O O4 0.095535 0.217283 0.016934
O O5 0.284664 0.593449 0.474788
O O6 0.101916 0.576406 0.695188
O O7 0.301920 0.873398 0.508532
O O8 0.500000 0.500000 0.500000
O O9 0.643744 0.350695 0.812407
O O10 0.508136 0.127346 0.752530
O O11 0.118611 0.670420 0.127913
O O12 0.293896 0.888729 0.852858
O O13 0.624278 0.818704 0.506546
O O14 0.496858 0.857373 0.709906
O O15 0.000000 0.500000 0.000000
#
# Coordination Sequence:
#
# PCOD9111427 Si02
#       7
#     2   2   2   2   2   2   2
#     4  10  22  41  70  91 128 169 213 266 324 371
#     4   9  21  40  65  89 135 155 223 256 316 378
#     4  11  23  39  62  99 128 168 216 260 322 385
#     4  12  22  41  67  93 133 171 210 274 317 376
#     4  10  20  43  62  97 126 175 206 270 317 388
#     4  10  24  42  64  95 129 168 221 263 321 386
#     4  10  22  37  64  90 136 162 218 257 324 379
#
# _framework density 22.048743000000002
#
# number of rings (size 3 to 8) (size 9 to 14) (size 15 to 20)
#    0.857    0.857    2.857    2.571    2.000    1.714 
#    0.000    5.000    0.000    0.000    0.000    0.000 
#    0.000    0.000    0.000    0.000    0.000    0.000 
#
# Total GULP energy -77983.745479 kJ/mol
# GULP energy per Si atom -5570.267534 kJ/mol
# Density = 2.199856 g / cm^3
# Si number density = 22.048743 Si / 1000 Ang^3
#
#
#
# Elastic Constant Matrix: (Units=GPa)
#
#
# Indices 1 2 3 4 5 6 
#
# 1 65.7689 6.0497 13.1740 -0.2116 -12.8218 6.5793
# 2 6.0497 35.9522 13.3971 1.1012 1.7738 8.1054
# 3 13.1740 13.3971 84.5436 3.4040 4.5871 7.0883
# 4 -0.2116 1.1012 3.4040 29.7582 1.1500 3.6904
# 5 -12.8218 1.7738 4.5871 1.1500 53.7258 2.9105
# 6 6.5793 8.1054 7.0883 3.6904 2.9105 28.9323
#
#
#
# Elastic Compliance Matrix: (Units=1/GPa)
#
#
# Indices 1 2 3 4 5 6 
#
# 1 0.017040 -0.001440 -0.002412 0.000701 0.004491 -0.003422
# 2 -0.001440 0.031272 -0.004086 0.000242 -0.000632 -0.007400
# 3 -0.002412 -0.004086 0.013080 -0.001155 -0.001467 -0.001216
# 4 0.000701 0.000242 -0.001155 0.034274 -0.000243 -0.004292
# 5 0.004491 -0.000632 -0.001467 -0.000243 0.019969 -0.002463
# 6 -0.003422 -0.007400 -0.001216 -0.004292 -0.002463 0.038508
#
#
# Mechanical properties :
#
#
# Convention : Reuss Voigt Hill
#
# Bulk Modulus (GPa) = 21.97080 27.94516 24.95798
# Shear Modulus (GPa) = 26.99917 32.72621 29.86269
#
# Velocity S-wave (km/s) = 3.50311 3.85680 3.68420
# Velocity P-wave (km/s) = 5.13310 5.70394 5.42603
#
# Compressibility (1/GPa) = 0.04551495
#
# Stress axis : x y z
#
# Youngs Moduli (GPa) = 58.68407 31.97789 76.45475
#
# Poissons Ratio (x) = 0.04605 0.18442
# Poissons Ratio (y) = 0.08451 0.31240
# Poissons Ratio (z) = 0.14155 0.13066
#
# Static dielectric constant tensor:
#      x y z
#    x 1.797330 -0.046280 0.027350 
#    y -0.046280 1.956490 0.012010 
#    z 0.027350 0.012010 1.822110 
# 
# From -- ./inp_files/236715.got.cif
#   From: 2010.05.17/outbox.cif.g08.bks.cpg/sg2_119_cif.got.tgz:236715.got - 2010.06.03 11:33:40.
