data_PCOD9111817
_publ_section_title
;
Structure prediction by ZEFSAII (Michael W. Deem and Ramdas Pophale) SiO2 
 PCOD9111817
Probable space group: P -1
;
_chemical_formula_sum "Si O2"
_cell_formula_units_Z 12
_cell_length_a 14.421740
_cell_length_b 7.249086
_cell_length_c 13.192670
_cell_angle_alpha 134.432589
_cell_angle_beta 151.891753
_cell_angle_gamma 57.071146
_cell_volume 452.674203
_symmetry_space_group_name_H-M "P -1"
_symmetry_group_IT_number 2
_symmetry_cell_setting 'triclinic'
loop_
_space_group_symop_operation_xyz
x,y,z
-x,-y,-z
loop_
_atom_site_type_symbol
_atom_site_label
_atom_site_fract_x
_atom_site_fract_y
_atom_site_fract_z
Si Si1 0.442636 0.312396 0.029402
Si Si2 0.511979 0.766662 0.501748
Si Si3 0.012003 0.258942 0.343419
Si Si4 0.452027 0.140285 0.754843
Si Si5 0.831624 0.513355 0.620068
Si Si6 0.167909 0.252742 0.917260
O O1 0.333290 0.511187 0.210267
O O2 0.414071 0.595432 0.066531
O O3 0.641503 0.368800 0.312644
O O4 0.248003 0.187683 0.859112
O O5 0.726195 0.690355 0.660016
O O6 0.500000 0.000000 0.500000
O O7 0.475140 0.882180 0.619200
O O8 0.000000 0.500000 0.500000
O O9 0.229459 0.189794 0.541974
O O10 0.012510 0.328391 0.251935
O O11 0.856901 0.998540 0.130821
O O12 0.481450 0.151632 0.907032
O O13 0.953683 0.332918 0.728297
#
# Coordination Sequence:
#
# PCOD9111817 Si02
#       6
#     2   2   2   2   2   2
#     4   9  20  42  69 101 148 188 237 304 354 426
#     4  11  21  48  74 103 152 194 241 297 364 439
#     4  11  24  44  72 110 147 187 245 305 366 427
#     4  10  20  43  71 102 148 190 238 299 360 431
#     4  10  23  46  73 110 143 193 240 300 366 429
#     4  11  24  45  77 109 143 190 247 300 361 442
#
# _framework density 26.509129999999999
#
# number of rings (size 3 to 8) (size 9 to 14) (size 15 to 20)
#    0.000    1.667    5.000    1.000    0.000    4.000 
#    0.000   34.167    0.000    0.000    0.000    0.000 
#    0.000    0.167    0.000    0.000    0.000    0.000 
#
# Total GULP energy -67387.790164 kJ/mol
# GULP energy per Si atom -5615.649180 kJ/mol
# Density = 2.644879 g / cm^3
# Si number density = 26.509130 Si / 1000 Ang^3
#
#
#
# Elastic Constant Matrix: (Units=GPa)
#
#
# Indices 1 2 3 4 5 6 
#
# 1 153.2403 88.3134 33.7084 8.7282 7.4986 -38.2061
# 2 88.3134 171.3536 41.5032 0.1025 -9.1899 0.3251
# 3 33.7084 41.5032 82.8410 -1.3366 5.6266 -24.7543
# 4 8.7282 0.1025 -1.3366 40.4820 -12.5567 2.8316
# 5 7.4986 -9.1899 5.6266 -12.5567 37.9783 7.8793
# 6 -38.2061 0.3251 -24.7543 2.8316 7.8793 77.6024
#
#
#
# Elastic Compliance Matrix: (Units=1/GPa)
#
#
# Indices 1 2 3 4 5 6 
#
# 1 0.013479 -0.007723 0.001295 -0.006021 -0.008405 0.008155
# 2 -0.007723 0.011444 -0.004956 0.004333 0.007785 -0.006380
# 3 0.001295 -0.004956 0.016352 -0.002015 -0.005902 0.006547
# 4 -0.006021 0.004333 -0.002015 0.030684 0.013960 -0.006163
# 5 -0.008405 0.007785 -0.005902 0.013960 0.037516 -0.010372
# 6 0.008155 -0.006380 0.006547 -0.006163 -0.010372 0.020294
#
#
# Mechanical properties :
#
#
# Convention : Reuss Voigt Hill
#
# Bulk Modulus (GPa) = 54.03403 81.60943 67.82173
# Shear Modulus (GPa) = 31.50481 47.47320 39.48901
#
# Velocity S-wave (km/s) = 3.45113 4.23640 3.86377
# Velocity P-wave (km/s) = 6.02560 7.40147 6.74869
#
# Compressibility (1/GPa) = 0.01850686
#
# Stress axis : x y z
#
# Youngs Moduli (GPa) = 74.18833 87.38416 61.15466
#
# Poissons Ratio (x) = 0.67490 -0.07920
# Poissons Ratio (y) = 0.57298 0.30307
# Poissons Ratio (z) = -0.09608 0.43306
#
# Static dielectric constant tensor:
#      x y z
#    x 2.082380 0.037010 0.021350 
#    y 0.037010 2.095290 0.012060 
#    z 0.021350 0.012060 2.058090 
# 
# From -- ./inp_files/189671.got.cif
#   From: 2010.05.17/outbox.cif.g08.bks.cpg/sg2_95_cif.got.tgz:189671.got - 2010.06.03 11:33:40.
