data_PCOD9111756
_publ_section_title
;
Structure prediction by ZEFSAII (Michael W. Deem and Ramdas Pophale) SiO2 
 PCOD9111756
Probable space group: P -1
;
_chemical_formula_sum "Si O2"
_cell_formula_units_Z 16
_cell_length_a 6.416686
_cell_length_b 14.951601
_cell_length_c 9.719561
_cell_angle_alpha 125.855350
_cell_angle_beta 79.476187
_cell_angle_gamma 72.625792
_cell_volume 639.616058
_symmetry_space_group_name_H-M "P -1"
_symmetry_group_IT_number 2
_symmetry_cell_setting 'triclinic'
loop_
_space_group_symop_operation_xyz
x,y,z
-x,-y,-z
loop_
_atom_site_type_symbol
_atom_site_label
_atom_site_fract_x
_atom_site_fract_y
_atom_site_fract_z
Si Si1 0.204516 0.956577 0.551566
Si Si2 0.245788 0.856553 0.733864
Si Si3 0.360947 0.827664 0.988208
Si Si4 0.381823 0.567663 0.430712
Si Si5 0.248455 0.189248 0.680548
Si Si6 0.695469 0.908702 0.712451
Si Si7 0.897260 0.706203 0.729728
Si Si8 0.830094 0.341360 0.051512
O O1 0.103789 0.926554 0.674793
O O2 0.474765 0.836110 0.374912
O O3 0.740571 0.238052 0.958152
O O4 0.000000 0.000000 0.500000
O O5 0.182996 0.874763 0.918942
O O6 0.358843 0.705746 0.556351
O O7 0.453072 0.896989 0.742028
O O8 0.423803 0.523587 0.787715
O O9 0.633236 0.721523 0.804189
O O10 0.389834 0.942519 0.145238
O O11 0.500000 0.500000 0.500000
O O12 0.099348 0.598591 0.505297
O O13 0.190146 0.166844 0.511561
O O14 0.028234 0.316162 0.888142
O O15 0.257575 0.073185 0.663375
O O16 0.838603 0.835499 0.768973
O O17 0.028238 0.684888 0.842203
#
# Coordination Sequence:
#
# PCOD9111756 Si02
#       8
#     2   2   2   2   2   2   2   2
#     4  10  24  41  70  94 138 181 215 276 349 410
#     4  10  20  43  69  98 135 176 224 282 337 396
#     4  11  23  40  68 101 137 174 223 276 351 403
#     4  10  21  44  64  97 132 181 231 288 327 386
#     4  10  25  43  63  99 141 173 223 273 338 414
#     4  10  24  42  64 104 136 176 221 277 346 418
#     4  10  22  39  69  93 133 171 229 281 333 395
#     4  11  25  42  66  95 134 184 227 283 326 400
#
# _framework density 25.015007000000001
#
# number of rings (size 3 to 8) (size 9 to 14) (size 15 to 20)
#    0.000    1.750    2.500    1.500   10.500    1.000 
#    2.250    3.125    0.000    0.000    0.000    0.000 
#    0.000    0.125    0.000    0.000    0.000    0.000 
#
# Total GULP energy -89441.861419 kJ/mol
# GULP energy per Si atom -5590.116339 kJ/mol
# Density = 2.495807 g / cm^3
# Si number density = 25.015007 Si / 1000 Ang^3
#
#
#
# Elastic Constant Matrix: (Units=GPa)
#
#
# Indices 1 2 3 4 5 6 
#
# 1 121.0104 10.6473 53.7071 4.2316 -28.7181 -25.0838
# 2 10.6473 65.3294 27.0529 -5.4411 11.9206 -0.9384
# 3 53.7071 27.0529 153.4809 -4.0313 -29.1118 -16.1486
# 4 4.2316 -5.4411 -4.0313 34.3387 -5.1319 -0.4388
# 5 -28.7181 11.9206 -29.1118 -5.1319 57.9710 -1.9706
# 6 -25.0838 -0.9384 -16.1486 -0.4388 -1.9706 37.4798
#
#
#
# Elastic Compliance Matrix: (Units=1/GPa)
#
#
# Indices 1 2 3 4 5 6 
#
# 1 0.012341 -0.002165 -0.002096 -0.001167 0.005661 0.007586
# 2 -0.002165 0.018746 -0.004153 0.001668 -0.006971 -0.003116
# 3 -0.002096 -0.004153 0.009184 0.001407 0.004645 0.002711
# 4 -0.001167 0.001668 0.001407 0.030067 0.002459 0.000348
# 5 0.005661 -0.006971 0.004645 0.002459 0.024273 0.006920
# 6 0.007586 -0.003116 0.002711 0.000348 0.006920 0.033216
#
#
# Mechanical properties :
#
#
# Convention : Reuss Voigt Hill
#
# Bulk Modulus (GPa) = 42.65427 58.07059 50.36243
# Shear Modulus (GPa) = 32.79371 42.51880 37.65626
#
# Velocity S-wave (km/s) = 3.62465 4.12725 3.88409
# Velocity P-wave (km/s) = 5.88268 6.78063 6.34756
#
# Compressibility (1/GPa) = 0.02344431
#
# Stress axis : x y z
#
# Youngs Moduli (GPa) = 81.03009 53.34562 108.88541
#
# Poissons Ratio (x) = 0.11548 0.22818
# Poissons Ratio (y) = 0.17541 0.45219
# Poissons Ratio (z) = 0.16981 0.22154
#
# Static dielectric constant tensor:
#      x y z
#    x 2.149260 -0.073170 -0.031920 
#    y -0.073170 2.018070 0.012370 
#    z -0.031920 0.012370 2.040950 
# 
# From -- ./inp_files/213585.got.cif
#   From: 2010.05.17/outbox.cif.g08.bks.cpg/sg2_107_cif.got.tgz:213585.got - 2010.06.03 11:33:40.
