data_PCOD9111475
_publ_section_title
;
Structure prediction by ZEFSAII (Michael W. Deem and Ramdas Pophale) SiO2 
 PCOD9111475
Probable space group: P -1
;
_chemical_formula_sum "Si O2"
_cell_formula_units_Z 10
_cell_length_a 7.556721
_cell_length_b 9.954298
_cell_length_c 13.138569
_cell_angle_alpha 28.588256
_cell_angle_beta 101.558336
_cell_angle_gamma 85.054255
_cell_volume 384.118360
_symmetry_space_group_name_H-M "P -1"
_symmetry_group_IT_number 2
_symmetry_cell_setting 'triclinic'
loop_
_space_group_symop_operation_xyz
x,y,z
-x,-y,-z
loop_
_atom_site_type_symbol
_atom_site_label
_atom_site_fract_x
_atom_site_fract_y
_atom_site_fract_z
Si Si1 0.211643 0.245512 0.997886
Si Si2 0.936260 0.868894 0.678939
Si Si3 0.400147 0.892958 0.973343
Si Si4 0.499902 0.226257 0.501274
Si Si5 0.884478 0.742364 0.475978
O O1 0.064104 0.477488 0.920803
O O2 0.398704 0.308717 0.948884
O O3 0.062086 0.382012 0.788757
O O4 0.358778 0.870399 0.312406
O O5 0.029994 0.012051 0.675633
O O6 0.000000 0.000000 0.500000
O O7 0.685177 0.028113 0.569304
O O8 0.362920 0.621558 0.196394
O O9 0.500000 0.000000 0.000000
O O10 0.207976 0.210529 0.679324
O O11 0.328439 0.126889 0.564918
#
# Coordination Sequence:
#
# PCOD9111475 Si02
#       5
#     2   2   2   2   2
#     4  10  23  44  62 100 131 163 213 260 313 387
#     4  10  20  43  64  97 136 158 207 264 313 389
#     4  11  25  45  64  93 130 167 220 268 304 376
#     4  11  23  41  67  95 129 167 211 263 316 377
#     4  10  24  41  68  97 126 172 207 254 333 371
#
# _framework density 26.033643000000001
#
# number of rings (size 3 to 8) (size 9 to 14) (size 15 to 20)
#    0.000    1.600    4.000    0.600    2.800   10.400 
#    0.000    2.000    0.000    0.000    0.000    0.000 
#    0.000    0.000    0.000    0.000    0.000    0.000 
#
# Total GULP energy -55750.803040 kJ/mol
# GULP energy per Si atom -5575.080304 kJ/mol
# Density = 2.597439 g / cm^3
# Si number density = 26.033643 Si / 1000 Ang^3
#
#
#
# Elastic Constant Matrix: (Units=GPa)
#
#
# Indices 1 2 3 4 5 6 
#
# 1 173.8190 10.3174 28.4863 -15.5406 10.9002 -11.0230
# 2 10.3174 49.1556 31.5886 18.1946 10.3314 -4.4515
# 3 28.4863 31.5886 163.3337 43.6451 15.7139 -19.5730
# 4 -15.5406 18.1946 43.6451 53.5993 2.4839 10.6358
# 5 10.9002 10.3314 15.7139 2.4839 39.4834 -1.0802
# 6 -11.0230 -4.4515 -19.5730 10.6358 -1.0802 20.6177
#
#
#
# Elastic Compliance Matrix: (Units=1/GPa)
#
#
# Indices 1 2 3 4 5 6 
#
# 1 0.006560 -0.001588 -0.002046 0.004361 -0.000885 -0.001074
# 2 -0.001588 0.027089 -0.000141 -0.011351 -0.005594 0.010428
# 3 -0.002046 -0.000141 0.012927 -0.014602 -0.003118 0.018517
# 4 0.004361 -0.011351 -0.014602 0.042574 0.003921 -0.035738
# 5 -0.000885 -0.005594 -0.003118 0.003921 0.027887 -0.005203
# 6 -0.001074 0.010428 0.018517 -0.035738 -0.005203 0.085921
#
#
# Mechanical properties :
#
#
# Convention : Reuss Voigt Hill
#
# Bulk Modulus (GPa) = 25.62306 58.56589 42.09447
# Shear Modulus (GPa) = 22.36969 43.80113 33.08541
#
# Velocity S-wave (km/s) = 2.93450 4.10626 3.56880
# Velocity P-wave (km/s) = 4.62010 6.71021 5.76074
#
# Compressibility (1/GPa) = 0.03902734
#
# Stress axis : x y z
#
# Youngs Moduli (GPa) = 152.44057 36.91518 77.35619
#
# Poissons Ratio (x) = 0.05860 0.15826
# Poissons Ratio (y) = 0.24200 0.01091
# Poissons Ratio (z) = 0.31187 0.00521
#
# Static dielectric constant tensor:
#      x y z
#    x 2.110570 0.034580 -0.113770 
#    y 0.034580 2.238780 -0.056120 
#    z -0.113770 -0.056120 2.243880 
# 
# From -- ./inp_files/264858.got.cif
#   From: 2010.05.17/outbox.cif.g08.bks.cpg/sg2_133_cif.got.tgz:264858.got - 2010.06.03 11:33:40.
