data_PCOD9111135
_publ_section_title
;
Structure prediction by ZEFSAII (Michael W. Deem and Ramdas Pophale) SiO2 
 PCOD9111135
Probable space group: P -1
;
_chemical_formula_sum "Si O2"
_cell_formula_units_Z 16
_cell_length_a 22.725739
_cell_length_b 10.805966
_cell_length_c 11.712985
_cell_angle_alpha 140.920023
_cell_angle_beta 159.410145
_cell_angle_gamma 40.887264
_cell_volume 632.091359
_symmetry_space_group_name_H-M "P -1"
_symmetry_group_IT_number 2
_symmetry_cell_setting 'triclinic'
loop_
_space_group_symop_operation_xyz
x,y,z
-x,-y,-z
loop_
_atom_site_type_symbol
_atom_site_label
_atom_site_fract_x
_atom_site_fract_y
_atom_site_fract_z
Si Si1 0.745986 0.937088 0.496631
Si Si2 0.846611 0.490599 0.301539
Si Si3 0.571321 0.980041 0.878465
Si Si4 0.041692 0.878844 0.175622
Si Si5 0.189889 0.444888 0.209801
Si Si6 0.574070 0.272201 0.730077
Si Si7 0.081222 0.197523 0.658094
Si Si8 0.671589 0.354258 0.211163
O O1 0.760894 0.708012 0.327836
O O2 0.557898 0.011039 0.247525
O O3 0.816207 0.049645 0.598806
O O4 0.872848 0.935264 0.834252
O O5 0.000000 0.500000 0.500000
O O6 0.954850 0.383623 0.523697
O O7 0.691315 0.363821 0.915166
O O8 0.469522 0.932919 0.546001
O O9 0.730002 0.810980 0.057366
O O10 0.648083 0.180790 0.133719
O O11 0.098658 0.646941 0.132650
O O12 0.022766 0.008635 0.351349
O O13 0.390458 0.402027 0.509138
O O14 0.195799 0.508633 0.399566
O O15 0.115656 0.247406 0.889096
O O16 0.676431 0.260394 0.026737
O O17 0.500000 0.500000 0.000000
#
# Coordination Sequence:
#
# PCOD9111135 Si02
#       8
#     2   2   2   2   2   2   2   2
#     4  11  24  39  67  94 133 179 217 263 332 391
#     4  12  24  43  65  97 136 174 215 272 327 393
#     4  11  23  41  69  98 129 172 221 271 326 393
#     4  11  22  40  63  95 139 169 220 266 327 385
#     4  10  21  41  67  97 133 170 219 277 324 382
#     4  10  24  41  69  96 131 174 223 263 332 393
#     4  11  23  40  64  98 134 168 217 274 324 384
#     4  10  20  42  69  94 128 171 221 274 322 387
#
# _framework density 25.312797
#
# number of rings (size 3 to 8) (size 9 to 14) (size 15 to 20)
#    0.000    1.250    3.750    2.625    1.750    1.500 
#    0.000    3.750    5.500    0.000    0.000    0.000 
#    0.000    0.000    0.000    0.000    0.000    0.000 
#
# Total GULP energy -89321.484422 kJ/mol
# GULP energy per Si atom -5582.592776 kJ/mol
# Density = 2.525518 g / cm^3
# Si number density = 25.312797 Si / 1000 Ang^3
#
#
#
# Elastic Constant Matrix: (Units=GPa)
#
#
# Indices 1 2 3 4 5 6 
#
# 1 97.0880 29.7371 51.1487 6.3244 11.3745 -10.6977
# 2 29.7371 79.8044 12.4123 2.9379 -4.6442 -5.5072
# 3 51.1487 12.4123 87.9019 24.4162 -22.6494 0.0116
# 4 6.3244 2.9379 24.4162 45.1564 -17.9132 -7.1935
# 5 11.3745 -4.6442 -22.6494 -17.9132 49.4392 6.1481
# 6 -10.6977 -5.5072 0.0116 -7.1935 6.1481 35.3533
#
#
#
# Elastic Compliance Matrix: (Units=1/GPa)
#
#
# Indices 1 2 3 4 5 6 
#
# 1 0.024041 -0.006537 -0.017407 0.002200 -0.014470 0.009226
# 2 -0.006537 0.014748 0.002798 0.000062 0.004244 -0.000407
# 3 -0.017407 0.002798 0.027174 -0.007944 0.014965 -0.009059
# 4 0.002200 0.000062 -0.007944 0.029321 0.005783 0.005638
# 5 -0.014470 0.004244 0.014965 0.005783 0.033957 -0.008451
# 6 0.009226 -0.000407 -0.009059 0.005638 -0.008451 0.033634
#
#
# Mechanical properties :
#
#
# Convention : Reuss Voigt Hill
#
# Bulk Modulus (GPa) = 42.24680 50.15450 46.20065
# Shear Modulus (GPa) = 23.46791 37.42287 30.44539
#
# Velocity S-wave (km/s) = 3.04816 3.84919 3.47186
# Velocity P-wave (km/s) = 5.39579 6.29380 5.86202
#
# Compressibility (1/GPa) = 0.02367043
#
# Stress axis : x y z
#
# Youngs Moduli (GPa) = 41.59524 67.80547 36.80045
#
# Poissons Ratio (x) = 0.44327 0.64058
# Poissons Ratio (y) = 0.27192 -0.10297
# Poissons Ratio (z) = 0.72404 -0.18972
#
# Static dielectric constant tensor:
#      x y z
#    x 2.074880 -0.019320 -0.040000 
#    y -0.019320 1.924390 -0.004950 
#    z -0.040000 -0.004950 2.100760 
# 
# From -- ./inp_files/474882.got.cif
#   From: 2010.05.17/outbox.cif.g08.bks.cpg/sg2_238_cif.got.tgz:474882.got - 2010.06.03 11:33:40.
