data_PCOD9111076
_publ_section_title
;
Structure prediction by ZEFSAII (Michael W. Deem and Ramdas Pophale) SiO2 
 PCOD9111076
Probable space group: P -1
;
_chemical_formula_sum "Si O2"
_cell_formula_units_Z 16
_cell_length_a 18.856647
_cell_length_b 5.520929
_cell_length_c 8.622104
_cell_angle_alpha 93.507279
_cell_angle_beta 87.584303
_cell_angle_gamma 129.614932
_cell_volume 690.173900
_symmetry_space_group_name_H-M "P -1"
_symmetry_group_IT_number 2
_symmetry_cell_setting 'triclinic'
loop_
_space_group_symop_operation_xyz
x,y,z
-x,-y,-z
loop_
_atom_site_type_symbol
_atom_site_label
_atom_site_fract_x
_atom_site_fract_y
_atom_site_fract_z
Si Si1 0.520951 0.311151 0.889471
Si Si2 0.810595 0.940175 0.668783
Si Si3 0.955164 0.143219 0.434044
Si Si4 0.657493 0.921581 0.743557
Si Si5 0.956033 0.573642 0.875392
Si Si6 0.509264 0.260062 0.407987
Si Si7 0.215439 0.480950 0.059641
Si Si8 0.635818 0.344958 0.158168
O O1 0.594832 0.554307 0.768401
O O2 0.424713 0.024753 0.810314
O O3 0.500000 0.500000 0.000000
O O4 0.580381 0.282953 0.002703
O O5 0.736210 0.982093 0.631046
O O6 0.780158 0.675536 0.790699
O O7 0.853715 0.923408 0.509288
O O8 0.888690 0.255007 0.768935
O O9 0.000000 0.500000 0.500000
O O10 0.971439 0.170833 0.248845
O O11 0.000000 0.000000 0.500000
O O12 0.582898 0.952373 0.698318
O O13 0.714210 0.144584 0.894041
O O14 0.887720 0.636296 0.947271
O O15 0.000000 0.500000 0.000000
O O16 0.500000 0.500000 0.500000
O O17 0.601388 0.447665 0.300802
O O18 0.500000 0.000000 0.500000
O O19 0.259901 0.455061 0.901541
#
# Coordination Sequence:
#
# PCOD9111076 Si02
#       8
#     2   2   2   2   2   2   2   2
#     4  11  18  34  65  95 121 169 219 291 332 391
#     4  10  22  39  69 100 130 174 231 285 335 428
#     4  10  20  42  68  97 134 181 226 273 347 428
#     4  11  22  39  67  94 132 171 236 281 338 396
#     4  10  23  43  67 101 141 179 225 290 364 422
#     4  12  28  45  62  88 138 194 227 274 342 418
#     4  11  21  38  69 102 128 166 231 302 343 412
#     4  11  22  36  62  96 129 170 230 281 345 395
#
# _framework density 23.182563999999999
#
# number of rings (size 3 to 8) (size 9 to 14) (size 15 to 20)
#    0.000    1.250    5.000    1.500    1.750    0.500 
#    2.250    0.000    0.000    0.000    0.000    0.000 
#    0.000    0.000    0.000    0.000    0.000    0.000 
#
# Total GULP energy -89167.279445 kJ/mol
# GULP energy per Si atom -5572.954965 kJ/mol
# Density = 2.312980 g / cm^3
# Si number density = 23.182564 Si / 1000 Ang^3
#
#
#
# Elastic Constant Matrix: (Units=GPa)
#
#
# Indices 1 2 3 4 5 6 
#
# 1 153.0391 5.2472 73.5400 -26.9254 -34.1703 11.0786
# 2 5.2472 55.9975 25.3268 -12.3998 -14.4308 -7.8899
# 3 73.5400 25.3268 122.4777 -30.1485 -28.0712 6.4451
# 4 -26.9254 -12.3998 -30.1485 38.9850 -1.9582 -7.4068
# 5 -34.1703 -14.4308 -28.0712 -1.9582 51.4920 -8.2348
# 6 11.0786 -7.8899 6.4451 -7.4068 -8.2348 38.3007
#
#
#
# Elastic Compliance Matrix: (Units=1/GPa)
#
#
# Indices 1 2 3 4 5 6 
#
# 1 0.010965 0.004088 -0.004613 0.005795 0.006274 0.000917
# 2 0.004088 0.024960 -0.003312 0.010319 0.009669 0.008591
# 3 -0.004613 -0.003312 0.014300 0.007127 0.004160 0.000518
# 4 0.005795 0.010319 0.007127 0.041071 0.013810 0.010162
# 5 0.006274 0.009669 0.004160 0.013810 0.030479 0.008700
# 6 0.000917 0.008591 0.000518 0.010162 0.008700 0.031362
#
#
# Mechanical properties :
#
#
# Convention : Reuss Voigt Hill
#
# Bulk Modulus (GPa) = 23.50098 59.97136 41.73617
# Shear Modulus (GPa) = 28.57243 40.91555 34.74399
#
# Velocity S-wave (km/s) = 3.51450 4.20566 3.87552
# Velocity P-wave (km/s) = 5.16026 7.03625 6.16997
#
# Compressibility (1/GPa) = 0.04255141
#
# Stress axis : x y z
#
# Youngs Moduli (GPa) = 91.20040 40.06423 69.93108
#
# Poissons Ratio (x) = -0.16379 0.32257
# Poissons Ratio (y) = -0.37284 0.23162
# Poissons Ratio (z) = 0.42068 0.13270
#
# Static dielectric constant tensor:
#      x y z
#    x 1.746320 0.099750 -0.064370 
#    y 0.099750 1.948860 -0.062150 
#    z -0.064370 -0.062150 2.024340 
# 
# From -- ./inp_files/105228.got.cif
#   From: 2010.05.17/outbox.cif.g08.bks.cpg/sg2_53_cif.got.tgz:105228.got - 2010.06.03 11:33:40.
