data_PCOD9111942
_publ_section_title
;
Structure prediction by ZEFSAII (Michael W. Deem and Ramdas Pophale) SiO2 
 PCOD9111942
Probable space group: P -1
;
_chemical_formula_sum "Si O2"
_cell_formula_units_Z 12
_cell_length_a 8.275285
_cell_length_b 10.318560
_cell_length_c 11.027741
_cell_angle_alpha 30.154908
_cell_angle_beta 99.337425
_cell_angle_gamma 96.058782
_cell_volume 465.611546
_symmetry_space_group_name_H-M "P -1"
_symmetry_group_IT_number 2
_symmetry_cell_setting 'triclinic'
loop_
_space_group_symop_operation_xyz
x,y,z
-x,-y,-z
loop_
_atom_site_type_symbol
_atom_site_label
_atom_site_fract_x
_atom_site_fract_y
_atom_site_fract_z
Si Si1 0.232416 0.545114 0.836716
Si Si2 0.249766 0.992028 0.036232
Si Si3 0.669867 0.964631 0.621610
Si Si4 0.413722 0.249833 0.651106
Si Si5 0.205327 0.011995 0.621496
Si Si6 0.030116 0.789065 0.997167
O O1 0.252614 0.714246 0.823998
O O2 0.048518 0.471617 0.842958
O O3 0.291485 0.739827 0.582810
O O4 0.328034 0.268922 0.095655
O O5 0.429241 0.953365 0.145623
O O6 0.187952 0.764349 0.125406
O O7 0.270111 0.216008 0.758969
O O8 0.111498 0.062222 0.060293
O O9 0.500000 0.000000 0.500000
O O10 0.808264 0.877195 0.606330
O O11 0.500000 0.500000 0.500000
O O12 0.337677 0.175002 0.574512
O O13 0.071225 0.961764 0.747149
#
# Coordination Sequence:
#
# PCOD9111942 Si02
#       6
#     2   2   2   2   2   2
#     4  10  23  42  67  98 135 173 217 275 331 398
#     4   9  22  41  66  91 132 169 226 266 329 394
#     4  10  23  40  64 100 132 174 218 270 331 389
#     4  10  21  42  64  96 124 176 218 278 323 393
#     4   9  23  39  64  97 132 173 220 270 334 392
#     4  10  20  44  63  97 129 178 214 275 332 397
#
# _framework density 25.772559000000001
#
# number of rings (size 3 to 8) (size 9 to 14) (size 15 to 20)
#    1.000    1.333    0.000    1.000    2.333    6.000 
#    6.000    4.167    0.000    0.000    0.000    0.000 
#    0.000    0.000    0.000    0.000    0.000    0.000 
#
# Total GULP energy -66861.462931 kJ/mol
# GULP energy per Si atom -5571.788578 kJ/mol
# Density = 2.571390 g / cm^3
# Si number density = 25.772559 Si / 1000 Ang^3
#
#
#
# Elastic Constant Matrix: (Units=GPa)
#
#
# Indices 1 2 3 4 5 6 
#
# 1 89.1090 44.2621 19.2002 2.2535 -25.3989 9.2772
# 2 44.2621 162.7776 39.2739 -11.3743 -11.1699 28.8400
# 3 19.2002 39.2739 98.4448 -28.6465 -9.1347 6.4374
# 4 2.2535 -11.3743 -28.6465 33.6633 13.4614 -12.4707
# 5 -25.3989 -11.1699 -9.1347 13.4614 35.5313 0.0103
# 6 9.2772 28.8400 6.4374 -12.4707 0.0103 62.9189
#
#
#
# Elastic Compliance Matrix: (Units=1/GPa)
#
#
# Indices 1 2 3 4 5 6 
#
# 1 0.019752 -0.003317 -0.005075 -0.015217 0.017538 -0.003892
# 2 -0.003317 0.008138 -0.002462 -0.000068 -0.000419 -0.003003
# 3 -0.005075 -0.002462 0.016353 0.017520 -0.006836 0.003677
# 4 -0.015217 -0.000068 0.017520 0.062381 -0.030032 0.012851
# 5 0.017538 -0.000419 -0.006836 -0.030032 0.050172 -0.007655
# 6 -0.003892 -0.003003 0.003677 0.012851 -0.007655 0.020016
#
#
# Mechanical properties :
#
#
# Convention : Reuss Voigt Hill
#
# Bulk Modulus (GPa) = 44.37480 61.75598 53.06539
# Shear Modulus (GPa) = 24.26818 42.92905 33.59862
#
# Velocity S-wave (km/s) = 3.07193 4.08571 3.61454
# Velocity P-wave (km/s) = 5.46237 6.80230 6.16883
#
# Compressibility (1/GPa) = 0.02253531
#
# Stress axis : x y z
#
# Youngs Moduli (GPa) = 50.62743 122.88467 61.14923
#
# Poissons Ratio (x) = 0.40758 0.31035
# Poissons Ratio (y) = 0.16792 0.15055
# Poissons Ratio (z) = 0.25695 0.30254
#
# Static dielectric constant tensor:
#      x y z
#    x 2.151740 0.022620 0.041820 
#    y 0.022620 2.069500 0.010100 
#    z 0.041820 0.010100 2.125780 
# 
# From -- ./inp_files/391792.got.cif
#   From: 2010.05.17/outbox.cif.g08.bks.cpg/sg2_196_cif.got.tgz:391792.got - 2010.06.03 11:33:40.
