data_PCOD9111159
_publ_section_title
;
Structure prediction by ZEFSAII (Michael W. Deem and Ramdas Pophale) SiO2 
 PCOD9111159
Probable space group: P -1
;
_chemical_formula_sum "Si O2"
_cell_formula_units_Z 16
_cell_length_a 7.046920
_cell_length_b 17.701495
_cell_length_c 7.139970
_cell_angle_alpha 75.666228
_cell_angle_beta 59.605728
_cell_angle_gamma 52.666450
_cell_volume 608.557361
_symmetry_space_group_name_H-M "P -1"
_symmetry_group_IT_number 2
_symmetry_cell_setting 'triclinic'
loop_
_space_group_symop_operation_xyz
x,y,z
-x,-y,-z
loop_
_atom_site_type_symbol
_atom_site_label
_atom_site_fract_x
_atom_site_fract_y
_atom_site_fract_z
Si Si1 0.659460 0.407932 0.246017
Si Si2 0.634291 0.069440 0.770255
Si Si3 0.747668 0.643506 0.417540
Si Si4 0.743617 0.730516 0.989523
Si Si5 0.304126 0.000561 0.817123
Si Si6 0.278870 0.604495 0.227047
Si Si7 0.825938 0.205540 0.911483
Si Si8 0.323472 0.846186 0.646622
O O1 0.448820 0.387785 0.434756
O O2 0.537377 0.519954 0.259736
O O3 0.661921 0.399523 0.022809
O O4 0.962271 0.329430 0.213477
O O5 0.360414 0.169406 0.917297
O O6 0.774239 0.101336 0.538539
O O7 0.776014 0.015945 0.925426
O O8 0.545250 0.010565 0.738639
O O9 0.773712 0.658607 0.177451
O O10 0.600544 0.747606 0.518996
O O11 0.049679 0.585738 0.378950
O O12 0.479778 0.760376 0.989584
O O13 0.633531 0.086353 0.287581
O O14 0.066174 0.101329 0.788463
O O15 0.164445 0.714131 0.246715
O O16 0.840667 0.187338 0.140331
#
# Coordination Sequence:
#
# PCOD9111159 Si02
#       8
#     2   2   2   2   2   2   2   2
#     4  10  20  42  69  98 130 182 226 277 351 400
#     4  10  23  42  66  98 134 184 230 281 330 409
#     4  10  21  43  68  99 130 177 234 278 336 410
#     4  10  23  42  63  98 144 174 224 281 340 405
#     4  11  23  43  66  95 139 180 228 282 338 394
#     4  10  22  40  70  98 134 175 228 288 336 403
#     4  12  23  43  63  97 143 178 220 287 335 402
#     4  11  22  39  67  98 135 182 223 275 347 402
#
# _framework density 26.291689000000002
#
# number of rings (size 3 to 8) (size 9 to 14) (size 15 to 20)
#    0.000    1.500    2.500    3.375    0.000    1.000 
#    6.750    0.625    0.000    0.000    0.000    0.000 
#    0.000    0.000    0.000    0.000    0.000    0.000 
#
# Total GULP energy -89434.900956 kJ/mol
# GULP energy per Si atom -5589.681310 kJ/mol
# Density = 2.623185 g / cm^3
# Si number density = 26.291689 Si / 1000 Ang^3
#
#
#
# Elastic Constant Matrix: (Units=GPa)
#
#
# Indices 1 2 3 4 5 6 
#
# 1 96.9760 51.3807 45.4790 -4.4389 -14.1068 2.5024
# 2 51.3807 177.0219 28.5170 -9.9944 -8.0487 -1.0785
# 3 45.4790 28.5170 106.4179 -10.8263 -16.4003 2.0290
# 4 -4.4389 -9.9944 -10.8263 18.2567 -2.5107 -6.3665
# 5 -14.1068 -8.0487 -16.4003 -2.5107 40.5720 -6.4923
# 6 2.5024 -1.0785 2.0290 -6.3665 -6.4923 30.4455
#
#
#
# Elastic Compliance Matrix: (Units=1/GPa)
#
#
# Indices 1 2 3 4 5 6 
#
# 1 0.014862 -0.003457 -0.005215 -0.001361 0.002158 -0.000821
# 2 -0.003457 0.006879 0.000065 0.003538 0.000631 0.001398
# 3 -0.005215 0.000065 0.013024 0.007816 0.004286 0.002111
# 4 -0.001361 0.003538 0.007816 0.068034 0.010177 0.016113
# 5 0.002158 0.000631 0.004286 0.010177 0.029150 0.007903
# 6 -0.000821 0.001398 0.002111 0.016113 0.007903 0.037877
#
#
# Mechanical properties :
#
#
# Convention : Reuss Voigt Hill
#
# Bulk Modulus (GPa) = 56.98296 70.12990 63.55643
# Shear Modulus (GPa) = 25.92132 34.85743 30.38938
#
# Velocity S-wave (km/s) = 3.14333 3.64510 3.40347
# Velocity P-wave (km/s) = 5.90715 6.66689 6.29849
#
# Compressibility (1/GPa) = 0.01754911
#
# Stress axis : x y z
#
# Youngs Moduli (GPa) = 67.28434 145.36859 76.78250
#
# Poissons Ratio (x) = 0.50259 0.40045
# Poissons Ratio (y) = 0.23263 -0.00497
# Poissons Ratio (z) = 0.35091 -0.00941
#
# Static dielectric constant tensor:
#      x y z
#    x 2.110000 -0.008010 0.026000 
#    y -0.008010 2.127040 0.014170 
#    z 0.026000 0.014170 2.108450 
# 
# From -- ./inp_files/225340.got.cif
#   From: 2010.05.17/outbox.cif.g08.bks.cpg/sg2_113_cif.got.tgz:225340.got - 2010.06.03 11:33:40.
