data_PCOD9111611
_publ_section_title
;
Structure prediction by ZEFSAII (Michael W. Deem and Ramdas Pophale) SiO2 
 PCOD9111611
Probable space group: P -1
;
_chemical_formula_sum "Si O2"
_cell_formula_units_Z 14
_cell_length_a 8.814163
_cell_length_b 22.955768
_cell_length_c 17.318104
_cell_angle_alpha 21.821581
_cell_angle_beta 139.797403
_cell_angle_gamma 150.643851
_cell_volume 618.439167
_symmetry_space_group_name_H-M "P -1"
_symmetry_group_IT_number 2
_symmetry_cell_setting 'triclinic'
loop_
_space_group_symop_operation_xyz
x,y,z
-x,-y,-z
loop_
_atom_site_type_symbol
_atom_site_label
_atom_site_fract_x
_atom_site_fract_y
_atom_site_fract_z
Si Si1 0.443384 0.966131 0.678982
Si Si2 0.350072 0.694782 0.531651
Si Si3 0.243799 0.188933 0.922628
Si Si4 0.777111 0.393091 0.781010
Si Si5 0.848804 0.346889 0.252477
Si Si6 0.252447 0.431028 0.166590
Si Si7 0.364241 0.930535 0.117305
O O1 0.465582 0.108743 0.578380
O O2 0.644740 0.121745 0.492678
O O3 0.603200 0.880996 0.880535
O O4 0.080822 0.775387 0.747486
O O5 0.482527 0.579927 0.727720
O O6 0.392859 0.780816 0.357178
O O7 0.984210 0.542178 0.605997
O O8 0.515127 0.384620 0.731521
O O9 0.010325 0.192844 0.875565
O O10 0.000000 0.000000 0.000000
O O11 0.030356 0.489985 0.830191
O O12 0.581421 0.151894 0.977650
O O13 0.144653 0.415588 0.231797
O O14 0.661623 0.370214 0.089558
O O15 0.500000 0.000000 0.000000
#
# Coordination Sequence:
#
# PCOD9111611 Si02
#       7
#     2   2   2   2   2   2   2
#     4  11  21  42  66  96 124 176 212 252 328 375
#     4  11  24  40  67  98 129 168 212 264 327 368
#     4  10  20  43  67  90 128 167 215 256 312 390
#     4  10  22  44  65  94 126 168 219 253 318 382
#     4  10  23  40  64  92 128 172 211 257 321 380
#     4  11  23  41  62  98 133 161 216 264 315 384
#     4  11  25  44  66  99 128 166 213 270 320 372
#
# _framework density 22.637633999999998
#
# number of rings (size 3 to 8) (size 9 to 14) (size 15 to 20)
#    0.000    1.429    4.286    0.857    2.000    5.714 
#    2.571    0.000    0.000    0.000    0.000    0.000 
#    0.000    0.000    0.000    0.000    0.000    0.000 
#
# Total GULP energy -78202.670310 kJ/mol
# GULP energy per Si atom -5585.905022 kJ/mol
# Density = 2.258611 g / cm^3
# Si number density = 22.637634 Si / 1000 Ang^3
#
#
#
# Elastic Constant Matrix: (Units=GPa)
#
#
# Indices 1 2 3 4 5 6 
#
# 1 126.2368 31.7744 50.3747 22.1655 -26.1428 12.5196
# 2 31.7744 69.7617 35.1935 1.3152 -7.7050 4.7630
# 3 50.3747 35.1935 91.7580 4.8581 -26.1037 5.0370
# 4 22.1655 1.3152 4.8581 25.7938 0.0444 -0.7464
# 5 -26.1428 -7.7050 -26.1037 0.0444 49.8252 3.8077
# 6 12.5196 4.7630 5.0370 -0.7464 3.8077 26.1554
#
#
#
# Elastic Compliance Matrix: (Units=1/GPa)
#
#
# Indices 1 2 3 4 5 6 
#
# 1 0.014052 -0.003111 -0.004068 -0.011347 0.005265 -0.006467
# 2 -0.003111 0.018587 -0.006102 0.002868 -0.001930 -0.000357
# 3 -0.004068 -0.006102 0.017221 0.000520 0.006030 -0.001121
# 4 -0.011347 0.002868 0.000520 0.048489 -0.005819 0.007040
# 5 0.005265 -0.001930 0.006030 -0.005819 0.026258 -0.007318
# 6 -0.006467 -0.000357 -0.001121 0.007040 -0.007318 0.042876
#
#
# Mechanical properties :
#
#
# Convention : Reuss Voigt Hill
#
# Bulk Modulus (GPa) = 42.92246 58.04908 50.48577
# Shear Modulus (GPa) = 24.77563 31.71581 28.24572
#
# Velocity S-wave (km/s) = 3.31183 3.74708 3.53616
# Velocity P-wave (km/s) = 5.79880 6.66478 6.24681
#
# Compressibility (1/GPa) = 0.02329782
#
# Stress axis : x y z
#
# Youngs Moduli (GPa) = 71.16465 53.80014 58.06798
#
# Poissons Ratio (x) = 0.16739 0.23620
# Poissons Ratio (y) = 0.22141 0.35436
# Poissons Ratio (z) = 0.28947 0.32831
#
# Static dielectric constant tensor:
#      x y z
#    x 1.882720 -0.022450 -0.005320 
#    y -0.022450 1.865240 -0.036780 
#    z -0.005320 -0.036780 1.834720 
# 
# From -- ./inp_files/282833.got.cif
#   From: 2010.05.17/outbox.cif.g08.bks.cpg/sg2_142_cif.got.tgz:282833.got - 2010.06.03 11:33:40.
