data_PCOD9111934
_publ_section_title
;
Structure prediction by ZEFSAII (Michael W. Deem and Ramdas Pophale) SiO2 
 PCOD9111934
Probable space group: P -1
;
_chemical_formula_sum "Si O2"
_cell_formula_units_Z 15
_cell_length_a 11.640715
_cell_length_b 9.090325
_cell_length_c 12.203590
_cell_angle_alpha 35.455924
_cell_angle_beta 115.795889
_cell_angle_gamma 108.409045
_cell_volume 672.588631
_symmetry_space_group_name_H-M "P -1"
_symmetry_group_IT_number 2
_symmetry_cell_setting 'triclinic'
loop_
_space_group_symop_operation_xyz
x,y,z
-x,-y,-z
loop_
_atom_site_type_symbol
_atom_site_label
_atom_site_fract_x
_atom_site_fract_y
_atom_site_fract_z
Si Si1 0.773660 0.298958 0.409978
Si Si2 0.784505 0.922897 0.209116
Si Si3 0.000000 0.500000 0.500000
Si Si4 0.598249 0.591559 0.789310
Si Si5 0.574588 0.083359 0.625351
Si Si6 0.127040 0.552753 0.086872
Si Si7 0.853169 0.925094 0.480879
Si Si8 0.398003 0.195597 0.975816
O O1 0.692330 0.196936 0.539930
O O2 0.705433 0.568311 0.178289
O O3 0.919023 0.325362 0.489259
O O4 0.777539 0.092221 0.440542
O O5 0.784272 0.965081 0.312551
O O6 0.653385 0.906501 0.098468
O O7 0.866189 0.661563 0.377286
O O8 0.860350 0.156305 0.052721
O O9 0.544050 0.719633 0.575679
O O10 0.748946 0.531371 0.883667
O O11 0.526964 0.338619 0.933599
O O12 0.558550 0.807876 0.730764
O O13 0.595661 0.023114 0.797605
O O14 0.137519 0.370758 0.305570
O O15 0.000000 0.500000 0.000000
O O16 0.000000 0.000000 0.500000
#
# Coordination Sequence:
#
# PCOD9111934 Si02
#       8
#     2   2   1   2   2   2   2   2
#     4  10  21  39  69 101 137 181 231 290 346 407
#     4  11  26  44  67 102 143 185 233 284 353 417
#     4  10  20  44  62  96 146 178 224 288 346 408
#     4  10  23  42  71 101 140 175 234 289 343 411
#     4  10  21  43  70 102 135 181 235 289 340 407
#     4  12  25  43  70 108 136 178 234 282 349 417
#     4  12  23  43  69 100 146 184 226 291 347 416
#     4  10  24  44  69 102 134 187 234 283 349 413
#
# _framework density 22.301893
#
# number of rings (size 3 to 8) (size 9 to 14) (size 15 to 20)
#    0.000    1.333    4.000    0.400    1.867    4.800 
#    0.000    3.333    0.000    0.000    0.000    0.000 
#    0.000    0.000    0.000    0.000    0.000    0.000 
#
# Total GULP energy -83645.208031 kJ/mol
# GULP energy per Si atom -5576.347202 kJ/mol
# Density = 2.225113 g / cm^3
# Si number density = 22.301893 Si / 1000 Ang^3
#
#
#
# Elastic Constant Matrix: (Units=GPa)
#
#
# Indices 1 2 3 4 5 6 
#
# 1 89.7715 17.9227 31.4786 18.4224 16.4805 16.4687
# 2 17.9227 89.7569 31.6052 19.8699 -7.4090 5.5053
# 3 31.4786 31.6052 113.4691 26.1257 -9.9833 -4.0197
# 4 18.4224 19.8699 26.1257 34.2201 5.3520 8.3558
# 5 16.4805 -7.4090 -9.9833 5.3520 35.6185 0.8433
# 6 16.4687 5.5053 -4.0197 8.3558 0.8433 27.1267
#
#
#
# Elastic Compliance Matrix: (Units=1/GPa)
#
#
# Indices 1 2 3 4 5 6 
#
# 1 0.017076 -0.001614 -0.005505 0.000017 -0.009532 -0.010564
# 2 -0.001614 0.013817 -0.001512 -0.006622 0.004195 -0.000139
# 3 -0.005505 -0.001512 0.014072 -0.010185 0.007503 0.008638
# 4 0.000017 -0.006622 -0.010185 0.045942 -0.010812 -0.013991
# 5 -0.009532 0.004195 0.007503 -0.010812 0.036891 0.008231
# 6 -0.010564 -0.000139 0.008638 -0.013991 0.008231 0.048640
#
#
# Mechanical properties :
#
#
# Convention : Reuss Voigt Hill
#
# Bulk Modulus (GPa) = 36.09579 50.55673 43.32626
# Shear Modulus (GPa) = 24.63868 33.52578 29.08223
#
# Velocity S-wave (km/s) = 3.32743 3.88141 3.61505
# Velocity P-wave (km/s) = 5.56620 6.54260 6.07405
#
# Compressibility (1/GPa) = 0.02770406
#
# Stress axis : x y z
#
# Youngs Moduli (GPa) = 58.56081 72.37697 71.06169
#
# Poissons Ratio (x) = 0.11683 0.39116
# Poissons Ratio (y) = 0.09453 0.10743
# Poissons Ratio (z) = 0.32235 0.10942
#
# Static dielectric constant tensor:
#      x y z
#    x 1.841720 -0.002070 -0.013920 
#    y -0.002070 1.828780 0.004380 
#    z -0.013920 0.004380 1.845950 
# 
# From -- ./inp_files/416203.got.cif
#   From: 2010.05.17/outbox.cif.g08.bks.cpg/sg2_209_cif.got.tgz:416203.got - 2010.06.03 11:33:40.
