data_PCOD9111126
_publ_section_title
;
Structure prediction by ZEFSAII (Michael W. Deem and Ramdas Pophale) SiO2 
 PCOD9111126
Probable space group: P -1
;
_chemical_formula_sum "Si O2"
_cell_formula_units_Z 16
_cell_length_a 15.566680
_cell_length_b 11.807135
_cell_length_c 11.752870
_cell_angle_alpha 92.084008
_cell_angle_beta 64.299090
_cell_angle_gamma 148.820805
_cell_volume 702.033378
_symmetry_space_group_name_H-M "P -1"
_symmetry_group_IT_number 2
_symmetry_cell_setting 'triclinic'
loop_
_space_group_symop_operation_xyz
x,y,z
-x,-y,-z
loop_
_atom_site_type_symbol
_atom_site_label
_atom_site_fract_x
_atom_site_fract_y
_atom_site_fract_z
Si Si1 0.478021 0.746450 0.697991
Si Si2 0.876575 0.471702 0.223275
Si Si3 0.976101 0.108916 0.104765
Si Si4 0.652382 0.549596 0.909037
Si Si5 0.252636 0.916970 0.802072
Si Si6 0.790985 0.633840 0.578388
Si Si7 0.201359 0.910635 0.265577
Si Si8 0.555923 0.583948 0.601703
O O1 0.364885 0.709083 0.670212
O O2 0.614296 0.781165 0.582457
O O3 0.667006 0.006717 0.698089
O O4 0.210389 0.399158 0.895192
O O5 0.778450 0.236305 0.247761
O O6 0.010419 0.636730 0.275503
O O7 0.095851 0.736668 0.006832
O O8 0.098912 0.175164 0.139523
O O9 0.875778 0.122849 0.197020
O O10 0.719562 0.760301 0.190656
O O11 0.739742 0.605534 0.737677
O O12 0.500000 0.500000 0.000000
O O13 0.448843 0.231844 0.064237
O O14 0.549466 0.284767 0.667261
O O15 0.763119 0.723130 0.534096
O O16 0.047640 0.849960 0.400464
O O17 0.500000 0.500000 0.500000
#
# Coordination Sequence:
#
# PCOD9111126 Si02
#       8
#     2   2   2   2   2   2   2   2
#     4  10  22  39  60  93 124 164 213 254 315 378
#     4  10  20  42  69  91 126 167 216 262 317 372
#     4   9  21  39  60  87 123 166 205 258 313 374
#     4  11  24  39  63  94 129 169 207 255 319 376
#     4   9  20  42  67  91 122 169 212 263 314 376
#     4  11  23  41  63  93 131 161 211 260 315 378
#     4  11  24  41  63  96 128 167 212 261 315 377
#     4  11  23  37  60  91 123 165 205 259 316 373
#
# _framework density 22.790941
#
# number of rings (size 3 to 8) (size 9 to 14) (size 15 to 20)
#    0.000    1.750    1.250    2.625    5.250    1.500 
#    2.250    3.125    0.000    0.000    0.000    0.000 
#    0.000    0.000    0.000    0.000    0.000    0.000 
#
# Total GULP energy -89453.965414 kJ/mol
# GULP energy per Si atom -5590.872838 kJ/mol
# Density = 2.273907 g / cm^3
# Si number density = 22.790941 Si / 1000 Ang^3
#
#
#
# Elastic Constant Matrix: (Units=GPa)
#
#
# Indices 1 2 3 4 5 6 
#
# 1 79.2623 43.8525 8.5257 -5.0463 -16.1660 -5.9573
# 2 43.8525 131.2081 25.2277 8.5978 -15.4331 -0.1417
# 3 8.5257 25.2277 90.9564 0.9080 3.0554 4.2888
# 4 -5.0463 8.5978 0.9080 34.2729 4.0402 -6.8500
# 5 -16.1660 -15.4331 3.0554 4.0402 25.9859 4.1257
# 6 -5.9573 -0.1417 4.2888 -6.8500 4.1257 33.1362
#
#
#
# Elastic Compliance Matrix: (Units=1/GPa)
#
#
# Indices 1 2 3 4 5 6 
#
# 1 0.017367 -0.005128 -0.000616 0.003681 0.006767 0.003099
# 2 -0.005128 0.010602 -0.002471 -0.004261 0.004374 -0.001982
# 3 -0.000616 -0.002471 0.011895 0.000340 -0.003111 -0.001203
# 4 0.003681 -0.004261 0.000340 0.033239 -0.006768 0.008314
# 5 0.006767 0.004374 -0.003111 -0.006768 0.047611 -0.005689
# 6 0.003099 -0.001982 -0.001203 0.008314 -0.005689 0.033310
#
#
# Mechanical properties :
#
#
# Convention : Reuss Voigt Hill
#
# Bulk Modulus (GPa) = 42.67112 50.73760 46.70436
# Shear Modulus (GPa) = 28.04806 33.60037 30.82421
#
# Velocity S-wave (km/s) = 3.51189 3.84381 3.68159
# Velocity P-wave (km/s) = 5.93363 6.48154 6.21363
#
# Compressibility (1/GPa) = 0.02343505
#
# Stress axis : x y z
#
# Youngs Moduli (GPa) = 57.58022 94.32153 84.06783
#
# Poissons Ratio (x) = 0.48368 0.05176
# Poissons Ratio (y) = 0.29527 0.20772
# Poissons Ratio (z) = 0.03545 0.23305
#
# Static dielectric constant tensor:
#      x y z
#    x 1.832800 0.026470 -0.007180 
#    y 0.026470 1.853360 -0.011020 
#    z -0.007180 -0.011020 1.936920 
# 
# From -- ./inp_files/208298.got.cif
#   From: 2010.05.17/outbox.cif.g08.bks.cpg/sg2_105_cif.got.tgz:208298.got - 2010.06.03 11:33:40.
