data_PCOD9111971
_publ_section_title
;
Structure prediction by ZEFSAII (Michael W. Deem and Ramdas Pophale) SiO2 
 PCOD9111971
Probable space group: P -1
;
_chemical_formula_sum "Si O2"
_cell_formula_units_Z 16
_cell_length_a 11.027926
_cell_length_b 9.502964
_cell_length_c 8.919462
_cell_angle_alpha 116.444099
_cell_angle_beta 118.706810
_cell_angle_gamma 68.455761
_cell_volume 719.944637
_symmetry_space_group_name_H-M "P -1"
_symmetry_group_IT_number 2
_symmetry_cell_setting 'triclinic'
loop_
_space_group_symop_operation_xyz
x,y,z
-x,-y,-z
loop_
_atom_site_type_symbol
_atom_site_label
_atom_site_fract_x
_atom_site_fract_y
_atom_site_fract_z
Si Si1 0.424067 0.613802 0.730634
Si Si2 0.666942 0.078262 0.766828
Si Si3 0.373216 0.694536 0.399751
Si Si4 0.858121 0.738669 0.677702
Si Si5 0.166923 0.310244 0.711708
Si Si6 0.559006 0.868197 0.096056
Si Si7 0.901462 0.447376 0.785682
Si Si8 0.809083 0.337060 0.145553
O O1 0.409074 0.692547 0.595160
O O2 0.502705 0.431211 0.667567
O O3 0.274108 0.636855 0.734317
O O4 0.517715 0.705151 0.933048
O O5 0.640634 0.136811 0.609339
O O6 0.525253 0.085087 0.778989
O O7 0.766749 0.906283 0.754295
O O8 0.740188 0.214248 0.950363
O O9 0.227070 0.629659 0.270460
O O10 0.823371 0.709202 0.470517
O O11 0.837996 0.599245 0.715113
O O12 0.025596 0.733025 0.775407
O O13 0.275334 0.172489 0.794086
O O14 0.203939 0.485498 0.846378
O O15 0.009329 0.325674 0.687658
O O16 0.500000 0.000000 0.000000
O O17 0.000000 0.500000 0.000000
#
# Coordination Sequence:
#
# PCOD9111971 Si02
#       8
#     2   2   2   2   2   2   2   2
#     4  10  22  40  67  88 131 169 221 262 311 380
#     4  11  25  41  66  94 132 166 211 270 331 374
#     4  11  22  40  65 101 124 170 216 264 316 388
#     4  11  24  41  66 100 132 167 212 271 322 377
#     4  11  23  42  68  92 129 176 219 261 318 384
#     4  11  26  44  63  90 130 170 215 267 327 385
#     4  11  23  40  69  98 133 172 216 259 316 389
#     4  10  20  44  65  93 126 172 215 257 316 393
#
# _framework density 22.223932000000001
#
# number of rings (size 3 to 8) (size 9 to 14) (size 15 to 20)
#    0.000    1.250    0.000    7.125    5.250    3.500 
#    2.250    1.250    0.000    0.000    0.000    0.000 
#    0.000    0.000    0.000    0.000    0.000    0.000 
#
# Total GULP energy -89586.937507 kJ/mol
# GULP energy per Si atom -5599.183594 kJ/mol
# Density = 2.217335 g / cm^3
# Si number density = 22.223932 Si / 1000 Ang^3
#
#
#
# Elastic Constant Matrix: (Units=GPa)
#
#
# Indices 1 2 3 4 5 6 
#
# 1 94.5707 52.2331 19.1586 0.0570 -18.4091 -13.7335
# 2 52.2331 114.3245 29.9004 -28.9201 -5.8140 -25.7662
# 3 19.1586 29.9004 86.4071 -1.1462 -1.5691 -5.3677
# 4 0.0570 -28.9201 -1.1462 39.4778 -0.4862 -3.8090
# 5 -18.4091 -5.8140 -1.5691 -0.4862 29.2573 -1.6902
# 6 -13.7335 -25.7662 -5.3677 -3.8090 -1.6902 30.2791
#
#
#
# Elastic Compliance Matrix: (Units=1/GPa)
#
#
# Indices 1 2 3 4 5 6 
#
# 1 0.017432 -0.009051 -0.000672 -0.006588 0.009011 -0.000240
# 2 -0.009051 0.022123 -0.004418 0.017645 -0.000310 0.016140
# 3 -0.000672 -0.004418 0.013060 -0.003076 -0.000777 -0.002179
# 4 -0.006588 0.017645 -0.003076 0.039782 0.000813 0.016532
# 5 0.009011 -0.000310 -0.000777 0.000813 0.040108 0.006026
# 6 -0.000240 0.016140 -0.002179 0.016532 0.006026 0.048681
#
#
# Mechanical properties :
#
#
# Convention : Reuss Voigt Hill
#
# Bulk Modulus (GPa) = 41.09343 55.32073 48.20708
# Shear Modulus (GPa) = 22.98012 32.73685 27.85849
#
# Velocity S-wave (km/s) = 3.21912 3.84219 3.54437
# Velocity P-wave (km/s) = 5.68750 6.68055 6.20393
#
# Compressibility (1/GPa) = 0.02433479
#
# Stress axis : x y z
#
# Youngs Moduli (GPa) = 57.36423 45.20172 76.56697
#
# Poissons Ratio (x) = 0.40913 0.05144
# Poissons Ratio (y) = 0.51922 0.33824
# Poissons Ratio (z) = 0.03854 0.19968
#
# Static dielectric constant tensor:
#      x y z
#    x 1.795380 0.007380 -0.002670 
#    y 0.007380 1.783080 0.007080 
#    z -0.002670 0.007080 1.835910 
# 
# From -- ./inp_files/242651.got.cif
#   From: 2010.05.17/outbox.cif.g08.bks.cpg/sg2_122_cif.got.tgz:242651.got - 2010.06.03 11:33:40.
