data_PCOD9111701
_publ_section_title
;
Structure prediction by ZEFSAII (Michael W. Deem and Ramdas Pophale) SiO2 
 PCOD9111701
Probable space group: P -1
;
_chemical_formula_sum "Si O2"
_cell_formula_units_Z 14
_cell_length_a 10.516626
_cell_length_b 7.029105
_cell_length_c 8.039964
_cell_angle_alpha 77.132435
_cell_angle_beta 100.697156
_cell_angle_gamma 60.637210
_cell_volume 473.599659
_symmetry_space_group_name_H-M "P -1"
_symmetry_group_IT_number 2
_symmetry_cell_setting 'triclinic'
loop_
_space_group_symop_operation_xyz
x,y,z
-x,-y,-z
loop_
_atom_site_type_symbol
_atom_site_label
_atom_site_fract_x
_atom_site_fract_y
_atom_site_fract_z
Si Si1 0.382599 0.690035 0.515777
Si Si2 0.219161 0.212726 0.773692
Si Si3 0.044389 0.048429 0.323230
Si Si4 0.701436 0.279908 0.124261
Si Si5 0.571674 0.834957 0.427653
Si Si6 0.643897 0.712706 0.891726
Si Si7 0.925934 0.534841 0.789361
O O1 0.217571 0.840044 0.346870
O O2 0.068601 0.255224 0.320451
O O3 0.330924 0.685289 0.693055
O O4 0.547549 0.602393 0.459270
O O5 0.259769 0.282506 0.597820
O O6 0.038541 0.314252 0.745124
O O7 0.313155 0.934985 0.878354
O O8 0.265742 0.318913 0.910929
O O9 0.886488 0.165151 0.155363
O O10 0.000000 0.000000 0.500000
O O11 0.569323 0.083457 0.474080
O O12 0.392448 0.483927 0.052570
O O13 0.462916 0.010266 0.215464
O O14 0.749771 0.620910 0.767556
O O15 0.000000 0.500000 0.000000
#
# Coordination Sequence:
#
# PCOD9111701 Si02
#       7
#     2   2   2   2   2   2   2
#     4  11  24  44  70 101 145 188 231 291 355 415
#     4  11  24  43  74 104 142 183 238 291 355 419
#     4  10  21  41  69  99 139 183 226 290 353 406
#     4  11  23  46  71 107 138 180 245 287 347 433
#     4  12  25  48  67 100 143 188 237 289 351 425
#     4  11  24  47  73  97 147 190 228 297 357 413
#     4  10  20  43  68  97 137 180 229 280 351 412
#
# _framework density 29.560836999999999
#
# number of rings (size 3 to 8) (size 9 to 14) (size 15 to 20)
#    0.000    1.143    5.714    1.286    2.000    1.143 
#    5.143    3.571    0.000    0.000    0.000    0.000 
#    0.000    0.000    0.000    0.000    0.000    0.000 
#
# Total GULP energy -78241.417869 kJ/mol
# GULP energy per Si atom -5588.672705 kJ/mol
# Density = 2.949355 g / cm^3
# Si number density = 29.560837 Si / 1000 Ang^3
#
#
#
# Elastic Constant Matrix: (Units=GPa)
#
#
# Indices 1 2 3 4 5 6 
#
# 1 174.4724 48.4993 42.7646 1.8154 -35.0300 19.7343
# 2 48.4993 217.5217 26.6730 6.2385 -16.6220 4.7256
# 3 42.7646 26.6730 56.1213 16.5881 -13.8758 5.9858
# 4 1.8154 6.2385 16.5881 62.2215 0.5623 -14.2191
# 5 -35.0300 -16.6220 -13.8758 0.5623 66.9373 -19.8673
# 6 19.7343 4.7256 5.9858 -14.2191 -19.8673 60.9635
#
#
#
# Elastic Compliance Matrix: (Units=1/GPa)
#
#
# Indices 1 2 3 4 5 6 
#
# 1 0.007844 -0.000938 -0.005102 0.000995 0.002537 -0.000907
# 2 -0.000938 0.005033 -0.001575 -0.000010 0.000500 0.000229
# 3 -0.005102 -0.001575 0.025058 -0.006782 0.001680 -0.001721
# 4 0.000995 -0.000010 -0.006782 0.018968 0.000408 0.004902
# 5 0.002537 0.000500 0.001680 0.000408 0.018223 0.005009
# 6 -0.000907 0.000229 -0.001721 0.004902 0.005009 0.019624
#
#
# Mechanical properties :
#
#
# Convention : Reuss Voigt Hill
#
# Bulk Modulus (GPa) = 44.04186 75.99882 60.02034
# Shear Modulus (GPa) = 42.53557 60.03637 51.28597
#
# Velocity S-wave (km/s) = 3.79742 4.51149 4.16977
# Velocity P-wave (km/s) = 5.84451 7.27345 6.59778
#
# Compressibility (1/GPa) = 0.02270567
#
# Stress axis : x y z
#
# Youngs Moduli (GPa) = 127.47814 198.68357 39.90726
#
# Poissons Ratio (x) = 0.18645 0.20359
# Poissons Ratio (y) = 0.11963 0.06285
# Poissons Ratio (z) = 0.65035 0.31292
#
# Static dielectric constant tensor:
#      x y z
#    x 2.875190 0.407300 0.220890 
#    y 0.407300 2.753240 0.093270 
#    z 0.220890 0.093270 2.190360 
# 
# From -- ./inp_files/248853.got.cif
#   From: 2010.05.17/outbox.cif.g08.bks.cpg/sg2_125_cif.got.tgz:248853.got - 2010.06.03 11:33:40.
