data_PCOD9111710
_publ_section_title
;
Structure prediction by ZEFSAII (Michael W. Deem and Ramdas Pophale) SiO2 
 PCOD9111710
Probable space group: P -1
;
_chemical_formula_sum "Si O2"
_cell_formula_units_Z 16
_cell_length_a 8.392311
_cell_length_b 16.121603
_cell_length_c 5.402203
_cell_angle_alpha 123.083996
_cell_angle_beta 97.041602
_cell_angle_gamma 76.749409
_cell_volume 596.096966
_symmetry_space_group_name_H-M "P -1"
_symmetry_group_IT_number 2
_symmetry_cell_setting 'triclinic'
loop_
_space_group_symop_operation_xyz
x,y,z
-x,-y,-z
loop_
_atom_site_type_symbol
_atom_site_label
_atom_site_fract_x
_atom_site_fract_y
_atom_site_fract_z
Si Si1 0.739246 0.307211 0.505478
Si Si2 0.600154 0.397797 0.115954
Si Si3 0.361703 0.057488 0.388148
Si Si4 0.152358 0.917292 0.981168
Si Si5 0.730188 0.568822 0.639929
Si Si6 0.973120 0.638307 0.110748
Si Si7 0.281802 0.241162 0.379962
Si Si8 0.945127 0.839530 0.165232
O O1 0.661638 0.330671 0.259168
O O2 0.815815 0.188574 0.327016
O O3 0.879970 0.372766 0.684819
O O4 0.619059 0.340291 0.766747
O O5 0.707599 0.485965 0.295224
O O6 0.410618 0.443163 0.209053
O O7 0.404071 0.151460 0.395537
O O8 0.195718 0.104293 0.587697
O O9 0.500000 0.000000 0.500000
O O10 0.307625 0.969310 0.076174
O O11 0.094390 0.891688 0.204381
O O12 0.000000 0.000000 0.000000
O O13 0.681670 0.682335 0.699390
O O14 0.906130 0.562965 0.792193
O O15 0.811779 0.685501 0.311107
O O16 0.014228 0.727889 0.095061
O O17 0.152947 0.180005 0.132693
#
# Coordination Sequence:
#
# PCOD9111710 Si02
#       8
#     2   2   2   2   2   2   2   2
#     4  12  27  48  75 119 153 187 266 325 369 444
#     4  11  29  51  75 116 153 199 257 319 383 461
#     4  11  25  43  69 112 148 190 259 320 373 446
#     4  12  23  47  74 101 146 211 242 309 381 460
#     4  10  26  49  80 101 152 211 243 305 402 466
#     4  10  22  43  75 104 146 192 247 307 377 452
#     4  10  21  44  73 104 141 196 249 301 382 458
#     4  10  20  43  68  99 142 200 246 293 375 460
#
# _framework density 26.841269
#
# number of rings (size 3 to 8) (size 9 to 14) (size 15 to 20)
#    0.000    1.250    2.500    1.875    5.250    6.500 
#    4.500    0.000    0.000    0.000    0.000    0.000 
#    0.000    0.000    0.000    0.000    0.000    0.000 
#
# Total GULP energy -89602.193498 kJ/mol
# GULP energy per Si atom -5600.137094 kJ/mol
# Density = 2.678018 g / cm^3
# Si number density = 26.841269 Si / 1000 Ang^3
#
#
#
# Elastic Constant Matrix: (Units=GPa)
#
#
# Indices 1 2 3 4 5 6 
#
# 1 62.6972 -6.0760 28.1876 10.1362 -1.2666 2.1286
# 2 -6.0760 109.2103 25.7312 10.9902 0.9836 9.4154
# 3 28.1876 25.7312 140.6734 9.9493 -11.4035 -0.9707
# 4 10.1362 10.9902 9.9493 40.6531 0.9564 9.8345
# 5 -1.2666 0.9836 -11.4035 0.9564 54.1042 -1.1634
# 6 2.1286 9.4154 -0.9707 9.8345 -1.1634 37.8105
#
#
#
# Elastic Compliance Matrix: (Units=1/GPa)
#
#
# Indices 1 2 3 4 5 6 
#
# 1 0.018640 0.002444 -0.003922 -0.004174 -0.000376 -0.000684
# 2 0.002444 0.010250 -0.002268 -0.002285 -0.000613 -0.002173
# 3 -0.003922 -0.002268 0.008523 -0.000847 0.001788 0.001279
# 4 -0.004174 -0.002285 -0.000847 0.028068 -0.000872 -0.006545
# 5 -0.000376 -0.000613 0.001788 -0.000872 0.018900 0.001028
# 6 -0.000684 -0.002173 0.001279 -0.006545 0.001028 0.028794
#
#
# Mechanical properties :
#
#
# Convention : Reuss Voigt Hill
#
# Bulk Modulus (GPa) = 33.42147 45.36296 39.39221
# Shear Modulus (GPa) = 38.27315 44.16276 41.21796
#
# Velocity S-wave (km/s) = 3.78021 4.06067 3.92295
# Velocity P-wave (km/s) = 5.61533 6.23879 5.93525
#
# Compressibility (1/GPa) = 0.02992089
#
# Stress axis : x y z
#
# Youngs Moduli (GPa) = 53.64753 97.56436 117.32997
#
# Poissons Ratio (x) = -0.23840 0.46017
# Poissons Ratio (y) = -0.13109 0.26605
# Poissons Ratio (z) = 0.21040 0.22123
#
# Static dielectric constant tensor:
#      x y z
#    x 2.073780 -0.019740 -0.000590 
#    y -0.019740 2.140780 -0.052390 
#    z -0.000590 -0.052390 2.112370 
# 
# From -- ./inp_files/49389.got.cif
#   From: 2010.05.17/outbox.cif.g08.bks.cpg/sg2_25_cif.got.tgz:49389.got - 2010.06.03 11:33:40.
