data_PCOD9111532
_publ_section_title
;
Structure prediction by ZEFSAII (Michael W. Deem and Ramdas Pophale) SiO2 
 PCOD9111532
Probable space group: P -1
;
_chemical_formula_sum "Si O2"
_cell_formula_units_Z 12
_cell_length_a 6.782390
_cell_length_b 16.277987
_cell_length_c 9.625201
_cell_angle_alpha 61.307261
_cell_angle_beta 126.903567
_cell_angle_gamma 78.397899
_cell_volume 534.001659
_symmetry_space_group_name_H-M "P -1"
_symmetry_group_IT_number 2
_symmetry_cell_setting 'triclinic'
loop_
_space_group_symop_operation_xyz
x,y,z
-x,-y,-z
loop_
_atom_site_type_symbol
_atom_site_label
_atom_site_fract_x
_atom_site_fract_y
_atom_site_fract_z
Si Si1 0.798569 0.837332 0.019719
Si Si2 0.095619 0.910238 0.243661
Si Si3 0.653898 0.378066 0.760195
Si Si4 0.222285 0.362178 0.128781
Si Si5 0.132978 0.037589 0.413729
Si Si6 0.451482 0.309808 0.954717
O O1 0.834383 0.892049 0.125782
O O2 0.163443 0.741450 0.172245
O O3 0.523021 0.950026 0.699394
O O4 0.704514 0.753725 0.080795
O O5 0.463218 0.762260 0.546943
O O6 0.079335 0.989992 0.294222
O O7 0.000000 0.000000 0.000000
O O8 0.500000 0.500000 0.500000
O O9 0.379937 0.404016 0.726969
O O10 0.959557 0.348444 0.995542
O O11 0.364132 0.356690 0.039977
O O12 0.000000 0.500000 0.000000
O O13 0.863823 0.191503 0.197646
O O14 0.000000 0.000000 0.500000
#
# Coordination Sequence:
#
# PCOD9111532 Si02
#       6
#     2   2   2   2   2   2
#     4  10  23  42  69 102 144 184 233 287 352 422
#     4  12  24  41  72 111 141 188 238 288 355 421
#     4  11  23  44  72  99 140 189 237 290 356 425
#     4  11  25  47  67 101 146 183 242 296 352 431
#     4  10  20  43  66 101 141 177 234 284 349 416
#     4  10  23  44  72  97 140 191 231 293 359 415
#
# _framework density 22.47184
#
# number of rings (size 3 to 8) (size 9 to 14) (size 15 to 20)
#    0.000    1.333    5.000    2.000    2.333    7.333 
#    0.000    5.000    0.000    0.000    0.000    0.000 
#    0.000    0.000    0.000    0.000    0.000    0.000 
#
# Total GULP energy -66917.435357 kJ/mol
# GULP energy per Si atom -5576.452946 kJ/mol
# Density = 2.242069 g / cm^3
# Si number density = 22.471840 Si / 1000 Ang^3
#
#
#
# Elastic Constant Matrix: (Units=GPa)
#
#
# Indices 1 2 3 4 5 6 
#
# 1 113.1419 74.8056 77.2472 4.5896 -24.7209 -15.1196
# 2 74.8056 141.9498 66.7877 8.9961 6.0042 -15.2354
# 3 77.2472 66.7877 135.6762 14.4247 -14.2985 -9.0881
# 4 4.5896 8.9961 14.4247 41.9881 6.8244 12.1688
# 5 -24.7209 6.0042 -14.2985 6.8244 38.8742 -9.3320
# 6 -15.1196 -15.2354 -9.0881 12.1688 -9.3320 33.7993
#
#
#
# Elastic Compliance Matrix: (Units=1/GPa)
#
#
# Indices 1 2 3 4 5 6 
#
# 1 0.025899 -0.009719 -0.006451 -0.005450 0.019641 0.012855
# 2 -0.009719 0.013393 -0.002366 0.001212 -0.009836 -0.002099
# 3 -0.006451 -0.002366 0.012967 -0.004044 0.002121 0.001576
# 4 -0.005450 0.001212 -0.004044 0.033743 -0.015739 -0.019473
# 5 0.019641 -0.009836 0.002121 -0.015739 0.049071 0.024138
# 6 0.012855 -0.002099 0.001576 -0.019473 0.024138 0.048490
#
#
# Mechanical properties :
#
#
# Convention : Reuss Voigt Hill
#
# Bulk Modulus (GPa) = 65.83927 92.04985 78.94456
# Shear Modulus (GPa) = 22.15353 34.39413 28.27383
#
# Velocity S-wave (km/s) = 3.14321 3.91646 3.55094
# Velocity P-wave (km/s) = 6.52190 7.84237 7.21242
#
# Compressibility (1/GPa) = 0.01518850
#
# Stress axis : x y z
#
# Youngs Moduli (GPa) = 38.61145 74.66331 77.11947
#
# Poissons Ratio (x) = 0.72564 0.49750
# Poissons Ratio (y) = 0.37526 0.18244
# Poissons Ratio (z) = 0.24908 0.17663
#
# Static dielectric constant tensor:
#      x y z
#    x 1.937960 -0.096660 0.261620 
#    y -0.096660 1.965230 -0.451560 
#    z 0.261620 -0.451560 3.818940 
# 
# From -- ./inp_files/137254.got.cif
#   From: 2010.05.17/outbox.cif.g08.bks.cpg/sg2_69_cif.got.tgz:137254.got - 2010.06.03 11:33:40.
