data_PCOD9111883
_publ_section_title
;
Structure prediction by ZEFSAII (Michael W. Deem and Ramdas Pophale) SiO2 
 PCOD9111883
Probable space group: P -1
;
_chemical_formula_sum "Si O2"
_cell_formula_units_Z 14
_cell_length_a 6.679993
_cell_length_b 18.165886
_cell_length_c 4.884472
_cell_angle_alpha 117.777995
_cell_angle_beta 106.858022
_cell_angle_gamma 72.021631
_cell_volume 491.230352
_symmetry_space_group_name_H-M "P -1"
_symmetry_group_IT_number 2
_symmetry_cell_setting 'triclinic'
loop_
_space_group_symop_operation_xyz
x,y,z
-x,-y,-z
loop_
_atom_site_type_symbol
_atom_site_label
_atom_site_fract_x
_atom_site_fract_y
_atom_site_fract_z
Si Si1 0.536928 0.063895 0.373344
Si Si2 0.681852 0.228950 0.546870
Si Si3 0.256681 0.533869 0.856658
Si Si4 0.878957 0.620868 0.242156
Si Si5 0.872612 0.807601 0.627821
Si Si6 0.556819 0.342375 0.194258
Si Si7 0.971937 0.960733 0.210676
O O1 0.325569 0.137922 0.512635
O O2 0.500000 0.000000 0.500000
O O3 0.500000 0.000000 0.000000
O O4 0.828879 0.031117 0.487945
O O5 0.600114 0.142909 0.331365
O O6 0.570839 0.306469 0.442097
O O7 0.924804 0.205966 0.511657
O O8 0.656391 0.261996 0.903173
O O9 0.151211 0.450997 0.677359
O O10 0.304057 0.586758 0.701072
O O11 0.500000 0.500000 0.000000
O O12 0.094320 0.594706 0.102191
O O13 0.855233 0.712840 0.530021
O O14 0.682059 0.627025 0.960623
O O15 0.922140 0.870740 0.995806
O O16 0.000000 0.000000 0.000000
#
# Coordination Sequence:
#
# PCOD9111883 Si02
#       7
#     2   2   2   2   2   2   2
#     4  10  24  47  69 105 140 187 239 299 355 428
#     4  12  25  45  72 105 144 186 241 296 357 426
#     4   9  20  42  73 106 150 190 238 299 365 426
#     4  10  20  43  73 107 145 191 247 295 358 434
#     4  11  23  43  75 103 144 189 243 294 359 426
#     4  11  25  45  72 105 145 188 238 297 358 423
#     4  11  25  47  71 101 143 187 233 294 360 420
#
# _framework density 28.499867999999999
#
# number of rings (size 3 to 8) (size 9 to 14) (size 15 to 20)
#    0.000    1.429    4.286    0.000    2.000    1.143 
#    5.143   11.429    0.000    0.000    0.000    0.000 
#    0.000    0.000    0.000    0.000    0.000    0.000 
#
# Total GULP energy -78298.704658 kJ/mol
# GULP energy per Si atom -5592.764618 kJ/mol
# Density = 2.843500 g / cm^3
# Si number density = 28.499868 Si / 1000 Ang^3
#
#
#
# Elastic Constant Matrix: (Units=GPa)
#
#
# Indices 1 2 3 4 5 6 
#
# 1 202.2403 79.7993 30.0606 10.8547 -2.3250 4.2696
# 2 79.7993 257.7474 79.1183 25.2210 19.0968 28.3187
# 3 30.0606 79.1183 143.2400 20.3060 0.6494 23.8616
# 4 10.8547 25.2210 20.3060 69.3817 4.5167 5.5404
# 5 -2.3250 19.0968 0.6494 4.5167 40.6983 16.5656
# 6 4.2696 28.3187 23.8616 5.5404 16.5656 70.1615
#
#
#
# Elastic Compliance Matrix: (Units=1/GPa)
#
#
# Indices 1 2 3 4 5 6 
#
# 1 0.005701 -0.001777 -0.000215 -0.000271 0.001110 0.000203
# 2 -0.001777 0.005497 -0.002424 -0.000808 -0.002273 -0.000685
# 3 -0.000215 -0.002424 0.008999 -0.001664 0.002163 -0.002448
# 4 -0.000271 -0.000808 -0.001664 0.015321 -0.001314 0.000009
# 5 0.001110 -0.002273 0.002163 -0.001314 0.028459 -0.006501
# 6 0.000203 -0.000685 -0.002448 0.000009 -0.006501 0.016884
#
#
# Mechanical properties :
#
#
# Convention : Reuss Voigt Hill
#
# Bulk Modulus (GPa) = 87.99444 109.02044 98.50744
# Shear Modulus (GPa) = 53.48633 63.66495 58.57564
#
# Velocity S-wave (km/s) = 4.33681 4.73151 4.53845
# Velocity P-wave (km/s) = 7.48463 8.25746 7.88052
#
# Compressibility (1/GPa) = 0.01136435
#
# Stress axis : x y z
#
# Youngs Moduli (GPa) = 175.41445 181.92208 111.11775
#
# Poissons Ratio (x) = 0.32326 0.02392
# Poissons Ratio (y) = 0.31169 0.26938
# Poissons Ratio (z) = 0.03776 0.44102
#
# Static dielectric constant tensor:
#      x y z
#    x 2.331510 -0.044630 0.226290 
#    y -0.044630 2.273480 0.040540 
#    z 0.226290 0.040540 2.093670 
# 
# From -- ./inp_files/11679.got.cif
#   From: 2010.05.17/outbox.cif.g08.bks.cpg/sg2_6_cif.got.tgz:11679.got - 2010.06.03 11:33:40.
