data_PCOD9111709
_publ_section_title
;
Structure prediction by ZEFSAII (Michael W. Deem and Ramdas Pophale) SiO2 
 PCOD9111709
Probable space group: P -1
;
_chemical_formula_sum "Si O2"
_cell_formula_units_Z 16
_cell_length_a 18.971551
_cell_length_b 11.229536
_cell_length_c 5.656416
_cell_angle_alpha 84.131422
_cell_angle_beta 68.999086
_cell_angle_gamma 135.127167
_cell_volume 667.637276
_symmetry_space_group_name_H-M "P -1"
_symmetry_group_IT_number 2
_symmetry_cell_setting 'triclinic'
loop_
_space_group_symop_operation_xyz
x,y,z
-x,-y,-z
loop_
_atom_site_type_symbol
_atom_site_label
_atom_site_fract_x
_atom_site_fract_y
_atom_site_fract_z
Si Si1 0.574479 0.081099 0.641304
Si Si2 0.056061 0.522157 0.175051
Si Si3 0.885163 0.845935 0.357900
Si Si4 0.778782 0.070820 0.986218
Si Si5 0.597435 0.860107 0.859787
Si Si6 0.522060 0.644408 0.595105
Si Si7 0.975655 0.167575 0.500711
Si Si8 0.349526 0.571568 0.536625
O O1 0.677275 0.319815 0.454744
O O2 0.500000 0.000000 0.500000
O O3 0.605303 0.981389 0.649658
O O4 0.500000 0.000000 0.000000
O O5 0.189726 0.758864 0.985915
O O6 0.000000 0.500000 0.500000
O O7 0.040064 0.359671 0.245140
O O8 0.000000 0.500000 0.000000
O O9 0.758967 0.644131 0.413248
O O10 0.921689 0.789519 0.514958
O O11 0.888398 0.974348 0.474791
O O12 0.000000 0.000000 0.000000
O O13 0.894679 0.126013 0.818081
O O14 0.733397 0.027128 0.780246
O O15 0.658120 0.861833 0.294718
O O16 0.553416 0.683635 0.823699
O O17 0.483786 0.738124 0.203654
O O18 0.500000 0.500000 0.500000
O O19 0.398440 0.572537 0.720188
#
# Coordination Sequence:
#
# PCOD9111709 Si02
#       8
#     2   2   2   2   2   2   2   2
#     4  10  20  43  68  99 141 179 228 284 348 425
#     4  10  24  45  75 105 140 190 240 299 362 420
#     4  11  27  46  70  99 138 194 246 293 357 433
#     4  10  25  43  71 102 140 180 231 300 356 429
#     4  10  23  42  67 103 139 176 228 289 365 422
#     4  11  25  38  69 106 134 186 230 285 361 430
#     4  10  26  48  68 101 140 188 242 300 361 423
#     4  10  24  43  66  98 136 183 232 290 353 422
#
# _framework density 23.965109999999999
#
# number of rings (size 3 to 8) (size 9 to 14) (size 15 to 20)
#    0.000    1.750    1.250    0.000   14.000    2.000 
#    2.250    0.000    0.000    0.000    0.000    0.000 
#    0.000    0.000    0.000    0.000    0.000    0.000 
#
# Total GULP energy -89233.216900 kJ/mol
# GULP energy per Si atom -5577.076056 kJ/mol
# Density = 2.391056 g / cm^3
# Si number density = 23.965110 Si / 1000 Ang^3
#
#
#
# Elastic Constant Matrix: (Units=GPa)
#
#
# Indices 1 2 3 4 5 6 
#
# 1 75.5015 46.6019 12.1350 -4.0082 18.0520 -14.8074
# 2 46.6019 190.3083 9.7448 -6.6651 10.7054 -16.9210
# 3 12.1350 9.7448 64.2394 -0.4965 3.4445 -5.6996
# 4 -4.0082 -6.6651 -0.4965 40.9806 6.4620 8.0840
# 5 18.0520 10.7054 3.4445 6.4620 30.1864 -0.4273
# 6 -14.8074 -16.9210 -5.6996 8.0840 -0.4273 46.9415
#
#
#
# Elastic Compliance Matrix: (Units=1/GPa)
#
#
# Indices 1 2 3 4 5 6 
#
# 1 0.019172 -0.003569 -0.002150 0.002102 -0.010347 0.004044
# 2 -0.003569 0.006254 -0.000172 0.000489 -0.000154 0.001022
# 3 -0.002150 -0.000172 0.016131 -0.000222 -0.000429 0.001253
# 4 0.002102 0.000489 -0.000222 0.026566 -0.007146 -0.003828
# 5 -0.010347 -0.000154 -0.000429 -0.007146 0.040923 -0.001768
# 6 0.004044 0.001022 0.001253 -0.003828 -0.001768 0.023742
#
#
# Mechanical properties :
#
#
# Convention : Reuss Voigt Hill
#
# Bulk Modulus (GPa) = 33.58573 51.89028 42.73801
# Shear Modulus (GPa) = 32.36301 41.05954 36.71127
#
# Velocity S-wave (km/s) = 3.67880 4.14370 3.91815
# Velocity P-wave (km/s) = 5.66477 6.67781 6.19204
#
# Compressibility (1/GPa) = 0.02977455
#
# Stress axis : x y z
#
# Youngs Moduli (GPa) = 52.15919 159.89392 61.99076
#
# Poissons Ratio (x) = 0.57073 0.13330
# Poissons Ratio (y) = 0.18618 0.01065
# Poissons Ratio (z) = 0.11216 0.02746
#
# Static dielectric constant tensor:
#      x y z
#    x 1.991810 0.023590 0.113450 
#    y 0.023590 2.020980 0.128030 
#    z 0.113450 0.128030 2.165510 
# 
# From -- ./inp_files/118200.got.cif
#   From: 2010.05.17/outbox.cif.g08.bks.cpg/sg2_60_cif.got.tgz:118200.got - 2010.06.03 11:33:40.
