data_PCOD9111372
_publ_section_title
;
Structure prediction by ZEFSAII (Michael W. Deem and Ramdas Pophale) SiO2 
 PCOD9111372
Probable space group: P -1
;
_chemical_formula_sum "Si O2"
_cell_formula_units_Z 15
_cell_length_a 7.109765
_cell_length_b 26.676829
_cell_length_c 5.472766
_cell_angle_alpha 76.060108
_cell_angle_beta 102.500312
_cell_angle_gamma 43.918773
_cell_volume 569.605909
_symmetry_space_group_name_H-M "P -1"
_symmetry_group_IT_number 2
_symmetry_cell_setting 'triclinic'
loop_
_space_group_symop_operation_xyz
x,y,z
-x,-y,-z
loop_
_atom_site_type_symbol
_atom_site_label
_atom_site_fract_x
_atom_site_fract_y
_atom_site_fract_z
Si Si1 0.806976 0.028494 0.157293
Si Si2 0.070770 0.562529 0.010261
Si Si3 0.979478 0.128255 0.574183
Si Si4 0.000000 0.500000 0.500000
Si Si5 0.021464 0.770203 0.770638
Si Si6 0.475642 0.285377 0.656742
Si Si7 0.350580 0.606372 0.932821
Si Si8 0.389558 0.207536 0.997413
O O1 0.503334 0.134712 0.948699
O O2 0.000000 0.000000 0.500000
O O3 0.775173 0.973593 0.201520
O O4 0.000000 0.000000 0.000000
O O5 0.430371 0.464544 0.140727
O O6 0.948969 0.556623 0.208160
O O7 0.794120 0.616545 0.653037
O O8 0.108411 0.615953 0.968895
O O9 0.148114 0.141839 0.488412
O O10 0.745040 0.200618 0.645028
O O11 0.710256 0.163188 0.270008
O O12 0.626631 0.558698 0.268228
O O13 0.813807 0.776992 0.870477
O O14 0.308967 0.731121 0.067617
O O15 0.178134 0.697515 0.702019
O O16 0.268603 0.282979 0.719206
#
# Coordination Sequence:
#
# PCOD9111372 Si02
#       8
#     2   2   2   1   2   2   2   2
#     4  10  20  42  75 104 142 193 239 291 358 426
#     4  11  26  44  70  95 129 178 225 283 344 418
#     4  10  22  42  68  96 141 177 231 282 346 411
#     4  12  24  44  68  94 126 168 224 282 340 406
#     4  11  25  42  65 101 136 178 229 288 338 418
#     4  11  23  43  66  97 134 179 226 286 344 413
#     4  11  25  45  65  96 133 174 225 277 348 407
#     4  10  23  42  68  98 136 182 229 281 351 413
#
# _framework density 26.333993
#
# number of rings (size 3 to 8) (size 9 to 14) (size 15 to 20)
#    0.000    1.333    1.333    3.200    0.000   10.133 
#    0.000    0.667    0.000    0.000    0.000    0.000 
#    0.000    0.000    0.000    0.000    0.000    0.000 
#
# Total GULP energy -83760.216613 kJ/mol
# GULP energy per Si atom -5584.014441 kJ/mol
# Density = 2.627406 g / cm^3
# Si number density = 26.333993 Si / 1000 Ang^3
#
#
#
# Elastic Constant Matrix: (Units=GPa)
#
#
# Indices 1 2 3 4 5 6 
#
# 1 145.7522 12.2761 49.3958 -0.1575 -28.8951 33.9334
# 2 12.2761 136.3274 3.7831 -7.4248 -29.7167 24.2008
# 3 49.3958 3.7831 104.3008 -11.5355 -21.1991 20.7246
# 4 -0.1575 -7.4248 -11.5355 33.8798 7.8448 -12.2564
# 5 -28.8951 -29.7167 -21.1991 7.8448 55.7127 -2.0789
# 6 33.9334 24.2008 20.7246 -12.2564 -2.0789 42.1484
#
#
#
# Elastic Compliance Matrix: (Units=1/GPa)
#
#
# Indices 1 2 3 4 5 6 
#
# 1 0.011186 0.001901 -0.002722 -0.005530 0.006183 -0.010062
# 2 0.001901 0.009974 0.001561 -0.001834 0.006851 -0.008220
# 3 -0.002722 0.001561 0.012646 0.002292 0.003758 -0.004071
# 4 -0.005530 -0.001834 0.002292 0.036973 -0.007630 0.014753
# 5 0.006183 0.006851 0.003758 -0.007630 0.026880 -0.011652
# 6 -0.010062 -0.008220 -0.004071 0.014753 -0.011652 0.042263
#
#
# Mechanical properties :
#
#
# Convention : Reuss Voigt Hill
#
# Bulk Modulus (GPa) = 28.34036 57.47671 42.90854
# Shear Modulus (GPa) = 33.28828 47.74321 40.51574
#
# Velocity S-wave (km/s) = 3.55925 4.26254 3.92667
# Velocity P-wave (km/s) = 5.26082 6.78963 6.07352
#
# Compressibility (1/GPa) = 0.03528536
#
# Stress axis : x y z
#
# Youngs Moduli (GPa) = 89.40078 100.26534 79.07333
#
# Poissons Ratio (x) = -0.19060 0.21524
# Poissons Ratio (y) = -0.16995 -0.12343
# Poissons Ratio (z) = 0.24335 -0.15651
#
# Static dielectric constant tensor:
#      x y z
#    x 1.999280 -0.023610 -0.002840 
#    y -0.023610 2.331380 0.033260 
#    z -0.002840 0.033260 2.007270 
# 
# From -- ./inp_files/12991.got.cif
#   From: 2010.05.17/outbox.cif.g08.bks.cpg/sg2_7_cif.got.tgz:12991.got - 2010.06.03 11:33:40.
