data_PCOD9111677
_publ_section_title
;
Structure prediction by ZEFSAII (Michael W. Deem and Ramdas Pophale) SiO2 
 PCOD9111677
Probable space group: P -1
;
_chemical_formula_sum "Si O2"
_cell_formula_units_Z 12
_cell_length_a 16.655141
_cell_length_b 22.025804
_cell_length_c 12.257671
_cell_angle_alpha 158.312198
_cell_angle_beta 150.692693
_cell_angle_gamma 19.402463
_cell_volume 551.668903
_symmetry_space_group_name_H-M "P -1"
_symmetry_group_IT_number 2
_symmetry_cell_setting 'triclinic'
loop_
_space_group_symop_operation_xyz
x,y,z
-x,-y,-z
loop_
_atom_site_type_symbol
_atom_site_label
_atom_site_fract_x
_atom_site_fract_y
_atom_site_fract_z
Si Si1 0.274773 0.358672 0.608101
Si Si2 0.633008 0.033387 0.286414
Si Si3 0.496989 0.252947 0.924870
Si Si4 0.954620 0.514118 0.095766
Si Si5 0.972931 0.184811 0.203146
Si Si6 0.436541 0.564709 0.208430
O O1 0.468318 0.172813 0.433030
O O2 0.403942 0.228821 0.662316
O O3 0.260397 0.566606 0.945144
O O4 0.000000 0.500000 0.500000
O O5 0.650170 0.189289 0.501025
O O6 0.500000 0.000000 0.000000
O O7 0.890917 0.760314 0.150663
O O8 0.472464 0.460293 0.198197
O O9 0.684782 0.667911 0.066172
O O10 0.769628 0.011257 0.878712
O O11 0.030916 0.631161 0.438132
O O12 0.000000 0.500000 0.000000
O O13 0.705100 0.359009 0.129597
O O14 0.000000 0.000000 0.000000
#
# Coordination Sequence:
#
# PCOD9111677 Si02
#       6
#     2   2   2   2   2   2
#     4  10  22  42  67  98 128 183 230 263 333 412
#     4  12  23  42  68 102 142 169 220 294 342 394
#     4   9  22  43  70  93 135 178 234 265 331 414
#     4  12  25  42  67 100 139 177 225 285 347 386
#     4  10  20  43  68  92 133 181 223 271 329 416
#     4   9  22  41  72  97 133 182 228 272 337 406
#
# _framework density 21.752179999999999
#
# number of rings (size 3 to 8) (size 9 to 14) (size 15 to 20)
#    1.000    0.667    1.667    3.000    0.000    0.667 
#    0.000    3.333    0.000    0.000    0.000    0.000 
#    0.000    0.000    0.000    0.000    0.000    0.000 
#
# Total GULP energy -66849.512494 kJ/mol
# GULP energy per Si atom -5570.792708 kJ/mol
# Density = 2.170267 g / cm^3
# Si number density = 21.752180 Si / 1000 Ang^3
#
#
#
# Elastic Constant Matrix: (Units=GPa)
#
#
# Indices 1 2 3 4 5 6 
#
# 1 104.6214 23.9893 41.2898 6.2186 14.8375 -22.1188
# 2 23.9893 99.6973 31.8090 2.1309 32.7522 -25.5046
# 3 41.2898 31.8090 103.9276 16.5859 38.7656 -12.4750
# 4 6.2186 2.1309 16.5859 33.6526 5.7437 13.3120
# 5 14.8375 32.7522 38.7656 5.7437 42.4594 2.7646
# 6 -22.1188 -25.5046 -12.4750 13.3120 2.7646 39.7356
#
#
#
# Elastic Compliance Matrix: (Units=1/GPa)
#
#
# Indices 1 2 3 4 5 6 
#
# 1 0.012810 0.000886 -0.002737 -0.003916 -0.002674 0.008338
# 2 0.000886 0.019796 0.004372 -0.007502 -0.019759 0.018461
# 3 -0.002737 0.004372 0.020286 -0.011411 -0.020232 0.012882
# 4 -0.003916 -0.007502 -0.011411 0.044758 0.013245 -0.026494
# 5 -0.002674 -0.019759 -0.020232 0.013245 0.058298 -0.029016
# 6 0.008338 0.018461 0.012882 -0.026494 -0.029016 0.056596
#
#
# Mechanical properties :
#
#
# Convention : Reuss Voigt Hill
#
# Bulk Modulus (GPa) = 17.26079 55.82471 36.54275
# Shear Modulus (GPa) = 22.04463 37.24674 29.64569
#
# Velocity S-wave (km/s) = 3.18692 4.14251 3.69573
# Velocity P-wave (km/s) = 4.63620 6.97138 5.92007
#
# Compressibility (1/GPa) = 0.05793478
#
# Stress axis : x y z
#
# Youngs Moduli (GPa) = 78.06241 50.51462 49.29629
#
# Poissons Ratio (x) = -0.04477 0.13494
# Poissons Ratio (y) = -0.06918 -0.21554
# Poissons Ratio (z) = 0.21368 -0.22087
#
# Static dielectric constant tensor:
#      x y z
#    x 1.858590 0.001440 0.020070 
#    y 0.001440 1.724470 -0.021060 
#    z 0.020070 -0.021060 1.810520 
# 
# From -- ./inp_files/467411.got.cif
#   From: 2010.05.17/outbox.cif.g08.bks.cpg/sg2_234_cif.got.tgz:467411.got - 2010.06.03 11:33:40.
