data_PCOD9111237
_publ_section_title
;
Structure prediction by ZEFSAII (Michael W. Deem and Ramdas Pophale) SiO2 
 PCOD9111237
Probable space group: P -1
;
_chemical_formula_sum "Si O2"
_cell_formula_units_Z 14
_cell_length_a 18.447046
_cell_length_b 8.878493
_cell_length_c 11.640785
_cell_angle_alpha 140.970182
_cell_angle_beta 147.582256
_cell_angle_gamma 48.952497
_cell_volume 643.626297
_symmetry_space_group_name_H-M "P -1"
_symmetry_group_IT_number 2
_symmetry_cell_setting 'triclinic'
loop_
_space_group_symop_operation_xyz
x,y,z
-x,-y,-z
loop_
_atom_site_type_symbol
_atom_site_label
_atom_site_fract_x
_atom_site_fract_y
_atom_site_fract_z
Si Si1 0.253737 0.388299 0.441441
Si Si2 0.622815 0.308205 0.044845
Si Si3 0.968912 0.281243 0.104998
Si Si4 0.650230 0.983904 0.250631
Si Si5 0.259596 0.554486 0.953517
Si Si6 0.590924 0.037801 0.474998
Si Si7 0.150056 0.589936 0.215815
O O1 0.315376 0.637165 0.717033
O O2 0.333087 0.160892 0.462542
O O3 0.239387 0.394737 0.288913
O O4 0.110497 0.381482 0.310971
O O5 0.500000 0.500000 0.000000
O O6 0.717750 0.384231 0.112926
O O7 0.563274 0.049794 0.785628
O O8 0.891114 0.377160 0.168573
O O9 0.867644 0.361150 0.913839
O O10 0.000000 0.000000 0.000000
O O11 0.630821 0.013993 0.380703
O O12 0.773097 0.168053 0.497494
O O13 0.705568 0.720082 0.143894
O O14 0.500000 0.000000 0.000000
O O15 0.366454 0.714331 0.264148
O O16 0.000000 0.500000 0.000000
#
# Coordination Sequence:
#
# PCOD9111237 Si02
#       7
#     2   2   2   2   2   2   2
#     4  10  20  42  70  96 138 186 220 294 344 404
#     4  10  21  40  66 102 136 177 232 290 340 415
#     4  11  22  44  72 101 138 183 234 285 344 420
#     4  12  25  45  72 103 143 184 235 295 341 420
#     4  12  24  42  74 104 135 188 234 281 361 410
#     4  11  22  45  70 102 141 177 242 286 349 419
#     4  10  23  44  70  97 145 186 224 294 351 402
#
# _framework density 21.751753000000001
#
# number of rings (size 3 to 8) (size 9 to 14) (size 15 to 20)
#    0.000    1.143    5.714    1.286    2.000    1.143 
#    0.000    4.286    0.000    0.000    0.000    0.000 
#    0.000    0.000    0.000    0.000    0.000    0.000 
#
# Total GULP energy -77953.369673 kJ/mol
# GULP energy per Si atom -5568.097834 kJ/mol
# Density = 2.170224 g / cm^3
# Si number density = 21.751753 Si / 1000 Ang^3
#
#
#
# Elastic Constant Matrix: (Units=GPa)
#
#
# Indices 1 2 3 4 5 6 
#
# 1 82.3318 46.8259 5.0318 -1.7217 -9.8045 4.3567
# 2 46.8259 89.1079 36.5382 2.7901 -8.9129 8.8265
# 3 5.0318 36.5382 105.4109 12.9987 3.5446 12.2314
# 4 -1.7217 2.7901 12.9987 31.3138 13.5510 -10.1685
# 5 -9.8045 -8.9129 3.5446 13.5510 40.0476 -2.7249
# 6 4.3567 8.8265 12.2314 -10.1685 -2.7249 32.4419
#
#
#
# Elastic Compliance Matrix: (Units=1/GPa)
#
#
# Indices 1 2 3 4 5 6 
#
# 1 0.018160 -0.010426 0.002777 -0.000240 0.001923 -0.000563
# 2 -0.010426 0.019684 -0.005976 -0.001707 0.002799 -0.002002
# 3 0.002777 -0.005976 0.012881 -0.006505 0.000027 -0.005640
# 4 -0.000240 -0.001707 -0.006505 0.046291 -0.014421 0.016248
# 5 0.001923 0.002799 0.000027 -0.014421 0.030739 -0.002968
# 6 -0.000563 -0.002002 -0.005640 0.016248 -0.002968 0.038414
#
#
# Mechanical properties :
#
#
# Convention : Reuss Voigt Hill
#
# Bulk Modulus (GPa) = 42.59928 50.40472 46.50200
# Shear Modulus (GPa) = 24.84539 33.32431 29.08485
#
# Velocity S-wave (km/s) = 3.38335 3.91836 3.66064
# Velocity P-wave (km/s) = 5.90674 6.61018 6.26833
#
# Compressibility (1/GPa) = 0.02347458
#
# Stress axis : x y z
#
# Youngs Moduli (GPa) = 55.06660 50.80375 77.63101
#
# Poissons Ratio (x) = 0.52969 -0.21562
# Poissons Ratio (y) = 0.57414 0.46395
# Poissons Ratio (z) = -0.15295 0.30362
#
# Static dielectric constant tensor:
#      x y z
#    x 1.818550 0.063910 0.033560 
#    y 0.063910 1.852060 0.025650 
#    z 0.033560 0.025650 1.934640 
# 
# From -- ./inp_files/470226.got.cif
#   From: 2010.05.17/outbox.cif.g08.bks.cpg/sg2_236_cif.got.tgz:470226.got - 2010.06.03 11:33:40.
