data_PCOD9111203
_publ_section_title
;
Structure prediction by ZEFSAII (Michael W. Deem and Ramdas Pophale) SiO2 
 PCOD9111203
Probable space group: P -1
;
_chemical_formula_sum "Si O2"
_cell_formula_units_Z 16
_cell_length_a 13.880899
_cell_length_b 14.763154
_cell_length_c 10.297026
_cell_angle_alpha 24.608286
_cell_angle_beta 124.015861
_cell_angle_gamma 136.179587
_cell_volume 573.266766
_symmetry_space_group_name_H-M "P -1"
_symmetry_group_IT_number 2
_symmetry_cell_setting 'triclinic'
loop_
_space_group_symop_operation_xyz
x,y,z
-x,-y,-z
loop_
_atom_site_type_symbol
_atom_site_label
_atom_site_fract_x
_atom_site_fract_y
_atom_site_fract_z
Si Si1 0.224794 0.993741 0.563613
Si Si2 0.873460 0.532221 0.238223
Si Si3 0.334435 0.417068 0.859001
Si Si4 0.944016 0.830240 0.463315
Si Si5 0.643357 0.230417 0.225748
Si Si6 0.430872 0.111449 0.769733
Si Si7 0.913042 0.114844 0.749407
Si Si8 0.406200 0.560884 0.323421
O O1 0.270680 0.992842 0.746044
O O2 0.276303 0.845022 0.712390
O O3 0.311691 0.278605 0.165237
O O4 0.051924 0.861802 0.615860
O O5 0.764101 0.480433 0.337792
O O6 0.773025 0.432809 0.161288
O O7 0.919101 0.338409 0.540816
O O8 0.998612 0.857039 0.910969
O O9 0.477159 0.669539 0.566677
O O10 0.255273 0.154372 0.047059
O O11 0.772501 0.643084 0.546116
O O12 0.015182 0.757850 0.501160
O O13 0.500000 0.000000 0.500000
O O14 0.569486 0.318413 0.959054
O O15 0.437977 0.314156 0.635618
O O16 0.429536 0.828512 0.101135
O O17 0.000000 0.000000 0.000000
#
# Coordination Sequence:
#
# PCOD9111203 Si02
#       8
#     2   2   2   2   2   2   2   2
#     4  10  22  48  79 112 144 208 263 313 382 470
#     4  10  22  45  77 115 147 203 265 308 381 468
#     4  10  23  41  77 107 153 206 260 309 374 467
#     4  10  25  50  74 112 152 202 267 316 394 464
#     4  12  25  46  80 116 151 208 266 313 383 478
#     4  12  25  49  68 113 159 200 254 323 398 449
#     4  10  20  42  70 112 152 199 248 325 384 450
#     4  12  31  51  73 114 161 201 256 338 401 457
#
# _framework density 27.910218
#
# number of rings (size 3 to 8) (size 9 to 14) (size 15 to 20)
#    0.000    1.500    3.750    1.875    5.250    4.000 
#    4.500    0.000    0.000    0.000    0.000    0.000 
#    0.000    0.000    0.000    0.000    0.000    0.000 
#
# Total GULP energy -89224.371903 kJ/mol
# GULP energy per Si atom -5576.523244 kJ/mol
# Density = 2.784669 g / cm^3
# Si number density = 27.910218 Si / 1000 Ang^3
#
#
#
# Elastic Constant Matrix: (Units=GPa)
#
#
# Indices 1 2 3 4 5 6 
#
# 1 119.8635 46.8395 52.2839 -20.1435 23.0255 34.9661
# 2 46.8395 236.4745 87.9276 -7.9710 18.0695 31.6242
# 3 52.2839 87.9276 116.1542 -8.5705 32.7031 23.6333
# 4 -20.1435 -7.9710 -8.5705 60.5775 4.6912 15.5845
# 5 23.0255 18.0695 32.7031 4.6912 64.1352 -3.9775
# 6 34.9661 31.6242 23.6333 15.5845 -3.9775 52.9417
#
#
#
# Elastic Compliance Matrix: (Units=1/GPa)
#
#
# Indices 1 2 3 4 5 6 
#
# 1 0.015306 0.000167 -0.002349 0.008317 -0.005699 -0.012037
# 2 0.000167 0.006058 -0.004253 0.000758 0.000220 -0.002038
# 3 -0.002349 -0.004253 0.015705 0.002436 -0.006400 -0.004117
# 4 0.008317 0.000758 0.002436 0.024036 -0.007108 -0.014643
# 5 -0.005699 0.000220 -0.006400 -0.007108 0.021995 0.010235
# 6 -0.012037 -0.002038 -0.004117 -0.014643 0.010235 0.034973
#
#
# Mechanical properties :
#
#
# Convention : Reuss Voigt Hill
#
# Bulk Modulus (GPa) = 41.32020 94.06600 67.69310
# Shear Modulus (GPa) = 35.96910 54.56029 45.26469
#
# Velocity S-wave (km/s) = 3.59380 4.42617 4.03152
# Velocity P-wave (km/s) = 5.66192 7.73935 6.78067
#
# Compressibility (1/GPa) = 0.02420124
#
# Stress axis : x y z
#
# Youngs Moduli (GPa) = 65.33385 165.06718 63.67342
#
# Poissons Ratio (x) = -0.02760 0.14955
# Poissons Ratio (y) = -0.01092 0.27078
# Poissons Ratio (z) = 0.15345 0.70196
#
# Static dielectric constant tensor:
#      x y z
#    x 2.396550 -0.052910 0.098680 
#    y -0.052910 2.486310 -0.162030 
#    z 0.098680 -0.162030 2.542710 
# 
# From -- ./inp_files/534979.got.cif
#   From: 2010.05.17/outbox.cif.g08.bks.cpg/sg2_268_cif.got.tgz:534979.got - 2010.06.03 11:33:40.
