data_PCOD9111137
_publ_section_title
;
Structure prediction by ZEFSAII (Michael W. Deem and Ramdas Pophale) SiO2 
 PCOD9111137
Probable space group: P -1
;
_chemical_formula_sum "Si O2"
_cell_formula_units_Z 16
_cell_length_a 18.838759
_cell_length_b 20.091225
_cell_length_c 9.197407
_cell_angle_alpha 48.596792
_cell_angle_beta 149.231229
_cell_angle_gamma 153.067262
_cell_volume 719.611861
_symmetry_space_group_name_H-M "P -1"
_symmetry_group_IT_number 2
_symmetry_cell_setting 'triclinic'
loop_
_space_group_symop_operation_xyz
x,y,z
-x,-y,-z
loop_
_atom_site_type_symbol
_atom_site_label
_atom_site_fract_x
_atom_site_fract_y
_atom_site_fract_z
Si Si1 0.587926 0.754311 0.871437
Si Si2 0.380521 0.533841 0.344034
Si Si3 0.283972 0.998708 0.730814
Si Si4 0.851322 0.225212 0.371240
Si Si5 0.134994 0.479351 0.259210
Si Si6 0.872608 0.781881 0.551541
Si Si7 0.117973 0.111739 0.291490
Si Si8 0.805417 0.469096 0.262539
O O1 0.409188 0.629891 0.604826
O O2 0.391465 0.684138 0.750230
O O3 0.713843 0.739173 0.200386
O O4 0.825786 0.943011 0.966914
O O5 0.187410 0.481440 0.185455
O O6 0.283135 0.381416 0.410746
O O7 0.674488 0.706343 0.664491
O O8 0.345590 0.563303 0.085774
O O9 0.253941 0.089037 0.543542
O O10 0.171152 0.890807 0.541718
O O11 0.574176 0.118439 0.073652
O O12 0.132559 0.892619 0.766659
O O13 0.953053 0.316889 0.264047
O O14 0.045769 0.372183 0.618077
O O15 0.000000 0.500000 0.000000
O O16 0.921145 0.879745 0.621532
O O17 0.000000 0.500000 0.500000
#
# Coordination Sequence:
#
# PCOD9111137 Si02
#       8
#     2   2   2   2   2   2   2   2
#     4  10  23  42  69  94 125 180 221 262 330 401
#     4  12  24  42  66  99 138 170 215 287 333 380
#     4  10  20  42  69  94 130 180 224 275 324 392
#     4  10  22  41  68  95 131 179 228 266 329 402
#     4  11  23  44  66  97 135 171 219 277 331 394
#     4  11  23  42  68 101 135 171 219 278 338 391
#     4  11  23  41  68  98 133 173 225 275 325 401
#     4  11  23  40  68  98 129 181 226 264 332 403
#
# _framework density 22.234209
#
# number of rings (size 3 to 8) (size 9 to 14) (size 15 to 20)
#    0.000    1.250    2.500    4.875    1.750    1.000 
#    2.250    4.375    0.000    0.000    0.000    0.000 
#    0.000    0.000    0.000    0.000    0.000    0.000 
#
# Total GULP energy -89344.599844 kJ/mol
# GULP energy per Si atom -5584.037490 kJ/mol
# Density = 2.218360 g / cm^3
# Si number density = 22.234209 Si / 1000 Ang^3
#
#
#
# Elastic Constant Matrix: (Units=GPa)
#
#
# Indices 1 2 3 4 5 6 
#
# 1 137.4881 23.6094 21.4978 10.2230 21.9102 -11.0042
# 2 23.6094 92.8587 4.1508 25.8518 10.6748 -2.7168
# 3 21.4978 4.1508 44.1021 12.7343 14.3867 -1.5802
# 4 10.2230 25.8518 12.7343 21.5821 20.1986 10.7318
# 5 21.9102 10.6748 14.3867 20.1986 20.9354 1.3042
# 6 -11.0042 -2.7168 -1.5802 10.7318 1.3042 44.3983
#
#
#
# Elastic Compliance Matrix: (Units=1/GPa)
#
#
# Indices 1 2 3 4 5 6 
#
# 1 0.006895 0.003560 -0.001249 -0.024194 0.014714 0.007298
# 2 0.003560 0.001613 0.000471 0.050388 -0.052887 -0.009628
# 3 -0.001249 0.000471 0.029684 0.004515 -0.023711 0.000381
# 4 -0.024194 0.050388 0.004515 -0.251813 0.236287 0.051174
# 5 0.014714 -0.052887 -0.023711 0.236287 -0.149032 -0.053170
# 6 0.007298 -0.009628 0.000381 0.051174 -0.053170 0.012949
#
#
# Mechanical properties :
#
#
# Convention : Reuss Voigt Hill
#
# Bulk Modulus (GPa) = 22.85369 41.44053 32.14711
# Shear Modulus (GPa) = -14.67646 32.39589 8.85972
#
# Velocity S-wave (km/s) = -2.57200 3.82125 1.99834
# Velocity P-wave (km/s) = 1.21684 6.17640 4.45132
#
# Compressibility (1/GPa) = 0.04375661
#
# Stress axis : x y z
#
# Youngs Moduli (GPa) = 145.02244 620.05071 33.68814
#
# Poissons Ratio (x) = -2.20757 0.04207
# Poissons Ratio (y) = -0.51632 -0.01586
# Poissons Ratio (z) = 0.18111 -0.29185
#
# Static dielectric constant tensor:
#      x y z
#    x 1.849780 -0.033130 -0.001430 
#    y -0.033130 1.913970 0.065480 
#    z -0.001430 0.065480 1.824540 
# 
# From -- ./inp_files/337197.got.cif
#   From: 2010.05.17/outbox.cif.g08.bks.cpg/sg2_169_cif.got.tgz:337197.got - 2010.06.03 11:33:40.
