data_PCOD9111868
_publ_section_title
;
Structure prediction by ZEFSAII (Michael W. Deem and Ramdas Pophale) SiO2 
 PCOD9111868
Probable space group: P -1
;
_chemical_formula_sum "Si O2"
_cell_formula_units_Z 16
_cell_length_a 11.136510
_cell_length_b 9.422756
_cell_length_c 17.476766
_cell_angle_alpha 97.901050
_cell_angle_beta 53.224110
_cell_angle_gamma 139.886219
_cell_volume 741.984535
_symmetry_space_group_name_H-M "P -1"
_symmetry_group_IT_number 2
_symmetry_cell_setting 'triclinic'
loop_
_space_group_symop_operation_xyz
x,y,z
-x,-y,-z
loop_
_atom_site_type_symbol
_atom_site_label
_atom_site_fract_x
_atom_site_fract_y
_atom_site_fract_z
Si Si1 0.695803 0.784087 0.639782
Si Si2 0.814508 0.459480 0.677335
Si Si3 0.847631 0.869581 0.208877
Si Si4 0.663697 0.773041 0.828926
Si Si5 0.644550 0.272902 0.963529
Si Si6 0.735989 0.121974 0.588392
Si Si7 0.648518 0.783291 0.065413
Si Si8 0.817539 0.182434 0.282364
O O1 0.453299 0.463368 0.696332
O O2 0.746563 0.835135 0.714464
O O3 0.607077 0.866058 0.646291
O O4 0.000000 0.000000 0.500000
O O5 0.795583 0.276682 0.648764
O O6 0.491212 0.252920 0.809381
O O7 0.968357 0.654554 0.558342
O O8 0.027103 0.668206 0.683533
O O9 0.825390 0.021531 0.244026
O O10 0.054099 0.981009 0.206713
O O11 0.016522 0.967739 0.071922
O O12 0.502537 0.495664 0.896090
O O13 0.437146 0.714344 0.926635
O O14 0.490194 0.237928 0.952381
O O15 0.984712 0.565324 0.834633
O O16 0.500000 0.000000 0.000000
O O17 0.507245 0.020764 0.614914
#
# Coordination Sequence:
#
# PCOD9111868 Si02
#       8
#     2   2   2   2   2   2   2   2
#     4  12  31  46  65 100 142 181 233 281 333 403
#     4  10  23  45  73  94 139 178 221 284 338 400
#     4  11  24  45  73 104 129 181 232 280 337 408
#     4  11  22  46  70  96 140 180 226 277 340 407
#     4  10  21  37  69 105 137 173 219 288 342 395
#     4  11  27  45  65 103 136 179 229 275 337 409
#     4  10  20  43  73 100 131 177 231 274 339 409
#     4  11  23  43  74 102 132 178 230 273 346 408
#
# _framework density 21.563793
#
# number of rings (size 3 to 8) (size 9 to 14) (size 15 to 20)
#    0.000    1.250    3.750    1.875   12.250    2.000 
#    0.000    1.250    0.000    0.000    0.000    0.000 
#    0.000    0.000    0.000    0.000    0.000    0.000 
#
# Total GULP energy -89429.222055 kJ/mol
# GULP energy per Si atom -5589.326378 kJ/mol
# Density = 2.151471 g / cm^3
# Si number density = 21.563793 Si / 1000 Ang^3
#
#
#
# Elastic Constant Matrix: (Units=GPa)
#
#
# Indices 1 2 3 4 5 6 
#
# 1 57.3266 27.5201 29.7173 1.4503 -4.8905 -5.2443
# 2 27.5201 126.1138 76.6958 8.0269 7.0789 -3.9543
# 3 29.7173 76.6958 175.0087 -4.1125 -3.7470 -8.2532
# 4 1.4503 8.0269 -4.1125 31.2725 -0.7939 2.4713
# 5 -4.8905 7.0789 -3.7470 -0.7939 29.0524 -2.7208
# 6 -5.2443 -3.9543 -8.2532 2.4713 -2.7208 35.1051
#
#
#
# Elastic Compliance Matrix: (Units=1/GPa)
#
#
# Indices 1 2 3 4 5 6 
#
# 1 0.020693 -0.003608 -0.001723 -0.000358 0.004378 0.002644
# 2 -0.003608 0.012176 -0.004922 -0.003684 -0.004347 -0.000402
# 3 -0.001723 -0.004922 0.008320 0.002402 0.002155 0.001142
# 4 -0.000358 -0.003684 0.002402 0.033469 0.001864 -0.002115
# 5 0.004378 -0.004347 0.002155 0.001864 0.036864 0.003397
# 6 0.002644 -0.000402 0.001142 -0.002115 0.003397 0.029516
#
#
# Mechanical properties :
#
#
# Convention : Reuss Voigt Hill
#
# Bulk Modulus (GPa) = 48.34645 69.59061 58.96853
# Shear Modulus (GPa) = 29.68441 34.05371 31.86906
#
# Velocity S-wave (km/s) = 3.71426 3.97824 3.84851
# Velocity P-wave (km/s) = 6.39243 7.31053 6.86684
#
# Compressibility (1/GPa) = 0.02068404
#
# Stress axis : x y z
#
# Youngs Moduli (GPa) = 48.32439 82.13033 120.19382
#
# Poissons Ratio (x) = 0.29634 0.20705
# Poissons Ratio (y) = 0.17436 0.59157
# Poissons Ratio (z) = 0.08324 0.40423
#
# Static dielectric constant tensor:
#      x y z
#    x 1.810920 0.021420 -0.027440 
#    y 0.021420 1.812000 0.001580 
#    z -0.027440 0.001580 1.827580 
# 
# From -- ./inp_files/566772.got.cif
#   From: 2010.05.17/outbox.cif.g08.bks.cpg/sg2_284_cif.got.tgz:566772.got - 2010.06.03 11:33:40.
