data_PCOD9111444
_publ_section_title
;
Structure prediction by ZEFSAII (Michael W. Deem and Ramdas Pophale) SiO2 
 PCOD9111444
Probable space group: P -1
;
_chemical_formula_sum "Si O2"
_cell_formula_units_Z 12
_cell_length_a 10.870031
_cell_length_b 12.780478
_cell_length_c 8.460072
_cell_angle_alpha 53.165550
_cell_angle_beta 108.604829
_cell_angle_gamma 144.259556
_cell_volume 512.961212
_symmetry_space_group_name_H-M "P -1"
_symmetry_group_IT_number 2
_symmetry_cell_setting 'triclinic'
loop_
_space_group_symop_operation_xyz
x,y,z
-x,-y,-z
loop_
_atom_site_type_symbol
_atom_site_label
_atom_site_fract_x
_atom_site_fract_y
_atom_site_fract_z
Si Si1 0.441638 0.008128 0.797038
Si Si2 0.734386 0.562877 0.180783
Si Si3 0.920424 0.184847 0.391162
Si Si4 0.324029 0.397050 0.210959
Si Si5 0.121858 0.482006 0.480902
Si Si6 0.508493 0.807896 0.797287
O O1 0.198036 0.859716 0.776365
O O2 0.495634 0.935990 0.760587
O O3 0.614596 0.270349 0.623045
O O4 0.500000 0.000000 0.000000
O O5 0.503316 0.430929 0.277791
O O6 0.912186 0.678260 0.284682
O O7 0.693588 0.391457 0.227392
O O8 0.771406 0.687692 0.932260
O O9 0.112118 0.237871 0.381601
O O10 0.045628 0.402034 0.343102
O O11 0.726890 0.981846 0.617651
O O12 0.469092 0.653006 0.039147
O O13 0.000000 0.500000 0.500000
#
# Coordination Sequence:
#
# PCOD9111444 Si02
#       6
#     2   2   2   2   2   2
#     4  12  25  41  64  99 132 164 223 267 315 396
#     4   9  21  45  64  93 136 164 216 276 305 383
#     4  12  24  40  69  96 127 179 209 263 334 377
#     4   9  22  42  68  93 132 171 215 268 315 379
#     4  12  24  41  68  95 130 172 209 267 330 374
#     4  10  20  43  63  93 132 162 215 266 312 384
#
# _framework density 23.393581000000001
#
# number of rings (size 3 to 8) (size 9 to 14) (size 15 to 20)
#    1.000    0.333    3.333    2.500    2.333    2.667 
#    0.000    0.833    0.000    0.000    0.000    0.000 
#    0.000    0.000    0.000    0.000    0.000    0.000 
#
# Total GULP energy -66886.025754 kJ/mol
# GULP energy per Si atom -5573.835479 kJ/mol
# Density = 2.334034 g / cm^3
# Si number density = 23.393581 Si / 1000 Ang^3
#
#
#
# Elastic Constant Matrix: (Units=GPa)
#
#
# Indices 1 2 3 4 5 6 
#
# 1 102.2589 16.0378 15.0474 -0.5326 -10.0002 18.6728
# 2 16.0378 88.3008 13.7909 24.9449 8.5759 -8.0362
# 3 15.0474 13.7909 63.8879 11.2634 5.9356 12.0659
# 4 -0.5326 24.9449 11.2634 34.3783 2.9899 7.8113
# 5 -10.0002 8.5759 5.9356 2.9899 36.5302 -1.2866
# 6 18.6728 -8.0362 12.0659 7.8113 -1.2866 29.8751
#
#
#
# Elastic Compliance Matrix: (Units=1/GPa)
#
#
# Indices 1 2 3 4 5 6 
#
# 1 0.013265 -0.005465 -0.001497 0.006733 0.004229 -0.010735
# 2 -0.005465 0.018613 -0.002126 -0.015561 -0.003782 0.013187
# 3 -0.001497 -0.002126 0.018452 -0.002800 -0.002908 -0.006482
# 4 0.006733 -0.015561 -0.002800 0.045612 0.001545 -0.019123
# 5 0.004229 -0.003782 -0.002908 0.001545 0.029709 -0.001610
# 6 -0.010735 0.013187 -0.006482 -0.019123 -0.001610 0.051278
#
#
# Mechanical properties :
#
#
# Convention : Reuss Voigt Hill
#
# Bulk Modulus (GPa) = 31.10125 38.24442 34.67284
# Shear Modulus (GPa) = 24.29248 34.12816 29.21032
#
# Velocity S-wave (km/s) = 3.22596 3.82366 3.53745
# Velocity P-wave (km/s) = 5.21530 5.98979 5.61591
#
# Compressibility (1/GPa) = 0.03215304
#
# Stress axis : x y z
#
# Youngs Moduli (GPa) = 75.38420 53.72530 54.19471
#
# Poissons Ratio (x) = 0.29362 0.08113
# Poissons Ratio (y) = 0.41200 0.11524
# Poissons Ratio (z) = 0.11286 0.11424
#
# Static dielectric constant tensor:
#      x y z
#    x 1.854910 -0.015700 0.012350 
#    y -0.015700 1.928740 -0.017240 
#    z 0.012350 -0.017240 2.071180 
# 
# From -- ./inp_files/236552.got.cif
#   From: 2010.05.17/outbox.cif.g08.bks.cpg/sg2_119_cif.got.tgz:236552.got - 2010.06.03 11:33:40.
