data_PCOD9111844
_publ_section_title
;
Structure prediction by ZEFSAII (Michael W. Deem and Ramdas Pophale) SiO2 
 PCOD9111844
Probable space group: P -1
;
_chemical_formula_sum "Si O2"
_cell_formula_units_Z 16
_cell_length_a 10.657826
_cell_length_b 18.802520
_cell_length_c 8.209740
_cell_angle_alpha 43.397724
_cell_angle_beta 42.922691
_cell_angle_gamma 46.567167
_cell_volume 726.056773
_symmetry_space_group_name_H-M "P -1"
_symmetry_group_IT_number 2
_symmetry_cell_setting 'triclinic'
loop_
_space_group_symop_operation_xyz
x,y,z
-x,-y,-z
loop_
_atom_site_type_symbol
_atom_site_label
_atom_site_fract_x
_atom_site_fract_y
_atom_site_fract_z
Si Si1 0.019666 0.304046 0.932177
Si Si2 0.819828 0.563797 0.186047
Si Si3 0.735533 0.192064 0.082732
Si Si4 0.543803 0.049808 0.044490
Si Si5 0.322775 0.563167 0.183802
Si Si6 0.830489 0.117859 0.462449
Si Si7 0.395201 0.224955 0.123060
Si Si8 0.183757 0.167597 0.705935
O O1 0.097862 0.359920 0.906083
O O2 0.177289 0.233759 0.769471
O O3 0.867761 0.398899 0.812802
O O4 0.914562 0.217594 0.231755
O O5 0.729988 0.495271 0.509469
O O6 0.645286 0.652919 0.106495
O O7 0.000000 0.500000 0.000000
O O8 0.723008 0.133245 0.363343
O O9 0.607113 0.171559 0.094152
O O10 0.652193 0.322617 0.975544
O O11 0.968159 0.161705 0.888418
O O12 0.683973 0.117491 0.744526
O O13 0.371187 0.139284 0.153662
O O14 0.500000 0.000000 0.000000
O O15 0.660198 0.951151 0.215586
O O16 0.500000 0.500000 0.000000
O O17 0.000000 0.000000 0.500000
O O18 0.241302 0.230943 0.400621
#
# Coordination Sequence:
#
# PCOD9111844 Si02
#       8
#     2   2   2   2   2   2   2   2
#     4  10  23  44  75  96 135 185 231 284 357 430
#     4  12  27  46  69 103 140 188 238 296 359 414
#     4  10  24  45  67 101 143 179 232 291 352 422
#     4  12  24  42  69 100 138 187 236 279 352 426
#     4  10  24  43  71  99 132 185 238 295 352 408
#     4  10  20  43  72 101 133 185 229 283 348 423
#     4  12  28  41  69 105 141 180 237 298 342 426
#     4  10  22  47  65  98 143 183 227 287 360 414
#
# _framework density 22.036843999999999
#
# number of rings (size 3 to 8) (size 9 to 14) (size 15 to 20)
#    0.000    1.500    2.500    3.750    7.000    3.000 
#    0.000    0.000    0.000    0.000    0.000    0.000 
#    0.000    0.000    0.000    0.000    0.000    0.000 
#
# Total GULP energy -89408.606703 kJ/mol
# GULP energy per Si atom -5588.037919 kJ/mol
# Density = 2.198669 g / cm^3
# Si number density = 22.036844 Si / 1000 Ang^3
#
#
#
# Elastic Constant Matrix: (Units=GPa)
#
#
# Indices 1 2 3 4 5 6 
#
# 1 73.6926 16.6790 7.0246 -4.7293 10.9173 3.1291
# 2 16.6790 105.3560 32.3373 -7.2722 10.8536 -2.6625
# 3 7.0246 32.3373 130.4520 -9.9443 23.6813 -3.8228
# 4 -4.7293 -7.2722 -9.9443 31.4711 -9.7469 14.0028
# 5 10.9173 10.8536 23.6813 -9.7469 19.7500 -8.4632
# 6 3.1291 -2.6625 -3.8228 14.0028 -8.4632 34.0824
#
#
#
# Elastic Compliance Matrix: (Units=1/GPa)
#
#
# Indices 1 2 3 4 5 6 
#
# 1 0.015735 -0.001881 0.001557 0.001061 -0.010968 -0.004576
# 2 -0.001881 0.010702 -0.002150 0.000989 -0.001814 -0.000089
# 3 0.001557 -0.002150 0.010449 0.000022 -0.013241 -0.002436
# 4 0.001061 0.000989 0.000022 0.042762 0.013889 -0.014138
# 5 -0.010968 -0.001814 -0.013241 0.013889 0.086966 0.015269
# 6 -0.004576 -0.000089 -0.002436 -0.014138 0.015269 0.039080
#
#
# Mechanical properties :
#
#
# Convention : Reuss Voigt Hill
#
# Bulk Modulus (GPa) = 31.31128 46.84247 39.07687
# Shear Modulus (GPa) = 22.59503 33.95803 28.27653
#
# Velocity S-wave (km/s) = 3.20555 3.92977 3.58599
# Velocity P-wave (km/s) = 5.28585 6.47251 5.90904
#
# Compressibility (1/GPa) = 0.03193738
#
# Stress axis : x y z
#
# Youngs Moduli (GPa) = 63.55441 93.43950 95.70696
#
# Poissons Ratio (x) = 0.17579 -0.14901
# Poissons Ratio (y) = 0.11957 0.20572
# Poissons Ratio (z) = -0.09895 0.20085
#
# Static dielectric constant tensor:
#      x y z
#    x 1.938160 0.079990 0.088130 
#    y 0.079990 1.928170 0.098580 
#    z 0.088130 0.098580 1.888150 
# 
# From -- ./inp_files/282679.got.cif
#   From: 2010.05.17/outbox.cif.g08.bks.cpg/sg2_142_cif.got.tgz:282679.got - 2010.06.03 11:33:40.
