data_PCOD9111854
_publ_section_title
;
Structure prediction by ZEFSAII (Michael W. Deem and Ramdas Pophale) SiO2 
 PCOD9111854
Probable space group: P -1
;
_chemical_formula_sum "Si O2"
_cell_formula_units_Z 14
_cell_length_a 8.326207
_cell_length_b 11.610707
_cell_length_c 13.483189
_cell_angle_alpha 43.514141
_cell_angle_beta 57.691638
_cell_angle_gamma 39.706705
_cell_volume 572.545834
_symmetry_space_group_name_H-M "P -1"
_symmetry_group_IT_number 2
_symmetry_cell_setting 'triclinic'
loop_
_space_group_symop_operation_xyz
x,y,z
-x,-y,-z
loop_
_atom_site_type_symbol
_atom_site_label
_atom_site_fract_x
_atom_site_fract_y
_atom_site_fract_z
Si Si1 0.010320 0.542064 0.357030
Si Si2 0.279029 0.263324 0.270478
Si Si3 0.802315 0.008981 0.148480
Si Si4 0.456215 0.193408 0.959553
Si Si5 0.096964 0.177641 0.215035
Si Si6 0.517174 0.671111 0.337990
Si Si7 0.783924 0.351260 0.036252
O O1 0.753671 0.630964 0.333143
O O2 0.000000 0.500000 0.500000
O O3 0.235162 0.316868 0.367214
O O4 0.003026 0.747177 0.230346
O O5 0.569038 0.087876 0.248888
O O6 0.129408 0.200386 0.305496
O O7 0.146206 0.510075 0.118019
O O8 0.909285 0.115788 0.094427
O O9 0.660391 0.118435 0.022901
O O10 0.443511 0.340543 0.786602
O O11 0.228691 0.258194 0.063502
O O12 0.500000 0.000000 0.000000
O O13 0.832661 0.314857 0.160070
O O14 0.267045 0.919615 0.293662
O O15 0.500000 0.500000 0.500000
O O16 0.500000 0.500000 0.000000
#
# Coordination Sequence:
#
# PCOD9111854 Si02
#       7
#     2   2   2   2   2   2   2
#     4  12  26  43  68  96 137 185 223 275 349 408
#     4  10  22  44  70  95 130 182 225 273 343 403
#     4  10  22  44  67 104 136 167 233 287 334 397
#     4   9  17  39  70  92 129 179 219 274 329 398
#     4  10  20  43  72  93 138 178 225 282 334 403
#     4  11  24  42  66 103 137 179 232 274 335 407
#     4  10  22  36  66 108 131 163 225 290 336 390
#
# _framework density 24.452190000000002
#
# number of rings (size 3 to 8) (size 9 to 14) (size 15 to 20)
#    0.000    1.714    4.286    1.286    4.000    4.571 
#    0.000    2.143    0.000    0.000    0.000    0.000 
#    0.000    0.000    0.000    0.000    0.000    0.000 
#
# Total GULP energy -78257.112507 kJ/mol
# GULP energy per Si atom -5589.793751 kJ/mol
# Density = 2.439654 g / cm^3
# Si number density = 24.452190 Si / 1000 Ang^3
#
#
#
# Elastic Constant Matrix: (Units=GPa)
#
#
# Indices 1 2 3 4 5 6 
#
# 1 55.6303 26.5841 16.1112 1.3482 9.1750 25.5477
# 2 26.5841 130.5291 31.0563 18.5592 7.1755 19.7899
# 3 16.1112 31.0563 123.6540 6.2056 11.7740 18.8543
# 4 1.3482 18.5592 6.2056 38.8741 19.4290 5.2396
# 5 9.1750 7.1755 11.7740 19.4290 36.3634 0.4547
# 6 25.5477 19.7899 18.8543 5.2396 0.4547 43.3015
#
#
#
# Elastic Compliance Matrix: (Units=1/GPa)
#
#
# Indices 1 2 3 4 5 6 
#
# 1 0.028911 -0.004128 0.000363 0.008591 -0.010984 -0.016253
# 2 -0.004128 0.009634 -0.001772 -0.005399 0.002606 -0.000570
# 3 0.000363 -0.001772 0.009294 0.001622 -0.003573 -0.003610
# 4 0.008591 -0.005399 0.001622 0.040357 -0.023090 -0.007948
# 5 -0.010984 0.002606 -0.003573 -0.023090 0.043136 0.009186
# 6 -0.016253 -0.000570 -0.003610 -0.007948 0.009186 0.035381
#
#
# Mechanical properties :
#
#
# Convention : Reuss Voigt Hill
#
# Bulk Modulus (GPa) = 27.20000 50.81297 39.00649
# Shear Modulus (GPa) = 26.30998 39.44526 32.87762
#
# Velocity S-wave (km/s) = 3.28377 4.02077 3.67081
# Velocity P-wave (km/s) = 5.05227 6.51008 5.82694
#
# Compressibility (1/GPa) = 0.03676470
#
# Stress axis : x y z
#
# Youngs Moduli (GPa) = 34.58926 103.79554 107.59562
#
# Poissons Ratio (x) = 0.42846 -0.03904
# Poissons Ratio (y) = 0.14278 0.19067
# Poissons Ratio (z) = -0.01255 0.18394
#
# Static dielectric constant tensor:
#      x y z
#    x 1.987550 -0.002630 -0.014340 
#    y -0.002630 2.061270 0.011020 
#    z -0.014340 0.011020 1.977670 
# 
# From -- ./inp_files/391974.got.cif
#   From: 2010.05.17/outbox.cif.g08.bks.cpg/sg2_196_cif.got.tgz:391974.got - 2010.06.03 11:33:40.
