data_PCOD9111152
_publ_section_title
;
Structure prediction by ZEFSAII (Michael W. Deem and Ramdas Pophale) SiO2 
 PCOD9111152
Probable space group: P -1
;
_chemical_formula_sum "Si O2"
_cell_formula_units_Z 16
_cell_length_a 20.526970
_cell_length_b 8.010802
_cell_length_c 5.368955
_cell_angle_alpha 60.823395
_cell_angle_beta 103.943882
_cell_angle_gamma 126.444295
_cell_volume 618.604006
_symmetry_space_group_name_H-M "P -1"
_symmetry_group_IT_number 2
_symmetry_cell_setting 'triclinic'
loop_
_space_group_symop_operation_xyz
x,y,z
-x,-y,-z
loop_
_atom_site_type_symbol
_atom_site_label
_atom_site_fract_x
_atom_site_fract_y
_atom_site_fract_z
Si Si1 0.290662 0.986756 0.832405
Si Si2 0.926145 0.940488 0.802855
Si Si3 0.592762 0.600822 0.605469
Si Si4 0.771473 0.756834 0.119840
Si Si5 0.431948 0.143454 0.183125
Si Si6 0.978416 0.577148 0.673379
Si Si7 0.824590 0.505755 0.725478
Si Si8 0.390689 0.667973 0.650194
O O1 0.315059 0.156320 0.501334
O O2 0.247176 0.066444 0.915304
O O3 0.241008 0.714550 0.014448
O O4 0.383986 0.093861 0.919995
O O5 0.891606 0.694253 0.834030
O O6 0.848298 0.894605 0.911675
O O7 0.963141 0.143920 0.488425
O O8 0.000000 0.000000 0.000000
O O9 0.500000 0.500000 0.500000
O O10 0.576696 0.673755 0.811422
O O11 0.606178 0.438400 0.539175
O O12 0.792347 0.632130 0.444130
O O13 0.684890 0.531148 0.115314
O O14 0.525308 0.229551 0.197304
O O15 0.386151 0.888931 0.450516
O O16 0.882257 0.465769 0.640980
O O17 0.000000 0.500000 0.500000
O O18 0.000000 0.500000 0.000000
#
# Coordination Sequence:
#
# PCOD9111152 Si02
#       8
#     2   2   2   2   2   2   2   2
#     4  11  25  43  71 107 145 200 256 312 393 459
#     4  12  27  50  78 110 151 204 254 326 408 486
#     4   9  21  40  65  98 139 190 254 309 376 459
#     4  11  25  46  71 107 151 192 256 318 398 464
#     4  10  20  42  69  96 150 195 249 318 379 461
#     4  12  28  51  84 116 154 209 266 328 411 495
#     4  12  27  46  76 108 156 188 260 325 392 487
#     4   9  20  41  68 102 145 196 254 314 384 463
#
# _framework density 25.864688999999998
#
# number of rings (size 3 to 8) (size 9 to 14) (size 15 to 20)
#    0.000    1.250    2.500    1.875    5.250    6.500 
#    0.000    6.875    0.000    0.000    0.000    0.000 
#    0.000    0.000    0.000    0.000    0.000    0.000 
#
# Total GULP energy -89301.029045 kJ/mol
# GULP energy per Si atom -5581.314315 kJ/mol
# Density = 2.580582 g / cm^3
# Si number density = 25.864689 Si / 1000 Ang^3
#
#
#
# Elastic Constant Matrix: (Units=GPa)
#
#
# Indices 1 2 3 4 5 6 
#
# 1 89.3667 18.2795 39.8567 -8.4777 0.7398 17.7543
# 2 18.2795 122.9900 53.3260 -35.9253 -5.6792 15.6581
# 3 39.8567 53.3260 111.7661 -40.6608 -9.3917 9.3629
# 4 -8.4777 -35.9253 -40.6608 53.2111 4.4336 -8.0976
# 5 0.7398 -5.6792 -9.3917 4.4336 34.9956 -12.6312
# 6 17.7543 15.6581 9.3629 -8.0976 -12.6312 45.1655
#
#
#
# Elastic Compliance Matrix: (Units=1/GPa)
#
#
# Indices 1 2 3 4 5 6 
#
# 1 0.014952 0.000297 -0.006320 -0.002879 -0.003861 -0.006266
# 2 0.000297 0.011315 -0.003698 0.004514 -0.000693 -0.002657
# 3 -0.006320 -0.003698 0.016359 0.009146 0.003884 0.003101
# 4 -0.002879 0.004514 0.009146 0.028773 0.000694 0.003024
# 5 -0.003861 -0.000693 0.003884 0.000694 0.033243 0.010374
# 6 -0.006266 -0.002657 0.003101 0.003024 0.010374 0.028326
#
#
# Mechanical properties :
#
#
# Convention : Reuss Voigt Hill
#
# Bulk Modulus (GPa) = 43.13529 60.78302 51.95915
# Shear Modulus (GPa) = 31.22308 40.85181 36.03745
#
# Velocity S-wave (km/s) = 3.47820 3.97853 3.73675
# Velocity P-wave (km/s) = 5.73097 6.68254 6.22497
#
# Compressibility (1/GPa) = 0.02318287
#
# Stress axis : x y z
#
# Youngs Moduli (GPa) = 66.88205 88.37993 61.12764
#
# Poissons Ratio (x) = -0.02622 0.38635
# Poissons Ratio (y) = -0.01984 0.22603
# Poissons Ratio (z) = 0.42272 0.32680
#
# Static dielectric constant tensor:
#      x y z
#    x 2.191480 -0.049300 0.515210 
#    y -0.049300 2.084930 -0.257160 
#    z 0.515210 -0.257160 6.089400 
# 
# From -- ./inp_files/116676.got.cif
#   From: 2010.05.17/outbox.cif.g08.bks.cpg/sg2_59_cif.got.tgz:116676.got - 2010.06.03 11:33:40.
