data_PCOD9111818
_publ_section_title
;
Structure prediction by ZEFSAII (Michael W. Deem and Ramdas Pophale) SiO2 
 PCOD9111818
Probable space group: P -1
;
_chemical_formula_sum "Si O2"
_cell_formula_units_Z 16
_cell_length_a 8.790878
_cell_length_b 10.408474
_cell_length_c 20.205903
_cell_angle_alpha 147.359854
_cell_angle_beta 135.066054
_cell_angle_gamma 40.450396
_cell_volume 634.948982
_symmetry_space_group_name_H-M "P -1"
_symmetry_group_IT_number 2
_symmetry_cell_setting 'triclinic'
loop_
_space_group_symop_operation_xyz
x,y,z
-x,-y,-z
loop_
_atom_site_type_symbol
_atom_site_label
_atom_site_fract_x
_atom_site_fract_y
_atom_site_fract_z
Si Si1 0.726595 0.961528 0.455885
Si Si2 0.753470 0.140384 0.026108
Si Si3 0.051421 0.468803 0.424853
Si Si4 0.945964 0.340748 0.696802
Si Si5 0.550729 0.258011 0.793137
Si Si6 0.065775 0.027880 0.850419
Si Si7 0.618935 0.779547 0.692171
Si Si8 0.275758 0.114258 0.817073
O O1 0.744786 0.230252 0.594603
O O2 0.855613 0.860265 0.380186
O O3 0.492104 0.908767 0.352515
O O4 0.885036 0.750491 0.465927
O O5 0.515462 0.141880 0.921943
O O6 0.801380 0.998209 0.050770
O O7 0.801941 0.270165 0.871203
O O8 0.000000 0.000000 0.000000
O O9 0.000000 0.500000 0.500000
O O10 0.301174 0.378263 0.420885
O O11 0.073788 0.331055 0.802015
O O12 0.819741 0.610577 0.733813
O O13 0.332197 0.543548 0.854714
O O14 0.590207 0.068509 0.785998
O O15 0.028815 0.759228 0.720107
O O16 0.186427 0.056612 0.833507
O O17 0.372913 0.853856 0.686892
#
# Coordination Sequence:
#
# PCOD9111818 Si02
#       8
#     2   2   2   2   2   2   2   2
#     4  10  20  43  73  99 153 191 242 309 360 446
#     4  12  28  49  82 111 145 196 250 315 375 447
#     4  10  20  43  71 103 149 198 246 299 363 444
#     4  10  23  43  69 109 146 190 249 302 368 436
#     4  11  24  48  76 106 146 197 245 304 375 442
#     4  11  26  47  70 112 152 192 253 305 375 443
#     4  10  24  44  73 106 151 195 251 304 367 441
#     4  12  26  47  74 109 151 197 252 310 372 440
#
# _framework density 25.198874
#
# number of rings (size 3 to 8) (size 9 to 14) (size 15 to 20)
#    0.000    1.250    2.500    2.625    1.750    5.000 
#    9.000    3.750    0.000    0.000    0.000    0.000 
#    0.000    0.000    0.000    0.000    0.000    0.000 
#
# Total GULP energy -89345.785717 kJ/mol
# GULP energy per Si atom -5584.111607 kJ/mol
# Density = 2.514152 g / cm^3
# Si number density = 25.198874 Si / 1000 Ang^3
#
#
#
# Elastic Constant Matrix: (Units=GPa)
#
#
# Indices 1 2 3 4 5 6 
#
# 1 122.9456 74.5739 53.7535 -22.6942 -30.8406 6.9543
# 2 74.5739 163.0289 57.7801 -26.3925 -16.8286 -4.8868
# 3 53.7535 57.7801 106.3117 -26.7534 -1.1663 3.8036
# 4 -22.6942 -26.3925 -26.7534 48.1476 11.1342 -8.3430
# 5 -30.8406 -16.8286 -1.1663 11.1342 46.6400 -12.5504
# 6 6.9543 -4.8868 3.8036 -8.3430 -12.5504 30.2166
#
#
#
# Elastic Compliance Matrix: (Units=1/GPa)
#
#
# Indices 1 2 3 4 5 6 
#
# 1 0.015038 -0.004165 -0.005258 -0.000045 0.008311 -0.000033
# 2 -0.004165 0.009585 -0.002673 0.002218 0.001169 0.003943
# 3 -0.005258 -0.002673 0.014867 0.005321 -0.005898 -0.002074
# 4 -0.000045 0.002218 0.005321 0.026793 -0.004034 0.005422
# 5 0.008311 0.001169 -0.005898 -0.004034 0.031084 0.010816
# 6 -0.000033 0.003943 -0.002074 0.005422 0.010816 0.039990
#
#
# Mechanical properties :
#
#
# Convention : Reuss Voigt Hill
#
# Bulk Modulus (GPa) = 65.38106 84.94459 75.16282
# Shear Modulus (GPa) = 30.00332 38.74608 34.37470
#
# Velocity S-wave (km/s) = 3.45434 3.92549 3.69743
# Velocity P-wave (km/s) = 6.47397 7.37081 6.93690
#
# Compressibility (1/GPa) = 0.01529495
#
# Stress axis : x y z
#
# Youngs Moduli (GPa) = 66.49990 104.33472 67.26496
#
# Poissons Ratio (x) = 0.43458 0.35371
# Poissons Ratio (y) = 0.27699 0.17981
# Poissons Ratio (z) = 0.34969 0.27890
#
# Static dielectric constant tensor:
#      x y z
#    x 2.138720 -0.059640 0.034830 
#    y -0.059640 1.967430 0.038550 
#    z 0.034830 0.038550 2.139190 
# 
# From -- ./inp_files/555534.got.cif
#   From: 2010.05.17/outbox.cif.g08.bks.cpg/sg2_278_cif.got.tgz:555534.got - 2010.06.03 11:33:40.
