data_PCOD9111317
_publ_section_title
;
Structure prediction by ZEFSAII (Michael W. Deem and Ramdas Pophale) SiO2 
 PCOD9111317
Probable space group: P -1
;
_chemical_formula_sum "Si O2"
_cell_formula_units_Z 13
_cell_length_a 8.067626
_cell_length_b 9.702439
_cell_length_c 9.820621
_cell_angle_alpha 46.987334
_cell_angle_beta 78.979556
_cell_angle_gamma 103.209182
_cell_volume 477.783304
_symmetry_space_group_name_H-M "P -1"
_symmetry_group_IT_number 2
_symmetry_cell_setting 'triclinic'
loop_
_space_group_symop_operation_xyz
x,y,z
-x,-y,-z
loop_
_atom_site_type_symbol
_atom_site_label
_atom_site_fract_x
_atom_site_fract_y
_atom_site_fract_z
Si Si1 0.405529 0.457868 0.223664
Si Si2 0.793174 0.097345 0.795304
Si Si3 0.141477 0.273848 0.052552
Si Si4 0.500000 0.500000 0.500000
Si Si5 0.760952 0.045887 0.401939
Si Si6 0.203288 0.628705 0.607095
Si Si7 0.660087 0.172140 0.048120
O O1 0.370916 0.419398 0.946669
O O2 0.420855 0.498193 0.357814
O O3 0.314761 0.203047 0.385379
O O4 0.301611 0.586295 0.098214
O O5 0.899159 0.298492 0.539464
O O6 0.880778 0.937981 0.879201
O O7 0.569505 0.964459 0.865597
O O8 0.775135 0.154004 0.913453
O O9 0.995061 0.181549 0.262508
O O10 0.092696 0.422169 0.862695
O O11 0.353870 0.581186 0.533299
O O12 0.703492 0.170424 0.436450
O O13 0.697927 0.070956 0.243560
#
# Coordination Sequence:
#
# PCOD9111317 Si02
#       7
#     2   2   2   1   2   2   2
#     4  10  23  45  73 100 144 186 232 290 348 420
#     4  10  22  42  72 101 139 194 230 280 359 419
#     4  10  25  44  70 104 144 186 232 286 356 422
#     4  10  20  42  72  94 130 190 226 268 352 410
#     4  12  27  44  72 110 141 180 239 294 352 410
#     4  11  24  45  71 102 144 185 232 296 347 418
#     4  10  22  41  70 106 141 180 241 288 342 421
#
# _framework density 27.208988000000002
#
# number of rings (size 3 to 8) (size 9 to 14) (size 15 to 20)
#    0.000    1.538    1.538    2.308    8.615    9.231 
#    0.000    6.923    0.000    0.000    0.000    0.000 
#    0.000    0.000    0.000    0.000    0.000    0.000 
#
# Total GULP energy -72735.604113 kJ/mol
# GULP energy per Si atom -5595.046470 kJ/mol
# Density = 2.714706 g / cm^3
# Si number density = 27.208988 Si / 1000 Ang^3
#
#
#
# Elastic Constant Matrix: (Units=GPa)
#
#
# Indices 1 2 3 4 5 6 
#
# 1 90.1090 34.2668 56.7793 -18.3234 5.9868 -3.4868
# 2 34.2668 120.0606 66.6500 1.5325 -3.6504 -24.4899
# 3 56.7793 66.6500 191.6048 -23.6581 11.1597 -17.5498
# 4 -18.3234 1.5325 -23.6581 54.2460 -4.7742 8.4293
# 5 5.9868 -3.6504 11.1597 -4.7742 56.5691 4.3214
# 6 -3.4868 -24.4899 -17.5498 8.4293 4.3214 46.0873
#
#
#
# Elastic Compliance Matrix: (Units=1/GPa)
#
#
# Indices 1 2 3 4 5 6 
#
# 1 0.014996 -0.003172 -0.003008 0.004157 -0.000665 -0.002394
# 2 -0.003172 0.012310 -0.003342 -0.003654 0.001053 0.005598
# 3 -0.003008 -0.003342 0.007679 0.002217 -0.001274 0.000635
# 4 0.004157 -0.003654 0.002217 0.021761 0.001095 -0.004866
# 5 -0.000665 0.001053 -0.001274 0.001095 0.018304 -0.001892
# 6 -0.002394 0.005598 0.000635 -0.004866 -0.001892 0.025801
#
#
# Mechanical properties :
#
#
# Convention : Reuss Voigt Hill
#
# Bulk Modulus (GPa) = 62.72816 79.68518 71.20667
# Shear Modulus (GPa) = 39.93346 47.65237 43.79291
#
# Velocity S-wave (km/s) = 3.83516 4.18945 4.01621
# Velocity P-wave (km/s) = 6.53571 7.26305 6.90896
#
# Compressibility (1/GPa) = 0.01594180
#
# Stress axis : x y z
#
# Youngs Moduli (GPa) = 66.68465 81.23286 130.22689
#
# Poissons Ratio (x) = 0.25767 0.39170
# Poissons Ratio (y) = 0.21152 0.43521
# Poissons Ratio (z) = 0.20057 0.27147
#
# Static dielectric constant tensor:
#      x y z
#    x 2.175300 0.075660 -0.055520 
#    y 0.075660 2.059290 -0.045160 
#    z -0.055520 -0.045160 2.123090 
# 
# From -- ./inp_files/156459.got.cif
#   From: 2010.05.17/outbox.cif.g08.bks.cpg/sg2_79_cif.got.tgz:156459.got - 2010.06.03 11:33:40.
