data_PCOD9111197
_publ_section_title
;
Structure prediction by ZEFSAII (Michael W. Deem and Ramdas Pophale) SiO2 
 PCOD9111197
Probable space group: P -1
;
_chemical_formula_sum "Si O2"
_cell_formula_units_Z 13
_cell_length_a 8.660106
_cell_length_b 11.532024
_cell_length_c 6.857494
_cell_angle_alpha 92.770141
_cell_angle_beta 124.097503
_cell_angle_gamma 75.460038
_cell_volume 545.288630
_symmetry_space_group_name_H-M "P -1"
_symmetry_group_IT_number 2
_symmetry_cell_setting 'triclinic'
loop_
_space_group_symop_operation_xyz
x,y,z
-x,-y,-z
loop_
_atom_site_type_symbol
_atom_site_label
_atom_site_fract_x
_atom_site_fract_y
_atom_site_fract_z
Si Si1 0.904779 0.799535 0.255156
Si Si2 0.949479 0.617063 0.612042
Si Si3 0.195265 0.945430 0.947614
Si Si4 0.459781 0.372096 0.480605
Si Si5 0.155027 0.722282 0.068423
Si Si6 0.500000 0.000000 0.500000
Si Si7 0.476616 0.818767 0.802515
O O1 0.930066 0.736072 0.476040
O O2 0.052469 0.715922 0.201294
O O3 0.920406 0.934385 0.239792
O O4 0.685817 0.809078 0.039788
O O5 0.751220 0.626358 0.590064
O O6 0.000000 0.500000 0.500000
O O7 0.109681 0.624630 0.884543
O O8 0.322356 0.861415 0.864357
O O9 0.073432 0.859928 0.946470
O O10 0.338355 0.975674 0.215622
O O11 0.500000 0.500000 0.500000
O O12 0.618352 0.300044 0.740056
O O13 0.506593 0.307088 0.300901
O O14 0.565466 0.085651 0.395201
#
# Coordination Sequence:
#
# PCOD9111197 Si02
#       7
#     2   2   2   2   2   1   2
#     4  11  25  46  73 108 150 194 238 304 370 435
#     4  12  30  51  76 107 147 195 252 311 366 438
#     4  11  25  42  77 112 151 198 240 301 372 442
#     4  12  28  50  78 106 148 197 249 311 367 439
#     4  12  27  49  75 112 149 191 249 303 373 438
#     4  10  20  42  70 106 152 182 244 292 364 428
#     4  11  24  44  75 110 147 194 246 300 373 432
#
# _framework density 23.840585000000001
#
# number of rings (size 3 to 8) (size 9 to 14) (size 15 to 20)
#    0.000    0.615    3.077    4.154    8.615    2.462 
#    0.000    0.000    0.000    0.000    0.000    0.000 
#    0.000    0.000    0.000    0.000    0.000    0.000 
#
# Total GULP energy -72528.071518 kJ/mol
# GULP energy per Si atom -5579.082424 kJ/mol
# Density = 2.378632 g / cm^3
# Si number density = 23.840585 Si / 1000 Ang^3
#
#
#
# Elastic Constant Matrix: (Units=GPa)
#
#
# Indices 1 2 3 4 5 6 
#
# 1 74.3625 20.8549 24.4748 15.4100 -10.2631 -3.0470
# 2 20.8549 70.5805 10.2107 6.5041 -14.3116 4.0347
# 3 24.4748 10.2107 70.1935 11.5150 -7.4284 -11.0721
# 4 15.4100 6.5041 11.5150 37.9630 3.3739 -9.6352
# 5 -10.2631 -14.3116 -7.4284 3.3739 35.4019 -5.1453
# 6 -3.0470 4.0347 -11.0721 -9.6352 -5.1453 37.6433
#
#
#
# Elastic Compliance Matrix: (Units=1/GPa)
#
#
# Indices 1 2 3 4 5 6 
#
# 1 0.017410 -0.003304 -0.004413 -0.005583 0.003242 -0.000520
# 2 -0.003304 0.016704 -0.000629 -0.002355 0.005585 -0.002082
# 3 -0.004413 -0.000629 0.017321 -0.002458 0.003002 0.004586
# 4 -0.005583 -0.002355 -0.002458 0.031873 -0.005175 0.006529
# 5 0.003242 0.005585 0.003002 -0.005175 0.033112 0.003748
# 6 -0.000520 -0.002082 0.004586 0.006529 0.003748 0.030278
#
#
# Mechanical properties :
#
#
# Convention : Reuss Voigt Hill
#
# Bulk Modulus (GPa) = 28.78346 36.24637 32.51491
# Shear Modulus (GPa) = 28.57618 32.84140 30.70879
#
# Velocity S-wave (km/s) = 3.46589 3.71555 3.59289
# Velocity P-wave (km/s) = 5.30245 5.80032 5.55697
#
# Compressibility (1/GPa) = 0.03474218
#
# Stress axis : x y z
#
# Youngs Moduli (GPa) = 57.43940 59.86621 57.73445
#
# Poissons Ratio (x) = 0.19781 0.25478
# Poissons Ratio (y) = 0.18979 0.03631
# Poissons Ratio (z) = 0.25347 0.03765
#
# Static dielectric constant tensor:
#      x y z
#    x 1.846070 0.004770 0.013590 
#    y 0.004770 1.959810 -0.057820 
#    z 0.013590 -0.057820 1.927640 
# 
# From -- ./inp_files/28586.got.cif
#   From: 2010.05.17/outbox.cif.g08.bks.cpg/sg2_15_cif.got.tgz:28586.got - 2010.06.03 11:33:40.
