data_PCOD9111460
_publ_section_title
;
Structure prediction by ZEFSAII (Michael W. Deem and Ramdas Pophale) SiO2 
 PCOD9111460
Probable space group: P -1
;
_chemical_formula_sum "Si O2"
_cell_formula_units_Z 16
_cell_length_a 14.695362
_cell_length_b 16.408092
_cell_length_c 9.828045
_cell_angle_alpha 139.070377
_cell_angle_beta 139.241800
_cell_angle_gamma 28.913492
_cell_volume 715.215977
_symmetry_space_group_name_H-M "P -1"
_symmetry_group_IT_number 2
_symmetry_cell_setting 'triclinic'
loop_
_space_group_symop_operation_xyz
x,y,z
-x,-y,-z
loop_
_atom_site_type_symbol
_atom_site_label
_atom_site_fract_x
_atom_site_fract_y
_atom_site_fract_z
Si Si1 0.495000 0.640369 0.791378
Si Si2 0.152111 0.472084 0.444499
Si Si3 0.506942 0.898343 0.707802
Si Si4 0.854184 0.268469 0.801816
Si Si5 0.764854 0.125982 0.743899
Si Si6 0.785050 0.566642 0.221391
Si Si7 0.806187 0.263720 0.218030
Si Si8 0.303187 0.979146 0.856010
O O1 0.683564 0.431867 0.715978
O O2 0.327534 0.672579 0.721855
O O3 0.407211 0.782205 0.754866
O O4 0.581073 0.680146 0.055197
O O5 0.297283 0.307449 0.300864
O O6 0.215747 0.396902 0.576484
O O7 0.172544 0.604780 0.618419
O O8 0.928515 0.566954 0.301468
O O9 0.385756 0.893241 0.456367
O O10 0.357982 0.992911 0.785880
O O11 0.594741 0.978977 0.881284
O O12 0.774678 0.201093 0.711217
O O13 0.069057 0.113600 0.785035
O O14 0.876958 0.368870 0.061684
O O15 0.715532 0.251492 0.968499
O O16 0.982164 0.933027 0.767057
#
# Coordination Sequence:
#
# PCOD9111460 Si02
#       8
#     2   2   2   2   2   2   2   2
#     4  10  21  40  66  90 119 173 203 262 316 363
#     4  11  20  40  62  97 128 163 210 255 323 376
#     4  11  25  42  64  88 127 174 205 263 314 364
#     4  10  20  43  64  90 129 166 203 263 316 362
#     4  11  23  39  62  96 131 169 201 263 320 369
#     4   9  21  36  66  95 123 166 201 262 319 373
#     4  11  22  38  63  98 132 158 213 259 312 391
#     4  11  24  47  62  92 128 164 223 257 298 381
#
# _framework density 22.370865999999999
#
# number of rings (size 3 to 8) (size 9 to 14) (size 15 to 20)
#    0.750    0.750    3.750    1.500    1.750    2.000 
#    2.250    4.375    0.000    0.000    0.000    0.000 
#    0.000    0.000    0.000    0.000    0.000    0.000 
#
# Total GULP energy -89349.810869 kJ/mol
# GULP energy per Si atom -5584.363179 kJ/mol
# Density = 2.231995 g / cm^3
# Si number density = 22.370866 Si / 1000 Ang^3
#
#
#
# Elastic Constant Matrix: (Units=GPa)
#
#
# Indices 1 2 3 4 5 6 
#
# 1 61.5830 38.1198 23.1116 -2.7203 5.7002 -13.9217
# 2 38.1198 98.4754 14.8528 7.7186 9.6429 -2.5261
# 3 23.1116 14.8528 97.3361 10.5425 26.6262 0.0145
# 4 -2.7203 7.7186 10.5425 23.1505 -5.0563 7.4715
# 5 5.7002 9.6429 26.6262 -5.0563 21.9172 1.3909
# 6 -13.9217 -2.5261 0.0145 7.4715 1.3909 31.5993
#
#
#
# Elastic Compliance Matrix: (Units=1/GPa)
#
#
# Indices 1 2 3 4 5 6 
#
# 1 0.027832 -0.011052 -0.008884 0.010530 0.010311 0.008439
# 2 -0.011052 0.015826 0.004930 -0.011489 -0.012707 -0.000331
# 3 -0.008884 0.004930 0.022880 -0.021198 -0.032730 0.002922
# 4 0.010530 -0.011489 -0.021198 0.072953 0.045886 -0.015539
# 5 0.010311 -0.012707 -0.032730 0.045886 0.099625 -0.011693
# 6 0.008439 -0.000331 0.002922 -0.015539 -0.011693 0.039525
#
#
# Mechanical properties :
#
#
# Convention : Reuss Voigt Hill
#
# Bulk Modulus (GPa) = 27.37926 45.50701 36.44314
# Shear Modulus (GPa) = 15.58455 27.42075 21.50265
#
# Velocity S-wave (km/s) = 2.64227 3.50485 3.10367
# Velocity P-wave (km/s) = 4.64480 6.06340 5.40088
#
# Compressibility (1/GPa) = 0.03652399
#
# Stress axis : x y z
#
# Youngs Moduli (GPa) = 35.92936 63.18729 43.70695
#
# Poissons Ratio (x) = 0.69837 0.38830
# Poissons Ratio (y) = 0.39711 -0.21546
# Poissons Ratio (z) = 0.31921 -0.31149
#
# Static dielectric constant tensor:
#      x y z
#    x 1.801930 -0.011280 -0.046160 
#    y -0.011280 1.816190 -0.011860 
#    z -0.046160 -0.011860 1.902280 
# 
# From -- ./inp_files/456501.got.cif
#   From: 2010.05.17/outbox.cif.g08.bks.cpg/sg2_229_cif.got.tgz:456501.got - 2010.06.03 11:33:40.
