data_PCOD9111285
_publ_section_title
;
Structure prediction by ZEFSAII (Michael W. Deem and Ramdas Pophale) SiO2 
 PCOD9111285
Probable space group: P -1
;
_chemical_formula_sum "Si O2"
_cell_formula_units_Z 13
_cell_length_a 8.115486
_cell_length_b 7.437218
_cell_length_c 11.711200
_cell_angle_alpha 70.128939
_cell_angle_beta 113.550583
_cell_angle_gamma 78.062255
_cell_volume 559.191214
_symmetry_space_group_name_H-M "P -1"
_symmetry_group_IT_number 2
_symmetry_cell_setting 'triclinic'
loop_
_space_group_symop_operation_xyz
x,y,z
-x,-y,-z
loop_
_atom_site_type_symbol
_atom_site_label
_atom_site_fract_x
_atom_site_fract_y
_atom_site_fract_z
Si Si1 0.775947 0.081195 0.329756
Si Si2 0.000000 0.500000 0.000000
Si Si3 0.800915 0.639263 0.479296
Si Si4 0.438413 0.821558 0.975699
Si Si5 0.001956 0.071534 0.176492
Si Si6 0.172046 0.614611 0.229666
Si Si7 0.418776 0.493064 0.735104
O O1 0.958072 0.042988 0.303806
O O2 0.738723 0.272650 0.360576
O O3 0.785732 0.872606 0.434634
O O4 0.589978 0.164406 0.171222
O O5 0.997803 0.392617 0.897186
O O6 0.945074 0.732380 0.873099
O O7 0.800142 0.526559 0.621002
O O8 0.631376 0.638391 0.347395
O O9 0.000000 0.500000 0.500000
O O10 0.579248 0.606819 0.118338
O O11 0.218808 0.865306 0.948347
O O12 0.500000 0.000000 0.000000
O O13 0.132920 0.848755 0.207895
O O14 0.368005 0.515183 0.230276
#
# Coordination Sequence:
#
# PCOD9111285 Si02
#       7
#     2   1   2   2   2   2   2
#     4  10  24  43  71 107 135 186 240 288 352 422
#     4  12  26  42  74 104 144 182 240 294 348 418
#     4  12  26  48  75  99 143 194 236 289 360 428
#     4  10  20  42  72 101 140 184 236 292 347 412
#     4  10  24  45  70 106 143 188 235 293 352 424
#     4  12  27  48  70 108 145 188 236 293 365 416
#     4  12  25  44  70 106 146 179 239 299 350 423
#
# _framework density 23.247862000000001
#
# number of rings (size 3 to 8) (size 9 to 14) (size 15 to 20)
#    0.923    0.000    4.615    1.385    2.154    4.923 
#    0.000    0.000    0.000    0.000    0.000    0.000 
#    0.000    0.000    0.000    0.000    0.000    0.000 
#
# Total GULP energy -72432.625516 kJ/mol
# GULP energy per Si atom -5571.740424 kJ/mol
# Density = 2.319495 g / cm^3
# Si number density = 23.247862 Si / 1000 Ang^3
#
#
#
# Elastic Constant Matrix: (Units=GPa)
#
#
# Indices 1 2 3 4 5 6 
#
# 1 37.0061 18.0711 7.5663 -4.5960 -12.4510 -5.8407
# 2 18.0711 187.4276 22.5638 -30.7195 -16.2160 1.0981
# 3 7.5663 22.5638 75.1020 -18.2187 -4.4830 14.4100
# 4 -4.5960 -30.7195 -18.2187 38.8428 6.7614 -6.9193
# 5 -12.4510 -16.2160 -4.4830 6.7614 19.8771 -2.1107
# 6 -5.8407 1.0981 14.4100 -6.9193 -2.1107 28.6140
#
#
#
# Elastic Compliance Matrix: (Units=1/GPa)
#
#
# Indices 1 2 3 4 5 6 
#
# 1 0.038164 -0.001292 -0.004441 -0.000565 0.023280 0.011657
# 2 -0.001292 0.006516 -0.000830 0.004299 0.002980 0.001164
# 3 -0.004441 -0.000830 0.016805 0.005679 -0.002465 -0.008146
# 4 -0.000565 0.004299 0.005679 0.033687 -0.006544 0.004523
# 5 0.023280 0.002980 -0.002465 -0.006544 0.069998 0.009460
# 6 0.011657 0.001164 -0.008146 0.004523 0.009460 0.043177
#
#
# Mechanical properties :
#
#
# Convention : Reuss Voigt Hill
#
# Bulk Modulus (GPa) = 20.67814 43.99312 32.33563
# Shear Modulus (GPa) = 21.04460 34.22240 27.63350
#
# Velocity S-wave (km/s) = 3.01196 3.84091 3.45142
# Velocity P-wave (km/s) = 4.58365 6.21569 5.46098
#
# Compressibility (1/GPa) = 0.04836024
#
# Stress axis : x y z
#
# Youngs Moduli (GPa) = 26.20286 153.47922 59.50465
#
# Poissons Ratio (x) = 0.19825 0.26424
# Poissons Ratio (y) = 0.03385 0.04938
# Poissons Ratio (z) = 0.11636 0.12736
#
# Static dielectric constant tensor:
#      x y z
#    x 1.907970 0.033210 0.048440 
#    y 0.033210 1.824310 0.009130 
#    z 0.048440 0.009130 1.954190 
# 
# From -- ./inp_files/372505.got.cif
#   From: 2010.05.17/outbox.cif.g08.bks.cpg/sg2_187_cif.got.tgz:372505.got - 2010.06.03 11:33:40.
