data_PCOD9111847
_publ_section_title
;
Structure prediction by ZEFSAII (Michael W. Deem and Ramdas Pophale) SiO2 
 PCOD9111847
Probable space group: P -1
;
_chemical_formula_sum "Si O2"
_cell_formula_units_Z 14
_cell_length_a 14.058006
_cell_length_b 14.088194
_cell_length_c 6.428676
_cell_angle_alpha 71.350316
_cell_angle_beta 81.240984
_cell_angle_gamma 31.571347
_cell_volume 612.787803
_symmetry_space_group_name_H-M "P -1"
_symmetry_group_IT_number 2
_symmetry_cell_setting 'triclinic'
loop_
_space_group_symop_operation_xyz
x,y,z
-x,-y,-z
loop_
_atom_site_type_symbol
_atom_site_label
_atom_site_fract_x
_atom_site_fract_y
_atom_site_fract_z
Si Si1 0.144680 0.598649 0.098639
Si Si2 0.479168 0.633092 0.980256
Si Si3 0.320424 0.281119 0.497133
Si Si4 0.047101 0.057248 0.815192
Si Si5 0.326925 0.049328 0.699574
Si Si6 0.077524 0.152033 0.388069
Si Si7 0.570433 0.184405 0.781805
O O1 0.356818 0.450904 0.124346
O O2 0.151091 0.488824 0.294483
O O3 0.025818 0.788883 0.122421
O O4 0.062176 0.667088 0.847260
O O5 0.268990 0.853606 0.842405
O O6 0.500000 0.500000 0.000000
O O7 0.489886 0.657904 0.200433
O O8 0.283283 0.204087 0.650718
O O9 0.405534 0.278138 0.645353
O O10 0.482159 0.124527 0.377558
O O11 0.974713 0.152805 0.543207
O O12 0.000000 0.000000 0.000000
O O13 0.168848 0.143683 0.535214
O O14 0.365355 0.950474 0.963146
O O15 0.252267 0.958414 0.326991
#
# Coordination Sequence:
#
# PCOD9111847 Si02
#       7
#     2   2   2   2   2   2   2
#     4  12  25  45  70 105 148 186 235 291 353 424
#     4  12  24  47  73 103 137 186 238 290 358 421
#     4  10  23  39  72 110 139 193 237 289 355 419
#     4  12  26  50  70 101 143 183 243 295 353 421
#     4  10  20  43  72 103 148 187 240 290 351 421
#     4  11  24  44  72 101 144 192 225 300 353 417
#     4  11  21  46  72 102 150 182 238 299 350 420
#
# _framework density 22.846408
#
# number of rings (size 3 to 8) (size 9 to 14) (size 15 to 20)
#    0.000    0.857    5.714    1.286    2.000    1.143 
#    0.000    6.429    0.000    0.000    0.000    0.000 
#    0.000    0.000    0.000    0.000    0.000    0.000 
#
# Total GULP energy -78252.400534 kJ/mol
# GULP energy per Si atom -5589.457181 kJ/mol
# Density = 2.279441 g / cm^3
# Si number density = 22.846408 Si / 1000 Ang^3
#
#
#
# Elastic Constant Matrix: (Units=GPa)
#
#
# Indices 1 2 3 4 5 6 
#
# 1 87.8686 40.5568 54.6967 -1.2999 -7.7358 22.4052
# 2 40.5568 88.4230 35.5618 -6.9508 6.6072 3.2240
# 3 54.6967 35.5618 167.0144 -7.4090 -5.1553 11.7594
# 4 -1.2999 -6.9508 -7.4090 41.2407 -0.2063 -5.6009
# 5 -7.7358 6.6072 -5.1553 -0.2063 24.8210 5.8756
# 6 22.4052 3.2240 11.7594 -5.6009 5.8756 45.0324
#
#
#
# Elastic Compliance Matrix: (Units=1/GPa)
#
#
# Indices 1 2 3 4 5 6 
#
# 1 0.021886 -0.008966 -0.004288 -0.003021 0.010878 -0.010923
# 2 -0.008966 0.016545 -0.001076 0.002955 -0.008592 0.005046
# 3 -0.004288 -0.001076 0.007665 0.001101 0.000484 0.000283
# 4 -0.003021 0.002955 0.001101 0.025445 -0.002347 0.004475
# 5 0.010878 -0.008592 0.000484 -0.002347 0.048788 -0.011581
# 6 -0.010923 0.005046 0.000283 0.004475 -0.011581 0.029273
#
#
# Mechanical properties :
#
#
# Convention : Reuss Voigt Hill
#
# Bulk Modulus (GPa) = 57.35165 67.21517 62.28341
# Shear Modulus (GPa) = 27.16316 36.38485 31.77401
#
# Velocity S-wave (km/s) = 3.45185 3.99505 3.73334
# Velocity P-wave (km/s) = 6.40661 7.12495 6.77531
#
# Compressibility (1/GPa) = 0.01743629
#
# Stress axis : x y z
#
# Youngs Moduli (GPa) = 45.69106 60.44219 130.46819
#
# Poissons Ratio (x) = 0.54193 0.55941
# Poissons Ratio (y) = 0.40967 0.14036
# Poissons Ratio (z) = 0.19591 0.06503
#
# Static dielectric constant tensor:
#      x y z
#    x 1.883140 -0.018620 -0.015800 
#    y -0.018620 1.882850 -0.011270 
#    z -0.015800 -0.011270 1.905650 
# 
# From -- ./inp_files/97698.got.cif
#   From: 2010.05.17/outbox.cif.g08.bks.cpg/sg2_49_cif.got.tgz:97698.got - 2010.06.03 11:33:40.
