data_PCOD9111264
_publ_section_title
;
Structure prediction by ZEFSAII (Michael W. Deem and Ramdas Pophale) SiO2 
 PCOD9111264
Probable space group: P -1
;
_chemical_formula_sum "Si O2"
_cell_formula_units_Z 16
_cell_length_a 8.493577
_cell_length_b 8.416282
_cell_length_c 14.830835
_cell_angle_alpha 61.367931
_cell_angle_beta 97.155691
_cell_angle_gamma 55.371719
_cell_volume 639.734062
_symmetry_space_group_name_H-M "P -1"
_symmetry_group_IT_number 2
_symmetry_cell_setting 'triclinic'
loop_
_space_group_symop_operation_xyz
x,y,z
-x,-y,-z
loop_
_atom_site_type_symbol
_atom_site_label
_atom_site_fract_x
_atom_site_fract_y
_atom_site_fract_z
Si Si1 0.597828 0.224289 0.113702
Si Si2 0.465470 0.916557 0.429283
Si Si3 0.053479 0.642834 0.724139
Si Si4 0.015440 0.164858 0.896748
Si Si5 0.804015 0.657764 0.016731
Si Si6 0.353360 0.596656 0.334149
Si Si7 0.736217 0.582214 0.375742
Si Si8 0.040214 0.046910 0.643643
O O1 0.711961 0.133325 0.244898
O O2 0.805893 0.015971 0.119345
O O3 0.500000 0.500000 0.000000
O O4 0.422910 0.202552 0.092606
O O5 0.506175 0.675188 0.530118
O O6 0.634015 0.793891 0.389117
O O7 0.500000 0.000000 0.500000
O O8 0.206767 0.178878 0.314621
O O9 0.194728 0.498723 0.864113
O O10 0.148818 0.446574 0.701331
O O11 0.056830 0.850115 0.640905
O O12 0.131505 0.222075 0.951317
O O13 0.770298 0.384416 0.768447
O O14 0.000000 0.000000 0.000000
O O15 0.000000 0.500000 0.000000
O O16 0.523886 0.624084 0.322506
O O17 0.149381 0.827042 0.324462
O O18 0.937034 0.299653 0.513813
#
# Coordination Sequence:
#
# PCOD9111264 Si02
#       8
#     2   2   2   2   2   2   2   2
#     4  11  23  45  74 103 142 192 247 299 365 442
#     4  11  23  44  68 103 150 189 236 304 368 436
#     4  12  24  43  73 106 145 186 252 301 366 440
#     4  11  26  45  73 103 141 190 246 310 368 432
#     4  12  28  49  70 106 147 194 252 307 370 439
#     4  10  21  42  73 102 140 193 240 293 375 441
#     4  11  23  42  75 106 143 195 242 294 369 448
#     4  10  20  42  71 107 143 190 243 298 362 445
#
# _framework density 25.010394000000002
#
# number of rings (size 3 to 8) (size 9 to 14) (size 15 to 20)
#    0.000    1.000    3.750    3.000    3.500    1.500 
#    4.500    0.000    0.000    0.000    0.000    0.000 
#    0.000    0.000    0.000    0.000    0.000    0.000 
#
# Total GULP energy -89521.463312 kJ/mol
# GULP energy per Si atom -5595.091457 kJ/mol
# Density = 2.495347 g / cm^3
# Si number density = 25.010394 Si / 1000 Ang^3
#
#
#
# Elastic Constant Matrix: (Units=GPa)
#
#
# Indices 1 2 3 4 5 6 
#
# 1 93.9229 28.3449 40.2546 -5.7434 20.2454 9.8735
# 2 28.3449 149.1625 33.7094 16.6524 5.4593 -1.6512
# 3 40.2546 33.7094 113.3666 3.6564 25.9563 -3.8331
# 4 -5.7434 16.6524 3.6564 27.5323 -0.5805 0.6024
# 5 20.2454 5.4593 25.9563 -0.5805 50.1913 9.1430
# 6 9.8735 -1.6512 -3.8331 0.6024 9.1430 40.6773
#
#
#
# Elastic Compliance Matrix: (Units=1/GPa)
#
#
# Indices 1 2 3 4 5 6 
#
# 1 0.014329 -0.002295 -0.004048 0.004931 -0.002759 -0.003405
# 2 -0.002295 0.008046 -0.001542 -0.005141 0.000668 0.000665
# 3 -0.004048 -0.001542 0.012030 -0.001686 -0.005025 0.003208
# 4 0.004931 -0.005141 -0.001686 0.040739 0.000321 -0.002240
# 5 -0.002759 0.000668 -0.005025 0.000321 0.024531 -0.005295
# 6 -0.003405 0.000665 0.003208 -0.002240 -0.005295 0.026963
#
#
# Mechanical properties :
#
#
# Convention : Reuss Voigt Hill
#
# Bulk Modulus (GPa) = 53.66431 62.34110 58.00271
# Shear Modulus (GPa) = 33.64315 40.62306 37.13310
#
# Velocity S-wave (km/s) = 3.67163 4.03457 3.85737
# Velocity P-wave (km/s) = 6.28314 6.83256 6.56360
#
# Compressibility (1/GPa) = 0.01863436
#
# Stress axis : x y z
#
# Youngs Moduli (GPa) = 69.78874 124.29231 83.12540
#
# Poissons Ratio (x) = 0.28529 0.33648
# Poissons Ratio (y) = 0.16019 0.12817
# Poissons Ratio (z) = 0.28250 0.19164
#
# Static dielectric constant tensor:
#      x y z
#    x 2.033480 0.070710 0.030560 
#    y 0.070710 1.913300 -0.041070 
#    z 0.030560 -0.041070 1.980550 
# 
# From -- ./inp_files/494688.got.cif
#   From: 2010.05.17/outbox.cif.g08.bks.cpg/sg2_248_cif.got.tgz:494688.got - 2010.06.03 11:33:40.
