data_PCOD9111945
_publ_section_title
;
Structure prediction by ZEFSAII (Michael W. Deem and Ramdas Pophale) SiO2 
 PCOD9111945
Probable space group: P -1
;
_chemical_formula_sum "Si O2"
_cell_formula_units_Z 12
_cell_length_a 13.617365
_cell_length_b 5.223776
_cell_length_c 9.192751
_cell_angle_alpha 100.719229
_cell_angle_beta 43.733843
_cell_angle_gamma 95.944605
_cell_volume 443.713538
_symmetry_space_group_name_H-M "P -1"
_symmetry_group_IT_number 2
_symmetry_cell_setting 'triclinic'
loop_
_space_group_symop_operation_xyz
x,y,z
-x,-y,-z
loop_
_atom_site_type_symbol
_atom_site_label
_atom_site_fract_x
_atom_site_fract_y
_atom_site_fract_z
Si Si1 0.707893 0.585943 0.899403
Si Si2 0.500000 0.000000 0.000000
Si Si3 0.769855 0.322418 0.504038
Si Si4 0.480470 0.383061 0.318957
Si Si5 0.500000 0.000000 0.500000
Si Si6 0.078462 0.230891 0.782449
Si Si7 0.819531 0.915502 0.032484
O O1 0.741702 0.386499 0.710810
O O2 0.633666 0.439107 0.095071
O O3 0.831681 0.744738 0.854371
O O4 0.591591 0.793677 0.982813
O O5 0.435838 0.161295 0.228989
O O6 0.621006 0.357267 0.576764
O O7 0.865351 0.539317 0.351279
O O8 0.841484 0.040367 0.379963
O O9 0.450839 0.265260 0.492689
O O10 0.655022 0.992318 0.244404
O O11 0.118666 0.243520 0.910948
O O12 0.913792 0.166325 0.942762
#
# Coordination Sequence:
#
# PCOD9111945 Si02
#       7
#     2   1   2   2   1   2   2
#     4  11  26  43  76 115 150 201 253 330 371 460
#     4  10  20  44  64 106 154 186 244 316 382 434
#     4  11  26  48  82 105 157 206 254 307 399 453
#     4  11  25  41  74 111 153 196 255 322 379 457
#     4  12  24  46  72 110 142 198 252 312 382 446
#     4  11  28  52  75 110 157 210 253 313 387 467
#     4  11  27  49  74 111 156 197 262 316 382 455
#
# _framework density 27.044478999999999
#
# number of rings (size 3 to 8) (size 9 to 14) (size 15 to 20)
#    0.000    1.000    3.333    2.000   11.667    7.333 
#    0.000    0.000    0.000    0.000    0.000    0.000 
#    0.000    0.000    0.000    0.000    0.000    0.000 
#
# Total GULP energy -66917.809545 kJ/mol
# GULP energy per Si atom -5576.484129 kJ/mol
# Density = 2.698292 g / cm^3
# Si number density = 27.044479 Si / 1000 Ang^3
#
#
#
# Elastic Constant Matrix: (Units=GPa)
#
#
# Indices 1 2 3 4 5 6 
#
# 1 98.0071 17.0106 34.1658 -7.0015 6.0347 4.8684
# 2 17.0106 126.0004 29.1244 1.5555 13.8321 -14.9726
# 3 34.1658 29.1244 76.4176 0.9774 -6.0372 1.0293
# 4 -7.0015 1.5555 0.9774 69.4409 6.0646 0.8181
# 5 6.0347 13.8321 -6.0372 6.0646 49.5453 2.4004
# 6 4.8684 -14.9726 1.0293 0.8181 2.4004 23.9371
#
#
#
# Elastic Compliance Matrix: (Units=1/GPa)
#
#
# Indices 1 2 3 4 5 6 
#
# 1 0.012612 -0.000480 -0.005613 0.001579 -0.002160 -0.002461
# 2 -0.000480 0.010161 -0.004038 0.000014 -0.003611 0.006989
# 3 -0.005613 -0.004038 0.017514 -0.001059 0.004197 -0.002522
# 4 0.001579 0.000014 -0.001059 0.014765 -0.002105 -0.000560
# 5 -0.002160 -0.003611 0.004197 -0.002105 0.022426 -0.004176
# 6 -0.002461 0.006989 -0.002522 -0.000560 -0.004176 0.047195
#
#
# Mechanical properties :
#
#
# Convention : Reuss Voigt Hill
#
# Bulk Modulus (GPa) = 49.93876 51.22517 50.58196
# Shear Modulus (GPa) = 32.97965 43.25961 38.11963
#
# Velocity S-wave (km/s) = 3.49586 4.00380 3.75843
# Velocity P-wave (km/s) = 5.89917 6.35265 6.13011
#
# Compressibility (1/GPa) = 0.02002453
#
# Stress axis : x y z
#
# Youngs Moduli (GPa) = 79.29239 98.41347 57.09858
#
# Poissons Ratio (x) = 0.04723 0.32051
# Poissons Ratio (y) = 0.03806 0.23054
# Poissons Ratio (z) = 0.44509 0.39736
#
# Static dielectric constant tensor:
#      x y z
#    x 1.642730 -0.060120 -0.060720 
#    y -0.060120 2.103460 0.034400 
#    z -0.060720 0.034400 2.066130 
# 
# From -- ./inp_files/91929.got.cif
#   From: 2010.05.17/outbox.cif.g08.bks.cpg/sg2_46_cif.got.tgz:91929.got - 2010.06.03 11:33:40.
