data_PCOD9111028
_publ_section_title
;
Structure prediction by ZEFSAII (Michael W. Deem and Ramdas Pophale) SiO2 
 PCOD9111028
Probable space group: P -1
;
_chemical_formula_sum "Si O2"
_cell_formula_units_Z 16
_cell_length_a 15.367347
_cell_length_b 8.024472
_cell_length_c 11.883569
_cell_angle_alpha 116.019556
_cell_angle_beta 37.403926
_cell_angle_gamma 94.547919
_cell_volume 695.895537
_symmetry_space_group_name_H-M "P -1"
_symmetry_group_IT_number 2
_symmetry_cell_setting 'triclinic'
loop_
_space_group_symop_operation_xyz
x,y,z
-x,-y,-z
loop_
_atom_site_type_symbol
_atom_site_label
_atom_site_fract_x
_atom_site_fract_y
_atom_site_fract_z
Si Si1 0.186784 0.699030 0.320986
Si Si2 0.837479 0.898139 0.802801
Si Si3 0.466477 0.446158 0.779600
Si Si4 0.233175 0.492567 0.453166
Si Si5 0.534462 0.157939 0.438007
Si Si6 0.076600 0.065863 0.043187
Si Si7 0.538584 0.898710 0.168176
Si Si8 0.705168 0.980377 0.737912
O O1 0.249913 0.555126 0.325272
O O2 0.999233 0.752188 0.521350
O O3 0.190442 0.920718 0.396574
O O4 0.302868 0.592000 0.062957
O O5 0.898756 0.996517 0.866546
O O6 0.705188 0.037962 0.886318
O O7 0.738347 0.792369 0.931547
O O8 0.610527 0.505704 0.650611
O O9 0.444165 0.387345 0.657770
O O10 0.526063 0.228111 0.726409
O O11 0.238232 0.268957 0.397404
O O12 0.055531 0.681818 0.733747
O O13 0.500000 0.000000 0.500000
O O14 0.489093 0.123073 0.347868
O O15 0.730779 0.049167 0.217515
O O16 0.000000 0.000000 0.000000
O O17 0.463739 0.911613 0.126502
#
# Coordination Sequence:
#
# PCOD9111028 Si02
#       8
#     2   2   2   2   2   2   2   2
#     4  11  25  42  65  95 136 170 214 275 326 383
#     4  10  24  40  63  97 128 171 214 271 325 384
#     4  11  21  40  67  98 128 176 220 264 331 387
#     4  11  24  40  71  97 127 177 219 265 329 390
#     4   9  20  38  67  99 125 169 225 266 320 391
#     4  10  20  42  68  93 127 171 216 268 325 382
#     4  10  22  41  68  93 132 175 218 270 325 387
#     4  12  25  42  65  99 135 172 219 265 329 391
#
# _framework density 22.991955000000001
#
# number of rings (size 3 to 8) (size 9 to 14) (size 15 to 20)
#    0.000    1.500    2.500    1.875    3.500    6.500 
#    0.000    1.875    0.000   11.250    0.000    0.000 
#    0.000    0.000    0.000    0.000    0.000    0.000 
#
# Total GULP energy -89079.280669 kJ/mol
# GULP energy per Si atom -5567.455042 kJ/mol
# Density = 2.293962 g / cm^3
# Si number density = 22.991955 Si / 1000 Ang^3
#
#
#
# Elastic Constant Matrix: (Units=GPa)
#
#
# Indices 1 2 3 4 5 6 
#
# 1 154.8594 25.3489 26.1852 1.3691 18.5828 12.1808
# 2 25.3489 110.1131 25.2402 10.6645 6.9813 8.8516
# 3 26.1852 25.2402 116.9889 6.1363 10.4683 5.8858
# 4 1.3691 10.6645 6.1363 22.4462 12.2080 -0.2249
# 5 18.5828 6.9813 10.4683 12.2080 31.3128 1.2030
# 6 12.1808 8.8516 5.8858 -0.2249 1.2030 22.5751
#
#
#
# Elastic Compliance Matrix: (Units=1/GPa)
#
#
# Indices 1 2 3 4 5 6 
#
# 1 0.007650 -0.001268 -0.000998 0.003106 -0.005017 -0.003072
# 2 -0.001268 0.010417 -0.001639 -0.005030 0.001057 -0.003079
# 3 -0.000998 -0.001639 0.009388 -0.000732 -0.001850 -0.001175
# 4 0.003106 -0.005030 -0.000732 0.060008 -0.023964 0.002362
# 5 -0.005017 0.001057 -0.001850 -0.023964 0.044632 0.000157
# 6 -0.003072 -0.003079 -0.001175 0.002362 0.000157 0.047483
#
#
# Mechanical properties :
#
#
# Convention : Reuss Voigt Hill
#
# Bulk Modulus (GPa) = 50.90782 59.50109 55.20446
# Shear Modulus (GPa) = 25.78146 35.61263 30.69705
#
# Velocity S-wave (km/s) = 3.35225 3.93990 3.65789
# Velocity P-wave (km/s) = 6.09698 6.82879 6.47323
#
# Compressibility (1/GPa) = 0.01964335
#
# Stress axis : x y z
#
# Youngs Moduli (GPa) = 130.71927 95.99769 106.51883
#
# Poissons Ratio (x) = 0.12174 0.10632
# Poissons Ratio (y) = 0.16577 0.17464
# Poissons Ratio (z) = 0.13048 0.15739
#
# Static dielectric constant tensor:
#      x y z
#    x 1.913420 0.013620 0.036580 
#    y 0.013620 1.922060 0.058660 
#    z 0.036580 0.058660 1.927220 
# 
# From -- ./inp_files/447995.got.cif
#   From: 2010.05.17/outbox.cif.g08.bks.cpg/sg2_224_cif.got.tgz:447995.got - 2010.06.03 11:33:40.
