data_PCOD9111771
_publ_section_title
;
Structure prediction by ZEFSAII (Michael W. Deem and Ramdas Pophale) SiO2 
 PCOD9111771
Probable space group: P -1
;
_chemical_formula_sum "Si O2"
_cell_formula_units_Z 14
_cell_length_a 7.374580
_cell_length_b 7.680197
_cell_length_c 10.995441
_cell_angle_alpha 119.163280
_cell_angle_beta 72.606112
_cell_angle_gamma 101.558444
_cell_volume 517.830949
_symmetry_space_group_name_H-M "P -1"
_symmetry_group_IT_number 2
_symmetry_cell_setting 'triclinic'
loop_
_space_group_symop_operation_xyz
x,y,z
-x,-y,-z
loop_
_atom_site_type_symbol
_atom_site_label
_atom_site_fract_x
_atom_site_fract_y
_atom_site_fract_z
Si Si1 0.482301 0.089158 0.214369
Si Si2 0.865964 0.179292 0.566129
Si Si3 0.675847 0.474743 0.193069
Si Si4 0.468016 0.757241 0.494799
Si Si5 0.091866 0.008295 0.851823
Si Si6 0.895453 0.422928 0.367401
Si Si7 0.193317 0.741502 0.122935
O O1 0.529764 0.286221 0.193320
O O2 0.414396 0.152172 0.384106
O O3 0.682043 0.993081 0.172949
O O4 0.335459 0.933761 0.128102
O O5 0.688323 0.111586 0.493052
O O6 0.794830 0.265306 0.737375
O O7 0.979429 0.377515 0.554754
O O8 0.000000 0.000000 0.500000
O O9 0.580765 0.664317 0.331158
O O10 0.853465 0.450738 0.239699
O O11 0.737045 0.440915 0.031221
O O12 0.316704 0.595374 0.537399
O O13 0.029893 0.799365 0.725268
O O14 0.011430 0.189344 0.854801
O O15 0.000000 0.000000 0.000000
#
# Coordination Sequence:
#
# PCOD9111771 Si02
#       7
#     2   2   2   2   2   2   2
#     4  10  22  41  70 101 133 178 227 286 325 404
#     4  12  28  43  65 102 138 184 226 279 346 404
#     4  10  22  42  70 102 127 177 231 280 342 393
#     4  10  23  45  69  96 131 182 235 273 339 402
#     4  10  20  43  70 104 131 177 230 275 340 401
#     4  10  22  44  71  96 134 180 230 281 329 409
#     4  12  25  43  70 105 144 171 226 283 345 406
#
# _framework density 27.03585
#
# number of rings (size 3 to 8) (size 9 to 14) (size 15 to 20)
#    0.000    1.714    2.857    4.286    6.000    1.714 
#    2.571    0.000    0.000    0.000    0.000    0.000 
#    0.000    0.000    0.000    0.000    0.000    0.000 
#
# Total GULP energy -78438.368479 kJ/mol
# GULP energy per Si atom -5602.740606 kJ/mol
# Density = 2.697432 g / cm^3
# Si number density = 27.035850 Si / 1000 Ang^3
#
#
#
# Elastic Constant Matrix: (Units=GPa)
#
#
# Indices 1 2 3 4 5 6 
#
# 1 63.1861 3.5599 33.9327 25.4808 -1.6076 0.6873
# 2 3.5599 82.1480 25.4816 16.2963 -4.6389 7.1347
# 3 33.9327 25.4816 229.4103 10.3982 -12.2066 -6.2793
# 4 25.4808 16.2963 10.3982 44.1792 4.1704 13.9119
# 5 -1.6076 -4.6389 -12.2066 4.1704 35.3857 10.3096
# 6 0.6873 7.1347 -6.2793 13.9119 10.3096 41.1039
#
#
#
# Elastic Compliance Matrix: (Units=1/GPa)
#
#
# Indices 1 2 3 4 5 6 
#
# 1 0.023223 0.002605 -0.002895 -0.014873 0.001141 0.003465
# 2 0.002605 0.014016 -0.001565 -0.006143 0.002509 -0.001266
# 3 -0.002895 -0.001565 0.005000 0.000796 0.001140 0.000528
# 4 -0.014873 -0.006143 0.000796 0.036800 -0.002517 -0.010387
# 5 0.001141 0.002509 0.001140 -0.002517 0.031463 -0.007320
# 6 0.003465 -0.001266 0.000528 -0.010387 -0.007320 0.029923
#
#
# Mechanical properties :
#
#
# Convention : Reuss Voigt Hill
#
# Bulk Modulus (GPa) = 25.95338 55.63252 40.79295
# Shear Modulus (GPa) = 31.85179 44.91844 38.38512
#
# Velocity S-wave (km/s) = 3.43612 4.08050 3.77209
# Velocity P-wave (km/s) = 5.03617 6.54390 5.83890
#
# Compressibility (1/GPa) = 0.03853062
#
# Stress axis : x y z
#
# Youngs Moduli (GPa) = 43.06072 71.34796 199.99785
#
# Poissons Ratio (x) = -0.18590 0.57893
# Poissons Ratio (y) = -0.11219 0.31298
# Poissons Ratio (z) = 0.12465 0.11165
#
# Static dielectric constant tensor:
#      x y z
#    x 2.118750 0.006020 0.026580 
#    y 0.006020 2.252340 -0.075960 
#    z 0.026580 -0.075960 2.122840 
# 
# From -- ./inp_files/380545.got.cif
#   From: 2010.05.17/outbox.cif.g08.bks.cpg/sg2_191_cif.got.tgz:380545.got - 2010.06.03 11:33:40.
