data_PCOD9111315
_publ_section_title
;
Structure prediction by ZEFSAII (Michael W. Deem and Ramdas Pophale) SiO2 
 PCOD9111315
Probable space group: P -1
;
_chemical_formula_sum "Si O2"
_cell_formula_units_Z 12
_cell_length_a 8.219469
_cell_length_b 9.253901
_cell_length_c 14.139642
_cell_angle_alpha 70.720509
_cell_angle_beta 48.445152
_cell_angle_gamma 109.680056
_cell_volume 468.844110
_symmetry_space_group_name_H-M "P -1"
_symmetry_group_IT_number 2
_symmetry_cell_setting 'triclinic'
loop_
_space_group_symop_operation_xyz
x,y,z
-x,-y,-z
loop_
_atom_site_type_symbol
_atom_site_label
_atom_site_fract_x
_atom_site_fract_y
_atom_site_fract_z
Si Si1 0.676284 0.462830 0.376248
Si Si2 0.598692 0.979350 0.366440
Si Si3 0.175306 0.861280 0.948906
Si Si4 0.549789 0.354158 0.772657
Si Si5 0.052853 0.135232 0.541897
Si Si6 0.344940 0.255708 0.074063
O O1 0.500000 0.500000 0.500000
O O2 0.402189 0.281675 0.434595
O O3 0.675311 0.312129 0.474322
O O4 0.040051 0.700704 0.130462
O O5 0.676594 0.124347 0.211468
O O6 0.964393 0.094183 0.217070
O O7 0.500000 0.000000 0.500000
O O8 0.466203 0.149091 0.799503
O O9 0.807975 0.745841 0.089734
O O10 0.863164 0.642467 0.562124
O O11 0.560255 0.326777 0.885282
O O12 0.000000 0.000000 0.500000
O O13 0.727500 0.913426 0.783494
O O14 0.500000 0.500000 0.000000
#
# Coordination Sequence:
#
# PCOD9111315 Si02
#       6
#     2   2   2   2   2   2
#     4  10  19  33  54  80 105 136 182 224 261 314
#     4  10  21  34  51  79 111 138 171 222 272 312
#     4   9  17  30  50  72 102 137 174 213 264 312
#     4   9  16  28  47  75 100 128 171 222 257 300
#     4  10  17  26  45  76 105 125 163 219 265 299
#     4  10  18  30  49  74 104 135 174 214 262 314
#
# _framework density 25.594860000000001
#
# number of rings (size 3 to 8) (size 9 to 14) (size 15 to 20)
#    0.000    2.333    1.667    5.000    0.000    0.667 
#    0.000    0.000    0.000    1.000    0.000   11.667 
#    0.000    0.000    0.000    0.000    0.000    0.000 
#
# Total GULP energy -66982.078981 kJ/mol
# GULP energy per Si atom -5581.839915 kJ/mol
# Density = 2.553661 g / cm^3
# Si number density = 25.594860 Si / 1000 Ang^3
#
#
#
# Elastic Constant Matrix: (Units=GPa)
#
#
# Indices 1 2 3 4 5 6 
#
# 1 72.9535 17.6710 67.0495 -1.0377 9.5289 6.6182
# 2 17.6710 106.5110 78.2740 -14.4734 10.3822 15.5862
# 3 67.0495 78.2740 235.4087 -18.5875 47.1202 -9.0870
# 4 -1.0377 -14.4734 -18.5875 49.5022 -8.3778 6.1256
# 5 9.5289 10.3822 47.1202 -8.3778 62.0735 1.6936
# 6 6.6182 15.5862 -9.0870 6.1256 1.6936 22.8139
#
#
#
# Elastic Compliance Matrix: (Units=1/GPa)
#
#
# Indices 1 2 3 4 5 6 
#
# 1 0.021362 0.004523 -0.008637 0.000653 0.002967 -0.013123
# 2 0.004523 0.017694 -0.008235 0.005084 0.003784 -0.018326
# 3 -0.008637 -0.008235 0.011124 -0.001120 -0.006256 0.013328
# 4 0.000653 0.005084 -0.001120 0.023149 0.003312 -0.010570
# 5 0.002967 0.003784 -0.006256 0.003312 0.020445 -0.008344
# 6 -0.013123 -0.018326 0.013328 -0.010570 -0.008344 0.068927
#
#
# Mechanical properties :
#
#
# Convention : Reuss Voigt Hill
#
# Bulk Modulus (GPa) = 39.24225 82.31803 60.78014
# Shear Modulus (GPa) = 25.52399 43.66983 34.59691
#
# Velocity S-wave (km/s) = 3.16132 4.13509 3.68055
# Velocity P-wave (km/s) = 5.35637 7.41825 6.46997
#
# Compressibility (1/GPa) = 0.02548274
#
# Stress axis : x y z
#
# Youngs Moduli (GPa) = 46.81138 56.51677 89.89213
#
# Poissons Ratio (x) = -0.25564 0.77643
# Poissons Ratio (y) = -0.21174 0.74025
# Poissons Ratio (z) = 0.40433 0.46541
#
# Static dielectric constant tensor:
#      x y z
#    x 2.131090 0.001910 0.049900 
#    y 0.001910 2.056760 -0.001930 
#    z 0.049900 -0.001930 2.078420 
# 
# From -- ./inp_files/164356.got.cif
#   From: 2010.05.17/outbox.cif.g08.bks.cpg/sg2_83_cif.got.tgz:164356.got - 2010.06.03 11:33:40.
