data_PCOD9111205
_publ_section_title
;
Structure prediction by ZEFSAII (Michael W. Deem and Ramdas Pophale) SiO2 
 PCOD9111205
Probable space group: P -1
;
_chemical_formula_sum "Si O2"
_cell_formula_units_Z 15
_cell_length_a 9.361259
_cell_length_b 11.169555
_cell_length_c 16.010312
_cell_angle_alpha 149.905019
_cell_angle_beta 119.864672
_cell_angle_gamma 55.570016
_cell_volume 692.221039
_symmetry_space_group_name_H-M "P -1"
_symmetry_group_IT_number 2
_symmetry_cell_setting 'triclinic'
loop_
_space_group_symop_operation_xyz
x,y,z
-x,-y,-z
loop_
_atom_site_type_symbol
_atom_site_label
_atom_site_fract_x
_atom_site_fract_y
_atom_site_fract_z
Si Si1 0.992586 0.629574 0.665421
Si Si2 0.500000 0.500000 0.500000
Si Si3 0.377165 0.005991 0.194536
Si Si4 0.641262 0.396500 0.183016
Si Si5 0.826114 0.262855 0.458842
Si Si6 0.680165 0.322893 0.629754
Si Si7 0.338006 0.228448 0.731273
Si Si8 0.027652 0.327989 0.822400
O O1 0.824700 0.871912 0.768089
O O2 0.959679 0.418219 0.590300
O O3 0.000000 0.500000 0.500000
O O4 0.168021 0.683687 0.770831
O O5 0.453274 0.229515 0.331733
O O6 0.679827 0.355637 0.403736
O O7 0.488985 0.852070 0.210761
O O8 0.393583 0.829565 0.013343
O O9 0.489075 0.517439 0.276433
O O10 0.641267 0.605900 0.239737
O O11 0.684649 0.371827 0.560218
O O12 0.909260 0.968886 0.314436
O O13 0.849585 0.369997 0.745774
O O14 0.694824 0.029806 0.463578
O O15 0.176745 0.363210 0.826355
O O16 0.000000 0.500000 0.000000
#
# Coordination Sequence:
#
# PCOD9111205 Si02
#       8
#     2   1   2   2   2   2   2   2
#     4  11  25  44  68  94 135 183 225 270 345 408
#     4  10  20  42  70  84 126 176 220 264 336 388
#     4  11  23  43  70  98 133 175 228 282 335 399
#     4  12  25  41  67 104 137 172 226 284 339 402
#     4  10  22  42  67  88 130 176 223 265 331 399
#     4  11  22  39  66  95 130 176 219 265 341 403
#     4  11  22  43  68  95 139 175 220 278 351 396
#     4  11  22  38  64  99 132 169 223 276 331 395
#
# _framework density 21.669381000000001
#
# number of rings (size 3 to 8) (size 9 to 14) (size 15 to 20)
#    0.000    1.067    2.667    6.000    1.867    2.133 
#    0.000    5.333    0.000    0.000    0.000    0.000 
#    0.000    0.000    0.000    0.000    0.000    0.000 
#
# Total GULP energy -83733.777139 kJ/mol
# GULP energy per Si atom -5582.251809 kJ/mol
# Density = 2.162006 g / cm^3
# Si number density = 21.669381 Si / 1000 Ang^3
#
#
#
# Elastic Constant Matrix: (Units=GPa)
#
#
# Indices 1 2 3 4 5 6 
#
# 1 133.2208 63.3035 65.8663 -0.2667 -23.4973 -18.6040
# 2 63.3035 91.1386 53.3858 -20.5252 2.9136 -19.5554
# 3 65.8663 53.3858 113.8713 -26.9963 -19.3713 -11.0820
# 4 -0.2667 -20.5252 -26.9963 18.0969 -4.1844 3.1000
# 5 -23.4973 2.9136 -19.3713 -4.1844 38.3692 -0.6480
# 6 -18.6040 -19.5554 -11.0820 3.1000 -0.6480 36.5857
#
#
#
# Elastic Compliance Matrix: (Units=1/GPa)
#
#
# Indices 1 2 3 4 5 6 
#
# 1 0.022873 -0.015994 -0.013742 -0.037704 0.004209 0.002189
# 2 -0.015994 0.029601 0.003351 0.035920 -0.006340 0.005548
# 3 -0.013742 0.003351 0.028591 0.048895 0.011089 -0.000483
# 4 -0.037704 0.035920 0.048895 0.172376 0.017676 0.000545
# 5 0.004209 -0.006340 0.011089 0.017676 0.036669 0.001262
# 6 0.002189 0.005548 -0.000483 0.000545 0.001262 0.031242
#
#
# Mechanical properties :
#
#
# Convention : Reuss Voigt Hill
#
# Bulk Modulus (GPa) = 35.34150 78.14910 56.74530
# Shear Modulus (GPa) = 13.03596 28.98870 21.01233
#
# Velocity S-wave (km/s) = 2.45538 3.66152 3.11734
# Velocity P-wave (km/s) = 4.93795 7.34971 6.26106
#
# Compressibility (1/GPa) = 0.02829535
#
# Stress axis : x y z
#
# Youngs Moduli (GPa) = 43.71953 33.78208 34.97624
#
# Poissons Ratio (x) = 0.54031 0.48063
# Poissons Ratio (y) = 0.69926 -0.11719
# Poissons Ratio (z) = 0.60078 -0.11319
#
# Static dielectric constant tensor:
#      x y z
#    x 1.840570 -0.076760 0.008300 
#    y -0.076760 2.075130 -0.110590 
#    z 0.008300 -0.110590 1.767320 
# 
# From -- ./inp_files/391569.got.cif
#   From: 2010.05.17/outbox.cif.g08.bks.cpg/sg2_196_cif.got.tgz:391569.got - 2010.06.03 11:33:40.
