data_PCOD9111559
_publ_section_title
;
Structure prediction by ZEFSAII (Michael W. Deem and Ramdas Pophale) SiO2 
 PCOD9111559
Probable space group: P -1
;
_chemical_formula_sum "Si O2"
_cell_formula_units_Z 15
_cell_length_a 12.181186
_cell_length_b 9.898651
_cell_length_c 10.885705
_cell_angle_alpha 143.396239
_cell_angle_beta 128.708318
_cell_angle_gamma 65.739714
_cell_volume 598.906610
_symmetry_space_group_name_H-M "P -1"
_symmetry_group_IT_number 2
_symmetry_cell_setting 'triclinic'
loop_
_space_group_symop_operation_xyz
x,y,z
-x,-y,-z
loop_
_atom_site_type_symbol
_atom_site_label
_atom_site_fract_x
_atom_site_fract_y
_atom_site_fract_z
Si Si1 0.552927 0.254345 0.772010
Si Si2 0.796402 0.602440 0.592752
Si Si3 0.765935 0.847273 0.995356
Si Si4 0.265005 0.386656 0.719492
Si Si5 0.279270 0.646656 0.273498
Si Si6 0.446857 0.728744 0.682226
Si Si7 0.016982 0.722241 0.432037
Si Si8 0.000000 0.500000 0.000000
O O1 0.412622 0.300603 0.775583
O O2 0.609922 0.383639 0.778008
O O3 0.500000 0.000000 0.500000
O O4 0.685222 0.338457 0.017716
O O5 0.780923 0.670503 0.492882
O O6 0.666531 0.386907 0.379879
O O7 0.937996 0.497524 0.630089
O O8 0.784442 0.797610 0.827872
O O9 0.602816 0.877119 0.933322
O O10 0.878464 0.053375 0.279566
O O11 0.793037 0.605306 0.898862
O O12 0.144907 0.273733 0.645948
O O13 0.363202 0.796072 0.552411
O O14 0.129693 0.684402 0.142449
O O15 0.500000 0.500000 0.500000
O O16 0.036622 0.677629 0.271546
#
# Coordination Sequence:
#
# PCOD9111559 Si02
#       8
#     2   2   2   2   2   2   2   1
#     4  11  25  46  69  96 133 184 224 277 339 400
#     4  10  21  43  63  96 141 173 221 285 325 390
#     4  10  22  40  69  98 128 176 226 275 340 395
#     4  11  25  44  66  99 140 177 228 274 330 408
#     4  10  20  43  66  92 134 170 215 286 327 383
#     4   8  16  36  64  89 121 163 216 270 322 375
#     4  12  25  42  67 102 135 184 222 269 343 401
#     4  12  22  44  64  96 144 170 224 282 332 394
#
# _framework density 25.045642999999998
#
# number of rings (size 3 to 8) (size 9 to 14) (size 15 to 20)
#    0.000    1.867    4.000    2.800    0.000    5.867 
#    7.200    0.000    0.000    0.000    0.000    0.000 
#    0.000    0.000    0.000    0.000    0.000    0.000 
#
# Total GULP energy -83586.352834 kJ/mol
# GULP energy per Si atom -5572.423522 kJ/mol
# Density = 2.498864 g / cm^3
# Si number density = 25.045643 Si / 1000 Ang^3
#
#
#
# Elastic Constant Matrix: (Units=GPa)
#
#
# Indices 1 2 3 4 5 6 
#
# 1 150.8750 1.3574 61.4151 0.4767 2.4197 -0.2968
# 2 1.3574 20.8926 17.7992 -8.7550 -2.3291 3.2252
# 3 61.4151 17.7992 197.6782 -25.2709 8.2604 2.1903
# 4 0.4767 -8.7550 -25.2709 28.4477 -1.6175 -8.2017
# 5 2.4197 -2.3291 8.2604 -1.6175 36.5210 -19.4638
# 6 -0.2968 3.2252 2.1903 -8.2017 -19.4638 24.9960
#
#
#
# Elastic Compliance Matrix: (Units=1/GPa)
#
#
# Indices 1 2 3 4 5 6 
#
# 1 0.007776 0.000864 -0.002805 -0.002686 -0.000502 -0.001045
# 2 0.000864 0.057936 -0.003791 0.015907 0.007145 0.003650
# 3 -0.002805 -0.003791 0.006975 0.005258 -0.000964 0.000819
# 4 -0.002686 0.015907 0.005258 0.054223 0.018001 0.029263
# 5 -0.000502 0.007145 -0.000964 0.018001 0.053990 0.047104
# 6 -0.001045 0.003650 0.000819 0.029263 0.047104 0.085732
#
#
# Mechanical properties :
#
#
# Convention : Reuss Voigt Hill
#
# Bulk Modulus (GPa) = 16.33325 58.95436 37.64381
# Shear Modulus (GPa) = 16.75033 37.25123 27.00078
#
# Velocity S-wave (km/s) = 2.58891 3.86078 3.28695
# Velocity P-wave (km/s) = 3.93346 6.59273 5.42845
#
# Compressibility (1/GPa) = 0.06122480
#
# Stress axis : x y z
#
# Youngs Moduli (GPa) = 128.59547 17.26049 143.37565
#
# Poissons Ratio (x) = -0.01491 0.40210
# Poissons Ratio (y) = -0.11112 0.54347
# Poissons Ratio (z) = 0.36065 0.06543
#
# Static dielectric constant tensor:
#      x y z
#    x 1.668020 0.277470 -0.110280 
#    y 0.277470 1.660580 0.135950 
#    z -0.110280 0.135950 2.245350 
# 
# From -- ./inp_files/429288.got.cif
#   From: 2010.05.17/outbox.cif.g08.bks.cpg/sg2_215_cif.got.tgz:429288.got - 2010.06.03 11:33:40.
