data_PCOD9111876
_publ_section_title
;
Structure prediction by ZEFSAII (Michael W. Deem and Ramdas Pophale) SiO2 
 PCOD9111876
Probable space group: P -1
;
_chemical_formula_sum "Si O2"
_cell_formula_units_Z 14
_cell_length_a 8.772225
_cell_length_b 4.958531
_cell_length_c 14.405749
_cell_angle_alpha 85.176101
_cell_angle_beta 74.937646
_cell_angle_gamma 111.119012
_cell_volume 553.347385
_symmetry_space_group_name_H-M "P -1"
_symmetry_group_IT_number 2
_symmetry_cell_setting 'triclinic'
loop_
_space_group_symop_operation_xyz
x,y,z
-x,-y,-z
loop_
_atom_site_type_symbol
_atom_site_label
_atom_site_fract_x
_atom_site_fract_y
_atom_site_fract_z
Si Si1 0.728260 0.783090 0.011989
Si Si2 0.103121 0.445477 0.400019
Si Si3 0.424525 0.202059 0.144565
Si Si4 0.052621 0.814177 0.870160
Si Si5 0.496887 0.610666 0.392981
Si Si6 0.928763 0.029455 0.710923
Si Si7 0.354823 0.782527 0.734311
O O1 0.566903 0.520311 0.087952
O O2 0.835160 0.003600 0.067390
O O3 0.660167 0.933149 0.936466
O O4 0.860487 0.659702 0.945878
O O5 0.299706 0.535313 0.397798
O O6 0.021924 0.114810 0.381927
O O7 0.000000 0.500000 0.500000
O O8 0.085482 0.664993 0.317579
O O9 0.264428 0.201634 0.228496
O O10 0.521955 0.065463 0.201268
O O11 0.163289 0.653033 0.810181
O O12 0.036136 0.019244 0.783643
O O13 0.500000 0.500000 0.500000
O O14 0.581263 0.448881 0.315262
O O15 0.608176 0.958535 0.353421
#
# Coordination Sequence:
#
# PCOD9111876 Si02
#       7
#     2   2   2   2   2   2   2
#     4   9  21  44  72 107 147 193 246 299 358 422
#     4  12  26  47  75 105 140 188 241 299 360 432
#     4  10  20  43  73 103 143 196 238 297 351 433
#     4  10  24  42  70 111 148 192 239 301 358 426
#     4  12  27  47  72 107 140 187 236 298 360 432
#     4  11  25  45  74 106 147 190 240 290 364 431
#     4  12  25  44  74 103 148 186 239 290 362 429
#
# _framework density 25.300566
#
# number of rings (size 3 to 8) (size 9 to 14) (size 15 to 20)
#    0.000    1.143    2.857    1.714    4.000    2.286 
#    0.000   10.000    0.000    0.000    0.000    0.000 
#    0.000    0.000    0.000    0.000    0.000    0.000 
#
# Total GULP energy -78404.876443 kJ/mol
# GULP energy per Si atom -5600.348317 kJ/mol
# Density = 2.524298 g / cm^3
# Si number density = 25.300566 Si / 1000 Ang^3
#
#
#
# Elastic Constant Matrix: (Units=GPa)
#
#
# Indices 1 2 3 4 5 6 
#
# 1 119.9783 20.9394 57.0912 20.9650 -7.1609 -12.9716
# 2 20.9394 69.5919 11.7796 11.3468 -7.6347 -12.4127
# 3 57.0912 11.7796 119.5728 5.2221 -1.0583 -8.0152
# 4 20.9650 11.3468 5.2221 24.2258 -6.0548 -2.9173
# 5 -7.1609 -7.6347 -1.0583 -6.0548 69.3407 7.1773
# 6 -12.9716 -12.4127 -8.0152 -2.9173 7.1773 33.2029
#
#
#
# Elastic Compliance Matrix: (Units=1/GPa)
#
#
# Indices 1 2 3 4 5 6 
#
# 1 0.013063 -0.001009 -0.005560 -0.009308 0.000076 0.002550
# 2 -0.001009 0.016731 -0.000557 -0.006066 0.000677 0.005047
# 3 -0.005560 -0.000557 0.010990 0.002699 -0.000291 0.000573
# 4 -0.009308 -0.006066 0.002699 0.052209 0.003109 -0.001337
# 5 0.000076 0.000677 -0.000291 0.003109 0.015058 -0.002769
# 6 0.002550 0.005047 0.000573 -0.001337 -0.002769 0.033620
#
#
# Mechanical properties :
#
#
# Convention : Reuss Voigt Hill
#
# Bulk Modulus (GPa) = 37.68883 54.30703 45.99793
# Shear Modulus (GPa) = 30.34590 39.97605 35.16098
#
# Velocity S-wave (km/s) = 3.46702 3.97929 3.73195
# Velocity P-wave (km/s) = 5.56379 6.52873 6.06548
#
# Compressibility (1/GPa) = 0.02653306
#
# Stress axis : x y z
#
# Youngs Moduli (GPa) = 76.55143 59.76958 90.98806
#
# Poissons Ratio (x) = 0.06029 0.50586
# Poissons Ratio (y) = 0.07721 0.05072
# Poissons Ratio (z) = 0.42560 0.03332
#
# Static dielectric constant tensor:
#      x y z
#    x 2.018230 -0.023620 -0.003060 
#    y -0.023620 1.981150 0.016930 
#    z -0.003060 0.016930 2.015280 
# 
# From -- ./inp_files/487761.got.cif
#   From: 2010.05.17/outbox.cif.g08.bks.cpg/sg2_244_cif.got.tgz:487761.got - 2010.06.03 11:33:40.
