data_PCOD9111380
_publ_section_title
;
Structure prediction by ZEFSAII (Michael W. Deem and Ramdas Pophale) SiO2 
 PCOD9111380
Probable space group: P -1
;
_chemical_formula_sum "Si O2"
_cell_formula_units_Z 15
_cell_length_a 17.097083
_cell_length_b 5.556218
_cell_length_c 7.756833
_cell_angle_alpha 59.060025
_cell_angle_beta 108.782257
_cell_angle_gamma 82.559833
_cell_volume 557.465919
_symmetry_space_group_name_H-M "P -1"
_symmetry_group_IT_number 2
_symmetry_cell_setting 'triclinic'
loop_
_space_group_symop_operation_xyz
x,y,z
-x,-y,-z
loop_
_atom_site_type_symbol
_atom_site_label
_atom_site_fract_x
_atom_site_fract_y
_atom_site_fract_z
Si Si1 0.917131 0.026738 0.046287
Si Si2 0.193595 0.673478 0.586476
Si Si3 0.143781 0.181609 0.600279
Si Si4 0.334629 0.830219 0.430164
Si Si5 0.510652 0.733057 0.779428
Si Si6 0.183016 0.359793 0.056561
Si Si7 0.500000 0.000000 0.000000
Si Si8 0.662963 0.204306 0.962359
O O1 0.926882 0.837108 0.301995
O O2 0.859988 0.883837 0.939706
O O3 0.873612 0.362203 0.969311
O O4 0.000000 0.000000 0.000000
O O5 0.148135 0.511450 0.483002
O O6 0.201384 0.486533 0.838633
O O7 0.137029 0.015393 0.480437
O O8 0.287506 0.655569 0.580991
O O9 0.242006 0.965750 0.820681
O O10 0.435195 0.762576 0.578825
O O11 0.271860 0.174675 0.289517
O O12 0.328067 0.785171 0.239704
O O13 0.500000 0.500000 0.000000
O O14 0.608931 0.548729 0.855129
O O15 0.489929 0.026384 0.771008
O O16 0.598415 0.028940 0.036833
#
# Coordination Sequence:
#
# PCOD9111380 Si02
#       8
#     2   2   2   2   2   2   1   2
#     4  10  20  42  76 107 140 184 234 290 357 432
#     4  10  22  42  65  96 141 184 230 285 351 418
#     4  10  22  42  69  97 140 185 231 286 358 422
#     4  12  24  44  69 104 139 189 244 298 352 422
#     4  10  24  44  62  94 134 188 234 294 353 407
#     4  10  23  43  69 108 143 187 235 287 358 434
#     4  10  24  42  64  88 136 178 234 296 346 410
#     4  11  23  41  66  98 133 185 239 296 351 414
#
# _framework density 26.907475999999999
#
# number of rings (size 3 to 8) (size 9 to 14) (size 15 to 20)
#    0.000    1.600    2.667    2.400    5.600    1.600 
#    7.200    0.000    0.000   19.200    0.000    0.000 
#    0.000    0.000    0.000    0.000    0.000    0.000 
#
# Total GULP energy -83742.471969 kJ/mol
# GULP energy per Si atom -5582.831465 kJ/mol
# Density = 2.684623 g / cm^3
# Si number density = 26.907476 Si / 1000 Ang^3
#
#
#
# Elastic Constant Matrix: (Units=GPa)
#
#
# Indices 1 2 3 4 5 6 
#
# 1 160.3641 55.2274 40.4178 -4.0224 -46.8731 -13.2965
# 2 55.2274 193.0365 43.6882 6.7548 -13.8945 -13.8170
# 3 40.4178 43.6882 100.4608 8.8923 -13.7807 -21.7687
# 4 -4.0224 6.7548 8.8923 35.0152 -10.2702 -10.2969
# 5 -46.8731 -13.8945 -13.7807 -10.2702 41.3940 4.0206
# 6 -13.2965 -13.8170 -21.7687 -10.2969 4.0206 42.9807
#
#
#
# Elastic Compliance Matrix: (Units=1/GPa)
#
#
# Indices 1 2 3 4 5 6 
#
# 1 0.011737 -0.001987 -0.002129 0.006881 0.013397 0.002309
# 2 -0.001987 0.006150 -0.001874 -0.001203 -0.001130 0.000231
# 3 -0.002129 -0.001874 0.012867 -0.001620 0.000373 0.004833
# 4 0.006881 -0.001203 -0.001620 0.036902 0.015194 0.008341
# 5 0.013397 -0.001130 0.000373 0.015194 0.042490 0.003635
# 6 0.002309 0.000231 0.004833 0.008341 0.003635 0.028161
#
#
# Mechanical properties :
#
#
# Convention : Reuss Voigt Hill
#
# Bulk Modulus (GPa) = 53.26232 81.39203 67.32718
# Shear Modulus (GPa) = 31.93972 44.84650 38.39311
#
# Velocity S-wave (km/s) = 3.44905 4.08694 3.78147
# Velocity P-wave (km/s) = 5.97485 7.25157 6.64395
#
# Compressibility (1/GPa) = 0.01877500
#
# Stress axis : x y z
#
# Youngs Moduli (GPa) = 85.20274 162.59607 77.71716
#
# Poissons Ratio (x) = 0.32312 0.16543
# Poissons Ratio (y) = 0.16932 0.14561
# Poissons Ratio (z) = 0.18137 0.30464
#
# Static dielectric constant tensor:
#      x y z
#    x 2.080080 0.046360 -0.030280 
#    y 0.046360 2.226010 -0.117810 
#    z -0.030280 -0.117810 2.101410 
# 
# From -- ./inp_files/42542.got.cif
#   From: 2010.05.17/outbox.cif.g08.bks.cpg/sg2_22_cif.got.tgz:42542.got - 2010.06.03 11:33:40.
