data_PCOD9111892
_publ_section_title
;
Structure prediction by ZEFSAII (Michael W. Deem and Ramdas Pophale) SiO2 
 PCOD9111892
Probable space group: P -1
;
_chemical_formula_sum "Si O2"
_cell_formula_units_Z 12
_cell_length_a 7.821662
_cell_length_b 11.156507
_cell_length_c 9.168800
_cell_angle_alpha 65.431482
_cell_angle_beta 84.353170
_cell_angle_gamma 129.654438
_cell_volume 478.710212
_symmetry_space_group_name_H-M "P -1"
_symmetry_group_IT_number 2
_symmetry_cell_setting 'triclinic'
loop_
_space_group_symop_operation_xyz
x,y,z
-x,-y,-z
loop_
_atom_site_type_symbol
_atom_site_label
_atom_site_fract_x
_atom_site_fract_y
_atom_site_fract_z
Si Si1 0.473131 0.103170 0.062501
Si Si2 0.592636 0.646505 0.613962
Si Si3 0.600814 0.196421 0.334300
Si Si4 0.859660 0.545125 0.766536
Si Si5 0.775196 0.646140 0.986602
Si Si6 0.950034 0.933428 0.204515
O O1 0.608335 0.174264 0.171662
O O2 0.173290 0.954768 0.200086
O O3 0.613532 0.311275 0.873893
O O4 0.500000 0.000000 0.000000
O O5 0.581913 0.781455 0.630994
O O6 0.799531 0.652597 0.643812
O O7 0.312498 0.427801 0.801934
O O8 0.678993 0.733644 0.399179
O O9 0.865241 0.367376 0.321579
O O10 0.500000 0.000000 0.500000
O O11 0.880551 0.584766 0.919067
O O12 0.500000 0.500000 0.000000
O O13 0.955435 0.874389 0.828468
O O14 0.000000 0.000000 0.000000
#
# Coordination Sequence:
#
# PCOD9111892 Si02
#       6
#     2   2   2   2   2   2
#     4  12  27  48  69 112 158 190 244 320 378 441
#     4  11  24  47  79 106 147 192 260 303 359 448
#     4  12  26  45  81 115 142 199 259 301 372 456
#     4  11  23  49  78 108 148 199 252 307 374 444
#     4  10  20  43  74 102 140 188 248 299 357 439
#     4  12  27  46  72 108 151 197 243 311 378 436
#
# _framework density 25.067354999999999
#
# number of rings (size 3 to 8) (size 9 to 14) (size 15 to 20)
#    0.000    0.667    5.000    3.500    4.667    6.000 
#    0.000    3.333    0.000    0.000    0.000    0.000 
#    0.000    0.000    0.000    0.000    0.000    0.000 
#
# Total GULP energy -66930.392462 kJ/mol
# GULP energy per Si atom -5577.532705 kJ/mol
# Density = 2.501030 g / cm^3
# Si number density = 25.067355 Si / 1000 Ang^3
#
#
#
# Elastic Constant Matrix: (Units=GPa)
#
#
# Indices 1 2 3 4 5 6 
#
# 1 115.6524 42.0961 28.7562 -4.0574 17.3859 -19.5398
# 2 42.0961 58.7162 22.9935 8.3193 4.7601 -38.1160
# 3 28.7562 22.9935 139.0197 -6.9340 13.7189 -18.2642
# 4 -4.0574 8.3193 -6.9340 35.4880 0.7204 -0.7641
# 5 17.3859 4.7601 13.7189 0.7204 28.9219 -0.6463
# 6 -19.5398 -38.1160 -18.2642 -0.7641 -0.6463 48.7927
#
#
#
# Elastic Compliance Matrix: (Units=1/GPa)
#
#
# Indices 1 2 3 4 5 6 
#
# 1 0.013736 -0.012887 -0.000507 0.004514 -0.006114 -0.004767
# 2 -0.012887 0.050384 -0.002101 -0.013011 0.001518 0.033228
# 3 -0.000507 -0.002101 0.008238 0.002137 -0.003282 0.001229
# 4 0.004514 -0.013011 0.002137 0.032061 -0.002543 -0.007088
# 5 -0.006114 0.001518 -0.003282 -0.002543 0.039577 -0.002007
# 6 -0.004767 0.033228 0.001229 -0.007088 -0.002007 0.044865
#
#
# Mechanical properties :
#
#
# Convention : Reuss Voigt Hill
#
# Bulk Modulus (GPa) = 24.17460 55.67557 39.92509
# Shear Modulus (GPa) = 21.40037 37.27668 29.33853
#
# Velocity S-wave (km/s) = 2.92501 3.86043 3.42480
# Velocity P-wave (km/s) = 4.59047 6.49070 5.62145
#
# Compressibility (1/GPa) = 0.04136572
#
# Stress axis : x y z
#
# Youngs Moduli (GPa) = 72.80276 19.84767 121.39359
#
# Poissons Ratio (x) = 0.25578 0.06160
# Poissons Ratio (y) = 0.93824 0.25503
# Poissons Ratio (z) = 0.03695 0.04170
#
# Static dielectric constant tensor:
#      x y z
#    x 1.322840 -0.220710 0.018090 
#    y -0.220710 1.934380 0.038930 
#    z 0.018090 0.038930 2.148090 
# 
# From -- ./inp_files/176344.got.cif
#   From: 2010.05.17/outbox.cif.g08.bks.cpg/sg2_89_cif.got.tgz:176344.got - 2010.06.03 11:33:40.
