data_PCOD9111426
_publ_section_title
;
Structure prediction by ZEFSAII (Michael W. Deem and Ramdas Pophale) SiO2 
 PCOD9111426
Probable space group: P -1
;
_chemical_formula_sum "Si O2"
_cell_formula_units_Z 16
_cell_length_a 27.341600
_cell_length_b 5.445773
_cell_length_c 5.288997
_cell_angle_alpha 79.755718
_cell_angle_beta 80.059300
_cell_angle_gamma 121.262332
_cell_volume 628.722310
_symmetry_space_group_name_H-M "P -1"
_symmetry_group_IT_number 2
_symmetry_cell_setting 'triclinic'
loop_
_space_group_symop_operation_xyz
x,y,z
-x,-y,-z
loop_
_atom_site_type_symbol
_atom_site_label
_atom_site_fract_x
_atom_site_fract_y
_atom_site_fract_z
Si Si1 0.539149 0.369328 0.922995
Si Si2 0.236598 0.192562 0.839910
Si Si3 0.296298 0.957097 0.120938
Si Si4 0.960788 0.131450 0.073321
Si Si5 0.817562 0.144546 0.574894
Si Si6 0.667260 0.152281 0.397021
Si Si7 0.430709 0.717719 0.583559
Si Si8 0.930250 0.221338 0.582564
O O1 0.568076 0.483270 0.600615
O O2 0.500000 0.500000 0.000000
O O3 0.583223 0.439392 0.104037
O O4 0.500000 0.000000 0.000000
O O5 0.201150 0.967996 0.676653
O O6 0.269998 0.528460 0.651729
O O7 0.201410 0.121010 0.149859
O O8 0.292154 0.179890 0.890999
O O9 0.328316 0.040763 0.348258
O O10 0.224051 0.753233 0.295148
O O11 0.326071 0.855063 0.912611
O O12 0.927671 0.020849 0.390801
O O13 0.916505 0.057735 0.893700
O O14 0.000000 0.500000 0.000000
O O15 0.000000 0.000000 0.000000
O O16 0.888895 0.335628 0.515268
O O17 0.610449 0.170634 0.484000
O O18 0.500000 0.000000 0.500000
O O19 0.000000 0.500000 0.500000
#
# Coordination Sequence:
#
# PCOD9111426 Si02
#       8
#     2   2   2   2   2   2   2   2
#     4  10  21  43  63  92 134 176 218 267 328 406
#     4  10  22  41  61  94 127 163 223 271 327 378
#     4  10  22  41  66  92 129 171 220 275 321 391
#     4  10  21  39  61  91 133 174 223 264 327 404
#     4  10  20  43  62  96 136 161 224 276 327 392
#     4  12  22  43  68  95 130 173 223 266 346 390
#     4  10  23  43  62  98 133 168 219 274 335 408
#     4  10  21  39  67  93 134 173 212 270 339 403
#
# _framework density 25.448436999999998
#
# number of rings (size 3 to 8) (size 9 to 14) (size 15 to 20)
#    0.750    1.000    1.250    3.000    0.000    0.000 
#   13.500   15.000    0.000    0.000    0.000    0.000 
#    0.000    0.000    0.000    0.000    0.000    0.000 
#
# Total GULP energy -89135.825153 kJ/mol
# GULP energy per Si atom -5570.989072 kJ/mol
# Density = 2.539052 g / cm^3
# Si number density = 25.448437 Si / 1000 Ang^3
#
#
#
# Elastic Constant Matrix: (Units=GPa)
#
#
# Indices 1 2 3 4 5 6 
#
# 1 130.0791 39.3469 62.8379 21.8950 19.5441 8.2985
# 2 39.3469 53.9728 32.4214 10.3573 4.3784 -6.4813
# 3 62.8379 32.4214 186.5827 55.6573 18.8742 6.5450
# 4 21.8950 10.3573 55.6573 47.3663 0.2415 -0.8128
# 5 19.5441 4.3784 18.8742 0.2415 49.0610 10.7381
# 6 8.2985 -6.4813 6.5450 -0.8128 10.7381 35.2893
#
#
#
# Elastic Compliance Matrix: (Units=1/GPa)
#
#
# Indices 1 2 3 4 5 6 
#
# 1 0.011598 -0.007202 -0.001759 -0.001756 -0.002644 -0.002960
# 2 -0.007202 0.026009 -0.002573 0.000785 0.000010 0.006963
# 3 -0.001759 -0.002573 0.009680 -0.010009 -0.002451 -0.001339
# 4 -0.001756 0.000785 -0.010009 0.033527 0.003876 0.002006
# 5 -0.002644 0.000010 -0.002451 0.003876 0.023681 -0.006038
# 6 -0.002960 0.006963 -0.001339 0.002006 -0.006038 0.032444
#
#
# Mechanical properties :
#
#
# Convention : Reuss Voigt Hill
#
# Bulk Modulus (GPa) = 41.29368 71.09410 56.19389
# Shear Modulus (GPa) = 29.74793 42.07856 35.91325
#
# Velocity S-wave (km/s) = 3.42270 4.07072 3.76069
# Velocity P-wave (km/s) = 5.64637 7.07753 6.40207
#
# Compressibility (1/GPa) = 0.02421678
#
# Stress axis : x y z
#
# Youngs Moduli (GPa) = 86.22428 38.44891 103.30974
#
# Poissons Ratio (x) = 0.27691 0.18175
# Poissons Ratio (y) = 0.62098 0.26585
# Poissons Ratio (z) = 0.15169 0.09894
#
# Static dielectric constant tensor:
#      x y z
#    x 2.078320 -0.080780 -0.022640 
#    y -0.080780 2.475360 -0.211700 
#    z -0.022640 -0.211700 2.194920 
# 
# From -- ./inp_files/121564.got.cif
#   From: 2010.05.17/outbox.cif.g08.bks.cpg/sg2_61_cif.got.tgz:121564.got - 2010.06.03 11:33:40.
