data_PCOD9111741
_publ_section_title
;
Structure prediction by ZEFSAII (Michael W. Deem and Ramdas Pophale) SiO2 
 PCOD9111741
Probable space group: P -1
;
_chemical_formula_sum "Si O2"
_cell_formula_units_Z 14
_cell_length_a 7.419874
_cell_length_b 16.883252
_cell_length_c 11.281653
_cell_angle_alpha 30.080245
_cell_angle_beta 57.957377
_cell_angle_gamma 59.143881
_cell_volume 595.603373
_symmetry_space_group_name_H-M "P -1"
_symmetry_group_IT_number 2
_symmetry_cell_setting 'triclinic'
loop_
_space_group_symop_operation_xyz
x,y,z
-x,-y,-z
loop_
_atom_site_type_symbol
_atom_site_label
_atom_site_fract_x
_atom_site_fract_y
_atom_site_fract_z
Si Si1 0.635150 0.781395 0.536967
Si Si2 0.954228 0.634215 0.445048
Si Si3 0.770647 0.958509 0.671197
Si Si4 0.656784 0.437886 0.419566
Si Si5 0.435258 0.287204 0.092483
Si Si6 0.525689 0.856340 0.088571
Si Si7 0.196231 0.895245 0.932197
O O1 0.406430 0.886080 0.456413
O O2 0.609220 0.686820 0.788750
O O3 0.728615 0.667433 0.546924
O O4 0.799811 0.916021 0.331069
O O5 0.116752 0.592474 0.553094
O O6 0.000000 0.500000 0.500000
O O7 0.995763 0.805755 0.152839
O O8 0.693023 0.852908 0.729324
O O9 0.000000 0.000000 0.500000
O O10 0.743290 0.859023 0.931643
O O11 0.500000 0.500000 0.500000
O O12 0.547117 0.283788 0.626196
O O13 0.637738 0.562268 0.159231
O O14 0.679361 0.210519 0.078116
O O15 0.351327 0.866799 0.029853
O O16 0.500000 0.000000 0.000000
#
# Coordination Sequence:
#
# PCOD9111741 Si02
#       7
#     2   2   2   2   2   2   2
#     4  10  22  43  67  98 134 176 231 272 343 403
#     4  11  24  42  67 100 138 183 224 279 341 401
#     4  10  21  40  66 103 133 172 223 286 338 404
#     4  11  20  43  70  91 135 180 228 274 340 403
#     4  10  20  43  69  94 133 178 222 282 344 397
#     4   9  19  36  66  99 126 172 228 275 325 402
#     4   9  19  41  68  93 130 180 221 283 333 402
#
# _framework density 23.505572999999998
#
# number of rings (size 3 to 8) (size 9 to 14) (size 15 to 20)
#    0.000    2.286    4.286    2.143    0.000    5.143 
#    5.143    0.714    3.143    0.000    0.000    0.000 
#    0.000    0.000    0.000    0.000    0.000    0.000 
#
# Total GULP energy -78163.163319 kJ/mol
# GULP energy per Si atom -5583.083094 kJ/mol
# Density = 2.345207 g / cm^3
# Si number density = 23.505573 Si / 1000 Ang^3
#
#
#
# Elastic Constant Matrix: (Units=GPa)
#
#
# Indices 1 2 3 4 5 6 
#
# 1 65.3228 57.9416 46.0668 16.8884 10.6009 -8.8036
# 2 57.9416 152.2659 53.0641 15.0643 -5.1792 8.5414
# 3 46.0668 53.0641 108.2580 14.6752 20.1794 -1.0809
# 4 16.8884 15.0643 14.6752 43.2649 0.8772 0.1843
# 5 10.6009 -5.1792 20.1794 0.8772 36.2242 6.4980
# 6 -8.8036 8.5414 -1.0809 0.1843 6.4980 28.3324
#
#
#
# Elastic Compliance Matrix: (Units=1/GPa)
#
#
# Indices 1 2 3 4 5 6 
#
# 1 0.037489 -0.012801 -0.006095 -0.007934 -0.012476 0.018188
# 2 -0.012801 0.013247 -0.003019 0.001267 0.009119 -0.010186
# 3 -0.006095 -0.003019 0.014845 -0.001466 -0.007101 0.001221
# 4 -0.007934 0.001267 -0.001466 0.026214 0.003375 -0.003848
# 5 -0.012476 0.009119 -0.007101 0.003375 0.039293 -0.015930
# 6 0.018188 -0.010186 0.001221 -0.003848 -0.015930 0.047743
#
#
# Mechanical properties :
#
#
# Convention : Reuss Voigt Hill
#
# Bulk Modulus (GPa) = 45.97657 71.11020 58.54338
# Shear Modulus (GPa) = 21.74743 32.81591 27.28167
#
# Velocity S-wave (km/s) = 3.04502 3.74048 3.41052
# Velocity P-wave (km/s) = 5.65377 6.99808 6.36154
#
# Compressibility (1/GPa) = 0.02175021
#
# Stress axis : x y z
#
# Youngs Moduli (GPa) = 26.67457 75.48861 67.36101
#
# Poissons Ratio (x) = 0.96635 0.41058
# Poissons Ratio (y) = 0.34147 0.20337
# Poissons Ratio (z) = 0.16259 0.22791
#
# Static dielectric constant tensor:
#      x y z
#    x 1.957320 -0.082960 0.040780 
#    y -0.082960 1.883000 -0.003080 
#    z 0.040780 -0.003080 1.919280 
# 
# From -- ./inp_files/401617.got.cif
#   From: 2010.05.17/outbox.cif.g08.bks.cpg/sg2_201_cif.got.tgz:401617.got - 2010.06.03 11:33:40.
