data_PCOD9111683
_publ_section_title
;
Structure prediction by ZEFSAII (Michael W. Deem and Ramdas Pophale) SiO2 
 PCOD9111683
Probable space group: P -1
;
_chemical_formula_sum "Si O2"
_cell_formula_units_Z 16
_cell_length_a 10.076005
_cell_length_b 8.944266
_cell_length_c 11.574237
_cell_angle_alpha 75.865744
_cell_angle_beta 71.059634
_cell_angle_gamma 116.510108
_cell_volume 784.076615
_symmetry_space_group_name_H-M "P -1"
_symmetry_group_IT_number 2
_symmetry_cell_setting 'triclinic'
loop_
_space_group_symop_operation_xyz
x,y,z
-x,-y,-z
loop_
_atom_site_type_symbol
_atom_site_label
_atom_site_fract_x
_atom_site_fract_y
_atom_site_fract_z
Si Si1 0.197381 0.146250 0.757013
Si Si2 0.066611 0.529840 0.812651
Si Si3 0.205428 0.794301 0.423685
Si Si4 0.683196 0.039045 0.409722
Si Si5 0.883098 0.592761 0.401093
Si Si6 0.573638 0.940799 0.889417
Si Si7 0.795808 0.830271 0.974736
Si Si8 0.264524 0.544813 0.957371
O O1 0.199716 0.306160 0.649913
O O2 0.245881 0.188009 0.871871
O O3 0.306460 0.092711 0.660194
O O4 0.998760 0.965522 0.862517
O O5 0.185370 0.751937 0.716567
O O6 0.010788 0.409290 0.735838
O O7 0.193612 0.501023 0.854567
O O8 0.894669 0.472740 0.932906
O O9 0.241497 0.939901 0.487369
O O10 0.225173 0.628652 0.492476
O O11 0.013623 0.700988 0.448355
O O12 0.336143 0.902912 0.263562
O O13 0.500000 0.000000 0.500000
O O14 0.429572 0.746879 0.903509
O O15 0.709804 0.916047 0.916647
O O16 0.500000 0.000000 0.000000
O O17 0.722145 0.624883 0.983538
#
# Coordination Sequence:
#
# PCOD9111683 Si02
#       8
#     2   2   2   2   2   2   2   2
#     4  11  23  43  71 103 133 181 229 282 339 398
#     4  10  21  39  66  99 132 175 225 267 347 402
#     4  10  23  42  66  98 131 179 222 274 343 401
#     4  11  24  42  67  97 138 175 224 280 336 413
#     4  10  20  43  68  94 135 171 229 277 330 416
#     4  12  26  42  68 102 138 176 228 285 340 398
#     4  11  24  42  68 102 142 174 231 283 335 404
#     4  11  22  39  67  98 139 179 218 285 335 403
#
# _framework density 20.406169999999999
#
# number of rings (size 3 to 8) (size 9 to 14) (size 15 to 20)
#    0.000    1.250    3.750    1.875    3.500    0.500 
#    0.000    5.000    0.000    0.000    0.000    0.000 
#    0.000    0.000    0.000    0.000    0.000    0.000 
#
# Total GULP energy -89209.374108 kJ/mol
# GULP energy per Si atom -5575.585882 kJ/mol
# Density = 2.035972 g / cm^3
# Si number density = 20.406170 Si / 1000 Ang^3
#
#
#
# Elastic Constant Matrix: (Units=GPa)
#
#
# Indices 1 2 3 4 5 6 
#
# 1 62.1769 32.2201 35.1273 9.9732 -1.8293 -0.7145
# 2 32.2201 84.2836 31.7760 8.6007 -2.9773 -3.1742
# 3 35.1273 31.7760 96.5004 1.9554 8.9936 -8.5674
# 4 9.9732 8.6007 1.9554 34.5821 0.0417 0.7756
# 5 -1.8293 -2.9773 8.9936 0.0417 28.4835 -2.7385
# 6 -0.7145 -3.1742 -8.5674 0.7756 -2.7385 35.0375
#
#
#
# Elastic Compliance Matrix: (Units=1/GPa)
#
#
# Indices 1 2 3 4 5 6 
#
# 1 0.024063 -0.005953 -0.007108 -0.005029 0.003037 -0.001438
# 2 -0.005953 0.015618 -0.003081 -0.002013 0.002300 0.000764
# 3 -0.007108 -0.003081 0.014646 0.001933 -0.005145 0.002712
# 4 -0.005029 -0.002013 0.001933 0.030773 -0.001246 -0.000591
# 5 0.003037 0.002300 -0.005145 -0.001246 0.037358 0.001960
# 6 -0.001438 0.000764 0.002712 -0.000591 0.001960 0.029410
#
#
# Mechanical properties :
#
#
# Convention : Reuss Voigt Hill
#
# Bulk Modulus (GPa) = 45.36754 49.02309 47.19532
# Shear Modulus (GPa) = 26.10981 29.20978 27.65980
#
# Velocity S-wave (km/s) = 3.58090 3.78751 3.68565
# Velocity P-wave (km/s) = 6.27516 6.57289 6.42575
#
# Compressibility (1/GPa) = 0.02204219
#
# Stress axis : x y z
#
# Youngs Moduli (GPa) = 41.55774 64.03064 68.27925
#
# Poissons Ratio (x) = 0.38116 0.48532
# Poissons Ratio (y) = 0.24739 0.21039
# Poissons Ratio (z) = 0.29538 0.19730
#
# Static dielectric constant tensor:
#      x y z
#    x 1.903540 0.016190 0.185310 
#    y 0.016190 1.745620 -0.003290 
#    z 0.185310 -0.003290 1.871970 
# 
# From -- ./inp_files/381670.got.cif
#   From: 2010.05.17/outbox.cif.g08.bks.cpg/sg2_191_cif.got.tgz:381670.got - 2010.06.03 11:33:40.
