data_PCOD9111290
_publ_section_title
;
Structure prediction by ZEFSAII (Michael W. Deem and Ramdas Pophale) SiO2 
 PCOD9111290
Probable space group: P -1
;
_chemical_formula_sum "Si O2"
_cell_formula_units_Z 14
_cell_length_a 12.202695
_cell_length_b 11.677042
_cell_length_c 7.722429
_cell_angle_alpha 80.696343
_cell_angle_beta 97.300832
_cell_angle_gamma 146.495221
_cell_volume 599.366120
_symmetry_space_group_name_H-M "P -1"
_symmetry_group_IT_number 2
_symmetry_cell_setting 'triclinic'
loop_
_space_group_symop_operation_xyz
x,y,z
-x,-y,-z
loop_
_atom_site_type_symbol
_atom_site_label
_atom_site_fract_x
_atom_site_fract_y
_atom_site_fract_z
Si Si1 0.888033 0.396478 0.224102
Si Si2 0.170223 0.244604 0.966139
Si Si3 0.154046 0.028225 0.520439
Si Si4 0.473197 0.396481 0.246708
Si Si5 0.512514 0.840140 0.867854
Si Si6 0.172596 0.806042 0.397696
Si Si7 0.113443 0.834790 0.898991
O O1 0.701056 0.292246 0.120994
O O2 0.820857 0.265957 0.413245
O O3 0.964745 0.357599 0.132934
O O4 0.039414 0.621906 0.276857
O O5 0.321178 0.348681 0.128984
O O6 0.046339 0.250543 0.982167
O O7 0.304415 0.359366 0.790884
O O8 0.000000 0.000000 0.000000
O O9 0.366968 0.264164 0.435760
O O10 0.103263 0.877138 0.414157
O O11 0.145017 0.953673 0.719459
O O12 0.000000 0.000000 0.500000
O O13 0.491692 0.297613 0.155416
O O14 0.611861 0.991418 0.688732
O O15 0.669959 0.990688 0.015879
#
# Coordination Sequence:
#
# PCOD9111290 Si02
#       7
#     2   2   2   2   2   2   2
#     4  10  22  43  65  99 135 177 232 269 342 402
#     4  11  22  43  67  94 138 176 229 278 341 402
#     4  10  20  42  72 102 138 173 230 285 336 403
#     4  10  23  40  70  95 130 185 222 275 345 405
#     4  11  22  40  66  98 135 178 223 278 340 404
#     4   9  22  42  69  95 132 186 217 278 341 401
#     4  11  23  40  69 102 140 176 223 293 329 394
#
# _framework density 23.35801
#
# number of rings (size 3 to 8) (size 9 to 14) (size 15 to 20)
#    0.000    1.714    2.857    0.857    2.000    0.571 
#    2.571    0.714   15.714    0.000    0.000    0.000 
#    0.000    0.000    0.000    0.000    0.000    0.000 
#
# Total GULP energy -78283.270886 kJ/mol
# GULP energy per Si atom -5591.662206 kJ/mol
# Density = 2.330485 g / cm^3
# Si number density = 23.358010 Si / 1000 Ang^3
#
#
#
# Elastic Constant Matrix: (Units=GPa)
#
#
# Indices 1 2 3 4 5 6 
#
# 1 152.6487 72.7701 51.5984 2.6150 4.4368 0.0109
# 2 72.7701 138.7765 36.9190 -24.7447 -4.7731 7.0246
# 3 51.5984 36.9190 77.8626 -18.0546 -3.2841 16.0048
# 4 2.6150 -24.7447 -18.0546 44.2502 1.4960 1.4391
# 5 4.4368 -4.7731 -3.2841 1.4960 32.7536 -0.0548
# 6 0.0109 7.0246 16.0048 1.4391 -0.0548 37.1422
#
#
#
# Elastic Compliance Matrix: (Units=1/GPa)
#
#
# Indices 1 2 3 4 5 6 
#
# 1 0.012443 -0.006021 -0.008297 -0.007547 -0.003042 0.004998
# 2 -0.006021 0.011655 0.000815 0.007221 0.002261 -0.002830
# 3 -0.008297 0.000815 0.022610 0.010404 0.003017 -0.010293
# 4 -0.007547 0.007221 0.010404 0.031501 0.001667 -0.007065
# 5 -0.003042 0.002261 0.003017 0.001667 0.031496 -0.001745
# 6 0.004998 -0.002830 -0.010293 -0.007065 -0.001745 0.032164
#
#
# Mechanical properties :
#
#
# Convention : Reuss Voigt Hill
#
# Bulk Modulus (GPa) = 50.75179 76.87366 63.81272
# Shear Modulus (GPa) = 28.49960 36.69589 32.59774
#
# Velocity S-wave (km/s) = 3.49681 3.96791 3.73979
# Velocity P-wave (km/s) = 6.17078 7.34676 6.78430
#
# Compressibility (1/GPa) = 0.01970374
#
# Stress axis : x y z
#
# Youngs Moduli (GPa) = 80.36667 85.80223 44.22798
#
# Poissons Ratio (x) = 0.51660 0.36694
# Poissons Ratio (y) = 0.48387 -0.03606
# Poissons Ratio (z) = 0.66677 -0.06996
#
# Static dielectric constant tensor:
#      x y z
#    x 1.857470 -0.048150 -0.016480 
#    y -0.048150 1.905070 -0.030740 
#    z -0.016480 -0.030740 1.937810 
# 
# From -- ./inp_files/262398.got.cif
#   From: 2010.05.17/outbox.cif.g08.bks.cpg/sg2_132_cif.got.tgz:262398.got - 2010.06.03 11:33:40.
