data_PCOD9111894
_publ_section_title
;
Structure prediction by ZEFSAII (Michael W. Deem and Ramdas Pophale) SiO2 
 PCOD9111894
Probable space group: P -1
;
_chemical_formula_sum "Si O2"
_cell_formula_units_Z 14
_cell_length_a 10.946652
_cell_length_b 10.695235
_cell_length_c 13.818686
_cell_angle_alpha 146.624656
_cell_angle_beta 41.984852
_cell_angle_gamma 125.090979
_cell_volume 590.719651
_symmetry_space_group_name_H-M "P -1"
_symmetry_group_IT_number 2
_symmetry_cell_setting 'triclinic'
loop_
_space_group_symop_operation_xyz
x,y,z
-x,-y,-z
loop_
_atom_site_type_symbol
_atom_site_label
_atom_site_fract_x
_atom_site_fract_y
_atom_site_fract_z
Si Si1 0.837307 0.070164 0.716023
Si Si2 0.318548 0.660166 0.671095
Si Si3 0.033419 0.256748 0.175220
Si Si4 0.379767 0.126925 0.442702
Si Si5 0.924776 0.011023 0.839456
Si Si6 0.426194 0.287448 0.858655
Si Si7 0.794534 0.618387 0.128804
O O1 0.878790 0.956506 0.721730
O O2 0.669764 0.968795 0.694414
O O3 0.828462 0.344926 0.914850
O O4 0.000000 0.000000 0.500000
O O5 0.500000 0.500000 0.500000
O O6 0.136095 0.587777 0.679256
O O7 0.418585 0.797965 0.621931
O O8 0.248406 0.837387 0.910833
O O9 0.028609 0.216203 0.268244
O O10 0.231891 0.283447 0.029321
O O11 0.000000 0.000000 0.000000
O O12 0.240153 0.326102 0.701392
O O13 0.403393 0.909307 0.356452
O O14 0.068247 0.202023 0.871029
O O15 0.382289 0.312595 0.788414
O O16 0.500000 0.500000 0.000000
#
# Coordination Sequence:
#
# PCOD9111894 Si02
#       7
#     2   2   2   2   2   2   2
#     4  12  27  43  70 109 149 195 256 310 366 443
#     4  11  23  42  74 109 144 192 251 304 372 451
#     4  10  20  43  74 104 146 199 244 302 380 445
#     4  12  25  44  71 111 145 195 252 304 377 443
#     4  11  22  45  74  99 149 203 243 304 376 446
#     4  12  23  45  76 110 152 193 250 312 371 454
#     4  12  24  44  76 104 149 195 252 304 379 441
#
# _framework density 23.699905999999999
#
# number of rings (size 3 to 8) (size 9 to 14) (size 15 to 20)
#    0.000    0.571    8.571    1.714    2.000    0.571 
#    0.000    0.000    0.000    3.429    0.000    0.000 
#    0.000    0.000    0.000    0.000    0.000    0.000 
#
# Total GULP energy -78018.648461 kJ/mol
# GULP energy per Si atom -5572.760604 kJ/mol
# Density = 2.364596 g / cm^3
# Si number density = 23.699906 Si / 1000 Ang^3
#
#
#
# Elastic Constant Matrix: (Units=GPa)
#
#
# Indices 1 2 3 4 5 6 
#
# 1 170.8924 21.9909 45.3475 3.2135 8.4546 -19.6918
# 2 21.9909 75.3602 34.8441 -10.5127 9.8895 22.6066
# 3 45.3475 34.8441 120.0742 6.9763 11.5963 1.5157
# 4 3.2135 -10.5127 6.9763 38.9046 -2.7189 1.8121
# 5 8.4546 9.8895 11.5963 -2.7189 39.5029 -4.1296
# 6 -19.6918 22.6066 1.5157 1.8121 -4.1296 50.2970
#
#
#
# Elastic Compliance Matrix: (Units=1/GPa)
#
#
# Indices 1 2 3 4 5 6 
#
# 1 0.007192 -0.002578 -0.001957 -0.001128 0.000029 0.004076
# 2 -0.002578 0.021139 -0.005055 0.007067 -0.003913 -0.010934
# 3 -0.001957 -0.005055 0.010868 -0.003320 -0.001613 0.001166
# 4 -0.001128 0.007067 -0.003320 0.028576 0.000946 -0.004470
# 5 0.000029 -0.003913 -0.001613 0.000946 0.027247 0.004022
# 6 0.004076 -0.010934 0.001166 -0.004470 0.004022 0.026848
#
#
# Mechanical properties :
#
#
# Convention : Reuss Voigt Hill
#
# Bulk Modulus (GPa) = 49.95328 63.41021 56.68175
# Shear Modulus (GPa) = 33.84701 43.35052 38.59877
#
# Velocity S-wave (km/s) = 3.78319 4.28149 4.04003
# Velocity P-wave (km/s) = 6.34086 7.15927 6.76245
#
# Compressibility (1/GPa) = 0.02001871
#
# Stress axis : x y z
#
# Youngs Moduli (GPa) = 139.04089 47.30688 92.01208
#
# Poissons Ratio (x) = 0.12195 0.18006
# Poissons Ratio (y) = 0.35844 0.46515
# Poissons Ratio (z) = 0.27208 0.23915
#
# Static dielectric constant tensor:
#      x y z
#    x 2.076010 -0.082590 -0.051480 
#    y -0.082590 2.042470 0.038540 
#    z -0.051480 0.038540 1.964470 
# 
# From -- ./inp_files/519319.got.cif
#   From: 2010.05.17/outbox.cif.g08.bks.cpg/sg2_260_cif.got.tgz:519319.got - 2010.06.03 11:33:40.
