data_PCOD9111838
_publ_section_title
;
Structure prediction by ZEFSAII (Michael W. Deem and Ramdas Pophale) SiO2 
 PCOD9111838
Probable space group: P -1
;
_chemical_formula_sum "Si O2"
_cell_formula_units_Z 14
_cell_length_a 5.367978
_cell_length_b 34.367867
_cell_length_c 9.269038
_cell_angle_alpha 148.730671
_cell_angle_beta 129.189824
_cell_angle_gamma 59.361341
_cell_volume 685.962572
_symmetry_space_group_name_H-M "P -1"
_symmetry_group_IT_number 2
_symmetry_cell_setting 'triclinic'
loop_
_space_group_symop_operation_xyz
x,y,z
-x,-y,-z
loop_
_atom_site_type_symbol
_atom_site_label
_atom_site_fract_x
_atom_site_fract_y
_atom_site_fract_z
Si Si1 0.739191 0.340655 0.809084
Si Si2 0.731873 0.277898 0.910404
Si Si3 0.279637 0.220743 0.127380
Si Si4 0.282441 0.154874 0.229186
Si Si5 0.609576 0.586114 0.839492
Si Si6 0.378981 0.989726 0.085722
Si Si7 0.612393 0.076843 0.705932
O O1 0.854843 0.291325 0.831682
O O2 0.573593 0.284251 0.452776
O O3 0.478410 0.388627 0.949374
O O4 0.025375 0.392247 0.005911
O O5 0.434175 0.214904 0.588066
O O6 0.601018 0.358076 0.153684
O O7 0.994776 0.251829 0.031481
O O8 0.199681 0.199933 0.197935
O O9 0.383812 0.143951 0.853801
O O10 0.542294 0.094094 0.103593
O O11 0.954927 0.106299 0.989066
O O12 0.500000 0.500000 0.500000
O O13 0.598070 0.050689 0.452181
O O14 0.500000 0.000000 0.000000
O O15 0.000000 0.000000 0.000000
O O16 0.500000 0.000000 0.500000
#
# Coordination Sequence:
#
# PCOD9111838 Si02
#       7
#     2   2   2   2   2   2   2
#     4   9  22  42  67  98 134 171 217 262 328 389
#     4   9  23  40  67  96 128 172 217 267 330 396
#     4  11  23  44  66  96 128 176 220 278 330 397
#     4  11  24  43  66  91 131 174 221 279 334 400
#     4  10  20  43  71  97 137 174 210 265 325 390
#     4  12  27  44  66  96 129 172 228 280 337 395
#     4  12  25  42  66  91 134 176 229 284 343 388
#
# _framework density 20.409275999999998
#
# number of rings (size 3 to 8) (size 9 to 14) (size 15 to 20)
#    0.857    0.571    1.429    3.429    4.000    1.143 
#    0.000    1.429    0.000    0.000    0.000    0.000 
#    0.000    0.000    0.000    0.000    0.000    0.000 
#
# Total GULP energy -78157.762239 kJ/mol
# GULP energy per Si atom -5582.697303 kJ/mol
# Density = 2.036282 g / cm^3
# Si number density = 20.409276 Si / 1000 Ang^3
#
#
#
# Elastic Constant Matrix: (Units=GPa)
#
#
# Indices 1 2 3 4 5 6 
#
# 1 106.4276 35.3770 47.7494 5.6278 18.1523 5.4251
# 2 35.3770 105.3446 76.1172 -10.6494 8.6672 -17.7090
# 3 47.7494 76.1172 158.2211 22.0985 16.3622 1.8052
# 4 5.6278 -10.6494 22.0985 30.0444 1.5537 -10.5695
# 5 18.1523 8.6672 16.3622 1.5537 42.9262 2.7127
# 6 5.4251 -17.7090 1.8052 -10.5695 2.7127 25.0083
#
#
#
# Elastic Compliance Matrix: (Units=1/GPa)
#
#
# Indices 1 2 3 4 5 6 
#
# 1 0.014249 -0.014614 0.006097 -0.019876 -0.003294 -0.021923
# 2 -0.014614 0.077268 -0.048124 0.102470 -0.001411 0.104820
# 3 0.006097 -0.048124 0.038266 -0.070144 -0.000628 -0.067740
# 4 -0.019876 0.102470 -0.070144 0.180821 -0.002115 0.158587
# 5 -0.003294 -0.001411 -0.000628 -0.002115 0.025536 -0.003903
# 6 -0.021923 0.104820 -0.067740 0.158587 -0.003903 0.191306
#
#
# Mechanical properties :
#
#
# Convention : Reuss Voigt Hill
#
# Bulk Modulus (GPa) = 60.59943 76.49783 68.54863
# Shear Modulus (GPa) = 7.73721 33.64575 20.69148
#
# Velocity S-wave (km/s) = 1.94917 4.06464 3.18752
# Velocity P-wave (km/s) = 5.90104 7.71956 6.87073
#
# Compressibility (1/GPa) = 0.01650181
#
# Stress axis : x y z
#
# Youngs Moduli (GPa) = 70.18223 12.94193 26.13268
#
# Poissons Ratio (x) = 0.18914 -0.15934
# Poissons Ratio (y) = 1.02566 1.25760
# Poissons Ratio (z) = -0.42793 0.62281
#
# Static dielectric constant tensor:
#      x y z
#    x 1.794460 0.018190 -0.009930 
#    y 0.018190 1.731330 -0.014160 
#    z -0.009930 -0.014160 1.705540 
# 
# From -- ./inp_files/143465.got.cif
#   From: 2010.05.17/outbox.cif.g08.bks.cpg/sg2_72_cif.got.tgz:143465.got - 2010.06.03 11:33:40.
