data_PCOD9111491
_publ_section_title
;
Structure prediction by ZEFSAII (Michael W. Deem and Ramdas Pophale) SiO2 
 PCOD9111491
Probable space group: P -1
;
_chemical_formula_sum "Si O2"
_cell_formula_units_Z 14
_cell_length_a 9.962287
_cell_length_b 18.287199
_cell_length_c 14.934193
_cell_angle_alpha 22.876511
_cell_angle_beta 45.732946
_cell_angle_gamma 36.342687
_cell_volume 615.189339
_symmetry_space_group_name_H-M "P -1"
_symmetry_group_IT_number 2
_symmetry_cell_setting 'triclinic'
loop_
_space_group_symop_operation_xyz
x,y,z
-x,-y,-z
loop_
_atom_site_type_symbol
_atom_site_label
_atom_site_fract_x
_atom_site_fract_y
_atom_site_fract_z
Si Si1 0.328581 0.954477 0.848207
Si Si2 0.753265 0.943698 0.432883
Si Si3 0.762953 0.356862 0.964666
Si Si4 0.389639 0.956616 0.269760
Si Si5 0.127643 0.248045 0.770617
Si Si6 0.946841 0.457921 0.924176
Si Si7 0.365577 0.556628 0.778436
O O1 0.219647 0.040428 0.704543
O O2 0.493010 0.038798 0.697008
O O3 0.154540 0.073667 0.877879
O O4 0.488405 0.675835 0.087121
O O5 0.500000 0.000000 0.500000
O O6 0.772141 0.139986 0.243232
O O7 0.937125 0.687571 0.672982
O O8 0.773963 0.499305 0.877938
O O9 0.543614 0.497910 0.842960
O O10 0.981997 0.265353 0.902115
O O11 0.608046 0.848825 0.223452
O O12 0.309164 0.789770 0.499052
O O13 0.184515 0.222032 0.052422
O O14 0.000000 0.500000 0.500000
O O15 0.848129 0.424646 0.098018
#
# Coordination Sequence:
#
# PCOD9111491 Si02
#       7
#     2   2   2   2   2   2   2
#     4   9  22  40  63  89 119 158 213 244 299 362
#     4  11  22  39  62  93 120 162 198 250 305 359
#     4  11  23  39  65  90 119 163 210 244 300 358
#     4  10  24  40  62  93 122 166 196 254 315 346
#     4  10  20  43  65  87 121 163 210 252 290 363
#     4  12  24  39  61  95 131 155 197 259 307 365
#     4  11  21  39  64  92 118 162 205 250 308 360
#
# _framework density 22.757221999999999
#
# number of rings (size 3 to 8) (size 9 to 14) (size 15 to 20)
#    0.857    0.571    4.286    2.571    2.000    4.571 
#    2.571    0.714    0.000    0.000    0.000    0.000 
#    0.000    0.000    0.000    0.000    0.000    0.000 
#
# Total GULP energy -78230.441389 kJ/mol
# GULP energy per Si atom -5587.888671 kJ/mol
# Density = 2.270543 g / cm^3
# Si number density = 22.757222 Si / 1000 Ang^3
#
#
#
# Elastic Constant Matrix: (Units=GPa)
#
#
# Indices 1 2 3 4 5 6 
#
# 1 44.4286 2.1904 3.8013 0.3717 -11.3636 10.1320
# 2 2.1904 114.7360 36.9578 -16.3944 15.6714 -7.4386
# 3 3.8013 36.9578 143.2683 -14.7983 -10.8119 -19.2904
# 4 0.3717 -16.3944 -14.7983 31.1008 -1.2700 -1.0363
# 5 -11.3636 15.6714 -10.8119 -1.2700 25.8886 -7.9360
# 6 10.1320 -7.4386 -19.2904 -1.0363 -7.9360 32.0975
#
#
#
# Elastic Compliance Matrix: (Units=1/GPa)
#
#
# Indices 1 2 3 4 5 6 
#
# 1 0.027051 -0.002634 -0.000231 -0.001579 0.011287 -0.006549
# 2 -0.002634 0.011716 -0.003344 0.004198 -0.009658 -0.000716
# 3 -0.000231 -0.003344 0.009854 0.003523 0.008489 0.007433
# 4 -0.001579 0.004198 0.003523 0.036299 0.001598 0.005156
# 5 0.011287 -0.009658 0.008489 0.001598 0.057187 0.013492
# 6 -0.006549 -0.000716 0.007433 0.005156 0.013492 0.041026
#
#
# Mechanical properties :
#
#
# Convention : Reuss Voigt Hill
#
# Bulk Modulus (GPa) = 27.62220 43.14798 35.38509
# Shear Modulus (GPa) = 24.08261 35.11627 29.59944
#
# Velocity S-wave (km/s) = 3.25659 3.93247 3.61038
# Velocity P-wave (km/s) = 5.12880 6.29447 5.74130
#
# Compressibility (1/GPa) = 0.03620277
#
# Stress axis : x y z
#
# Youngs Moduli (GPa) = 36.96696 85.35602 101.48114
#
# Poissons Ratio (x) = 0.22480 0.02349
# Poissons Ratio (y) = 0.09736 0.33934
# Poissons Ratio (z) = 0.00856 0.28542
#
# Static dielectric constant tensor:
#      x y z
#    x 1.890250 -0.036860 0.003680 
#    y -0.036860 1.851520 -0.009780 
#    z 0.003680 -0.009780 1.830250 
# 
# From -- ./inp_files/273545.got.cif
#   From: 2010.05.17/outbox.cif.g08.bks.cpg/sg2_137_cif.got.tgz:273545.got - 2010.06.03 11:33:40.
