data_PCOD9111339
_publ_section_title
;
Structure prediction by ZEFSAII (Michael W. Deem and Ramdas Pophale) SiO2 
 PCOD9111339
Probable space group: P -1
;
_chemical_formula_sum "Si O2"
_cell_formula_units_Z 16
_cell_length_a 5.090840
_cell_length_b 20.267764
_cell_length_c 9.027631
_cell_angle_alpha 44.121679
_cell_angle_beta 86.219280
_cell_angle_gamma 88.645060
_cell_volume 646.687666
_symmetry_space_group_name_H-M "P -1"
_symmetry_group_IT_number 2
_symmetry_cell_setting 'triclinic'
loop_
_space_group_symop_operation_xyz
x,y,z
-x,-y,-z
loop_
_atom_site_type_symbol
_atom_site_label
_atom_site_fract_x
_atom_site_fract_y
_atom_site_fract_z
Si Si1 0.754226 0.449055 0.513023
Si Si2 0.337519 0.082128 0.300087
Si Si3 0.846773 0.180287 0.684218
Si Si4 0.640187 0.286484 0.988011
Si Si5 0.654957 0.917433 0.043122
Si Si6 0.869429 0.393046 0.279011
Si Si7 0.363728 0.352500 0.157640
Si Si8 0.993653 0.813980 0.643223
O O1 0.500000 0.500000 0.500000
O O2 0.800514 0.451822 0.331274
O O3 0.000000 0.500000 0.500000
O O4 0.730521 0.341621 0.750339
O O5 0.492448 0.185408 0.128521
O O6 0.094433 0.101640 0.386432
O O7 0.500000 0.000000 0.500000
O O8 0.285173 0.061079 0.164740
O O9 0.073536 0.113980 0.843594
O O10 0.819285 0.158530 0.544284
O O11 0.569444 0.165618 0.799567
O O12 0.934396 0.289981 0.511884
O O13 0.464166 0.357042 0.978034
O O14 0.876381 0.260794 0.131413
O O15 0.500000 0.000000 0.000000
O O16 0.611455 0.374824 0.217434
O O17 0.874886 0.587393 0.866017
O O18 0.251872 0.242548 0.335389
#
# Coordination Sequence:
#
# PCOD9111339 Si02
#       8
#     2   2   2   2   2   2   2   2
#     4  12  30  50  75 109 152 193 243 307 371 440
#     4  11  27  44  72 110 151 196 246 300 367 435
#     4  11  23  44  72  96 137 189 241 293 362 422
#     4  11  25  48  75 106 149 191 243 303 376 438
#     4  12  27  43  64 101 143 191 243 296 349 425
#     4  11  22  43  75 104 137 182 243 293 361 432
#     4  10  20  42  73 106 134 187 238 295 358 433
#     4  10  23  42  74 103 147 189 243 301 368 431
#
# _framework density 24.741461999999999
#
# number of rings (size 3 to 8) (size 9 to 14) (size 15 to 20)
#    0.000    1.000    2.500    4.125   10.500    0.500 
#    0.000    3.750    0.000    0.000    0.000    0.000 
#    0.000    0.000    0.000    0.000    0.000    0.000 
#
# Total GULP energy -89554.868972 kJ/mol
# GULP energy per Si atom -5597.179311 kJ/mol
# Density = 2.468515 g / cm^3
# Si number density = 24.741462 Si / 1000 Ang^3
#
#
#
# Elastic Constant Matrix: (Units=GPa)
#
#
# Indices 1 2 3 4 5 6 
#
# 1 139.1677 45.9828 31.4899 10.3920 10.4523 -17.1342
# 2 45.9828 168.3423 45.5049 25.6750 2.5824 -29.2370
# 3 31.4899 45.5049 132.8221 20.7391 0.2481 -16.4094
# 4 10.3920 25.6750 20.7391 46.4549 -11.9575 -8.3107
# 5 10.4523 2.5824 0.2481 -11.9575 35.2209 -0.3479
# 6 -17.1342 -29.2370 -16.4094 -8.3107 -0.3479 51.4332
#
#
#
# Elastic Compliance Matrix: (Units=1/GPa)
#
#
# Indices 1 2 3 4 5 6 
#
# 1 0.008400 -0.001563 -0.001132 -0.000954 -0.002680 0.001377
# 2 -0.001563 0.007747 -0.001445 -0.003047 -0.001100 0.002922
# 3 -0.001132 -0.001445 0.008883 -0.002853 -0.000578 0.001171
# 4 -0.000954 -0.003047 -0.002853 0.027520 0.009885 0.001553
# 5 -0.002680 -0.001100 -0.000578 0.009885 0.032629 0.000115
# 6 0.001377 0.002922 0.001171 0.001553 0.000115 0.022188
#
#
# Mechanical properties :
#
#
# Convention : Reuss Voigt Hill
#
# Bulk Modulus (GPa) = 59.69707 76.25415 67.97561
# Shear Modulus (GPa) = 41.24374 47.77878 44.51126
#
# Velocity S-wave (km/s) = 4.08731 4.39922 4.24613
# Velocity P-wave (km/s) = 6.81583 7.52938 7.18147
#
# Compressibility (1/GPa) = 0.01675124
#
# Stress axis : x y z
#
# Youngs Moduli (GPa) = 119.04569 129.08498 112.56829
#
# Poissons Ratio (x) = 0.20174 0.12744
# Poissons Ratio (y) = 0.18605 0.16262
# Poissons Ratio (z) = 0.13477 0.18648
#
# Static dielectric constant tensor:
#      x y z
#    x 1.991950 -0.006210 -0.042250 
#    y -0.006210 1.993510 -0.058690 
#    z -0.042250 -0.058690 1.987960 
# 
# From -- ./inp_files/141019.got.cif
#   From: 2010.05.17/outbox.cif.g08.bks.cpg/sg2_71_cif.got.tgz:141019.got - 2010.06.03 11:33:40.
