data_PCOD9111393
_publ_section_title
;
Structure prediction by ZEFSAII (Michael W. Deem and Ramdas Pophale) SiO2 
 PCOD9111393
Probable space group: P -1
;
_chemical_formula_sum "Si O2"
_cell_formula_units_Z 16
_cell_length_a 19.305150
_cell_length_b 22.010075
_cell_length_c 9.363317
_cell_angle_alpha 143.495688
_cell_angle_beta 138.620805
_cell_angle_gamma 18.472359
_cell_volume 748.371547
_symmetry_space_group_name_H-M "P -1"
_symmetry_group_IT_number 2
_symmetry_cell_setting 'triclinic'
loop_
_space_group_symop_operation_xyz
x,y,z
-x,-y,-z
loop_
_atom_site_type_symbol
_atom_site_label
_atom_site_fract_x
_atom_site_fract_y
_atom_site_fract_z
Si Si1 0.521639 0.890885 0.940486
Si Si2 0.197332 0.539242 0.421183
Si Si3 0.597645 0.031544 0.785140
Si Si4 0.804221 0.284528 0.682873
Si Si5 0.539217 0.319480 0.305717
Si Si6 0.094977 0.651999 0.791822
Si Si7 0.926778 0.803634 0.242230
Si Si8 0.826657 0.571692 0.297043
O O1 0.736914 0.636745 0.795628
O O2 0.459266 0.973655 0.162140
O O3 0.328178 0.979970 0.767014
O O4 0.500000 0.000000 0.000000
O O5 0.374028 0.449529 0.429674
O O6 0.167693 0.608522 0.662418
O O7 0.983442 0.731134 0.355102
O O8 0.591503 0.158618 0.047722
O O9 0.385396 0.197573 0.669802
O O10 0.850587 0.809968 0.708742
O O11 0.739108 0.222484 0.468893
O O12 0.586995 0.525916 0.735460
O O13 0.980996 0.168837 0.620984
O O14 0.880106 0.270794 0.922154
O O15 0.242939 0.441720 0.705495
O O16 0.047416 0.611636 0.968607
O O17 0.000000 0.500000 0.500000
#
# Coordination Sequence:
#
# PCOD9111393 Si02
#       8
#     2   2   2   2   2   2   2   2
#     4  11  23  39  64  87 118 165 210 249 304 369
#     4  10  23  40  59  89 131 161 197 261 306 358
#     4  11  21  43  62  92 122 161 213 248 301 381
#     4   9  17  37  68  89 119 163 208 251 308 360
#     4   9  18  38  68  87 118 170 205 249 309 366
#     4  11  23  38  61  92 128 159 203 259 304 362
#     4  10  20  43  60  90 124 157 208 256 297 375
#     4  11  23  40  65  86 124 162 207 259 302 357
#
# _framework density 21.379753999999998
#
# number of rings (size 3 to 8) (size 9 to 14) (size 15 to 20)
#    0.000    1.750    7.500    0.000    1.750    4.000 
#    0.000    0.000    0.000    2.250    0.000    0.000 
#    0.000    0.000    0.000    0.000    0.000    0.000 
#
# Total GULP energy -89285.060816 kJ/mol
# GULP energy per Si atom -5580.316301 kJ/mol
# Density = 2.133109 g / cm^3
# Si number density = 21.379754 Si / 1000 Ang^3
#
#
#
# Elastic Constant Matrix: (Units=GPa)
#
#
# Indices 1 2 3 4 5 6 
#
# 1 75.2752 19.9636 44.0098 -9.1758 -11.3224 22.7153
# 2 19.9636 76.2360 15.3082 -23.0583 -10.7534 13.2944
# 3 44.0098 15.3082 83.9300 -26.3472 -7.9706 5.7047
# 4 -9.1758 -23.0583 -26.3472 35.5460 -1.0221 0.8909
# 5 -11.3224 -10.7534 -7.9706 -1.0221 39.4419 -12.2101
# 6 22.7153 13.2944 5.7047 0.8909 -12.2101 29.5852
#
#
#
# Elastic Compliance Matrix: (Units=1/GPa)
#
#
# Indices 1 2 3 4 5 6 
#
# 1 0.026384 -0.002905 -0.013853 -0.004962 -0.001307 -0.016670
# 2 -0.002905 0.019087 0.003277 0.014312 0.003565 -0.005938
# 3 -0.013853 0.003277 0.023580 0.015995 0.003871 0.005733
# 4 -0.004962 0.014312 0.015995 0.048271 0.005439 -0.004914
# 5 -0.001307 0.003565 0.003871 0.005439 0.030275 0.010986
# 6 -0.016670 -0.005938 0.005733 -0.004914 0.010986 0.052845
#
#
# Mechanical properties :
#
#
# Convention : Reuss Voigt Hill
#
# Bulk Modulus (GPa) = 23.76002 43.77826 33.76914
# Shear Modulus (GPa) = 20.70956 31.32525 26.01741
#
# Velocity S-wave (km/s) = 3.11570 3.83192 3.49222
# Velocity P-wave (km/s) = 4.90723 6.33239 5.66480
#
# Compressibility (1/GPa) = 0.04208750
#
# Stress axis : x y z
#
# Youngs Moduli (GPa) = 37.90241 52.39169 42.40807
#
# Poissons Ratio (x) = 0.15221 0.58750
# Poissons Ratio (y) = 0.11012 -0.13897
# Poissons Ratio (z) = 0.52508 -0.17169
#
# Static dielectric constant tensor:
#      x y z
#    x 1.774340 0.023070 0.024300 
#    y 0.023070 1.841640 0.005010 
#    z 0.024300 0.005010 1.814210 
# 
# From -- ./inp_files/338154.got.cif
#   From: 2010.05.17/outbox.cif.g08.bks.cpg/sg2_170_cif.got.tgz:338154.got - 2010.06.03 11:33:40.
