data_PCOD9111146
_publ_section_title
;
Structure prediction by ZEFSAII (Michael W. Deem and Ramdas Pophale) SiO2 
 PCOD9111146
Probable space group: P -1
;
_chemical_formula_sum "Si O2"
_cell_formula_units_Z 14
_cell_length_a 7.627254
_cell_length_b 12.346020
_cell_length_c 12.031534
_cell_angle_alpha 136.034546
_cell_angle_beta 95.234872
_cell_angle_gamma 111.463528
_cell_volume 611.879901
_symmetry_space_group_name_H-M "P -1"
_symmetry_group_IT_number 2
_symmetry_cell_setting 'triclinic'
loop_
_space_group_symop_operation_xyz
x,y,z
-x,-y,-z
loop_
_atom_site_type_symbol
_atom_site_label
_atom_site_fract_x
_atom_site_fract_y
_atom_site_fract_z
Si Si1 0.861151 0.982437 0.724080
Si Si2 0.178295 0.930116 0.984197
Si Si3 0.418627 0.540751 0.912619
Si Si4 0.796067 0.606638 0.849231
Si Si5 0.619657 0.176144 0.486381
Si Si6 0.966052 0.138975 0.532564
Si Si7 0.445014 0.069775 0.891805
O O1 0.641345 0.917476 0.596346
O O2 0.975691 0.895233 0.612370
O O3 0.791228 0.928614 0.809734
O O4 0.040730 0.224739 0.923188
O O5 0.921259 0.732568 0.837886
O O6 0.270117 0.031255 0.945712
O O7 0.332657 0.868526 0.985918
O O8 0.552119 0.536920 0.814341
O O9 0.157220 0.363983 0.748780
O O10 0.500000 0.500000 0.000000
O O11 0.483406 0.757572 0.063870
O O12 0.767754 0.406852 0.696920
O O13 0.725352 0.088187 0.492504
O O14 0.649257 0.131125 0.328259
O O15 0.000000 0.000000 0.500000
#
# Coordination Sequence:
#
# PCOD9111146 Si02
#       7
#     2   2   2   2   2   2   2
#     4   9  21  44  64  95 136 165 222 277 327 401
#     4   8  20  40  69  95 136 170 223 277 331 397
#     4  12  25  44  67  98 136 178 229 277 337 404
#     4  10  21  43  65  99 135 169 223 274 330 400
#     4  11  22  41  69  96 132 178 218 275 338 393
#     4  12  25  44  65  95 134 178 230 278 334 400
#     4  10  20  42  69  96 134 176 221 276 336 397
#
# _framework density 22.880306999999998
#
# number of rings (size 3 to 8) (size 9 to 14) (size 15 to 20)
#    0.857    0.857    1.429    3.429    0.000    1.714 
#    5.143    4.286    0.000    0.000    0.000    0.000 
#    0.000    0.000    0.000    0.000    0.000    0.000 
#
# Total GULP energy -78071.878978 kJ/mol
# GULP energy per Si atom -5576.562784 kJ/mol
# Density = 2.282823 g / cm^3
# Si number density = 22.880307 Si / 1000 Ang^3
#
#
#
# Elastic Constant Matrix: (Units=GPa)
#
#
# Indices 1 2 3 4 5 6 
#
# 1 114.8896 -0.8204 17.3830 9.7299 7.5370 -12.5111
# 2 -0.8204 66.2350 1.4733 3.0110 0.1633 -6.1563
# 3 17.3830 1.4733 109.8955 6.8654 -4.6894 -15.6041
# 4 9.7299 3.0110 6.8654 20.3315 4.3365 -6.3233
# 5 7.5370 0.1633 -4.6894 4.3365 34.2122 -1.6261
# 6 -12.5111 -6.1563 -15.6041 -6.3233 -1.6261 35.3312
#
#
#
# Elastic Compliance Matrix: (Units=1/GPa)
#
#
# Indices 1 2 3 4 5 6 
#
# 1 0.009504 0.000507 -0.001053 -0.003171 -0.001727 0.002342
# 2 0.000507 0.015427 0.000211 -0.001819 0.000200 0.002644
# 3 -0.001053 0.000211 0.010026 -0.002171 0.002061 0.003798
# 4 -0.003171 -0.001819 -0.002171 0.055280 -0.006255 0.007207
# 5 -0.001727 0.000200 0.002061 -0.006255 0.030714 0.000628
# 6 0.002342 0.002644 0.003798 0.007207 0.000628 0.032590
#
#
# Mechanical properties :
#
#
# Convention : Reuss Voigt Hill
#
# Bulk Modulus (GPa) = 29.16604 36.34356 32.75480
# Shear Modulus (GPa) = 30.18572 36.17392 33.17982
#
# Velocity S-wave (km/s) = 3.63614 3.98050 3.81221
# Velocity P-wave (km/s) = 5.51395 6.08642 5.80724
#
# Compressibility (1/GPa) = 0.03428646
#
# Stress axis : x y z
#
# Youngs Moduli (GPa) = 105.22059 64.82005 99.73865
#
# Poissons Ratio (x) = -0.03288 0.10505
# Poissons Ratio (y) = -0.05337 -0.02100
# Poissons Ratio (z) = 0.11082 -0.01365
#
# Static dielectric constant tensor:
#      x y z
#    x 1.904350 -0.003310 0.005540 
#    y -0.003310 1.914610 -0.057200 
#    z 0.005540 -0.057200 1.866880 
# 
# From -- ./inp_files/503234.got.cif
#   From: 2010.05.17/outbox.cif.g08.bks.cpg/sg2_252_cif.got.tgz:503234.got - 2010.06.03 11:33:40.
