data_PCOD9111297
_publ_section_title
;
Structure prediction by ZEFSAII (Michael W. Deem and Ramdas Pophale) SiO2 
 PCOD9111297
Probable space group: P -1
;
_chemical_formula_sum "Si O2"
_cell_formula_units_Z 10
_cell_length_a 8.505879
_cell_length_b 5.668278
_cell_length_c 8.807330
_cell_angle_alpha 99.720943
_cell_angle_beta 72.514222
_cell_angle_gamma 89.768312
_cell_volume 398.518693
_symmetry_space_group_name_H-M "P -1"
_symmetry_group_IT_number 2
_symmetry_cell_setting 'triclinic'
loop_
_space_group_symop_operation_xyz
x,y,z
-x,-y,-z
loop_
_atom_site_type_symbol
_atom_site_label
_atom_site_fract_x
_atom_site_fract_y
_atom_site_fract_z
Si Si1 0.209909 0.139430 0.865161
Si Si2 0.046166 0.212630 0.617441
Si Si3 0.424068 0.774270 0.914274
Si Si4 0.240547 0.453708 0.170208
Si Si5 0.411001 0.270623 0.560784
O O1 0.297629 0.878052 0.836018
O O2 0.065050 0.142328 0.784340
O O3 0.349627 0.291427 0.757456
O O4 0.172091 0.259721 0.051046
O O5 0.232961 0.267144 0.531609
O O6 0.907218 0.426285 0.677324
O O7 0.000000 0.000000 0.500000
O O8 0.596023 0.642601 0.799571
O O9 0.319501 0.645480 0.056546
O O10 0.500000 0.000000 0.000000
O O11 0.500000 0.500000 0.500000
O O12 0.500000 0.000000 0.500000
#
# Coordination Sequence:
#
# PCOD9111297 Si02
#       5
#     2   2   2   2   2
#     4   9  22  41  75 102 143 200 250 308 376 463
#     4  10  24  46  71 112 152 197 248 324 378 452
#     4   9  20  39  68 110 142 184 247 309 375 451
#     4  10  20  42  72 105 146 191 252 314 379 450
#     4  10  25  49  76 107 154 208 257 311 387 465
#
# _framework density 25.092925000000001
#
# number of rings (size 3 to 8) (size 9 to 14) (size 15 to 20)
#    1.200    1.200    0.000    0.600    2.800    5.600 
#    7.200    2.000    0.000    0.000    0.000    0.000 
#    0.000    0.000    0.000    0.000    0.000    0.000 
#
# Total GULP energy -55857.857289 kJ/mol
# GULP energy per Si atom -5585.785729 kJ/mol
# Density = 2.503581 g / cm^3
# Si number density = 25.092925 Si / 1000 Ang^3
#
#
#
# Elastic Constant Matrix: (Units=GPa)
#
#
# Indices 1 2 3 4 5 6 
#
# 1 184.2886 57.5573 57.6276 27.8720 -29.8787 -13.7666
# 2 57.5573 124.7461 40.5793 -1.1364 -29.6993 3.9993
# 3 57.6276 40.5793 126.5917 26.5278 -23.5968 5.4569
# 4 27.8720 -1.1364 26.5278 35.6000 4.0827 -3.9656
# 5 -29.8787 -29.6993 -23.5968 4.0827 51.6065 4.5948
# 6 -13.7666 3.9993 5.4569 -3.9656 4.5948 50.5980
#
#
#
# Elastic Compliance Matrix: (Units=1/GPa)
#
#
# Indices 1 2 3 4 5 6 
#
# 1 0.008128 -0.002809 -0.001150 -0.005717 0.002851 0.001851
# 2 -0.002809 0.010966 -0.002310 0.003718 0.003459 -0.001405
# 3 -0.001150 -0.002310 0.011947 -0.008859 0.004392 -0.002512
# 4 -0.005717 0.003718 -0.008859 0.040629 -0.008710 0.003081
# 5 0.002851 0.003459 0.004392 -0.008710 0.025985 -0.003014
# 6 0.001851 -0.001405 -0.002512 0.003081 -0.003014 0.021164
#
#
# Mechanical properties :
#
#
# Convention : Reuss Voigt Hill
#
# Bulk Modulus (GPa) = 54.04435 83.01721 68.53078
# Shear Modulus (GPa) = 36.35697 46.21837 41.28767
#
# Velocity S-wave (km/s) = 3.81056 4.29638 4.06074
# Velocity P-wave (km/s) = 6.39882 7.60050 7.02540
#
# Compressibility (1/GPa) = 0.01850332
#
# Stress axis : x y z
#
# Youngs Moduli (GPa) = 123.02534 91.18834 83.70386
#
# Poissons Ratio (x) = 0.25614 0.09626
# Poissons Ratio (y) = 0.34556 0.19338
# Poissons Ratio (z) = 0.14148 0.21067
#
# Static dielectric constant tensor:
#      x y z
#    x 1.964290 -0.046510 -0.022410 
#    y -0.046510 2.041780 -0.002130 
#    z -0.022410 -0.002130 2.046100 
# 
# From -- ./inp_files/373260.got.cif
#   From: 2010.05.17/outbox.cif.g08.bks.cpg/sg2_187_cif.got.tgz:373260.got - 2010.06.03 11:33:40.
