data_PCOD9111477
_publ_section_title
;
Structure prediction by ZEFSAII (Michael W. Deem and Ramdas Pophale) SiO2 
 PCOD9111477
Probable space group: P -1
;
_chemical_formula_sum "Si O2"
_cell_formula_units_Z 16
_cell_length_a 7.932930
_cell_length_b 5.690444
_cell_length_c 17.884936
_cell_angle_alpha 85.389073
_cell_angle_beta 88.626438
_cell_angle_gamma 61.042731
_cell_volume 704.034831
_symmetry_space_group_name_H-M "P -1"
_symmetry_group_IT_number 2
_symmetry_cell_setting 'triclinic'
loop_
_space_group_symop_operation_xyz
x,y,z
-x,-y,-z
loop_
_atom_site_type_symbol
_atom_site_label
_atom_site_fract_x
_atom_site_fract_y
_atom_site_fract_z
Si Si1 0.172990 0.823896 0.655700
Si Si2 0.806165 0.368559 0.692546
Si Si3 0.761997 0.283758 0.179291
Si Si4 0.390261 0.823431 0.509628
Si Si5 0.381777 0.795974 0.178454
Si Si6 0.870864 0.633959 0.829963
Si Si7 0.915853 0.671989 0.573148
Si Si8 0.975522 0.145364 0.918586
O O1 0.281783 0.760684 0.734787
O O2 0.304548 0.849615 0.591614
O O3 0.092603 0.632594 0.626131
O O4 0.983037 0.100557 0.667040
O O5 0.659214 0.283129 0.735656
O O6 0.871855 0.467469 0.762464
O O7 0.778553 0.581617 0.622169
O O8 0.583261 0.566871 0.151600
O O9 0.957964 0.299654 0.185986
O O10 0.831922 0.036920 0.127623
O O11 0.500000 0.500000 0.500000
O O12 0.500000 0.000000 0.500000
O O13 0.205968 0.010556 0.454268
O O14 0.213377 0.827147 0.122757
O O15 0.338047 0.103056 0.173735
O O16 0.927765 0.453737 0.908271
O O17 0.000000 0.500000 0.500000
O O18 0.000000 0.000000 0.000000
#
# Coordination Sequence:
#
# PCOD9111477 Si02
#       8
#     2   2   2   2   2   2   2   2
#     4  12  24  45  70  94 137 186 238 288 356 428
#     4  11  21  42  68  94 131 180 232 283 354 416
#     4  11  23  42  69 101 134 178 233 281 340 413
#     4  12  30  47  65 106 142 180 241 309 368 425
#     4  10  23  40  67 105 135 172 232 281 339 417
#     4  10  20  43  64  98 133 177 225 276 351 407
#     4  12  25  44  72  91 133 188 234 291 366 430
#     4  10  23  45  69  98 142 179 219 275 345 418
#
# _framework density 22.726147999999998
#
# number of rings (size 3 to 8) (size 9 to 14) (size 15 to 20)
#    0.000    1.000    6.250    1.125    3.500    5.500 
#    0.000    1.250    0.000    0.000    0.000    0.000 
#    0.000    0.000    0.000    0.000    0.000    0.000 
#
# Total GULP energy -89244.744544 kJ/mol
# GULP energy per Si atom -5577.796534 kJ/mol
# Density = 2.267442 g / cm^3
# Si number density = 22.726148 Si / 1000 Ang^3
#
#
#
# Elastic Constant Matrix: (Units=GPa)
#
#
# Indices 1 2 3 4 5 6 
#
# 1 27.1410 26.0971 6.2867 6.6021 0.0152 -9.5513
# 2 26.0971 159.0536 46.7051 -13.7460 -6.8544 -24.5948
# 3 6.2867 46.7051 120.7050 -36.6087 -5.0326 -7.9780
# 4 6.6021 -13.7460 -36.6087 28.9249 9.0637 -6.3004
# 5 0.0152 -6.8544 -5.0326 9.0637 17.4971 -2.8207
# 6 -9.5513 -24.5948 -7.9780 -6.3004 -2.8207 38.4854
#
#
#
# Elastic Compliance Matrix: (Units=1/GPa)
#
#
# Indices 1 2 3 4 5 6 
#
# 1 0.054542 -0.008330 -0.007736 -0.028679 0.009745 0.002628
# 2 -0.008330 0.009215 -0.001112 0.005498 0.001187 0.004578
# 3 -0.007736 -0.001112 0.017146 0.026628 -0.008540 0.004657
# 4 -0.028679 0.005498 0.026628 0.091619 -0.035312 0.014327
# 5 0.009745 0.001187 -0.008540 -0.035312 0.073609 0.001021
# 6 0.002628 0.004578 0.004657 0.014327 0.001021 0.032948
#
#
# Mechanical properties :
#
#
# Convention : Reuss Voigt Hill
#
# Bulk Modulus (GPa) = 21.48375 51.67529 36.57952
# Shear Modulus (GPa) = 15.19995 32.16885 23.68440
#
# Velocity S-wave (km/s) = 2.58898 3.76639 3.23176
# Velocity P-wave (km/s) = 4.29080 6.45770 5.48237
#
# Compressibility (1/GPa) = 0.04654681
#
# Stress axis : x y z
#
# Youngs Moduli (GPa) = 18.33461 108.52231 58.32396
#
# Poissons Ratio (x) = 0.90395 0.45119
# Poissons Ratio (y) = 0.15272 0.06486
# Poissons Ratio (z) = 0.14183 0.12068
#
# Static dielectric constant tensor:
#      x y z
#    x 1.943500 0.078040 0.043830 
#    y 0.078040 1.991650 -0.063010 
#    z 0.043830 -0.063010 1.886900 
# 
# From -- ./inp_files/140581.got.cif
#   From: 2010.05.17/outbox.cif.g08.bks.cpg/sg2_71_cif.got.tgz:140581.got - 2010.06.03 11:33:40.
