data_PCOD9111185
_publ_section_title
;
Structure prediction by ZEFSAII (Michael W. Deem and Ramdas Pophale) SiO2 
 PCOD9111185
Probable space group: P -1
;
_chemical_formula_sum "Si O2"
_cell_formula_units_Z 14
_cell_length_a 12.439849
_cell_length_b 20.735982
_cell_length_c 5.524859
_cell_angle_alpha 54.865268
_cell_angle_beta 130.805150
_cell_angle_gamma 149.950705
_cell_volume 539.995653
_symmetry_space_group_name_H-M "P -1"
_symmetry_group_IT_number 2
_symmetry_cell_setting 'triclinic'
loop_
_space_group_symop_operation_xyz
x,y,z
-x,-y,-z
loop_
_atom_site_type_symbol
_atom_site_label
_atom_site_fract_x
_atom_site_fract_y
_atom_site_fract_z
Si Si1 0.372991 0.000349 0.502525
Si Si2 0.281133 0.717292 0.475892
Si Si3 0.370148 0.466779 0.127965
Si Si4 0.473150 0.286177 0.813724
Si Si5 0.985403 0.807740 0.655023
Si Si6 0.822478 0.475953 0.533045
Si Si7 0.214169 0.039116 0.787703
O O1 0.580744 0.139125 0.651734
O O2 0.500000 0.000000 0.500000
O O3 0.154099 0.853411 0.594198
O O4 0.233214 0.009364 0.143018
O O5 0.161095 0.610012 0.324054
O O6 0.076934 0.626649 0.574436
O O7 0.468117 0.738611 0.813437
O O8 0.500000 0.500000 0.500000
O O9 0.126847 0.313632 0.108417
O O10 0.500000 0.500000 0.000000
O O11 0.315700 0.534124 0.853618
O O12 0.242248 0.236982 0.625356
O O13 0.679452 0.422273 0.687262
O O14 0.418118 0.191618 0.741188
O O15 0.174342 0.946465 0.762720
O O16 0.000000 0.000000 0.500000
#
# Coordination Sequence:
#
# PCOD9111185 Si02
#       7
#     2   2   2   2   2   2   2
#     4  11  26  46  70 102 144 192 248 314 378 448
#     4  10  24  44  67 104 139 194 246 304 377 454
#     4  12  28  47  75 113 152 197 252 314 379 455
#     4  10  20  42  70 103 139 183 248 304 369 442
#     4  11  24  43  72 100 144 188 246 307 372 445
#     4  11  23  43  71 101 147 193 242 307 374 455
#     4   9  22  40  69 104 133 184 238 305 365 445
#
# _framework density 25.926133
#
# number of rings (size 3 to 8) (size 9 to 14) (size 15 to 20)
#    0.000    1.429    1.429    2.143    4.000    8.000 
#   10.286    0.000    0.000    0.000    0.000    0.000 
#    0.000    0.000    0.000    0.000    0.000    0.000 
#
# Total GULP energy -78012.999627 kJ/mol
# GULP energy per Si atom -5572.357116 kJ/mol
# Density = 2.586712 g / cm^3
# Si number density = 25.926133 Si / 1000 Ang^3
#
#
#
# Elastic Constant Matrix: (Units=GPa)
#
#
# Indices 1 2 3 4 5 6 
#
# 1 102.7252 67.1155 11.5504 -24.1862 -3.5302 10.7454
# 2 67.1155 161.1548 1.7089 -31.2673 -3.9576 30.1195
# 3 11.5504 1.7089 105.0820 1.1712 8.6695 11.8590
# 4 -24.1862 -31.2673 1.1712 38.7841 4.2373 -10.7734
# 5 -3.5302 -3.9576 8.6695 4.2373 26.0352 -20.7228
# 6 10.7454 30.1195 11.8590 -10.7734 -20.7228 50.1956
#
#
#
# Elastic Compliance Matrix: (Units=1/GPa)
#
#
# Indices 1 2 3 4 5 6 
#
# 1 0.014664 -0.005623 -0.002284 0.005228 0.003802 0.003466
# 2 -0.005623 0.010401 0.001720 0.003490 -0.006046 -0.007191
# 3 -0.002284 0.001720 0.011390 -0.001416 -0.009572 -0.007490
# 4 0.005228 0.003490 -0.001416 0.033070 -0.000467 0.004026
# 5 0.003802 -0.006046 -0.009572 -0.000467 0.067366 0.032787
# 6 0.003466 -0.007191 -0.007490 0.004026 0.032787 0.039665
#
#
# Mechanical properties :
#
#
# Convention : Reuss Voigt Hill
#
# Bulk Modulus (GPa) = 41.52230 58.85686 50.18958
# Shear Modulus (GPa) = 25.38628 42.24211 33.81420
#
# Velocity S-wave (km/s) = 3.13258 4.04087 3.61536
# Velocity P-wave (km/s) = 5.39763 6.67252 6.06865
#
# Compressibility (1/GPa) = 0.02408345
#
# Stress axis : x y z
#
# Youngs Moduli (GPa) = 68.19283 96.14078 87.79454
#
# Poissons Ratio (x) = 0.54061 0.20048
# Poissons Ratio (y) = 0.38345 -0.15104
# Poissons Ratio (z) = 0.15572 -0.16540
#
# Static dielectric constant tensor:
#      x y z
#    x 2.420350 -0.323830 -0.356780 
#    y -0.323830 2.389740 0.303220 
#    z -0.356780 0.303220 2.376110 
# 
# From -- ./inp_files/69460.got.cif
#   From: 2010.05.17/outbox.cif.g08.bks.cpg/sg2_35_cif.got.tgz:69460.got - 2010.06.03 11:33:40.
