data_PCOD9111605
_publ_section_title
;
Structure prediction by ZEFSAII (Michael W. Deem and Ramdas Pophale) SiO2 
 PCOD9111605
Probable space group: P -1
;
_chemical_formula_sum "Si O2"
_cell_formula_units_Z 16
_cell_length_a 7.907644
_cell_length_b 13.169165
_cell_length_c 24.117669
_cell_angle_alpha 158.682147
_cell_angle_beta 50.621226
_cell_angle_gamma 124.883401
_cell_volume 704.122647
_symmetry_space_group_name_H-M "P -1"
_symmetry_group_IT_number 2
_symmetry_cell_setting 'triclinic'
loop_
_space_group_symop_operation_xyz
x,y,z
-x,-y,-z
loop_
_atom_site_type_symbol
_atom_site_label
_atom_site_fract_x
_atom_site_fract_y
_atom_site_fract_z
Si Si1 0.627659 0.225871 0.620992
Si Si2 0.317728 0.218711 0.526919
Si Si3 0.899080 0.961196 0.767631
Si Si4 0.482531 0.584340 0.921573
Si Si5 0.396260 0.835044 0.219734
Si Si6 0.797155 0.383389 0.552568
Si Si7 0.845843 0.690259 0.022904
Si Si8 0.015861 0.288992 0.113768
O O1 0.446101 0.438478 0.795900
O O2 0.773284 0.361625 0.612954
O O3 0.500000 0.000000 0.500000
O O4 0.739522 0.040824 0.553333
O O5 0.564195 0.303514 0.533679
O O6 0.153692 0.478613 0.707723
O O7 0.310292 0.110403 0.410093
O O8 0.853534 0.691872 0.677875
O O9 0.019932 0.834915 0.623544
O O10 0.047665 0.175309 0.877713
O O11 0.674986 0.145269 0.897717
O O12 0.480416 0.354843 0.853658
O O13 0.736141 0.637638 0.890946
O O14 0.606524 0.859253 0.149031
O O15 0.214037 0.636444 0.133627
O O16 0.002747 0.731549 0.959091
O O17 0.000000 0.000000 0.000000
#
# Coordination Sequence:
#
# PCOD9111605 Si02
#       8
#     2   2   2   2   2   2   2   2
#     4   9  21  38  61  94 122 159 208 258 311 365
#     4  10  20  43  67  89 125 166 210 259 306 370
#     4  11  23  39  65  92 130 166 204 262 311 376
#     4  10  23  40  60  95 125 162 208 255 309 369
#     4   9  20  43  65  90 125 161 216 258 304 372
#     4  10  22  40  63  94 128 165 211 254 318 366
#     4  10  22  39  65  91 122 166 210 254 315 363
#     4  11  25  42  63  92 128 167 206 253 313 377
#
# _framework density 22.723313999999998
#
# number of rings (size 3 to 8) (size 9 to 14) (size 15 to 20)
#    0.000    2.000    1.250    0.750    5.250    6.500 
#    0.000    3.125    0.000    0.000    0.000    0.000 
#    0.000    0.000    0.000    0.000    0.000    0.000 
#
# Total GULP energy -89387.202701 kJ/mol
# GULP energy per Si atom -5586.700169 kJ/mol
# Density = 2.267159 g / cm^3
# Si number density = 22.723314 Si / 1000 Ang^3
#
#
#
# Elastic Constant Matrix: (Units=GPa)
#
#
# Indices 1 2 3 4 5 6 
#
# 1 47.7364 -0.7201 28.5950 2.9328 5.6832 11.0734
# 2 -0.7201 83.0948 49.4972 -5.6026 -4.6317 4.0655
# 3 28.5950 49.4972 201.4516 -20.0453 -13.1996 -10.1354
# 4 2.9328 -5.6026 -20.0453 27.3501 -1.6794 3.3115
# 5 5.6832 -4.6317 -13.1996 -1.6794 38.7783 -5.0779
# 6 11.0734 4.0655 -10.1354 3.3115 -5.0779 23.2758
#
#
#
# Elastic Compliance Matrix: (Units=1/GPa)
#
#
# Indices 1 2 3 4 5 6 
#
# 1 0.032511 0.005256 -0.008281 -0.006521 -0.010020 -0.021249
# 2 0.005256 0.015348 -0.005043 -0.000286 -0.001674 -0.007702
# 3 -0.008281 -0.005043 0.008696 0.005454 0.004975 0.008916
# 4 -0.006521 -0.000286 0.005454 0.041408 0.004657 0.000652
# 5 -0.010020 -0.001674 0.004975 0.004657 0.030687 0.013258
# 6 -0.021249 -0.007702 0.008916 0.000652 0.013258 0.061100
#
#
# Mechanical properties :
#
#
# Convention : Reuss Voigt Hill
#
# Bulk Modulus (GPa) = 24.74082 54.11409 39.42746
# Shear Modulus (GPa) = 22.79386 34.87490 28.83438
#
# Velocity S-wave (km/s) = 3.17062 3.92185 3.56607
# Velocity P-wave (km/s) = 4.93105 6.66138 5.86043
#
# Compressibility (1/GPa) = 0.04041903
#
# Stress axis : x y z
#
# Youngs Moduli (GPa) = 30.75920 65.15515 115.00072
#
# Poissons Ratio (x) = -0.34243 0.95227
# Poissons Ratio (y) = -0.16166 0.57991
# Poissons Ratio (z) = 0.25470 0.32856
#
# Static dielectric constant tensor:
#      x y z
#    x 1.944530 -0.017090 0.037790 
#    y -0.017090 1.902460 -0.066850 
#    z 0.037790 -0.066850 1.865070 
# 
# From -- ./inp_files/263625.got.cif
#   From: 2010.05.17/outbox.cif.g08.bks.cpg/sg2_132_cif.got.tgz:263625.got - 2010.06.03 11:33:40.
