data_PCOD9111456
_publ_section_title
;
Structure prediction by ZEFSAII (Michael W. Deem and Ramdas Pophale) SiO2 
 PCOD9111456
Probable space group: P -1
;
_chemical_formula_sum "Si O2"
_cell_formula_units_Z 12
_cell_length_a 7.084142
_cell_length_b 18.871542
_cell_length_c 6.993513
_cell_angle_alpha 65.376392
_cell_angle_beta 41.892997
_cell_angle_gamma 64.070063
_cell_volume 554.952170
_symmetry_space_group_name_H-M "P -1"
_symmetry_group_IT_number 2
_symmetry_cell_setting 'triclinic'
loop_
_space_group_symop_operation_xyz
x,y,z
-x,-y,-z
loop_
_atom_site_type_symbol
_atom_site_label
_atom_site_fract_x
_atom_site_fract_y
_atom_site_fract_z
Si Si1 0.699181 0.775289 0.499376
Si Si2 0.324380 0.450981 0.816901
Si Si3 0.816360 0.001640 0.830412
Si Si4 0.156923 0.871753 0.006610
Si Si5 0.520876 0.617805 0.832812
Si Si6 0.843492 0.656852 0.216958
O O1 0.450655 0.843881 0.695723
O O2 0.633375 0.696002 0.734909
O O3 0.705184 0.744505 0.307849
O O4 0.004956 0.799783 0.263529
O O5 0.500000 0.500000 0.500000
O O6 0.299929 0.366088 0.840288
O O7 0.446525 0.441229 0.949124
O O8 0.000000 0.500000 0.000000
O O9 0.809955 0.077646 0.887029
O O10 0.000000 0.000000 0.500000
O O11 0.941658 0.927290 0.958453
O O12 0.500000 0.000000 0.000000
O O13 0.742813 0.596645 0.514102
O O14 0.191168 0.642745 0.977519
#
# Coordination Sequence:
#
# PCOD9111456 Si02
#       6
#     2   2   2   2   2   2
#     4  10  20  43  64  89 124 167 194 257 316 335
#     4  12  26  40  64  92 120 165 206 249 312 362
#     4  11  24  43  62  96 124 161 210 243 300 366
#     4  11  22  42  66  89 128 159 204 257 292 365
#     4  10  22  43  61  89 126 153 206 254 303 365
#     4  10  22  43  61  89 126 153 206 254 303 365
#
# _framework density 21.623484999999999
#
# number of rings (size 3 to 8) (size 9 to 14) (size 15 to 20)
#    1.000    0.333    1.667    4.000    0.000    6.667 
#    9.000    0.000    0.000    0.000    0.000    0.000 
#    0.000    0.000    0.000    0.000    0.000    0.000 
#
# Total GULP energy -66894.260488 kJ/mol
# GULP energy per Si atom -5574.521707 kJ/mol
# Density = 2.157427 g / cm^3
# Si number density = 21.623485 Si / 1000 Ang^3
#
#
#
# Elastic Constant Matrix: (Units=GPa)
#
#
# Indices 1 2 3 4 5 6 
#
# 1 102.2339 16.4157 49.4685 1.6919 6.7447 27.3549
# 2 16.4157 47.2463 9.8655 12.7100 3.3108 30.7445
# 3 49.4685 9.8655 122.2694 2.0517 -28.7670 14.2887
# 4 1.6919 12.7100 2.0517 39.8696 1.7988 2.4595
# 5 6.7447 3.3108 -28.7670 1.7988 37.0687 3.3326
# 6 27.3549 30.7445 14.2887 2.4595 3.3326 30.7575
#
#
#
# Elastic Compliance Matrix: (Units=1/GPa)
#
#
# Indices 1 2 3 4 5 6 
#
# 1 0.018346 0.011549 -0.007456 -0.002277 -0.007946 -0.023353
# 2 0.011549 0.080880 -0.000628 -0.020710 -0.000799 -0.089083
# 3 -0.007456 -0.000628 0.014308 -0.000746 0.012615 -0.000695
# 4 -0.002277 -0.020710 -0.000746 0.030611 -0.001671 0.020807
# 5 -0.007946 -0.000799 0.012615 -0.001671 0.038548 -0.002038
# 6 -0.023353 -0.089083 -0.000695 0.020807 -0.002038 0.141207
#
#
# Mechanical properties :
#
#
# Convention : Reuss Voigt Hill
#
# Bulk Modulus (GPa) = 8.30143 47.02766 27.66454
# Shear Modulus (GPa) = 14.00069 34.60582 24.30326
#
# Velocity S-wave (km/s) = 2.54732 4.00482 3.35614
# Velocity P-wave (km/s) = 3.53542 6.57118 5.27634
#
# Compressibility (1/GPa) = 0.12046125
#
# Stress axis : x y z
#
# Youngs Moduli (GPa) = 54.50920 12.36396 69.89211
#
# Poissons Ratio (x) = -0.14279 0.52114
# Poissons Ratio (y) = -0.62950 0.04391
# Poissons Ratio (z) = 0.40644 0.00777
#
# Static dielectric constant tensor:
#      x y z
#    x 1.760450 0.042730 0.039060 
#    y 0.042730 1.896240 0.014340 
#    z 0.039060 0.014340 1.760020 
# 
# From -- ./inp_files/9335.got.cif
#   From: 2010.05.17/outbox.cif.g08.bks.cpg/sg2_5_cif.got.tgz:9335.got - 2010.06.03 11:33:40.
