data_PCOD9111098
_publ_section_title
;
Structure prediction by ZEFSAII (Michael W. Deem and Ramdas Pophale) SiO2 
 PCOD9111098
Probable space group: P -1
;
_chemical_formula_sum "Si O2"
_cell_formula_units_Z 16
_cell_length_a 8.332621
_cell_length_b 32.856016
_cell_length_c 9.367236
_cell_angle_alpha 157.260723
_cell_angle_beta 46.456044
_cell_angle_gamma 139.553302
_cell_volume 642.231773
_symmetry_space_group_name_H-M "P -1"
_symmetry_group_IT_number 2
_symmetry_cell_setting 'triclinic'
loop_
_space_group_symop_operation_xyz
x,y,z
-x,-y,-z
loop_
_atom_site_type_symbol
_atom_site_label
_atom_site_fract_x
_atom_site_fract_y
_atom_site_fract_z
Si Si1 0.134102 0.531719 0.171855
Si Si2 0.384556 0.252282 0.355026
Si Si3 0.285451 0.433623 0.298521
Si Si4 0.233917 0.003578 0.778016
Si Si5 0.529233 0.336373 0.218005
Si Si6 0.178631 0.204740 0.761841
Si Si7 0.950658 0.290763 0.649506
Si Si8 0.531790 0.079387 0.099557
O O1 0.529075 0.717598 0.764960
O O2 0.966664 0.567953 0.494480
O O3 0.000000 0.500000 0.000000
O O4 0.121767 0.413221 0.863357
O O5 0.350898 0.126687 0.021652
O O6 0.598974 0.359725 0.654730
O O7 0.119492 0.253521 0.523027
O O8 0.895574 0.108614 0.608958
O O9 0.500000 0.500000 0.500000
O O10 0.367963 0.521905 0.399031
O O11 0.236476 0.299879 0.909085
O O12 0.433118 0.004551 0.773916
O O13 0.000000 0.000000 0.000000
O O14 0.283151 0.275381 0.073037
O O15 0.742585 0.310012 0.928370
O O16 0.350634 0.140038 0.426292
O O17 0.804626 0.186900 0.289426
O O18 0.500000 0.000000 0.000000
#
# Coordination Sequence:
#
# PCOD9111098 Si02
#       8
#     2   2   2   2   2   2   2   2
#     4  11  25  44  66 102 139 183 237 286 349 419
#     4  12  25  45  70 105 140 182 238 292 342 426
#     4   9  20  42  70  99 140 184 218 289 350 408
#     4  10  22  43  69 101 138 184 236 284 353 417
#     4   9  22  43  68 108 140 181 237 281 352 419
#     4   9  19  41  72  99 137 190 225 286 353 402
#     4  10  22  43  69  98 140 187 225 292 354 402
#     4  10  20  42  69 100 132 182 238 280 344 422
#
# _framework density 24.913125999999998
#
# number of rings (size 3 to 8) (size 9 to 14) (size 15 to 20)
#    0.000    2.000    0.000    3.375    3.500    4.500 
#   18.000    0.625    0.000    0.000    0.000    0.000 
#    0.000    0.000    0.000    0.000    0.000    0.000 
#
# Total GULP energy -89617.421112 kJ/mol
# GULP energy per Si atom -5601.088820 kJ/mol
# Density = 2.485642 g / cm^3
# Si number density = 24.913126 Si / 1000 Ang^3
#
#
#
# Elastic Constant Matrix: (Units=GPa)
#
#
# Indices 1 2 3 4 5 6 
#
# 1 159.0768 53.3050 68.8635 19.3812 35.8998 -9.2256
# 2 53.3050 151.3820 51.9030 27.3528 10.3370 -8.1112
# 3 68.8635 51.9030 112.1419 37.7190 25.1029 -0.5129
# 4 19.3812 27.3528 37.7190 42.2510 8.8679 -1.2063
# 5 35.8998 10.3370 25.1029 8.8679 47.7868 -5.5556
# 6 -9.2256 -8.1112 -0.5129 -1.2063 -5.5556 42.9761
#
#
#
# Elastic Compliance Matrix: (Units=1/GPa)
#
#
# Indices 1 2 3 4 5 6 
#
# 1 0.009871 -0.001790 -0.004835 0.001970 -0.004719 0.001169
# 2 -0.001790 0.008482 -0.002094 -0.003042 0.001323 0.001277
# 3 -0.004835 -0.002094 0.017360 -0.011317 -0.003162 -0.001952
# 4 0.001970 -0.003042 -0.011317 0.035132 -0.001335 0.000527
# 5 -0.004719 0.001323 -0.003162 -0.001335 0.026393 0.002573
# 6 0.001169 0.001277 -0.001952 0.000527 0.002573 0.024085
#
#
# Mechanical properties :
#
#
# Convention : Reuss Voigt Hill
#
# Bulk Modulus (GPa) = 54.71057 85.63818 70.17437
# Shear Modulus (GPa) = 34.51801 43.17139 38.84470
#
# Velocity S-wave (km/s) = 3.72632 4.16730 3.95296
# Velocity P-wave (km/s) = 6.36570 7.58977 7.00452
#
# Compressibility (1/GPa) = 0.01827800
#
# Stress axis : x y z
#
# Youngs Moduli (GPa) = 101.30200 117.90303 57.60221
#
# Poissons Ratio (x) = 0.21099 0.27848
# Poissons Ratio (y) = 0.18128 0.12060
# Poissons Ratio (z) = 0.48975 0.24685
#
# Static dielectric constant tensor:
#      x y z
#    x 1.991630 0.003700 0.035380 
#    y 0.003700 1.978900 -0.108100 
#    z 0.035380 -0.108100 2.073490 
# 
# From -- ./inp_files/227204.got.cif
#   From: 2010.05.17/outbox.cif.g08.bks.cpg/sg2_114_cif.got.tgz:227204.got - 2010.06.03 11:33:40.
