data_PCOD9111700
_publ_section_title
;
Structure prediction by ZEFSAII (Michael W. Deem and Ramdas Pophale) SiO2 
 PCOD9111700
Probable space group: P -1
;
_chemical_formula_sum "Si O2"
_cell_formula_units_Z 16
_cell_length_a 10.729922
_cell_length_b 12.223771
_cell_length_c 9.538583
_cell_angle_alpha 48.366072
_cell_angle_beta 121.706696
_cell_angle_gamma 92.824670
_cell_volume 701.470713
_symmetry_space_group_name_H-M "P -1"
_symmetry_group_IT_number 2
_symmetry_cell_setting 'triclinic'
loop_
_space_group_symop_operation_xyz
x,y,z
-x,-y,-z
loop_
_atom_site_type_symbol
_atom_site_label
_atom_site_fract_x
_atom_site_fract_y
_atom_site_fract_z
Si Si1 0.728375 0.319477 0.739653
Si Si2 0.588941 0.606137 0.643028
Si Si3 0.797896 0.053866 0.222143
Si Si4 0.823314 0.117252 0.481141
Si Si5 0.679829 0.488773 0.102765
Si Si6 0.814347 0.654442 0.258851
Si Si7 0.083905 0.104160 0.030917
Si Si8 0.349046 0.171070 0.710395
O O1 0.671762 0.465379 0.693673
O O2 0.602576 0.360143 0.500725
O O3 0.917952 0.258267 0.863081
O O4 0.708382 0.177258 0.936317
O O5 0.603592 0.760437 0.456750
O O6 0.680834 0.545810 0.895309
O O7 0.788758 0.884617 0.360083
O O8 0.987605 0.006637 0.344259
O O9 0.730003 0.140055 0.258725
O O10 0.805158 0.293833 0.364572
O O11 0.792633 0.019131 0.672777
O O12 0.714364 0.603421 0.131952
O O13 0.500000 0.500000 0.000000
O O14 0.829136 0.817989 0.081895
O O15 0.722275 0.696822 0.317943
O O16 0.000000 0.500000 0.500000
O O17 0.000000 0.000000 0.000000
O O18 0.500000 0.000000 0.000000
#
# Coordination Sequence:
#
# PCOD9111700 Si02
#       8
#     2   2   2   2   2   2   2   2
#     4  10  21  42  71  99 130 192 237 285 345 438
#     4  11  25  42  71 101 140 182 237 287 366 423
#     4  10  20  43  68  97 136 175 243 286 349 408
#     4  10  23  42  68  98 132 190 229 293 344 426
#     4  12  29  46  70 105 151 186 232 300 365 420
#     4  12  28  50  72 109 145 193 241 294 361 432
#     4  11  24  43  73 100 141 186 245 286 360 421
#     4  12  26  43  72 101 140 183 237 297 348 427
#
# _framework density 22.809221000000001
#
# number of rings (size 3 to 8) (size 9 to 14) (size 15 to 20)
#    0.000    1.000    2.500    3.750   10.500    0.000 
#    0.000    3.125    0.000    0.000    0.000    0.000 
#    0.000    0.000    0.000    0.000    0.000    0.000 
#
# Total GULP energy -89445.829947 kJ/mol
# GULP energy per Si atom -5590.364372 kJ/mol
# Density = 2.275731 g / cm^3
# Si number density = 22.809221 Si / 1000 Ang^3
#
#
#
# Elastic Constant Matrix: (Units=GPa)
#
#
# Indices 1 2 3 4 5 6 
#
# 1 64.6321 9.1675 23.4657 1.4803 -20.6697 2.4304
# 2 9.1675 98.8017 5.3828 6.2821 -10.6608 4.8559
# 3 23.4657 5.3828 77.4789 -8.6967 -24.0251 -1.2346
# 4 1.4803 6.2821 -8.6967 31.3699 1.8690 3.0051
# 5 -20.6697 -10.6608 -24.0251 1.8690 38.7514 -7.4117
# 6 2.4304 4.8559 -1.2346 3.0051 -7.4117 31.5825
#
#
#
# Elastic Compliance Matrix: (Units=1/GPa)
#
#
# Indices 1 2 3 4 5 6 
#
# 1 0.019526 -0.000607 -0.003559 -0.002338 0.008272 0.000615
# 2 -0.000607 0.010630 -0.000024 -0.002183 0.002541 -0.000785
# 3 -0.003559 -0.000024 0.017339 0.004174 0.009161 0.002708
# 4 -0.002338 -0.002183 0.004174 0.033946 -0.001450 -0.002892
# 5 0.008272 0.002541 0.009161 -0.001450 0.038283 0.008453
# 6 0.000615 -0.000785 0.002708 -0.002892 0.008453 0.034101
#
#
# Mechanical properties :
#
#
# Convention : Reuss Voigt Hill
#
# Bulk Modulus (GPa) = 25.56597 35.21608 30.39102
# Shear Modulus (GPa) = 28.53140 33.86722 31.19931
#
# Velocity S-wave (km/s) = 3.54060 3.85750 3.70244
# Velocity P-wave (km/s) = 5.28653 5.94250 5.62409
#
# Compressibility (1/GPa) = 0.03911450
#
# Stress axis : x y z
#
# Youngs Moduli (GPa) = 51.21268 94.06930 57.67373
#
# Poissons Ratio (x) = 0.05709 0.20528
# Poissons Ratio (y) = 0.03108 0.00141
# Poissons Ratio (z) = 0.18228 0.00230
#
# Static dielectric constant tensor:
#      x y z
#    x 1.895600 0.001940 0.021080 
#    y 0.001940 1.881890 0.021950 
#    z 0.021080 0.021950 1.936630 
# 
# From -- ./inp_files/261708.got.cif
#   From: 2010.05.17/outbox.cif.g08.bks.cpg/sg2_131_cif.got.tgz:261708.got - 2010.06.03 11:33:40.
