data_PCOD9111973
_publ_section_title
;
Structure prediction by ZEFSAII (Michael W. Deem and Ramdas Pophale) SiO2 
 PCOD9111973
Probable space group: P -1
;
_chemical_formula_sum "Si O2"
_cell_formula_units_Z 16
_cell_length_a 9.113817
_cell_length_b 20.217803
_cell_length_c 17.108290
_cell_angle_alpha 159.693647
_cell_angle_beta 40.747216
_cell_angle_gamma 139.555674
_cell_volume 696.094195
_symmetry_space_group_name_H-M "P -1"
_symmetry_group_IT_number 2
_symmetry_cell_setting 'triclinic'
loop_
_space_group_symop_operation_xyz
x,y,z
-x,-y,-z
loop_
_atom_site_type_symbol
_atom_site_label
_atom_site_fract_x
_atom_site_fract_y
_atom_site_fract_z
Si Si1 0.243234 0.018248 0.647572
Si Si2 0.746723 0.100968 0.309784
Si Si3 0.235648 0.302142 0.160141
Si Si4 0.412757 0.395033 0.735795
Si Si5 0.238937 0.401479 0.978860
Si Si6 0.259754 0.248511 0.469710
Si Si7 0.264882 0.694378 0.685264
Si Si8 0.114538 0.437499 0.598852
O O1 0.202190 0.201648 0.818859
O O2 0.500000 0.000000 0.500000
O O3 0.259853 0.995268 0.708426
O O4 0.999744 0.871926 0.564457
O O5 0.554744 0.225954 0.509042
O O6 0.986058 0.265959 0.401277
O O7 0.711909 0.899346 0.051519
O O8 0.395838 0.403657 0.134350
O O9 0.271123 0.491279 0.411945
O O10 0.964570 0.245663 0.185621
O O11 0.238380 0.394185 0.877068
O O12 0.280642 0.352334 0.660105
O O13 0.500000 0.500000 0.000000
O O14 0.080576 0.524102 0.220674
O O15 0.491154 0.162150 0.274197
O O16 0.292138 0.377489 0.520364
O O17 0.214745 0.631005 0.724256
#
# Coordination Sequence:
#
# PCOD9111973 Si02
#       8
#     2   2   2   2   2   2   2   2
#     4  11  22  42  66  97 128 176 220 271 333 404
#     4  11  21  40  68  98 130 173 222 268 326 398
#     4  10  22  39  70 101 129 175 220 270 333 383
#     4  11  22  44  66 101 139 167 219 278 327 390
#     4  12  21  40  71  98 128 173 222 271 330 399
#     4  10  25  42  62  96 136 169 222 277 327 390
#     4  10  20  44  65  94 136 172 221 275 319 394
#     4  11  22  41  65  93 132 179 222 265 328 387
#
# _framework density 22.985393999999999
#
# number of rings (size 3 to 8) (size 9 to 14) (size 15 to 20)
#    0.000    1.250    3.750    2.625    0.000    1.500 
#    4.500    5.625    0.000    0.000    0.000    0.000 
#    0.000    0.000    0.000    0.000    0.000    0.000 
#
# Total GULP energy -89195.023930 kJ/mol
# GULP energy per Si atom -5574.688996 kJ/mol
# Density = 2.293308 g / cm^3
# Si number density = 22.985394 Si / 1000 Ang^3
#
#
#
# Elastic Constant Matrix: (Units=GPa)
#
#
# Indices 1 2 3 4 5 6 
#
# 1 73.4416 28.8491 5.6032 4.5362 4.2738 10.2135
# 2 28.8491 118.8140 33.9718 -1.9234 -5.8011 6.0847
# 3 5.6032 33.9718 85.0553 12.1523 -16.8500 7.4744
# 4 4.5362 -1.9234 12.1523 29.4322 -7.4611 -4.0225
# 5 4.2738 -5.8011 -16.8500 -7.4611 17.5588 -10.0193
# 6 10.2135 6.0847 7.4744 -4.0225 -10.0193 38.6330
#
#
#
# Elastic Compliance Matrix: (Units=1/GPa)
#
#
# Indices 1 2 3 4 5 6 
#
# 1 0.017963 -0.004664 -0.000310 -0.007739 -0.014337 -0.008478
# 2 -0.004664 0.010874 -0.004083 0.004251 0.003575 0.001680
# 3 -0.000310 -0.004083 0.016521 -0.003544 0.013443 0.000646
# 4 -0.007739 0.004251 -0.003544 0.045711 0.027233 0.013884
# 5 -0.014337 0.003575 0.013443 0.027233 0.103367 0.030270
# 6 -0.008478 0.001680 0.000646 0.013884 0.030270 0.037033
#
#
# Mechanical properties :
#
#
# Convention : Reuss Voigt Hill
#
# Bulk Modulus (GPa) = 36.70454 46.01768 41.36111
# Shear Modulus (GPa) = 19.33012 31.05059 25.19035
#
# Velocity S-wave (km/s) = 2.90310 3.67942 3.31407
# Velocity P-wave (km/s) = 5.21926 6.17371 5.71644
#
# Compressibility (1/GPa) = 0.02724459
#
# Stress axis : x y z
#
# Youngs Moduli (GPa) = 55.66866 91.96565 60.52953
#
# Poissons Ratio (x) = 0.42894 0.01876
# Poissons Ratio (y) = 0.25965 0.24711
# Poissons Ratio (z) = 0.01726 0.37545
#
# Static dielectric constant tensor:
#      x y z
#    x 1.779610 0.063600 0.152770 
#    y 0.063600 1.906600 -0.079400 
#    z 0.152770 -0.079400 1.933110 
# 
# From -- ./inp_files/562966.got.cif
#   From: 2010.05.17/outbox.cif.g08.bks.cpg/sg2_282_cif.got.tgz:562966.got - 2010.06.03 11:33:40.
