data_PCOD9111387
_publ_section_title
;
Structure prediction by ZEFSAII (Michael W. Deem and Ramdas Pophale) SiO2 
 PCOD9111387
Probable space group: P -1
;
_chemical_formula_sum "Si O2"
_cell_formula_units_Z 16
_cell_length_a 21.549314
_cell_length_b 12.520293
_cell_length_c 14.927990
_cell_angle_alpha 151.445137
_cell_angle_beta 153.162209
_cell_angle_gamma 28.582664
_cell_volume 781.638538
_symmetry_space_group_name_H-M "P -1"
_symmetry_group_IT_number 2
_symmetry_cell_setting 'triclinic'
loop_
_space_group_symop_operation_xyz
x,y,z
-x,-y,-z
loop_
_atom_site_type_symbol
_atom_site_label
_atom_site_fract_x
_atom_site_fract_y
_atom_site_fract_z
Si Si1 0.544722 0.831724 0.162373
Si Si2 0.943600 0.932773 0.133953
Si Si3 0.319904 0.633143 0.668707
Si Si4 0.205631 0.485837 0.078917
Si Si5 0.837905 0.978233 0.385840
Si Si6 0.539947 0.168372 0.244933
Si Si7 0.260059 0.282541 0.200186
Si Si8 0.678832 0.443422 0.182632
O O1 0.673987 0.661366 0.272028
O O2 0.577186 0.011987 0.269914
O O3 0.396349 0.012447 0.160003
O O4 0.477277 0.664675 0.898599
O O5 0.075605 0.766398 0.111672
O O6 0.796355 0.181877 0.098923
O O7 0.876501 0.751792 0.954270
O O8 0.023182 0.018797 0.378560
O O9 0.321684 0.429790 0.452538
O O10 0.282100 0.566294 0.669101
O O11 0.192962 0.892369 0.655871
O O12 0.382758 0.419890 0.235746
O O13 0.213163 0.408926 0.136315
O O14 0.163000 0.289015 0.824813
O O15 0.690845 0.160140 0.389683
O O16 0.500000 0.000000 0.000000
O O17 0.500000 0.500000 0.000000
#
# Coordination Sequence:
#
# PCOD9111387 Si02
#       8
#     2   2   2   2   2   2   2   2
#     4  10  20  43  58  84 120 152 198 236 282 349
#     4  12  23  36  56  89 123 151 192 241 291 345
#     4  11  20  35  60  88 117 152 189 234 301 342
#     4  10  21  35  56  87 123 146 189 243 292 340
#     4  11  22  37  60  91 117 155 190 240 298 334
#     4   9  18  39  64  85 112 155 194 238 288 339
#     4  11  21  34  55  91 118 152 185 242 296 345
#     4  10  22  41  58  81 120 163 187 234 290 354
#
# _framework density 20.469819999999999
#
# number of rings (size 3 to 8) (size 9 to 14) (size 15 to 20)
#    0.000    1.500    7.500    0.375    1.750    2.000 
#    0.000    0.625    0.000    3.000    0.000    0.000 
#    0.000    0.000    0.000    0.000    0.000    0.000 
#
# Total GULP energy -89247.741932 kJ/mol
# GULP energy per Si atom -5577.983871 kJ/mol
# Density = 2.042323 g / cm^3
# Si number density = 20.469820 Si / 1000 Ang^3
#
#
#
# Elastic Constant Matrix: (Units=GPa)
#
#
# Indices 1 2 3 4 5 6 
#
# 1 71.5252 43.7848 12.9918 -0.0504 -0.0171 -12.9704
# 2 43.7848 132.0310 12.1048 -1.9802 -0.5666 -17.6036
# 3 12.9918 12.1048 93.0655 2.5212 -5.3492 -6.8968
# 4 -0.0504 -1.9802 2.5212 15.2697 -5.4432 0.6098
# 5 -0.0171 -0.5666 -5.3492 -5.4432 19.3451 3.2025
# 6 -12.9704 -17.6036 -6.8968 0.6098 3.2025 33.2679
#
#
#
# Elastic Compliance Matrix: (Units=1/GPa)
#
#
# Indices 1 2 3 4 5 6 
#
# 1 0.018329 -0.005404 -0.001611 -0.001102 -0.001581 0.004125
# 2 -0.005404 0.009813 -0.000331 0.001202 0.000034 0.002992
# 3 -0.001611 -0.000331 0.011287 -0.001036 0.002602 0.001305
# 4 -0.001102 0.001202 -0.001036 0.073420 0.020964 -0.003372
# 5 -0.001581 0.000034 0.002602 0.020964 0.059329 -0.006154
# 6 0.004125 0.002992 0.001305 -0.003372 -0.006154 0.034175
#
#
# Mechanical properties :
#
#
# Convention : Reuss Voigt Hill
#
# Bulk Modulus (GPa) = 40.42402 48.26495 44.34448
# Shear Modulus (GPa) = 21.80627 28.75925 25.28276
#
# Velocity S-wave (km/s) = 3.26742 3.75234 3.51825
# Velocity P-wave (km/s) = 5.83315 6.51178 6.18178
#
# Compressibility (1/GPa) = 0.02473777
#
# Stress axis : x y z
#
# Youngs Moduli (GPa) = 54.55952 101.90071 88.59399
#
# Poissons Ratio (x) = 0.55066 0.14273
# Poissons Ratio (y) = 0.29483 0.02932
# Poissons Ratio (z) = 0.08790 0.03372
#
# Static dielectric constant tensor:
#      x y z
#    x 1.771430 -0.007520 0.016760 
#    y -0.007520 1.792630 0.019110 
#    z 0.016760 0.019110 1.781500 
# 
# From -- ./inp_files/541023.got.cif
#   From: 2010.05.17/outbox.cif.g08.bks.cpg/sg2_271_cif.got.tgz:541023.got - 2010.06.03 11:33:40.
