data_PCOD9111258
_publ_section_title
;
Structure prediction by ZEFSAII (Michael W. Deem and Ramdas Pophale) SiO2 
 PCOD9111258
Probable space group: P -1
;
_chemical_formula_sum "Si O2"
_cell_formula_units_Z 14
_cell_length_a 13.987678
_cell_length_b 14.052561
_cell_length_c 7.398075
_cell_angle_alpha 71.900870
_cell_angle_beta 47.097699
_cell_angle_gamma 37.343048
_cell_volume 552.361953
_symmetry_space_group_name_H-M "P -1"
_symmetry_group_IT_number 2
_symmetry_cell_setting 'triclinic'
loop_
_space_group_symop_operation_xyz
x,y,z
-x,-y,-z
loop_
_atom_site_type_symbol
_atom_site_label
_atom_site_fract_x
_atom_site_fract_y
_atom_site_fract_z
Si Si1 0.285409 0.185929 0.358587
Si Si2 0.248528 0.822490 0.888030
Si Si3 0.902077 0.287841 0.677862
Si Si4 0.264515 0.433241 0.760350
Si Si5 0.682894 0.622897 0.861298
Si Si6 0.249170 0.216260 0.948871
Si Si7 0.837656 0.009802 0.750588
O O1 0.115027 0.198127 0.581248
O O2 0.276541 0.204457 0.139060
O O3 0.221848 0.342160 0.393015
O O4 0.537985 0.998727 0.235889
O O5 0.491323 0.669129 0.550513
O O6 0.243956 0.915825 0.984946
O O7 0.220643 0.730586 0.068313
O O8 0.000000 0.000000 0.000000
O O9 0.020312 0.174605 0.405354
O O10 0.721739 0.497161 0.770847
O O11 0.218593 0.466432 0.014959
O O12 0.020015 0.626109 0.867264
O O13 0.307493 0.288116 0.753415
O O14 0.409009 0.824259 0.136666
O O15 0.000000 0.000000 0.500000
#
# Coordination Sequence:
#
# PCOD9111258 Si02
#       7
#     2   2   2   2   2   2   2
#     4  10  20  42  71 101 140 188 243 284 350 414
#     4  11  24  45  72 107 144 183 232 301 361 421
#     4  11  24  45  72 103 141 190 236 286 350 422
#     4  10  21  41  68 107 146 178 243 287 359 419
#     4  11  24  45  71 105 139 191 237 292 342 426
#     4   9  19  38  71  99 141 190 228 301 345 415
#     4  10  23  44  70 100 139 184 234 287 350 424
#
# _framework density 25.345700999999998
#
# number of rings (size 3 to 8) (size 9 to 14) (size 15 to 20)
#    0.000    1.714    0.000    5.571    2.000    2.857 
#   10.286    0.714    0.000    0.857    0.000    0.000 
#    0.000    0.000    0.000    0.000    0.000    0.000 
#
# Total GULP energy -78212.450964 kJ/mol
# GULP energy per Si atom -5586.603640 kJ/mol
# Density = 2.528801 g / cm^3
# Si number density = 25.345701 Si / 1000 Ang^3
#
#
#
# Elastic Constant Matrix: (Units=GPa)
#
#
# Indices 1 2 3 4 5 6 
#
# 1 113.4923 71.8632 53.1549 -0.3653 -5.3638 10.4275
# 2 71.8632 175.0676 53.9378 18.1682 -8.4258 18.5985
# 3 53.1549 53.9378 130.7968 -1.9794 -26.2144 10.0279
# 4 -0.3653 18.1682 -1.9794 30.6085 0.5681 0.3291
# 5 -5.3638 -8.4258 -26.2144 0.5681 51.7736 10.6341
# 6 10.4275 18.5985 10.0279 0.3291 10.6341 59.4704
#
#
#
# Elastic Compliance Matrix: (Units=1/GPa)
#
#
# Indices 1 2 3 4 5 6 
#
# 1 0.013521 -0.004737 -0.003756 0.002755 -0.001294 -0.000040
# 2 -0.004737 0.008927 -0.001587 -0.005449 0.000582 -0.001767
# 3 -0.003756 -0.001587 0.011030 0.001530 0.005261 -0.001654
# 4 0.002755 -0.005449 0.001530 0.036036 -0.000393 0.000834
# 5 -0.001294 0.000582 0.005261 -0.000393 0.022959 -0.004945
# 6 -0.000040 -0.001767 -0.001654 0.000834 -0.004945 0.018533
#
#
# Mechanical properties :
#
#
# Convention : Reuss Voigt Hill
#
# Bulk Modulus (GPa) = 75.07947 86.36318 80.72132
# Shear Modulus (GPa) = 36.87175 44.39721 40.63448
#
# Velocity S-wave (km/s) = 3.81826 4.18983 4.00835
# Velocity P-wave (km/s) = 7.00894 7.58646 7.30341
#
# Compressibility (1/GPa) = 0.01331922
#
# Stress axis : x y z
#
# Youngs Moduli (GPa) = 73.95811 112.02439 90.65791
#
# Poissons Ratio (x) = 0.53065 0.34052
# Poissons Ratio (y) = 0.35034 0.14383
# Poissons Ratio (z) = 0.27779 0.17773
#
# Static dielectric constant tensor:
#      x y z
#    x 2.108280 -0.005960 -0.020030 
#    y -0.005960 2.030650 0.012210 
#    z -0.020030 0.012210 2.043770 
# 
# From -- ./inp_files/315033.got.cif
#   From: 2010.05.17/outbox.cif.g08.bks.cpg/sg2_158_cif.got.tgz:315033.got - 2010.06.03 11:33:40.
