data_PCOD9111149
_publ_section_title
;
Structure prediction by ZEFSAII (Michael W. Deem and Ramdas Pophale) SiO2 
 PCOD9111149
Probable space group: P -1
;
_chemical_formula_sum "Si O2"
_cell_formula_units_Z 14
_cell_length_a 8.613022
_cell_length_b 7.404596
_cell_length_c 16.074370
_cell_angle_alpha 139.847476
_cell_angle_beta 75.525839
_cell_angle_gamma 103.178219
_cell_volume 638.944527
_symmetry_space_group_name_H-M "P -1"
_symmetry_group_IT_number 2
_symmetry_cell_setting 'triclinic'
loop_
_space_group_symop_operation_xyz
x,y,z
-x,-y,-z
loop_
_atom_site_type_symbol
_atom_site_label
_atom_site_fract_x
_atom_site_fract_y
_atom_site_fract_z
Si Si1 0.108432 0.848266 0.313427
Si Si2 0.559006 0.723485 0.352564
Si Si3 0.727119 0.622208 0.138998
Si Si4 0.616608 0.561770 0.869433
Si Si5 0.031961 0.925971 0.757832
Si Si6 0.169401 0.378578 0.604399
Si Si7 0.847295 0.043348 0.977583
O O1 0.243820 0.640089 0.195534
O O2 0.971878 0.690156 0.333236
O O3 0.182366 0.101626 0.449638
O O4 0.031468 0.982163 0.290092
O O5 0.675956 0.812055 0.290765
O O6 0.427084 0.527174 0.252315
O O7 0.665305 0.563916 0.347760
O O8 0.500000 0.000000 0.500000
O O9 0.555338 0.501315 0.085700
O O10 0.845272 0.817823 0.137347
O O11 0.815641 0.363243 0.074592
O O12 0.689437 0.877488 0.976257
O O13 0.120039 0.639049 0.648325
O O14 0.888449 0.904928 0.835435
O O15 0.000000 0.000000 0.000000
#
# Coordination Sequence:
#
# PCOD9111149 Si02
#       7
#     2   2   2   2   2   2   2
#     4  11  21  41  66 100 136 176 221 279 329 405
#     4  10  20  42  69  96 137 178 212 271 342 400
#     4  10  23  42  63  97 137 170 223 279 326 393
#     4  10  22  42  69  97 135 174 224 273 345 394
#     4  12  24  42  67 103 130 177 234 273 332 399
#     4  11  21  40  69  95 141 179 215 272 342 398
#     4  12  24  45  70  96 131 184 231 276 335 400
#
# _framework density 21.911135999999999
#
# number of rings (size 3 to 8) (size 9 to 14) (size 15 to 20)
#    0.857    0.286    4.286    3.000    0.000    0.000 
#    5.143    2.857    0.000    0.000    0.000    0.000 
#    0.000    0.000    0.000    0.000    0.000    0.000 
#
# Total GULP energy -78189.380896 kJ/mol
# GULP energy per Si atom -5584.955778 kJ/mol
# Density = 2.186127 g / cm^3
# Si number density = 21.911136 Si / 1000 Ang^3
#
#
#
# Elastic Constant Matrix: (Units=GPa)
#
#
# Indices 1 2 3 4 5 6 
#
# 1 91.3464 32.9125 2.4109 9.5517 7.2849 -7.5285
# 2 32.9125 79.8247 4.1004 14.3263 5.2614 -20.8059
# 3 2.4109 4.1004 48.4034 11.1337 -3.1016 -10.3024
# 4 9.5517 14.3263 11.1337 34.6997 -3.5155 -1.2564
# 5 7.2849 5.2614 -3.1016 -3.5155 37.5740 6.3995
# 6 -7.5285 -20.8059 -10.3024 -1.2564 6.3995 29.9509
#
#
#
# Elastic Compliance Matrix: (Units=1/GPa)
#
#
# Indices 1 2 3 4 5 6 
#
# 1 0.013074 -0.004846 0.000118 -0.001834 -0.002074 0.000327
# 2 -0.004846 0.019803 0.003095 -0.007798 -0.004741 0.014289
# 3 0.000118 0.003095 0.024613 -0.008934 -0.001048 0.010495
# 4 -0.001834 -0.007798 -0.008934 0.035656 0.005517 -0.008634
# 5 -0.002074 -0.004741 -0.001048 0.005517 0.029868 -0.010326
# 6 0.000327 0.014289 0.010495 -0.008634 -0.010326 0.048850
#
#
# Mechanical properties :
#
#
# Convention : Reuss Voigt Hill
#
# Bulk Modulus (GPa) = 18.44162 33.15799 25.79981
# Shear Modulus (GPa) = 25.87926 32.45499 29.16713
#
# Velocity S-wave (km/s) = 3.44044 3.85282 3.65246
# Velocity P-wave (km/s) = 4.92108 5.91254 5.43945
#
# Compressibility (1/GPa) = 0.05422516
#
# Stress axis : x y z
#
# Youngs Moduli (GPa) = 76.48619 50.49827 40.62846
#
# Poissons Ratio (x) = 0.24469 -0.00479
# Poissons Ratio (y) = 0.37061 -0.12575
# Poissons Ratio (z) = -0.00902 -0.15629
#
# Static dielectric constant tensor:
#      x y z
#    x 1.832570 0.009770 0.026740 
#    y 0.009770 1.769150 -0.016890 
#    z 0.026740 -0.016890 1.804540 
# 
# From -- ./inp_files/551865.got.cif
#   From: 2010.05.17/outbox.cif.g08.bks.cpg/sg2_276_cif.got.tgz:551865.got - 2010.06.03 11:33:40.
