data_PCOD9111014
_publ_section_title
;
Structure prediction by ZEFSAII (Michael W. Deem and Ramdas Pophale) SiO2 
 PCOD9111014
Probable space group: P -1
;
_chemical_formula_sum "Si O2"
_cell_formula_units_Z 12
_cell_length_a 16.506881
_cell_length_b 8.375894
_cell_length_c 16.688873
_cell_angle_alpha 124.110586
_cell_angle_beta 17.355822
_cell_angle_gamma 124.818786
_cell_volume 563.897691
_symmetry_space_group_name_H-M "P -1"
_symmetry_group_IT_number 2
_symmetry_cell_setting 'triclinic'
loop_
_space_group_symop_operation_xyz
x,y,z
-x,-y,-z
loop_
_atom_site_type_symbol
_atom_site_label
_atom_site_fract_x
_atom_site_fract_y
_atom_site_fract_z
Si Si1 0.782861 0.484691 0.271491
Si Si2 0.762171 0.927815 0.016470
Si Si3 0.260912 0.115182 0.497976
Si Si4 0.296062 0.107004 0.273900
Si Si5 0.979447 0.292676 0.171705
Si Si6 0.538656 0.446238 0.745327
O O1 0.500000 0.500000 0.500000
O O2 0.812260 0.670488 0.355421
O O3 0.826052 0.304368 0.236466
O O4 0.000000 0.500000 0.000000
O O5 0.583972 0.712266 0.117006
O O6 0.538063 0.073807 0.269648
O O7 0.925905 0.904705 0.938704
O O8 0.993513 0.977568 0.745176
O O9 0.321111 0.088040 0.340611
O O10 0.355181 0.337846 0.265741
O O11 0.000000 0.000000 0.500000
O O12 0.500000 0.000000 0.000000
O O13 0.778775 0.362125 0.447521
O O14 0.270775 0.438325 0.937754
#
# Coordination Sequence:
#
# PCOD9111014 Si02
#       6
#     2   2   2   2   2   2
#     4  12  26  42  69 102 131 176 227 271 328 397
#     4  10  22  40  72  94 128 188 208 270 350 380
#     4  12  24  44  68 100 134 168 228 284 316 394
#     4  12  26  42  69 102 131 176 227 271 328 397
#     4  10  20  42  68  90 131 182 214 256 348 383
#     4  10  20  42  68  90 131 182 214 256 348 383
#
# _framework density 21.280455
#
# number of rings (size 3 to 8) (size 9 to 14) (size 15 to 20)
#    1.000    0.000    3.333    4.000    2.333    0.000 
#    0.000   10.000    0.000    0.000    0.000    0.000 
#    0.000    0.000    0.000    0.000    0.000    0.000 
#
# Total GULP energy -66958.789893 kJ/mol
# GULP energy per Si atom -5579.899158 kJ/mol
# Density = 2.123202 g / cm^3
# Si number density = 21.280455 Si / 1000 Ang^3
#
#
#
# Elastic Constant Matrix: (Units=GPa)
#
#
# Indices 1 2 3 4 5 6 
#
# 1 84.1726 35.2544 43.7978 17.4340 4.1621 -7.2038
# 2 35.2544 79.6124 39.6293 7.5838 9.3934 -13.3910
# 3 43.7978 39.6293 183.0221 14.7915 -3.0972 -6.0063
# 4 17.4340 7.5838 14.7915 34.8478 -1.1972 -0.8676
# 5 4.1621 9.3934 -3.0972 -1.1972 41.2996 -2.2668
# 6 -7.2038 -13.3910 -6.0063 -0.8676 -2.2668 23.6280
#
#
#
# Elastic Compliance Matrix: (Units=1/GPa)
#
#
# Indices 1 2 3 4 5 6 
#
# 1 0.016773 -0.005396 -0.002316 -0.006231 -0.000753 0.001166
# 2 -0.005396 0.017784 -0.002361 -0.000094 -0.003268 0.007517
# 3 -0.002316 -0.002361 0.006630 -0.001107 0.001220 -0.000282
# 4 -0.006231 -0.000094 -0.001107 0.032331 0.001454 -0.000908
# 5 -0.000753 -0.003268 0.001220 0.001454 0.025205 0.000700
# 6 0.001166 0.007517 -0.000282 -0.000908 0.000700 0.046900
#
#
# Mechanical properties :
#
#
# Convention : Reuss Voigt Hill
#
# Bulk Modulus (GPa) = 47.52472 64.90780 56.21626
# Shear Modulus (GPa) = 28.93795 35.16346 32.05070
#
# Velocity S-wave (km/s) = 3.69160 4.06936 3.88507
# Velocity P-wave (km/s) = 6.36801 7.25582 6.82636
#
# Compressibility (1/GPa) = 0.02104168
#
# Stress axis : x y z
#
# Youngs Moduli (GPa) = 59.61868 56.22932 150.82735
#
# Poissons Ratio (x) = 0.30341 0.34938
# Poissons Ratio (y) = 0.32170 0.35603
# Poissons Ratio (z) = 0.13810 0.13273
#
# Static dielectric constant tensor:
#      x y z
#    x 1.816500 -0.012730 -0.033750 
#    y -0.012730 1.805720 -0.018850 
#    z -0.033750 -0.018850 1.726610 
# 
# From -- ./inp_files/528860.got.cif
#   From: 2010.05.17/outbox.cif.g08.bks.cpg/sg2_265_cif.got.tgz:528860.got - 2010.06.03 11:33:40.
