data_PCOD9111324
_publ_section_title
;
Structure prediction by ZEFSAII (Michael W. Deem and Ramdas Pophale) SiO2 
 PCOD9111324
Probable space group: P -1
;
_chemical_formula_sum "Si O2"
_cell_formula_units_Z 14
_cell_length_a 5.049819
_cell_length_b 7.609717
_cell_length_c 16.661261
_cell_angle_alpha 105.259412
_cell_angle_beta 103.465613
_cell_angle_gamma 114.321218
_cell_volume 518.725135
_symmetry_space_group_name_H-M "P -1"
_symmetry_group_IT_number 2
_symmetry_cell_setting 'triclinic'
loop_
_space_group_symop_operation_xyz
x,y,z
-x,-y,-z
loop_
_atom_site_type_symbol
_atom_site_label
_atom_site_fract_x
_atom_site_fract_y
_atom_site_fract_z
Si Si1 0.277630 0.051837 0.677080
Si Si2 0.657881 0.207788 0.479453
Si Si3 0.597376 0.257070 0.147648
Si Si4 0.898861 0.364292 0.852770
Si Si5 0.150321 0.213746 0.251583
Si Si6 0.661478 0.636980 0.418498
Si Si7 0.784562 0.680769 0.990191
O O1 0.590068 0.215754 0.764938
O O2 0.232431 0.173507 0.615081
O O3 0.602857 0.785336 0.792259
O O4 0.999483 0.959797 0.710781
O O5 0.675951 0.129494 0.382829
O O6 0.438254 0.302103 0.497782
O O7 0.018965 0.368580 0.549666
O O8 0.500000 0.000000 0.500000
O O9 0.350415 0.184878 0.046690
O O10 0.811741 0.508818 0.172985
O O11 0.850136 0.186325 0.175953
O O12 0.875546 0.554922 0.917490
O O13 0.950690 0.234995 0.912056
O O14 0.353677 0.440037 0.335890
O O15 0.500000 0.500000 0.000000
#
# Coordination Sequence:
#
# PCOD9111324 Si02
#       7
#     2   2   2   2   2   2   2
#     4  11  24  43  66 103 131 169 232 271 324 398
#     4  10  23  42  69  95 129 178 220 274 329 385
#     4  11  21  44  63  97 137 171 216 267 328 390
#     4  10  20  42  72  98 129 178 216 275 327 391
#     4  12  26  40  69  99 133 181 217 271 329 389
#     4  11  23  45  68  90 137 178 217 274 334 378
#     4   9  19  38  74  97 127 176 221 258 337 395
#
# _framework density 26.989242999999998
#
# number of rings (size 3 to 8) (size 9 to 14) (size 15 to 20)
#    0.000    1.429    2.857    2.571    2.000    4.571 
#   10.286    1.429    0.000    0.000    0.000    0.000 
#    0.000    0.000    0.000    0.000    0.000    0.000 
#
# Total GULP energy -78492.538276 kJ/mol
# GULP energy per Si atom -5606.609877 kJ/mol
# Density = 2.692781 g / cm^3
# Si number density = 26.989243 Si / 1000 Ang^3
#
#
#
# Elastic Constant Matrix: (Units=GPa)
#
#
# Indices 1 2 3 4 5 6 
#
# 1 127.9775 55.5772 46.1620 -14.0422 -1.5212 41.5140
# 2 55.5772 107.8597 47.6763 -10.6795 -3.4320 13.8729
# 3 46.1620 47.6763 145.0338 -7.5837 10.3472 11.9610
# 4 -14.0422 -10.6795 -7.5837 48.6561 4.3100 4.6742
# 5 -1.5212 -3.4320 10.3472 4.3100 52.3971 -8.5738
# 6 41.5140 13.8729 11.9610 4.6742 -8.5738 42.6183
#
#
#
# Elastic Compliance Matrix: (Units=1/GPa)
#
#
# Indices 1 2 3 4 5 6 
#
# 1 0.015753 -0.005126 -0.001757 0.004704 -0.002234 -0.014148
# 2 -0.005126 0.013070 -0.002887 0.000634 0.001517 0.001785
# 3 -0.001757 -0.002887 0.008583 0.000394 -0.002001 -0.000204
# 4 0.004704 0.000634 0.000394 0.023162 -0.003125 -0.008068
# 5 -0.002234 0.001517 -0.002001 -0.003125 0.020882 0.006787
# 6 -0.014148 0.001785 -0.000204 -0.008068 0.006787 0.038972
#
#
# Mechanical properties :
#
#
# Convention : Reuss Voigt Hill
#
# Bulk Modulus (GPa) = 55.97097 75.52245 65.74671
# Shear Modulus (GPa) = 34.26562 44.16469 39.21516
#
# Velocity S-wave (km/s) = 3.56701 4.04961 3.81595
# Velocity P-wave (km/s) = 6.14394 7.06463 6.62031
#
# Compressibility (1/GPa) = 0.01786641
#
# Stress axis : x y z
#
# Youngs Moduli (GPa) = 63.48121 76.50929 116.50482
#
# Poissons Ratio (x) = 0.39219 0.20466
# Poissons Ratio (y) = 0.32540 0.33639
# Poissons Ratio (z) = 0.11151 0.22091
#
# Static dielectric constant tensor:
#      x y z
#    x 2.112730 -0.052570 0.060250 
#    y -0.052570 2.152170 -0.032030 
#    z 0.060250 -0.032030 2.120950 
# 
# From -- ./inp_files/548002.got.cif
#   From: 2010.05.17/outbox.cif.g08.bks.cpg/sg2_275_cif.got.tgz:548002.got - 2010.06.03 11:33:40.
