data_PCOD9111707
_publ_section_title
;
Structure prediction by ZEFSAII (Michael W. Deem and Ramdas Pophale) SiO2 
 PCOD9111707
Probable space group: P -1
;
_chemical_formula_sum "Si O2"
_cell_formula_units_Z 16
_cell_length_a 11.731629
_cell_length_b 15.572703
_cell_length_c 9.142974
_cell_angle_alpha 144.131569
_cell_angle_beta 115.337562
_cell_angle_gamma 50.143120
_cell_volume 735.629976
_symmetry_space_group_name_H-M "P -1"
_symmetry_group_IT_number 2
_symmetry_cell_setting 'triclinic'
loop_
_space_group_symop_operation_xyz
x,y,z
-x,-y,-z
loop_
_atom_site_type_symbol
_atom_site_label
_atom_site_fract_x
_atom_site_fract_y
_atom_site_fract_z
Si Si1 0.706087 0.597415 0.652655
Si Si2 0.589843 0.114523 0.579729
Si Si3 0.894341 0.433608 0.810664
Si Si4 0.551957 0.106523 0.890487
Si Si5 0.277810 0.436688 0.825452
Si Si6 0.188205 0.235679 0.297179
Si Si7 0.926907 0.971902 0.562644
Si Si8 0.130238 0.707547 0.878741
O O1 0.836393 0.495490 0.702925
O O2 0.741179 0.713728 0.727108
O O3 0.732468 0.435224 0.345789
O O4 0.551660 0.723330 0.830306
O O5 0.591312 0.128318 0.776609
O O6 0.455902 0.305630 0.711938
O O7 0.757793 0.036441 0.512444
O O8 0.541241 0.984146 0.319165
O O9 0.751122 0.534809 0.980220
O O10 0.982028 0.227361 0.605949
O O11 0.000000 0.500000 0.000000
O O12 0.701083 0.965933 0.870108
O O13 0.196966 0.343503 0.586723
O O14 0.193006 0.622160 0.954660
O O15 0.020932 0.287637 0.236696
O O16 0.913358 0.096356 0.859924
O O17 0.000000 0.000000 0.500000
#
# Coordination Sequence:
#
# PCOD9111707 Si02
#       8
#     2   2   2   2   2   2   2   2
#     4  11  22  39  65 101 134 177 232 274 339 401
#     4  10  23  41  69 101 137 173 237 289 333 394
#     4  12  23  40  73  99 133 176 237 282 330 405
#     4  10  21  41  69 105 133 174 232 290 335 388
#     4  10  20  43  68  99 130 178 231 284 329 393
#     4  10  22  39  68 102 142 175 223 284 340 399
#     4  12  28  46  67 101 140 184 224 280 353 413
#     4  11  24  44  61  97 143 180 219 270 350 413
#
# _framework density 21.750063999999998
#
# number of rings (size 3 to 8) (size 9 to 14) (size 15 to 20)
#    0.000    1.250    2.500    4.125    7.000    1.000 
#    0.000    0.625    0.000    0.000    0.000    0.000 
#    0.000    0.000    0.000    0.000    0.000    0.000 
#
# Total GULP energy -89418.068937 kJ/mol
# GULP energy per Si atom -5588.629309 kJ/mol
# Density = 2.170056 g / cm^3
# Si number density = 21.750064 Si / 1000 Ang^3
#
#
#
# Elastic Constant Matrix: (Units=GPa)
#
#
# Indices 1 2 3 4 5 6 
#
# 1 59.1735 26.1870 7.1192 8.5591 -20.2524 -9.7193
# 2 26.1870 127.3630 22.3600 13.3547 -6.7806 0.2575
# 3 7.1192 22.3600 84.9410 16.7478 -16.7054 21.3756
# 4 8.5591 13.3547 16.7478 38.9720 2.4073 -6.8108
# 5 -20.2524 -6.7806 -16.7054 2.4073 27.4060 2.7759
# 6 -9.7193 0.2575 21.3756 -6.8108 2.7759 19.3739
#
#
#
# Elastic Compliance Matrix: (Units=1/GPa)
#
#
# Indices 1 2 3 4 5 6 
#
# 1 0.027432 -0.004390 0.002584 -0.005869 0.020674 0.005945
# 2 -0.004390 0.009147 -0.002441 -0.000901 -0.002430 0.000401
# 3 0.002584 -0.002441 0.037613 -0.027388 0.032148 -0.054405
# 4 -0.005869 -0.000901 -0.027388 0.049490 -0.030571 0.049064
# 5 0.020674 -0.002430 0.032148 -0.030571 0.078209 -0.047019
# 6 0.005945 0.000401 -0.054405 0.049064 -0.047019 0.138604
#
#
# Mechanical properties :
#
#
# Convention : Reuss Voigt Hill
#
# Bulk Modulus (GPa) = 15.22135 42.53445 28.87790
# Shear Modulus (GPa) = 13.48113 31.53781 22.50947
#
# Velocity S-wave (km/s) = 2.49232 3.81203 3.22050
# Velocity P-wave (km/s) = 3.91097 6.24291 5.20911
#
# Compressibility (1/GPa) = 0.06569718
#
# Stress axis : x y z
#
# Youngs Moduli (GPa) = 36.45314 109.32501 26.58663
#
# Poissons Ratio (x) = 0.47993 -0.06869
# Poissons Ratio (y) = 0.16003 0.06490
# Poissons Ratio (z) = -0.09418 0.26688
#
# Static dielectric constant tensor:
#      x y z
#    x 1.809220 0.036000 -0.009260 
#    y 0.036000 1.800670 -0.024770 
#    z -0.009260 -0.024770 1.897470 
# 
# From -- ./inp_files/274701.got.cif
#   From: 2010.05.17/outbox.cif.g08.bks.cpg/sg2_138_cif.got.tgz:274701.got - 2010.06.03 11:33:40.
