data_PCOD9111637
_publ_section_title
;
Structure prediction by ZEFSAII (Michael W. Deem and Ramdas Pophale) SiO2 
 PCOD9111637
Probable space group: P -1
;
_chemical_formula_sum "Si O2"
_cell_formula_units_Z 16
_cell_length_a 19.910167
_cell_length_b 9.003433
_cell_length_c 5.169562
_cell_angle_alpha 106.756754
_cell_angle_beta 114.270179
_cell_angle_gamma 52.203730
_cell_volume 666.696847
_symmetry_space_group_name_H-M "P -1"
_symmetry_group_IT_number 2
_symmetry_cell_setting 'triclinic'
loop_
_space_group_symop_operation_xyz
x,y,z
-x,-y,-z
loop_
_atom_site_type_symbol
_atom_site_label
_atom_site_fract_x
_atom_site_fract_y
_atom_site_fract_z
Si Si1 0.911658 0.896600 0.800528
Si Si2 0.396159 0.287840 0.883708
Si Si3 0.309834 0.271027 0.212504
Si Si4 0.446664 0.686457 0.693460
Si Si5 0.689205 0.310544 0.167440
Si Si6 0.172845 0.684747 0.270819
Si Si7 0.733494 0.994827 0.717442
Si Si8 0.017405 0.795693 0.418955
O O1 0.820258 0.908235 0.631498
O O2 0.982969 0.776360 0.628062
O O3 0.888503 0.111404 0.862420
O O4 0.956075 0.803436 0.096407
O O5 0.367030 0.197101 0.003643
O O6 0.492590 0.244626 0.075206
O O7 0.372334 0.267690 0.542310
O O8 0.335319 0.512630 0.952897
O O9 0.223859 0.481107 0.121210
O O10 0.275789 0.151528 0.214069
O O11 0.500000 0.500000 0.500000
O O12 0.402115 0.650004 0.845349
O O13 0.360752 0.856730 0.493332
O O14 0.748284 0.302662 0.488500
O O15 0.744242 0.120774 0.002362
O O16 0.118595 0.670663 0.415312
O O17 0.000000 0.000000 0.500000
#
# Coordination Sequence:
#
# PCOD9111637 Si02
#       8
#     2   2   2   2   2   2   2   2
#     4  11  22  40  65  98 127 169 222 270 321 380
#     4  11  25  45  66  96 131 175 223 272 324 395
#     4  11  28  44  65  98 140 177 215 266 343 391
#     4  12  24  43  71 100 127 171 232 278 325 380
#     4  11  23  42  71  97 130 172 227 271 329 385
#     4  10  20  43  67  97 132 174 217 272 324 393
#     4  12  26  42  68  96 136 176 217 275 330 397
#     4  10  21  36  66 100 126 163 221 276 315 377
#
# _framework density 23.998913000000002
#
# number of rings (size 3 to 8) (size 9 to 14) (size 15 to 20)
#    0.000    1.000    2.500    5.625    3.500    5.000 
#    0.000    1.250    0.000    0.000    0.000    0.875 
#    0.000    0.000    0.000    0.000    0.000    0.000 
#
# Total GULP energy -89491.547316 kJ/mol
# GULP energy per Si atom -5593.221707 kJ/mol
# Density = 2.394429 g / cm^3
# Si number density = 23.998913 Si / 1000 Ang^3
#
#
#
# Elastic Constant Matrix: (Units=GPa)
#
#
# Indices 1 2 3 4 5 6 
#
# 1 126.3395 17.3915 0.0964 -8.8785 -24.6686 -8.1253
# 2 17.3915 44.6088 -4.9383 1.2277 -10.6606 10.8445
# 3 0.0964 -4.9383 58.6393 -6.2518 -16.2567 -3.8384
# 4 -8.8785 1.2277 -6.2518 16.8108 0.4603 -6.4319
# 5 -24.6686 -10.6606 -16.2567 0.4603 32.0568 -0.5636
# 6 -8.1253 10.8445 -3.8384 -6.4319 -0.5636 33.1043
#
#
#
# Elastic Compliance Matrix: (Units=1/GPa)
#
#
# Indices 1 2 3 4 5 6 
#
# 1 0.011363 -0.003610 0.003771 0.009892 0.009428 0.006491
# 2 -0.003610 0.029185 0.003289 -0.007393 0.008502 -0.011357
# 3 0.003771 0.003289 0.023295 0.011950 0.015727 0.005138
# 4 0.009892 -0.007393 0.011950 0.077632 0.010477 0.021497
# 5 0.009428 0.008502 0.015727 0.010477 0.049177 0.004225
# 6 0.006491 -0.011357 0.005138 0.021497 0.004225 0.040365
#
#
# Mechanical properties :
#
#
# Convention : Reuss Voigt Hill
#
# Bulk Modulus (GPa) = 14.13582 28.29853 21.21717
# Shear Modulus (GPa) = 20.18597 30.86359 25.52478
#
# Velocity S-wave (km/s) = 2.90335 3.59003 3.26480
# Velocity P-wave (km/s) = 4.14032 5.38532 4.80333
#
# Compressibility (1/GPa) = 0.07074227
#
# Stress axis : x y z
#
# Youngs Moduli (GPa) = 88.00733 34.26459 42.92814
#
# Poissons Ratio (x) = 0.12369 -0.16186
# Poissons Ratio (y) = 0.31769 -0.14120
# Poissons Ratio (z) = -0.33184 -0.11271
#
# Static dielectric constant tensor:
#      x y z
#    x 1.946220 -0.038350 -0.009780 
#    y -0.038350 1.946410 -0.019630 
#    z -0.009780 -0.019630 1.958280 
# 
# From -- ./inp_files/116300.got.cif
#   From: 2010.05.17/outbox.cif.g08.bks.cpg/sg2_59_cif.got.tgz:116300.got - 2010.06.03 11:33:40.
