data_PCOD9111064
_publ_section_title
;
Structure prediction by ZEFSAII (Michael W. Deem and Ramdas Pophale) SiO2 
 PCOD9111064
Probable space group: P -1
;
_chemical_formula_sum "Si O2"
_cell_formula_units_Z 15
_cell_length_a 8.422368
_cell_length_b 20.367072
_cell_length_c 9.023227
_cell_angle_alpha 130.498594
_cell_angle_beta 43.395592
_cell_angle_gamma 142.079872
_cell_volume 642.797184
_symmetry_space_group_name_H-M "P -1"
_symmetry_group_IT_number 2
_symmetry_cell_setting 'triclinic'
loop_
_space_group_symop_operation_xyz
x,y,z
-x,-y,-z
loop_
_atom_site_type_symbol
_atom_site_label
_atom_site_fract_x
_atom_site_fract_y
_atom_site_fract_z
Si Si1 0.868994 0.626944 0.592342
Si Si2 0.450942 0.794067 0.800662
Si Si3 0.466462 0.960797 0.635398
Si Si4 0.331509 0.576389 0.444645
Si Si5 0.825613 0.684312 0.046216
Si Si6 0.538252 0.782308 0.282969
Si Si7 0.500000 0.000000 0.000000
Si Si8 0.787241 0.794674 0.826860
O O1 0.686305 0.497838 0.520513
O O2 0.768710 0.687555 0.656277
O O3 0.207697 0.686989 0.414249
O O4 0.844112 0.651901 0.818667
O O5 0.429479 0.695535 0.590909
O O6 0.705599 0.836213 0.806595
O O7 0.123027 0.728095 0.989401
O O8 0.495499 0.892094 0.822703
O O9 0.593272 0.893638 0.441461
O O10 0.117734 0.881885 0.781453
O O11 0.500000 0.000000 0.500000
O O12 0.573966 0.030942 0.814880
O O13 0.551755 0.593884 0.195227
O O14 0.000000 0.500000 0.500000
O O15 0.776308 0.775270 0.187761
O O16 0.573717 0.771926 0.070335
#
# Coordination Sequence:
#
# PCOD9111064 Si02
#       8
#     2   2   2   2   2   2   1   2
#     4  10  21  40  68  98 135 182 236 294 370 428
#     4  12  27  43  67 107 145 189 247 297 368 448
#     4  11  25  47  76 106 148 192 248 312 368 438
#     4  12  23  41  71 104 139 185 246 308 368 436
#     4  11  21  39  68 102 135 182 238 304 357 440
#     4  10  20  42  68  96 135 189 235 297 372 429
#     4  12  26  48  74 112 144 192 250 300 368 438
#     4  10  25  46  68 102 149 191 235 306 378 437
#
# _framework density 23.335512000000001
#
# number of rings (size 3 to 8) (size 9 to 14) (size 15 to 20)
#    0.000    1.067    2.667    4.400    0.000    6.933 
#    0.000    8.000    0.000    0.000    0.000    0.000 
#    0.000    0.000    0.000    0.000    0.000    0.000 
#
# Total GULP energy -83519.584466 kJ/mol
# GULP energy per Si atom -5567.972298 kJ/mol
# Density = 2.328240 g / cm^3
# Si number density = 23.335512 Si / 1000 Ang^3
#
#
#
# Elastic Constant Matrix: (Units=GPa)
#
#
# Indices 1 2 3 4 5 6 
#
# 1 70.3509 12.4715 27.9233 8.8807 -14.4053 -10.6108
# 2 12.4715 79.7277 41.8295 14.2329 3.0927 -23.2964
# 3 27.9233 41.8295 122.3422 -2.1995 -12.0842 -5.7777
# 4 8.8807 14.2329 -2.1995 44.2973 -6.9741 -5.1733
# 5 -14.4053 3.0927 -12.0842 -6.9741 32.0029 -0.2604
# 6 -10.6108 -23.2964 -5.7777 -5.1733 -0.2604 37.4164
#
#
#
# Elastic Compliance Matrix: (Units=1/GPa)
#
#
# Indices 1 2 3 4 5 6 
#
# 1 0.017737 0.000568 -0.003465 -0.002413 0.006132 0.004558
# 2 0.000568 0.021156 -0.007559 -0.006938 -0.006064 0.011165
# 3 -0.003465 -0.007559 0.011915 0.004047 0.004525 -0.003258
# 4 -0.002413 -0.006938 0.004047 0.026494 0.006881 -0.000668
# 5 0.006132 -0.006064 0.004525 0.006881 0.037800 -0.000124
# 6 0.004558 0.011165 -0.003258 -0.000668 -0.000124 0.034374
#
#
# Mechanical properties :
#
#
# Convention : Reuss Voigt Hill
#
# Bulk Modulus (GPa) = 33.45045 48.54106 40.99575
# Shear Modulus (GPa) = 27.72335 35.42309 31.57322
#
# Velocity S-wave (km/s) = 3.45052 3.90037 3.68232
# Velocity P-wave (km/s) = 5.49914 6.41329 5.97373
#
# Compressibility (1/GPa) = 0.02989497
#
# Stress axis : x y z
#
# Youngs Moduli (GPa) = 56.38078 47.26792 83.92698
#
# Poissons Ratio (x) = -0.02685 0.29080
# Poissons Ratio (y) = -0.03202 0.63444
# Poissons Ratio (z) = 0.19535 0.35732
#
# Static dielectric constant tensor:
#      x y z
#    x 1.949870 -0.043020 0.022750 
#    y -0.043020 1.917630 0.031890 
#    z 0.022750 0.031890 1.877130 
# 
# From -- ./inp_files/222397.got.cif
#   From: 2010.05.17/outbox.cif.g08.bks.cpg/sg2_112_cif.got.tgz:222397.got - 2010.06.03 11:33:40.
