data_PCOD9111488
_publ_section_title
;
Structure prediction by ZEFSAII (Michael W. Deem and Ramdas Pophale) SiO2 
 PCOD9111488
Probable space group: P -1
;
_chemical_formula_sum "Si O2"
_cell_formula_units_Z 16
_cell_length_a 9.487855
_cell_length_b 13.898642
_cell_length_c 11.442303
_cell_angle_alpha 32.058530
_cell_angle_beta 84.914196
_cell_angle_gamma 71.886172
_cell_volume 714.017000
_symmetry_space_group_name_H-M "P -1"
_symmetry_group_IT_number 2
_symmetry_cell_setting 'triclinic'
loop_
_space_group_symop_operation_xyz
x,y,z
-x,-y,-z
loop_
_atom_site_type_symbol
_atom_site_label
_atom_site_fract_x
_atom_site_fract_y
_atom_site_fract_z
Si Si1 0.999827 0.804612 0.811020
Si Si2 0.204507 0.402014 0.314356
Si Si3 0.689978 0.418167 0.439463
Si Si4 0.813612 0.645826 0.362283
Si Si5 0.808890 0.236916 0.381010
Si Si6 0.184860 0.948337 0.027142
Si Si7 0.238544 0.965827 0.730889
Si Si8 0.530137 0.458823 0.879836
O O1 0.070025 0.742961 0.739437
O O2 0.103322 0.911396 0.746714
O O3 0.040623 0.601087 0.089791
O O4 0.832322 0.004351 0.615727
O O5 0.232148 0.371720 0.482644
O O6 0.338527 0.462163 0.196743
O O7 0.217547 0.191440 0.480359
O O8 0.726696 0.578687 0.340588
O O9 0.818746 0.303342 0.445070
O O10 0.529537 0.504735 0.289072
O O11 0.709341 0.252646 0.704101
O O12 0.000000 0.500000 0.500000
O O13 0.791121 0.868610 0.109217
O O14 0.631784 0.396053 0.193352
O O15 0.228387 0.938584 0.898594
O O16 0.000000 0.000000 0.000000
O O17 0.397803 0.781668 0.860474
#
# Coordination Sequence:
#
# PCOD9111488 Si02
#       8
#     2   2   2   2   2   2   2   2
#     4  10  20  43  65  86 119 159 201 258 300 351
#     4  10  23  39  61  91 123 160 203 244 301 358
#     4  10  21  39  58  85 124 157 193 248 297 356
#     4  11  23  34  59  92 119 154 202 242 295 360
#     4   9  22  40  64  89 119 158 204 248 308 353
#     4  11  21  35  58  89 118 156 196 245 301 351
#     4  10  22  39  62  89 123 155 209 246 294 362
#     4   9  22  40  60  87 126 162 197 245 307 355
#
# _framework density 22.408429000000002
#
# number of rings (size 3 to 8) (size 9 to 14) (size 15 to 20)
#    0.750    1.250    1.250    2.250    3.500    5.000 
#    0.000   10.000    0.000    0.000    0.000    0.000 
#    0.000    0.000    0.000    0.000    0.000    0.000 
#
# Total GULP energy -89337.055308 kJ/mol
# GULP energy per Si atom -5583.565957 kJ/mol
# Density = 2.235743 g / cm^3
# Si number density = 22.408429 Si / 1000 Ang^3
#
#
#
# Elastic Constant Matrix: (Units=GPa)
#
#
# Indices 1 2 3 4 5 6 
#
# 1 39.5070 27.8221 35.7726 -21.0071 -2.0163 1.1414
# 2 27.8221 114.5685 47.8972 -20.7344 -14.0631 6.3777
# 3 35.7726 47.8972 124.6307 -34.2075 -10.5423 16.1529
# 4 -21.0071 -20.7344 -34.2075 38.4629 -3.4162 6.5770
# 5 -2.0163 -14.0631 -10.5423 -3.4162 29.3931 -8.5162
# 6 1.1414 6.3777 16.1529 6.5770 -8.5162 28.3447
#
#
#
# Elastic Compliance Matrix: (Units=1/GPa)
#
#
# Indices 1 2 3 4 5 6 
#
# 1 0.042362 -0.005001 -0.005956 0.015267 -0.000065 -0.000749
# 2 -0.005001 0.011811 -0.002001 0.002352 0.004736 -0.000439
# 3 -0.005956 -0.002001 0.014911 0.010785 0.002463 -0.009570
# 4 0.015267 0.002352 0.010785 0.048632 0.006913 -0.016497
# 5 -0.000065 0.004736 0.002463 0.006913 0.040299 0.008037
# 6 -0.000749 -0.000439 -0.009570 -0.016497 0.008037 0.047105
#
#
# Mechanical properties :
#
#
# Convention : Reuss Voigt Hill
#
# Bulk Modulus (GPa) = 23.16430 55.74332 39.45381
# Shear Modulus (GPa) = 20.37291 30.38776 25.38033
#
# Velocity S-wave (km/s) = 3.01850 3.68650 3.36910
# Velocity P-wave (km/s) = 4.74429 6.56128 5.72533
#
# Compressibility (1/GPa) = 0.04316989
#
# Stress axis : x y z
#
# Youngs Moduli (GPa) = 23.60579 84.66914 67.06550
#
# Poissons Ratio (x) = 0.42343 0.39941
# Poissons Ratio (y) = 0.11805 0.13416
# Poissons Ratio (z) = 0.14058 0.16938
#
# Static dielectric constant tensor:
#      x y z
#    x 1.793880 0.039950 0.036630 
#    y 0.039950 1.835400 0.004450 
#    z 0.036630 0.004450 1.867300 
# 
# From -- ./inp_files/430752.got.cif
#   From: 2010.05.17/outbox.cif.g08.bks.cpg/sg2_216_cif.got.tgz:430752.got - 2010.06.03 11:33:40.
