data_PCOD9111282
_publ_section_title
;
Structure prediction by ZEFSAII (Michael W. Deem and Ramdas Pophale) SiO2 
 PCOD9111282
Probable space group: P -1
;
_chemical_formula_sum "Si O2"
_cell_formula_units_Z 16
_cell_length_a 8.998362
_cell_length_b 7.086725
_cell_length_c 15.353529
_cell_angle_alpha 49.508596
_cell_angle_beta 66.015887
_cell_angle_gamma 54.114275
_cell_volume 602.727673
_symmetry_space_group_name_H-M "P -1"
_symmetry_group_IT_number 2
_symmetry_cell_setting 'triclinic'
loop_
_space_group_symop_operation_xyz
x,y,z
-x,-y,-z
loop_
_atom_site_type_symbol
_atom_site_label
_atom_site_fract_x
_atom_site_fract_y
_atom_site_fract_z
Si Si1 0.051178 0.880326 0.136320
Si Si2 0.679494 0.351440 0.060897
Si Si3 0.587005 0.957658 0.298807
Si Si4 0.810996 0.742847 0.721355
Si Si5 0.519657 0.640169 0.545088
Si Si6 0.204387 0.560960 0.715759
Si Si7 0.714099 0.791216 0.021674
Si Si8 0.121502 0.544597 0.384651
O O1 0.859288 0.067603 0.078193
O O2 0.152924 0.568495 0.166069
O O3 0.022142 0.814788 0.264095
O O4 0.173729 0.037162 0.064049
O O5 0.612666 0.230977 0.195362
O O6 0.754711 0.564937 0.004921
O O7 0.500000 0.500000 0.000000
O O8 0.393230 0.034463 0.272784
O O9 0.559707 0.886398 0.424549
O O10 0.742840 0.678212 0.300654
O O11 0.819737 0.705817 0.625367
O O12 0.988356 0.770268 0.699024
O O13 0.500000 0.500000 0.500000
O O14 0.338312 0.694094 0.624571
O O15 0.699596 0.458947 0.613612
O O16 0.247466 0.384833 0.846386
O O17 0.500000 0.000000 0.000000
O O18 0.000000 0.500000 0.500000
#
# Coordination Sequence:
#
# PCOD9111282 Si02
#       8
#     2   2   2   2   2   2   2   2
#     4  10  24  47  68 106 144 180 239 293 353 429
#     4  12  26  46  74 103 140 190 238 293 362 423
#     4  11  23  46  72 101 140 187 239 283 361 415
#     4  10  24  43  71 103 138 189 237 286 360 422
#     4  10  22  41  68 100 141 183 231 291 353 409
#     4  11  24  47  68 102 147 183 235 296 351 419
#     4  12  26  44  69 103 143 185 238 294 355 423
#     4  10  20  42  71  99 140 182 232 291 352 415
#
# _framework density 26.545984000000001
#
# number of rings (size 3 to 8) (size 9 to 14) (size 15 to 20)
#    0.750    0.500    1.250    4.875    3.500    2.500 
#    9.000    0.000    0.000    0.000    0.000    0.000 
#    0.000    0.000    0.000    0.000    0.000    0.000 
#
# Total GULP energy -89612.111761 kJ/mol
# GULP energy per Si atom -5600.756985 kJ/mol
# Density = 2.648556 g / cm^3
# Si number density = 26.545984 Si / 1000 Ang^3
#
#
#
# Elastic Constant Matrix: (Units=GPa)
#
#
# Indices 1 2 3 4 5 6 
#
# 1 173.1172 29.8905 55.2656 1.8137 -8.2886 -21.4731
# 2 29.8905 69.5155 11.8057 -3.8744 3.5506 -15.0546
# 3 55.2656 11.8057 165.0543 9.1214 -8.9188 3.1616
# 4 1.8137 -3.8744 9.1214 35.4227 -3.9822 7.6977
# 5 -8.2886 3.5506 -8.9188 -3.9822 59.2666 -5.4963
# 6 -21.4731 -15.0546 3.1616 7.6977 -5.4963 54.7053
#
#
#
# Elastic Compliance Matrix: (Units=1/GPa)
#
#
# Indices 1 2 3 4 5 6 
#
# 1 0.007247 -0.002270 -0.002231 -0.000478 0.001015 0.002518
# 2 -0.002270 0.016308 -0.000591 0.001210 -0.000990 0.003361
# 3 -0.002231 -0.000591 0.006980 -0.001427 0.000568 -0.001184
# 4 -0.000478 0.001210 -0.001427 0.029731 0.001289 -0.003826
# 5 0.001015 -0.000990 0.000568 0.001289 0.017400 0.001660
# 6 0.002518 0.003361 -0.001184 -0.003826 0.001660 0.020967
#
#
# Mechanical properties :
#
#
# Convention : Reuss Voigt Hill
#
# Bulk Modulus (GPa) = 49.14030 66.84559 57.99294
# Shear Modulus (GPa) = 43.25256 50.59394 46.92325
#
# Velocity S-wave (km/s) = 4.04089 4.37040 4.20887
# Velocity P-wave (km/s) = 6.35007 7.12059 6.74634
#
# Compressibility (1/GPa) = 0.02034990
#
# Stress axis : x y z
#
# Youngs Moduli (GPa) = 137.99697 61.32053 143.26421
#
# Poissons Ratio (x) = 0.13921 0.31962
# Poissons Ratio (y) = 0.31328 0.08468
# Poissons Ratio (z) = 0.30787 0.03624
#
# Static dielectric constant tensor:
#      x y z
#    x 2.078510 0.017790 -0.021760 
#    y 0.017790 2.147620 0.029220 
#    z -0.021760 0.029220 2.149970 
# 
# From -- ./inp_files/587755.got.cif
#   From: 2010.05.17/outbox.cif.g08.bks.cpg/sg2_294_cif.got.tgz:587755.got - 2010.06.03 11:33:40.
