data_PCOD9111406
_publ_section_title
;
Structure prediction by ZEFSAII (Michael W. Deem and Ramdas Pophale) SiO2 
 PCOD9111406
Probable space group: P -1
;
_chemical_formula_sum "Si O2"
_cell_formula_units_Z 16
_cell_length_a 9.051191
_cell_length_b 15.589078
_cell_length_c 7.774579
_cell_angle_alpha 73.006525
_cell_angle_beta 131.655377
_cell_angle_gamma 111.889340
_cell_volume 758.966892
_symmetry_space_group_name_H-M "P -1"
_symmetry_group_IT_number 2
_symmetry_cell_setting 'triclinic'
loop_
_space_group_symop_operation_xyz
x,y,z
-x,-y,-z
loop_
_atom_site_type_symbol
_atom_site_label
_atom_site_fract_x
_atom_site_fract_y
_atom_site_fract_z
Si Si1 0.710853 0.475616 0.713800
Si Si2 0.992757 0.626332 0.054296
Si Si3 0.474352 0.161901 0.011709
Si Si4 0.499983 0.373737 0.922960
Si Si5 0.199494 0.836745 0.038885
Si Si6 0.677219 0.087976 0.527538
Si Si7 0.210449 0.478530 0.726185
Si Si8 0.952067 0.988486 0.174974
O O1 0.500000 0.500000 0.500000
O O2 0.813719 0.412327 0.711889
O O3 0.665802 0.408516 0.883837
O O4 0.881769 0.567323 0.841374
O O5 0.060575 0.732820 0.997472
O O6 0.832480 0.592392 0.102956
O O7 0.438120 0.264072 0.939868
O O8 0.596283 0.145756 0.286311
O O9 0.610018 0.155318 0.949939
O O10 0.260070 0.084529 0.900668
O O11 0.620268 0.427715 0.148900
O O12 0.312795 0.419778 0.710779
O O13 0.260619 0.859321 0.273886
O O14 0.074936 0.912076 0.844447
O O15 0.857609 0.050619 0.599671
O O16 0.500000 0.000000 0.500000
O O17 0.000000 0.500000 0.500000
O O18 0.000000 0.000000 0.000000
#
# Coordination Sequence:
#
# PCOD9111406 Si02
#       8
#     2   2   2   2   2   2   2   2
#     4  10  20  43  62  88 131 170 214 270 326 390
#     4  10  22  39  63  92 131 167 217 273 322 391
#     4  12  24  46  68  96 142 170 223 290 325 403
#     4  10  23  39  61  97 125 172 222 268 332 386
#     4  11  24  46  67 102 136 173 228 282 333 399
#     4  11  25  46  71  96 133 182 221 273 346 399
#     4  10  22  39  62  89 130 174 216 269 328 393
#     4  10  23  44  69  97 133 172 220 278 332 398
#
# _framework density 21.081288000000001
#
# number of rings (size 3 to 8) (size 9 to 14) (size 15 to 20)
#    0.000    1.500    3.750    1.125    5.250    0.500 
#    4.500    0.000    0.000    0.000    0.000    0.000 
#    0.000    0.000    0.000    0.000    0.000    0.000 
#
# Total GULP energy -89217.225186 kJ/mol
# GULP energy per Si atom -5576.076574 kJ/mol
# Density = 2.103331 g / cm^3
# Si number density = 21.081288 Si / 1000 Ang^3
#
#
#
# Elastic Constant Matrix: (Units=GPa)
#
#
# Indices 1 2 3 4 5 6 
#
# 1 131.6535 52.1619 27.0234 -11.6849 13.1768 2.6359
# 2 52.1619 177.7560 32.6184 -14.9695 13.4120 7.8247
# 3 27.0234 32.6184 76.7082 -8.2445 21.0115 -4.6984
# 4 -11.6849 -14.9695 -8.2445 18.6763 -1.6695 5.0341
# 5 13.1768 13.4120 21.0115 -1.6695 36.9760 -4.7044
# 6 2.6359 7.8247 -4.6984 5.0341 -4.7044 34.1154
#
#
#
# Elastic Compliance Matrix: (Units=1/GPa)
#
#
# Indices 1 2 3 4 5 6 
#
# 1 0.009211 -0.001906 -0.001666 0.003697 -0.001640 -0.001276
# 2 -0.001906 0.007049 -0.001743 0.004266 -0.001010 -0.002478
# 3 -0.001666 -0.001743 0.017110 0.004072 -0.008165 0.001158
# 4 0.003697 0.004266 0.004072 0.063602 -0.003654 -0.010592
# 5 -0.001640 -0.001010 -0.008165 -0.003654 0.033021 0.004326
# 6 -0.001276 -0.002478 0.001158 -0.010592 0.004326 0.032298
#
#
# Mechanical properties :
#
#
# Convention : Reuss Voigt Hill
#
# Bulk Modulus (GPa) = 43.97498 67.74723 55.86110
# Shear Modulus (GPa) = 27.70082 36.24114 31.97098
#
# Velocity S-wave (km/s) = 3.62885 4.15072 3.89852
# Velocity P-wave (km/s) = 6.20186 7.42814 6.84252
#
# Compressibility (1/GPa) = 0.02274020
#
# Stress axis : x y z
#
# Youngs Moduli (GPa) = 108.57108 141.85705 58.44680
#
# Poissons Ratio (x) = 0.27037 0.09737
# Poissons Ratio (y) = 0.20693 0.10186
# Poissons Ratio (z) = 0.18088 0.24722
#
# Static dielectric constant tensor:
#      x y z
#    x 1.801000 -0.040990 -0.042580 
#    y -0.040990 1.750080 0.002600 
#    z -0.042580 0.002600 1.848180 
# 
# From -- ./inp_files/201114.got.cif
#   From: 2010.05.17/outbox.cif.g08.bks.cpg/sg2_101_cif.got.tgz:201114.got - 2010.06.03 11:33:40.
