data_PCOD9111520
_publ_section_title
;
Structure prediction by ZEFSAII (Michael W. Deem and Ramdas Pophale) SiO2 
 PCOD9111520
Probable space group: P -1
;
_chemical_formula_sum "Si O2"
_cell_formula_units_Z 16
_cell_length_a 11.962182
_cell_length_b 15.723861
_cell_length_c 6.837170
_cell_angle_alpha 89.184424
_cell_angle_beta 73.325985
_cell_angle_gamma 143.287415
_cell_volume 666.112401
_symmetry_space_group_name_H-M "P -1"
_symmetry_group_IT_number 2
_symmetry_cell_setting 'triclinic'
loop_
_space_group_symop_operation_xyz
x,y,z
-x,-y,-z
loop_
_atom_site_type_symbol
_atom_site_label
_atom_site_fract_x
_atom_site_fract_y
_atom_site_fract_z
Si Si1 0.566545 0.106353 0.130965
Si Si2 0.145974 0.304038 0.718475
Si Si3 0.353762 0.213325 0.286620
Si Si4 0.796461 0.410275 0.984202
Si Si5 0.219079 0.984582 0.583938
Si Si6 0.564885 0.542360 0.741586
Si Si7 0.829286 0.963458 0.000936
Si Si8 0.033447 0.711965 0.846964
O O1 0.371015 0.025714 0.357967
O O2 0.724376 0.164876 0.217109
O O3 0.690164 0.260129 0.955652
O O4 0.500000 0.000000 0.000000
O O5 0.348093 0.390075 0.735362
O O6 0.243165 0.391121 0.459969
O O7 0.069995 0.335755 0.886462
O O8 0.958037 0.118784 0.822585
O O9 0.179044 0.048851 0.492180
O O10 0.357064 0.312854 0.335710
O O11 0.592137 0.322390 0.209777
O O12 0.318502 0.175608 0.075529
O O13 0.899736 0.554712 0.818312
O O14 0.000000 0.500000 0.000000
O O15 0.293380 0.064849 0.757388
O O16 0.035004 0.804358 0.739118
O O17 0.500000 0.500000 0.000000
O O18 0.000000 0.000000 0.000000
#
# Coordination Sequence:
#
# PCOD9111520 Si02
#       8
#     2   2   2   2   2   2   2   2
#     4  10  22  41  70  98 133 177 225 281 342 403
#     4  10  23  39  64  93 136 173 218 280 340 391
#     4  11  23  43  68  98 136 177 231 282 337 404
#     4   9  20  41  69  94 133 176 218 279 338 398
#     4  10  24  40  71  95 139 178 221 283 347 399
#     4  11  23  42  65  95 136 180 226 277 343 407
#     4  11  24  43  67 100 135 177 233 279 340 408
#     4  10  20  43  65  96 138 176 223 282 341 404
#
# _framework density 24.019969
#
# number of rings (size 3 to 8) (size 9 to 14) (size 15 to 20)
#    0.000    1.750    1.250    1.875    7.000    5.000 
#    0.000    0.625    5.500    0.000    0.000    0.000 
#    0.000    0.000    0.000    0.000    0.000    0.000 
#
# Total GULP energy -89296.744404 kJ/mol
# GULP energy per Si atom -5581.046525 kJ/mol
# Density = 2.396530 g / cm^3
# Si number density = 24.019969 Si / 1000 Ang^3
#
#
#
# Elastic Constant Matrix: (Units=GPa)
#
#
# Indices 1 2 3 4 5 6 
#
# 1 60.4490 20.9121 28.4627 -10.9103 -2.1819 -10.7904
# 2 20.9121 147.8293 44.1251 11.1513 2.2083 -34.4704
# 3 28.4627 44.1251 133.6881 9.7785 -11.6636 3.1658
# 4 -10.9103 11.1513 9.7785 30.3911 -8.3171 7.2515
# 5 -2.1819 2.2083 -11.6636 -8.3171 37.6052 -6.4058
# 6 -10.7904 -34.4704 3.1658 7.2515 -6.4058 41.9771
#
#
#
# Elastic Compliance Matrix: (Units=1/GPa)
#
#
# Indices 1 2 3 4 5 6 
#
# 1 0.021785 -0.001735 -0.004634 0.009910 0.002669 0.003220
# 2 -0.001735 0.010561 -0.003012 -0.006138 -0.001429 0.009296
# 3 -0.004634 -0.003012 0.009880 -0.002350 0.001818 -0.003726
# 4 0.009910 -0.006138 -0.002350 0.043831 0.008436 -0.008600
# 5 0.002669 -0.001429 0.001818 0.008436 0.029677 0.002447
# 6 0.003220 0.009296 -0.003726 -0.008600 0.002447 0.034424
#
#
# Mechanical properties :
#
#
# Convention : Reuss Voigt Hill
#
# Bulk Modulus (GPa) = 42.62003 58.77403 50.69703
# Shear Modulus (GPa) = 28.29004 38.55910 33.42457
#
# Velocity S-wave (km/s) = 3.43559 4.01096 3.73437
# Velocity P-wave (km/s) = 5.78963 6.78029 6.30445
#
# Compressibility (1/GPa) = 0.02346314
#
# Stress axis : x y z
#
# Youngs Moduli (GPa) = 45.90379 94.68737 101.21925
#
# Poissons Ratio (x) = 0.16432 0.46900
# Poissons Ratio (y) = 0.07966 0.30489
# Poissons Ratio (z) = 0.21270 0.28522
#
# Static dielectric constant tensor:
#      x y z
#    x 2.000300 0.025190 0.021660 
#    y 0.025190 1.956080 -0.026570 
#    z 0.021660 -0.026570 1.960310 
# 
# From -- ./inp_files/99805.got.cif
#   From: 2010.05.17/outbox.cif.g08.bks.cpg/sg2_50_cif.got.tgz:99805.got - 2010.06.03 11:33:40.
