data_PCOD9111846
_publ_section_title
;
Structure prediction by ZEFSAII (Michael W. Deem and Ramdas Pophale) SiO2 
 PCOD9111846
Probable space group: P -1
;
_chemical_formula_sum "Si O2"
_cell_formula_units_Z 16
_cell_length_a 12.457259
_cell_length_b 18.334448
_cell_length_c 8.908173
_cell_angle_alpha 53.572536
_cell_angle_beta 44.421558
_cell_angle_gamma 28.610081
_cell_volume 678.562669
_symmetry_space_group_name_H-M "P -1"
_symmetry_group_IT_number 2
_symmetry_cell_setting 'triclinic'
loop_
_space_group_symop_operation_xyz
x,y,z
-x,-y,-z
loop_
_atom_site_type_symbol
_atom_site_label
_atom_site_fract_x
_atom_site_fract_y
_atom_site_fract_z
Si Si1 0.983406 0.409015 0.039164
Si Si2 0.174474 0.147684 0.008286
Si Si3 0.736080 0.113279 0.211569
Si Si4 0.614667 0.363497 0.151526
Si Si5 0.562330 0.383779 0.689645
Si Si6 0.867106 0.380373 0.503157
Si Si7 0.445319 0.108614 0.315064
Si Si8 0.956455 0.935329 0.517677
O O1 0.699680 0.536952 0.090452
O O2 0.952892 0.360638 0.273507
O O3 0.168893 0.258474 0.928284
O O4 0.000000 0.500000 0.000000
O O5 0.166016 0.089500 0.237104
O O6 0.893193 0.260448 0.070275
O O7 0.406467 0.994945 0.859810
O O8 0.639344 0.259097 0.166452
O O9 0.565489 0.139492 0.232448
O O10 0.795933 0.034369 0.406651
O O11 0.000000 0.000000 0.000000
O O12 0.389627 0.446973 0.396807
O O13 0.500000 0.500000 0.000000
O O14 0.500000 0.500000 0.500000
O O15 0.762108 0.328336 0.679265
O O16 0.744203 0.229249 0.612899
O O17 0.136783 0.268348 0.447483
O O18 0.500000 0.000000 0.500000
O O19 0.000000 0.000000 0.500000
#
# Coordination Sequence:
#
# PCOD9111846 Si02
#       8
#     2   2   2   2   2   2   2   2
#     4  11  25  43  76 115 150 190 260 327 377 459
#     4  12  24  50  77 116 150 208 260 320 401 456
#     4  12  28  48  77 119 154 208 267 316 391 471
#     4  12  26  47  83 108 149 211 261 313 391 474
#     4  10  20  43  72 103 147 194 247 315 386 441
#     4  11  24  47  72 103 151 199 249 314 391 446
#     4  12  28  49  71 112 163 201 253 323 397 463
#     4  12  23  43  80 113 149 201 266 322 373 472
#
# _framework density 23.579252
#
# number of rings (size 3 to 8) (size 9 to 14) (size 15 to 20)
#    0.000    0.500    6.250    2.250    1.750    5.000 
#    2.250    0.000    0.000    0.000    0.000    0.000 
#    0.000    0.000    0.000    0.000    0.000    0.000 
#
# Total GULP energy -89164.584603 kJ/mol
# GULP energy per Si atom -5572.786538 kJ/mol
# Density = 2.352558 g / cm^3
# Si number density = 23.579252 Si / 1000 Ang^3
#
#
#
# Elastic Constant Matrix: (Units=GPa)
#
#
# Indices 1 2 3 4 5 6 
#
# 1 159.8749 60.9070 24.0824 17.2146 -26.9934 33.9005
# 2 60.9070 112.6208 24.5002 14.6138 -0.8805 36.4551
# 3 24.0824 24.5002 69.7671 1.7428 11.5903 7.6618
# 4 17.2146 14.6138 1.7428 46.6164 -2.9459 9.1365
# 5 -26.9934 -0.8805 11.5903 -2.9459 39.9013 10.7870
# 6 33.9005 36.4551 7.6618 9.1365 10.7870 66.4556
#
#
#
# Elastic Compliance Matrix: (Units=1/GPa)
#
#
# Indices 1 2 3 4 5 6 
#
# 1 0.010755 -0.003305 -0.003573 -0.001306 0.009389 -0.004606
# 2 -0.003305 0.013137 -0.002900 -0.001812 0.000102 -0.004953
# 3 -0.003573 -0.002900 0.017658 0.000525 -0.008288 0.002651
# 4 -0.001306 -0.001812 0.000525 0.022888 0.001080 -0.001722
# 5 0.009389 0.000102 -0.008288 0.001080 0.036601 -0.009979
# 6 -0.004606 -0.004953 0.002651 -0.001722 -0.009979 0.021665
#
#
# Mechanical properties :
#
#
# Convention : Reuss Voigt Hill
#
# Bulk Modulus (GPa) = 45.46920 62.36022 53.91471
# Shear Modulus (GPa) = 33.42410 46.11285 39.76847
#
# Velocity S-wave (km/s) = 3.76908 4.42707 4.11126
# Velocity P-wave (km/s) = 6.18601 7.25510 6.74178
#
# Compressibility (1/GPa) = 0.02199291
#
# Stress axis : x y z
#
# Youngs Moduli (GPa) = 92.98108 76.11967 56.63197
#
# Poissons Ratio (x) = 0.25160 0.20235
# Poissons Ratio (y) = 0.30734 0.16424
# Poissons Ratio (z) = 0.33223 0.22075
#
# Static dielectric constant tensor:
#      x y z
#    x 1.980390 0.000850 0.048370 
#    y 0.000850 2.194410 0.057650 
#    z 0.048370 0.057650 1.930050 
# 
# From -- ./inp_files/279208.got.cif
#   From: 2010.05.17/outbox.cif.g08.bks.cpg/sg2_140_cif.got.tgz:279208.got - 2010.06.03 11:33:40.
