data_PCOD9111316
_publ_section_title
;
Structure prediction by ZEFSAII (Michael W. Deem and Ramdas Pophale) SiO2 
 PCOD9111316
Probable space group: P -1
;
_chemical_formula_sum "Si O2"
_cell_formula_units_Z 15
_cell_length_a 8.385641
_cell_length_b 13.201831
_cell_length_c 10.898979
_cell_angle_alpha 122.244001
_cell_angle_beta 138.768054
_cell_angle_gamma 80.820366
_cell_volume 606.111227
_symmetry_space_group_name_H-M "P -1"
_symmetry_group_IT_number 2
_symmetry_cell_setting 'triclinic'
loop_
_space_group_symop_operation_xyz
x,y,z
-x,-y,-z
loop_
_atom_site_type_symbol
_atom_site_label
_atom_site_fract_x
_atom_site_fract_y
_atom_site_fract_z
Si Si1 0.622543 0.874691 0.320362
Si Si2 0.043154 0.811425 0.652978
Si Si3 0.500000 0.000000 0.500000
Si Si4 0.849286 0.336922 0.955315
Si Si5 0.739055 0.688653 0.636478
Si Si6 0.873411 0.924404 0.039210
Si Si7 0.506472 0.256022 0.097047
Si Si8 0.700852 0.534010 0.882202
O O1 0.632993 0.015997 0.443106
O O2 0.879214 0.847617 0.477596
O O3 0.407647 0.807327 0.268920
O O4 0.498209 0.804554 0.078378
O O5 0.239888 0.747258 0.689065
O O6 0.837603 0.715568 0.571424
O O7 0.194216 0.950788 0.903193
O O8 0.194329 0.979086 0.257281
O O9 0.053757 0.346225 0.187087
O O10 0.015184 0.362443 0.942081
O O11 0.744750 0.450635 0.964567
O O12 0.444623 0.570519 0.379404
O O13 0.753218 0.820957 0.792709
O O14 0.748307 0.837149 0.031450
O O15 0.487468 0.393358 0.156476
#
# Coordination Sequence:
#
# PCOD9111316 Si02
#       8
#     2   2   1   2   2   2   2   2
#     4  11  23  44  68 100 139 178 230 273 344 401
#     4  11  25  43  67 101 136 182 221 279 345 408
#     4  10  20  42  72  94 126 180 224 282 320 398
#     4  11  22  46  67 102 132 180 238 277 330 404
#     4  12  22  46  70 103 134 179 230 283 333 406
#     4  11  24  43  74 102 135 177 232 279 343 403
#     4  12  25  47  65 103 144 178 219 287 340 408
#     4  11  26  42  74  99 137 181 232 284 337 394
#
# _framework density 24.747933
#
# number of rings (size 3 to 8) (size 9 to 14) (size 15 to 20)
#    0.000    0.800    5.333    1.200    0.000    5.333 
#    2.400    1.333    0.000    0.000    0.000    0.000 
#    0.000    0.000    0.000    0.000    0.000    0.000 
#
# Total GULP energy -83633.665392 kJ/mol
# GULP energy per Si atom -5575.577693 kJ/mol
# Density = 2.469161 g / cm^3
# Si number density = 24.747933 Si / 1000 Ang^3
#
#
#
# Elastic Constant Matrix: (Units=GPa)
#
#
# Indices 1 2 3 4 5 6 
#
# 1 39.3220 18.2268 10.1519 6.5525 12.6793 -4.2191
# 2 18.2268 134.4594 16.3259 -20.6404 15.7014 -30.3342
# 3 10.1519 16.3259 82.2599 -0.2502 5.8919 -4.5210
# 4 6.5525 -20.6404 -0.2502 37.4215 -0.8193 12.4156
# 5 12.6793 15.7014 5.8919 -0.8193 24.5111 -4.4166
# 6 -4.2191 -30.3342 -4.5210 12.4156 -4.4166 42.8546
#
#
#
# Elastic Compliance Matrix: (Units=1/GPa)
#
#
# Indices 1 2 3 4 5 6 
#
# 1 0.034125 -0.003609 -0.002376 -0.008833 -0.014778 0.001591
# 2 -0.003609 0.010313 -0.001060 0.004523 -0.003402 0.005172
# 3 -0.002376 -0.001060 0.012756 -0.000210 -0.001110 0.000308
# 4 -0.008833 0.004523 -0.000210 0.033165 0.001544 -0.007140
# 5 -0.014778 -0.003402 -0.001110 0.001544 0.051091 0.000838
# 6 0.001591 0.005172 0.000308 -0.007140 0.000838 0.029340
#
#
# Mechanical properties :
#
#
# Convention : Reuss Voigt Hill
#
# Bulk Modulus (GPa) = 23.19918 38.38339 30.79128
# Shear Modulus (GPa) = 25.09436 35.04654 30.07045
#
# Velocity S-wave (km/s) = 3.18779 3.76725 3.48957
# Velocity P-wave (km/s) = 4.78998 5.87080 5.35771
#
# Compressibility (1/GPa) = 0.04310497
#
# Stress axis : x y z
#
# Youngs Moduli (GPa) = 29.30403 96.96054 78.39477
#
# Poissons Ratio (x) = 0.34990 0.18628
# Poissons Ratio (y) = 0.10575 0.08309
# Poissons Ratio (z) = 0.06963 0.10276
#
# Static dielectric constant tensor:
#      x y z
#    x 1.461450 0.901750 0.571940 
#    y 0.901750 0.517170 -0.909540 
#    z 0.571940 -0.909540 1.448380 
# 
# From -- ./inp_files/397698.got.cif
#   From: 2010.05.17/outbox.cif.g08.bks.cpg/sg2_199_cif.got.tgz:397698.got - 2010.06.03 11:33:40.
