data_PCOD9111299
_publ_section_title
;
Structure prediction by ZEFSAII (Michael W. Deem and Ramdas Pophale) SiO2 
 PCOD9111299
Probable space group: P -1
;
_chemical_formula_sum "Si O2"
_cell_formula_units_Z 13
_cell_length_a 8.266978
_cell_length_b 14.038611
_cell_length_c 4.993382
_cell_angle_alpha 68.399346
_cell_angle_beta 91.680697
_cell_angle_gamma 117.388655
_cell_volume 471.488546
_symmetry_space_group_name_H-M "P -1"
_symmetry_group_IT_number 2
_symmetry_cell_setting 'triclinic'
loop_
_space_group_symop_operation_xyz
x,y,z
-x,-y,-z
loop_
_atom_site_type_symbol
_atom_site_label
_atom_site_fract_x
_atom_site_fract_y
_atom_site_fract_z
Si Si1 0.898905 0.344007 0.062762
Si Si2 0.500000 0.500000 0.500000
Si Si3 0.746481 0.391634 0.498424
Si Si4 0.236067 0.966395 0.925691
Si Si5 0.181303 0.168715 0.932247
Si Si6 0.248539 0.316147 0.260220
Si Si7 0.591396 0.148921 0.559962
O O1 0.726389 0.212638 0.252997
O O2 0.842879 0.416972 0.190011
O O3 0.084334 0.342347 0.147751
O O4 0.881493 0.376172 0.728155
O O5 0.679525 0.477849 0.514325
O O6 0.417918 0.421731 0.303548
O O7 0.579957 0.258066 0.586235
O O8 0.387391 0.041415 0.630712
O O9 0.231283 0.066135 0.011217
O O10 0.026761 0.887915 0.902502
O O11 0.305308 0.894770 0.185207
O O12 0.304460 0.276060 0.026522
O O13 0.175643 0.215893 0.587902
#
# Coordination Sequence:
#
# PCOD9111299 Si02
#       7
#     2   1   2   2   2   2   2
#     4  10  22  46  72 100 149 188 224 307 344 427
#     4  12  30  48  80 106 134 198 236 314 372 422
#     4  10  24  46  71 105 143 182 243 294 361 420
#     4  10  20  42  72 106 146 199 235 274 368 417
#     4  11  25  45  68 109 149 190 232 304 341 435
#     4  12  26  50  72 105 150 183 249 298 361 417
#     4   9  20  43  67 107 142 191 235 290 337 448
#
# _framework density 27.572253
#
# number of rings (size 3 to 8) (size 9 to 14) (size 15 to 20)
#    0.923    0.615    1.538    2.769    0.000    8.615 
#    5.538    2.308    0.000    0.000    0.000    0.000 
#    0.000    0.000    0.000    0.000    0.000    0.000 
#
# Total GULP energy -72731.415350 kJ/mol
# GULP energy per Si atom -5594.724258 kJ/mol
# Density = 2.750950 g / cm^3
# Si number density = 27.572253 Si / 1000 Ang^3
#
#
#
# Elastic Constant Matrix: (Units=GPa)
#
#
# Indices 1 2 3 4 5 6 
#
# 1 109.2996 36.4709 44.9383 -5.1234 14.1007 -7.1375
# 2 36.4709 80.7851 33.4298 9.2863 16.5840 -26.2052
# 3 44.9383 33.4298 141.3228 -5.3812 0.1308 -5.3541
# 4 -5.1234 9.2863 -5.3812 46.9792 4.9305 -3.0208
# 5 14.1007 16.5840 0.1308 4.9305 30.6568 -5.7625
# 6 -7.1375 -26.2052 -5.3541 -3.0208 -5.7625 61.8797
#
#
#
# Elastic Compliance Matrix: (Units=1/GPa)
#
#
# Indices 1 2 3 4 5 6 
#
# 1 0.012236 -0.004035 -0.002881 0.002163 -0.003933 -0.000807
# 2 -0.004035 0.019517 -0.003207 -0.003514 -0.006861 0.006712
# 3 -0.002881 -0.003207 0.008762 0.000995 0.002744 -0.000628
# 4 0.002163 -0.003514 0.000995 0.022604 -0.002792 -0.000309
# 5 -0.003933 -0.006861 0.002744 -0.002792 0.038641 0.000340
# 6 -0.000807 0.006712 -0.000628 -0.000309 0.000340 0.018872
#
#
# Mechanical properties :
#
#
# Convention : Reuss Voigt Hill
#
# Bulk Modulus (GPa) = 49.33531 62.34284 55.83907
# Shear Modulus (GPa) = 33.86767 42.34104 38.10436
#
# Velocity S-wave (km/s) = 3.50855 3.92297 3.72153
# Velocity P-wave (km/s) = 5.86047 6.57111 6.22594
#
# Compressibility (1/GPa) = 0.02026946
#
# Stress axis : x y z
#
# Youngs Moduli (GPa) = 81.72551 51.23800 114.12659
#
# Poissons Ratio (x) = 0.20675 0.32879
# Poissons Ratio (y) = 0.32977 0.36597
# Poissons Ratio (z) = 0.23545 0.16431
#
# Static dielectric constant tensor:
#      x y z
#    x 2.047040 0.014890 -0.065730 
#    y 0.014890 2.314010 -0.194730 
#    z -0.065730 -0.194730 2.135700 
# 
# From -- ./inp_files/31767.got.cif
#   From: 2010.05.17/outbox.cif.g08.bks.cpg/sg2_16_cif.got.tgz:31767.got - 2010.06.03 11:33:40.
