data_PCOD9111142
_publ_section_title
;
Structure prediction by ZEFSAII (Michael W. Deem and Ramdas Pophale) SiO2 
 PCOD9111142
Probable space group: P -1
;
_chemical_formula_sum "Si O2"
_cell_formula_units_Z 16
_cell_length_a 9.482216
_cell_length_b 18.042597
_cell_length_c 8.165182
_cell_angle_alpha 45.108269
_cell_angle_beta 45.621100
_cell_angle_gamma 62.886826
_cell_volume 705.347756
_symmetry_space_group_name_H-M "P -1"
_symmetry_group_IT_number 2
_symmetry_cell_setting 'triclinic'
loop_
_space_group_symop_operation_xyz
x,y,z
-x,-y,-z
loop_
_atom_site_type_symbol
_atom_site_label
_atom_site_fract_x
_atom_site_fract_y
_atom_site_fract_z
Si Si1 0.404186 0.762397 0.056936
Si Si2 0.969390 0.354499 0.106443
Si Si3 0.017335 0.231286 0.937334
Si Si4 0.671044 0.075878 0.590173
Si Si5 0.372173 0.082829 0.567535
Si Si6 0.396312 0.159033 0.913419
Si Si7 0.006957 0.195530 0.627043
Si Si8 0.291040 0.545723 0.593842
O O1 0.557242 0.776100 0.060112
O O2 0.310800 0.645018 0.302025
O O3 0.226803 0.836412 0.124028
O O4 0.519879 0.803284 0.741089
O O5 0.027835 0.269111 0.332635
O O6 0.774055 0.401308 0.266473
O O7 0.949993 0.311809 0.004541
O O8 0.131620 0.452542 0.824302
O O9 0.236733 0.211503 0.851922
O O10 0.037812 0.251199 0.694743
O O11 0.850473 0.133217 0.253058
O O12 0.445457 0.064949 0.717180
O O13 0.614490 0.144431 0.684233
O O14 0.707038 0.955849 0.779579
O O15 0.150083 0.099892 0.667604
O O16 0.500000 0.000000 0.500000
O O17 0.500000 0.500000 0.500000
#
# Coordination Sequence:
#
# PCOD9111142 Si02
#       8
#     2   2   2   2   2   2   2   2
#     4  11  23  42  69  93 126 173 218 265 332 390
#     4  10  24  42  68  98 128 166 219 270 331 392
#     4  12  23  43  68  94 134 176 215 271 328 383
#     4  11  23  39  59  93 132 171 224 266 311 387
#     4  12  23  41  61  96 134 175 222 269 315 384
#     4  11  23  41  62  91 130 177 220 267 320 380
#     4  11  24  43  67  97 133 176 216 274 323 384
#     4  10  20  42  69  96 125 166 214 271 330 396
#
# _framework density 22.683847
#
# number of rings (size 3 to 8) (size 9 to 14) (size 15 to 20)
#    0.000    1.000    3.750    4.125    0.000    0.500 
#    4.500    5.625    0.000    5.250    0.000    0.000 
#    0.000    0.000    0.000    0.000    0.000    0.000 
#
# Total GULP energy -89190.557231 kJ/mol
# GULP energy per Si atom -5574.409827 kJ/mol
# Density = 2.263222 g / cm^3
# Si number density = 22.683847 Si / 1000 Ang^3
#
#
#
# Elastic Constant Matrix: (Units=GPa)
#
#
# Indices 1 2 3 4 5 6 
#
# 1 105.1386 29.7052 -4.7298 5.1427 8.5897 -12.6702
# 2 29.7052 111.6278 11.3675 13.7939 -2.3354 -10.1888
# 3 -4.7298 11.3675 80.4967 -0.8536 -12.3292 1.5738
# 4 5.1427 13.7939 -0.8536 25.5371 0.3720 -3.0194
# 5 8.5897 -2.3354 -12.3292 0.3720 27.7560 9.0417
# 6 -12.6702 -10.1888 1.5738 -3.0194 9.0417 47.1871
#
#
#
# Elastic Compliance Matrix: (Units=1/GPa)
#
#
# Indices 1 2 3 4 5 6 
#
# 1 0.011076 -0.002739 0.000269 -0.000293 -0.004589 0.003234
# 2 -0.002739 0.010603 -0.001626 -0.005105 0.000713 0.001145
# 3 0.000269 -0.001626 0.013708 0.000961 0.006481 -0.001916
# 4 -0.000293 -0.005105 0.000961 0.042221 -0.001027 0.001686
# 5 -0.004589 0.000713 0.006481 -0.001027 0.043563 -0.009707
# 6 0.003234 0.001145 -0.001916 0.001686 -0.009707 0.024340
#
#
# Mechanical properties :
#
#
# Convention : Reuss Voigt Hill
#
# Bulk Modulus (GPa) = 36.77165 41.10543 38.93854
# Shear Modulus (GPa) = 30.71819 37.49072 34.10446
#
# Velocity S-wave (km/s) = 3.68392 4.06981 3.88167
# Velocity P-wave (km/s) = 5.86010 6.34388 6.10678
#
# Compressibility (1/GPa) = 0.02719486
#
# Stress axis : x y z
#
# Youngs Moduli (GPa) = 90.28306 94.31190 72.94746
#
# Poissons Ratio (x) = 0.25837 -0.01959
# Poissons Ratio (y) = 0.24733 0.11858
# Poissons Ratio (z) = -0.02424 0.15331
#
# Static dielectric constant tensor:
#      x y z
#    x 1.997080 0.056890 0.102310 
#    y 0.056890 2.027880 0.033600 
#    z 0.102310 0.033600 1.943090 
# 
# From -- ./inp_files/222966.got.cif
#   From: 2010.05.17/outbox.cif.g08.bks.cpg/sg2_112_cif.got.tgz:222966.got - 2010.06.03 11:33:40.
