data_PCOD9111366
_publ_section_title
;
Structure prediction by ZEFSAII (Michael W. Deem and Ramdas Pophale) SiO2 
 PCOD9111366
Probable space group: P -1
;
_chemical_formula_sum "Si O2"
_cell_formula_units_Z 13
_cell_length_a 7.958076
_cell_length_b 16.057577
_cell_length_c 7.777211
_cell_angle_alpha 42.039028
_cell_angle_beta 53.427327
_cell_angle_gamma 61.000237
_cell_volume 532.813707
_symmetry_space_group_name_H-M "P -1"
_symmetry_group_IT_number 2
_symmetry_cell_setting 'triclinic'
loop_
_space_group_symop_operation_xyz
x,y,z
-x,-y,-z
loop_
_atom_site_type_symbol
_atom_site_label
_atom_site_fract_x
_atom_site_fract_y
_atom_site_fract_z
Si Si1 0.534373 0.372594 0.568934
Si Si2 0.993361 0.908742 0.944386
Si Si3 0.269822 0.513118 0.040424
Si Si4 0.081159 0.287581 0.988436
Si Si5 0.679525 0.102972 0.986327
Si Si6 0.500000 0.000000 0.500000
Si Si7 0.811201 0.763043 0.602137
O O1 0.500000 0.500000 0.500000
O O2 0.690145 0.406389 0.274923
O O3 0.306041 0.330419 0.722800
O O4 0.643259 0.249056 0.777598
O O5 0.980459 0.828811 0.907294
O O6 0.938089 0.828338 0.271326
O O7 0.230052 0.941610 0.804717
O O8 0.830592 0.030109 0.870051
O O9 0.500000 0.500000 0.000000
O O10 0.211378 0.376491 0.235731
O O11 0.088518 0.595830 0.121300
O O12 0.100046 0.254186 0.230832
O O13 0.468319 0.038469 0.245329
O O14 0.597976 0.850635 0.615282
#
# Coordination Sequence:
#
# PCOD9111366 Si02
#       7
#     2   2   2   2   2   1   2
#     4  12  25  45  75 101 143 191 231 292 358 420
#     4  10  25  44  73 103 138 188 237 291 353 423
#     4  12  28  46  70 107 142 188 240 291 357 424
#     4  12  26  45  74 107 140 190 238 295 350 425
#     4  10  22  46  69 100 143 182 233 296 352 416
#     4  10  20  42  74  92 138 186 224 286 360 410
#     4  11  23  47  69 103 142 183 233 292 352 418
#
# _framework density 24.398771
#
# number of rings (size 3 to 8) (size 9 to 14) (size 15 to 20)
#    0.000    0.923    3.077    2.308    6.462    1.846 
#    2.769    7.692    0.000    0.000    0.000    0.000 
#    0.000    0.000    0.000    0.000    0.000    0.000 
#
# Total GULP energy -72489.900153 kJ/mol
# GULP energy per Si atom -5576.146166 kJ/mol
# Density = 2.434324 g / cm^3
# Si number density = 24.398771 Si / 1000 Ang^3
#
#
#
# Elastic Constant Matrix: (Units=GPa)
#
#
# Indices 1 2 3 4 5 6 
#
# 1 70.0875 66.2155 -4.3160 -20.3393 -10.7959 6.9151
# 2 66.2155 192.9510 29.7296 -37.9525 0.8831 -15.3210
# 3 -4.3160 29.7296 130.7588 -25.0715 -2.0100 -0.7636
# 4 -20.3393 -37.9525 -25.0715 47.1285 -10.7567 -6.0125
# 5 -10.7959 0.8831 -2.0100 -10.7567 29.0567 -3.8049
# 6 6.9151 -15.3210 -0.7636 -6.0125 -3.8049 57.1784
#
#
#
# Elastic Compliance Matrix: (Units=1/GPa)
#
#
# Indices 1 2 3 4 5 6 
#
# 1 0.028908 -0.008919 0.005316 0.011080 0.015003 -0.003651
# 2 -0.008919 0.009357 -0.001936 0.002604 -0.002286 0.003682
# 3 0.005316 -0.001936 0.009714 0.007135 0.005357 0.000075
# 4 0.011080 0.002604 0.007135 0.036751 0.018734 0.004564
# 5 0.015003 -0.002286 0.005357 0.018734 0.047730 0.002791
# 6 -0.003651 0.003682 0.000075 0.004564 0.002791 0.019584
#
#
# Mechanical properties :
#
#
# Convention : Reuss Voigt Hill
#
# Bulk Modulus (GPa) = 27.10006 64.11727 45.60867
# Shear Modulus (GPa) = 28.50278 46.81728 37.66003
#
# Velocity S-wave (km/s) = 3.42161 4.38521 3.93303
# Velocity P-wave (km/s) = 5.17118 7.20944 6.27364
#
# Compressibility (1/GPa) = 0.03690029
#
# Stress axis : x y z
#
# Youngs Moduli (GPa) = 34.59288 106.87747 102.94263
#
# Poissons Ratio (x) = 0.95320 -0.54721
# Poissons Ratio (y) = 0.30852 0.19931
# Poissons Ratio (z) = -0.18388 0.20693
#
# Static dielectric constant tensor:
#      x y z
#    x 2.087240 -0.205550 -0.114110 
#    y -0.205550 1.997080 -0.035750 
#    z -0.114110 -0.035750 2.151990 
# 
# From -- ./inp_files/198863.got.cif
#   From: 2010.05.17/outbox.cif.g08.bks.cpg/sg2_100_cif.got.tgz:198863.got - 2010.06.03 11:33:40.
