data_PCOD9111114
_publ_section_title
;
Structure prediction by ZEFSAII (Michael W. Deem and Ramdas Pophale) SiO2 
 PCOD9111114
Probable space group: P -1
;
_chemical_formula_sum "Si O2"
_cell_formula_units_Z 16
_cell_length_a 10.983653
_cell_length_b 9.086340
_cell_length_c 17.650026
_cell_angle_alpha 114.019830
_cell_angle_beta 122.669545
_cell_angle_gamma 28.870216
_cell_volume 706.544852
_symmetry_space_group_name_H-M "P -1"
_symmetry_group_IT_number 2
_symmetry_cell_setting 'triclinic'
loop_
_space_group_symop_operation_xyz
x,y,z
-x,-y,-z
loop_
_atom_site_type_symbol
_atom_site_label
_atom_site_fract_x
_atom_site_fract_y
_atom_site_fract_z
Si Si1 0.292986 0.359434 0.736863
Si Si2 0.749401 0.645495 0.986791
Si Si3 0.308701 0.612392 0.673197
Si Si4 0.434730 0.239194 0.505620
Si Si5 0.208073 0.867040 0.466138
Si Si6 0.914181 0.659864 0.821096
Si Si7 0.390375 0.355521 0.217676
Si Si8 0.889557 0.792209 0.367757
O O1 0.280533 0.540252 0.726384
O O2 0.217862 0.272169 0.642583
O O3 0.074579 0.543226 0.771567
O O4 0.613713 0.029695 0.798617
O O5 0.643047 0.632260 0.881241
O O6 0.000000 0.500000 0.000000
O O7 0.887055 0.456652 0.071356
O O8 0.500000 0.000000 0.000000
O O9 0.331231 0.453211 0.583031
O O10 0.562273 0.497759 0.724296
O O11 0.028671 0.977495 0.635056
O O12 0.721938 0.041074 0.538097
O O13 0.219986 0.453776 0.408027
O O14 0.500000 0.000000 0.500000
O O15 0.500000 0.500000 0.500000
O O16 0.135392 0.018851 0.553233
O O17 0.837559 0.543837 0.794932
O O18 0.679081 0.005583 0.272013
#
# Coordination Sequence:
#
# PCOD9111114 Si02
#       8
#     2   2   2   2   2   2   2   2
#     4  11  24  43  70 100 138 179 231 273 336 419
#     4  10  20  42  69 103 133 174 226 280 341 411
#     4  11  25  44  61 106 137 175 229 290 343 395
#     4  11  23  39  64  90 134 183 226 275 334 407
#     4  11  23  40  63  89 136 174 223 288 343 393
#     4  10  23  44  71 100 134 181 225 278 340 416
#     4  10  22  43  70  99 132 174 224 290 338 403
#     4  10  22  39  62  93 126 180 230 273 330 405
#
# _framework density 22.645410999999999
#
# number of rings (size 3 to 8) (size 9 to 14) (size 15 to 20)
#    0.000    1.500    0.000    5.250    7.000    4.000 
#   15.750    1.250    0.000    0.000    0.000    0.000 
#    0.000    0.000    0.000    0.000    0.000    0.000 
#
# Total GULP energy -89136.230882 kJ/mol
# GULP energy per Si atom -5571.014430 kJ/mol
# Density = 2.259387 g / cm^3
# Si number density = 22.645411 Si / 1000 Ang^3
#
#
#
# Elastic Constant Matrix: (Units=GPa)
#
#
# Indices 1 2 3 4 5 6 
#
# 1 144.7519 35.3778 39.5273 -5.8242 -12.0890 13.7676
# 2 35.3778 92.4749 48.4047 -13.4520 0.6696 -2.8214
# 3 39.5273 48.4047 120.6982 -14.6660 -1.9390 -6.4926
# 4 -5.8242 -13.4520 -14.6660 26.9741 -4.0809 6.2952
# 5 -12.0890 0.6696 -1.9390 -4.0809 30.3212 3.5154
# 6 13.7676 -2.8214 -6.4926 6.2952 3.5154 30.9208
#
#
#
# Elastic Compliance Matrix: (Units=1/GPa)
#
#
# Indices 1 2 3 4 5 6 
#
# 1 0.008982 -0.002337 -0.002034 0.001601 0.004351 -0.005460
# 2 -0.002337 0.014749 -0.004643 0.003990 -0.001101 0.000724
# 3 -0.002034 -0.004643 0.011286 0.002878 0.000140 0.002250
# 4 0.001601 0.003990 0.002878 0.044417 0.007834 -0.009678
# 5 0.004351 -0.001101 0.000140 0.007834 0.036704 -0.007776
# 6 -0.005460 0.000724 0.002250 -0.009678 -0.007776 0.038165
#
#
# Mechanical properties :
#
#
# Convention : Reuss Voigt Hill
#
# Bulk Modulus (GPa) = 58.86112 67.17162 63.01637
# Shear Modulus (GPa) = 28.09089 33.28425 30.68757
#
# Velocity S-wave (km/s) = 3.52585 3.83796 3.68521
# Velocity P-wave (km/s) = 6.52874 7.02614 6.78200
#
# Compressibility (1/GPa) = 0.01698914
#
# Stress axis : x y z
#
# Youngs Moduli (GPa) = 111.33430 67.80194 88.60357
#
# Poissons Ratio (x) = 0.15845 0.18018
# Poissons Ratio (y) = 0.26019 0.41142
# Poissons Ratio (z) = 0.22640 0.31483
#
# Static dielectric constant tensor:
#      x y z
#    x 1.975470 -0.047840 -0.014890 
#    y -0.047840 1.929760 0.040300 
#    z -0.014890 0.040300 1.913070 
# 
# From -- ./inp_files/566854.got.cif
#   From: 2010.05.17/outbox.cif.g08.bks.cpg/sg2_284_cif.got.tgz:566854.got - 2010.06.03 11:33:40.
