data_PCOD9111050
_publ_section_title
;
Structure prediction by ZEFSAII (Michael W. Deem and Ramdas Pophale) SiO2 
 PCOD9111050
Probable space group: P -1
;
_chemical_formula_sum "Si O2"
_cell_formula_units_Z 16
_cell_length_a 12.073175
_cell_length_b 19.613577
_cell_length_c 5.557874
_cell_angle_alpha 117.315300
_cell_angle_beta 85.074482
_cell_angle_gamma 143.535846
_cell_volume 586.571492
_symmetry_space_group_name_H-M "P -1"
_symmetry_group_IT_number 2
_symmetry_cell_setting 'triclinic'
loop_
_space_group_symop_operation_xyz
x,y,z
-x,-y,-z
loop_
_atom_site_type_symbol
_atom_site_label
_atom_site_fract_x
_atom_site_fract_y
_atom_site_fract_z
Si Si1 0.670346 0.816136 0.926182
Si Si2 0.056336 0.658152 0.784672
Si Si3 0.187694 0.254468 0.008964
Si Si4 0.363055 0.586846 0.233170
Si Si5 0.779127 0.644819 0.336948
Si Si6 0.270860 0.982494 0.776929
Si Si7 0.708073 0.042071 0.774219
Si Si8 0.220730 0.606733 0.916535
O O1 0.768809 0.809666 0.066135
O O2 0.598439 0.736245 0.556675
O O3 0.437981 0.711762 0.896035
O O4 0.809806 0.976936 0.140090
O O5 0.150038 0.649456 0.931137
O O6 0.824672 0.550162 0.764479
O O7 0.980488 0.567878 0.414535
O O8 0.212025 0.823414 0.000435
O O9 0.276421 0.347624 0.388724
O O10 0.269754 0.339390 0.878417
O O11 0.926878 0.118618 0.844857
O O12 0.332683 0.504978 0.901148
O O13 0.291990 0.626106 0.201052
O O14 0.047448 0.798585 0.533916
O O15 0.391118 0.031926 0.588439
O O16 0.406431 0.049372 0.103948
#
# Coordination Sequence:
#
# PCOD9111050 Si02
#       8
#     2   2   2   2   2   2   2   2
#     4  11  27  39  59  97 137 167 201 266 328 382
#     4  10  20  42  68  95 118 168 223 270 306 385
#     4  10  22  40  63  98 129 167 213 262 314 379
#     4  11  22  41  64  95 127 166 212 268 321 379
#     4  10  22  40  67  92 123 175 221 254 306 380
#     4  10  22  41  65  92 132 167 217 258 313 381
#     4  10  21  41  69  94 120 172 223 260 307 375
#     4  10  23  40  65  93 131 166 214 259 333 374
#
# _framework density 27.277152000000001
#
# number of rings (size 3 to 8) (size 9 to 14) (size 15 to 20)
#    0.000    1.750    2.500    1.875    5.250    5.000 
#    0.000    1.250    0.000    0.000    0.000    0.000 
#    0.000    0.000    0.000    0.000    0.000    0.000 
#
# Total GULP energy -89644.576627 kJ/mol
# GULP energy per Si atom -5602.786039 kJ/mol
# Density = 2.721507 g / cm^3
# Si number density = 27.277152 Si / 1000 Ang^3
#
#
#
# Elastic Constant Matrix: (Units=GPa)
#
#
# Indices 1 2 3 4 5 6 
#
# 1 98.7690 33.1311 17.6479 5.6208 4.4919 -22.0802
# 2 33.1311 78.3841 66.9708 -28.0574 4.5002 -30.8629
# 3 17.6479 66.9708 139.2640 -10.6944 -6.5340 -18.1445
# 4 5.6208 -28.0574 -10.6944 57.1285 -9.8784 2.4589
# 5 4.4919 4.5002 -6.5340 -9.8784 36.1172 -0.0582
# 6 -22.0802 -30.8629 -18.1445 2.4589 -0.0582 53.2507
#
#
#
# Elastic Compliance Matrix: (Units=1/GPa)
#
#
# Indices 1 2 3 4 5 6 
#
# 1 0.013462 -0.009074 0.002320 -0.005696 -0.001680 0.001375
# 2 -0.009074 0.042737 -0.016229 0.017827 -0.002233 0.014652
# 3 0.002320 -0.016229 0.014001 -0.004926 0.002914 -0.003443
# 4 -0.005696 0.017827 -0.004926 0.026520 0.004858 0.005073
# 5 -0.001680 -0.002233 0.002914 0.004858 0.030029 -0.001189
# 6 0.001375 0.014652 -0.003443 0.005073 -0.001189 0.026432
#
#
# Mechanical properties :
#
#
# Convention : Reuss Voigt Hill
#
# Bulk Modulus (GPa) = 41.26187 61.32408 51.29297
# Shear Modulus (GPa) = 24.12865 42.54376 33.33621
#
# Velocity S-wave (km/s) = 2.97741 3.95357 3.49969
# Velocity P-wave (km/s) = 5.19419 6.58571 5.93090
#
# Compressibility (1/GPa) = 0.02423545
#
# Stress axis : x y z
#
# Youngs Moduli (GPa) = 74.28580 23.39891 71.42467
#
# Poissons Ratio (x) = 0.21231 -0.16573
# Poissons Ratio (y) = 0.67403 1.15914
# Poissons Ratio (z) = -0.17237 0.37974
#
# Static dielectric constant tensor:
#      x y z
#    x 2.118740 0.031200 -0.017780 
#    y 0.031200 2.124210 -0.051970 
#    z -0.017780 -0.051970 2.156510 
# 
# From -- ./inp_files/70182.got.cif
#   From: 2010.05.17/outbox.cif.g08.bks.cpg/sg2_36_cif.got.tgz:70182.got - 2010.06.03 11:33:40.
