data_PCOD9111687
_publ_section_title
;
Structure prediction by ZEFSAII (Michael W. Deem and Ramdas Pophale) SiO2 
 PCOD9111687
Probable space group: P -1
;
_chemical_formula_sum "Si O2"
_cell_formula_units_Z 16
_cell_length_a 9.665747
_cell_length_b 11.516279
_cell_length_c 11.387746
_cell_angle_alpha 52.851852
_cell_angle_beta 115.299219
_cell_angle_gamma 84.179431
_cell_volume 791.702866
_symmetry_space_group_name_H-M "P -1"
_symmetry_group_IT_number 2
_symmetry_cell_setting 'triclinic'
loop_
_space_group_symop_operation_xyz
x,y,z
-x,-y,-z
loop_
_atom_site_type_symbol
_atom_site_label
_atom_site_fract_x
_atom_site_fract_y
_atom_site_fract_z
Si Si1 0.902051 0.879103 0.182323
Si Si2 0.451460 0.359342 0.027727
Si Si3 0.738794 0.163140 0.610357
Si Si4 0.442080 0.825478 0.232613
Si Si5 0.359344 0.977116 0.542956
Si Si6 0.794555 0.796184 0.427930
Si Si7 0.102482 0.435518 0.739879
Si Si8 0.387704 0.456128 0.698146
O O1 0.894826 0.848498 0.337955
O O2 0.081897 0.882053 0.230215
O O3 0.904350 0.730034 0.196313
O O4 0.727579 0.046197 0.979161
O O5 0.500759 0.338034 0.919998
O O6 0.243492 0.414195 0.905865
O O7 0.500000 0.500000 0.000000
O O8 0.542626 0.194765 0.240446
O O9 0.609300 0.153101 0.663656
O O10 0.764245 0.046422 0.581003
O O11 0.648259 0.356801 0.418752
O O12 0.606858 0.854858 0.262129
O O13 0.517536 0.636992 0.328375
O O14 0.500000 0.000000 0.500000
O O15 0.249281 0.120454 0.510989
O O16 0.915594 0.595171 0.603889
O O17 0.802930 0.530275 0.358792
#
# Coordination Sequence:
#
# PCOD9111687 Si02
#       8
#     2   2   2   2   2   2   2   2
#     4  12  23  43  67 100 130 166 228 276 321 390
#     4  10  20  43  68  95 131 171 222 268 323 389
#     4  12  25  43  63  97 139 171 211 281 333 383
#     4  12  24  40  68  98 128 176 215 273 336 387
#     4  12  25  44  67  95 138 176 215 270 336 402
#     4  12  22  42  70  94 128 177 223 262 332 398
#     4  10  22  40  69  98 127 165 220 282 315 379
#     4  10  21  42  66  96 126 169 224 267 321 387
#
# _framework density 20.209602
#
# number of rings (size 3 to 8) (size 9 to 14) (size 15 to 20)
#    0.750    0.000    5.000    3.750    0.000    0.500 
#    2.250    0.625    0.000    0.000    0.000    0.000 
#    0.000    0.000    0.000    0.000    0.000    0.000 
#
# Total GULP energy -89243.818873 kJ/mol
# GULP energy per Si atom -5577.738680 kJ/mol
# Density = 2.016360 g / cm^3
# Si number density = 20.209602 Si / 1000 Ang^3
#
#
#
# Elastic Constant Matrix: (Units=GPa)
#
#
# Indices 1 2 3 4 5 6 
#
# 1 48.9783 33.3399 25.1826 -6.5423 8.6792 -7.7487
# 2 33.3399 142.8957 35.7096 -1.4241 12.8011 -15.5827
# 3 25.1826 35.7096 76.1719 -2.7338 12.8328 -4.8832
# 4 -6.5423 -1.4241 -2.7338 29.5613 -2.4687 3.2247
# 5 8.6792 12.8011 12.8328 -2.4687 23.6184 4.0264
# 6 -7.7487 -15.5827 -4.8832 3.2247 4.0264 32.9135
#
#
#
# Elastic Compliance Matrix: (Units=1/GPa)
#
#
# Indices 1 2 3 4 5 6 
#
# 1 0.028623 -0.004188 -0.006223 0.004700 -0.005056 0.003991
# 2 -0.004188 0.009169 -0.002239 -0.001322 -0.002951 0.003513
# 3 -0.006223 -0.002239 0.017297 -0.000485 -0.006091 0.000834
# 4 0.004700 -0.001322 -0.000485 0.035438 0.003554 -0.003498
# 5 -0.005056 -0.002951 -0.006091 0.003554 0.051201 -0.010103
# 6 0.003991 0.003513 0.000834 -0.003498 -0.010103 0.034688
#
#
# Mechanical properties :
#
#
# Convention : Reuss Voigt Hill
#
# Bulk Modulus (GPa) = 33.56931 50.72333 42.14632
# Shear Modulus (GPa) = 23.62439 28.80621 26.21530
#
# Velocity S-wave (km/s) = 3.42273 3.77951 3.60553
# Velocity P-wave (km/s) = 5.68038 6.64826 6.18329
#
# Compressibility (1/GPa) = 0.02978911
#
# Stress axis : x y z
#
# Youngs Moduli (GPa) = 34.93719 109.06180 57.81234
#
# Poissons Ratio (x) = 0.45676 0.35977
# Poissons Ratio (y) = 0.14632 0.12944
# Poissons Ratio (z) = 0.21742 0.24418
#
# Static dielectric constant tensor:
#      x y z
#    x 1.690630 0.022430 -0.006430 
#    y 0.022430 1.738860 0.025520 
#    z -0.006430 0.025520 1.728500 
# 
# From -- ./inp_files/392157.got.cif
#   From: 2010.05.17/outbox.cif.g08.bks.cpg/sg2_197_cif.got.tgz:392157.got - 2010.06.03 11:33:40.
