data_PCOD9111969
_publ_section_title
;
Structure prediction by ZEFSAII (Michael W. Deem and Ramdas Pophale) SiO2 
 PCOD9111969
Probable space group: P -1
;
_chemical_formula_sum "Si O2"
_cell_formula_units_Z 16
_cell_length_a 16.027073
_cell_length_b 9.330408
_cell_length_c 9.843347
_cell_angle_alpha 137.337235
_cell_angle_beta 132.088923
_cell_angle_gamma 61.769099
_cell_volume 739.690291
_symmetry_space_group_name_H-M "P -1"
_symmetry_group_IT_number 2
_symmetry_cell_setting 'triclinic'
loop_
_space_group_symop_operation_xyz
x,y,z
-x,-y,-z
loop_
_atom_site_type_symbol
_atom_site_label
_atom_site_fract_x
_atom_site_fract_y
_atom_site_fract_z
Si Si1 0.403098 0.966122 0.485924
Si Si2 0.528315 0.597450 0.456551
Si Si3 0.243231 0.193547 0.055125
Si Si4 0.884409 0.964362 0.441991
Si Si5 0.108474 0.592145 0.104543
Si Si6 0.248151 0.854722 0.018056
Si Si7 0.096523 0.482349 0.705391
Si Si8 0.466904 0.687910 0.994319
O O1 0.421858 0.729807 0.389176
O O2 0.289157 0.972929 0.283124
O O3 0.500000 0.000000 0.500000
O O4 0.433252 0.133533 0.752711
O O5 0.500000 0.500000 0.500000
O O6 0.635248 0.757247 0.710490
O O7 0.548455 0.419659 0.242939
O O8 0.199548 0.425703 0.135858
O O9 0.182804 0.028352 0.980734
O O10 0.219286 0.079301 0.805709
O O11 0.890203 0.762087 0.406933
O O12 0.865586 0.173694 0.651991
O O13 0.000000 0.000000 0.500000
O O14 0.082306 0.584026 0.910405
O O15 0.000000 0.500000 0.000000
O O16 0.193929 0.629782 0.846048
O O17 0.352965 0.789614 0.992580
O O18 0.000000 0.500000 0.500000
O O19 0.500000 0.500000 0.000000
#
# Coordination Sequence:
#
# PCOD9111969 Si02
#       8
#     2   2   2   2   2   2   2   2
#     4  10  20  44  65  92 139 174 225 273 335 395
#     4  12  26  42  66 104 139 173 232 283 329 411
#     4  11  24  43  70  97 140 184 223 280 341 403
#     4  11  23  48  69  98 140 177 222 282 341 409
#     4  11  25  46  73  97 137 185 221 276 353 404
#     4  11  23  45  67 104 139 177 235 282 335 411
#     4  11  26  45  71 103 136 174 231 290 331 406
#     4  11  21  42  72  93 133 187 217 276 348 389
#
# _framework density 21.630673999999999
#
# number of rings (size 3 to 8) (size 9 to 14) (size 15 to 20)
#    0.000    1.000    7.500    0.750    5.250    1.000 
#    6.750    0.000    0.000    0.000    0.000    0.000 
#    0.000    0.000    0.000    0.000    0.000    0.000 
#
# Total GULP energy -89252.710325 kJ/mol
# GULP energy per Si atom -5578.294395 kJ/mol
# Density = 2.158144 g / cm^3
# Si number density = 21.630674 Si / 1000 Ang^3
#
#
#
# Elastic Constant Matrix: (Units=GPa)
#
#
# Indices 1 2 3 4 5 6 
#
# 1 40.6624 36.0383 44.3136 3.4432 -18.0942 15.3642
# 2 36.0383 140.5884 81.6496 -1.7661 -18.1231 29.9881
# 3 44.3136 81.6496 192.6714 11.6953 -27.5178 -1.6494
# 4 3.4432 -1.7661 11.6953 49.9667 -0.3020 -0.3950
# 5 -18.0942 -18.1231 -27.5178 -0.3020 31.4105 3.4186
# 6 15.3642 29.9881 -1.6494 -0.3950 3.4186 28.5530
#
#
#
# Elastic Compliance Matrix: (Units=1/GPa)
#
#
# Indices 1 2 3 4 5 6 
#
# 1 0.067980 0.004358 -0.012694 -0.001709 0.035562 -0.046171
# 2 0.004358 0.014839 -0.006484 0.001635 0.007495 -0.019179
# 3 -0.012694 -0.006484 0.010607 -0.001742 -0.003370 0.014633
# 4 -0.001709 0.001635 -0.001742 0.020585 -0.001319 -0.000456
# 5 0.035562 0.007495 -0.003370 -0.001319 0.057392 -0.034092
# 6 -0.046171 -0.019179 0.014633 -0.000456 -0.034092 0.084932
#
#
# Mechanical properties :
#
#
# Convention : Reuss Voigt Hill
#
# Bulk Modulus (GPa) = 15.67742 77.54724 46.61233
# Shear Modulus (GPa) = 16.27406 36.11408 26.19407
#
# Velocity S-wave (km/s) = 2.74589 4.09048 3.48367
# Velocity P-wave (km/s) = 4.16134 7.63137 6.14632
#
# Compressibility (1/GPa) = 0.06378599
#
# Stress axis : x y z
#
# Youngs Moduli (GPa) = 14.71024 67.38872 94.27594
#
# Poissons Ratio (x) = -0.29368 1.19677
# Poissons Ratio (y) = -0.06411 0.61127
# Poissons Ratio (z) = 0.18674 0.43694
#
# Static dielectric constant tensor:
#      x y z
#    x 1.831140 -0.046490 0.070390 
#    y -0.046490 2.083190 -0.108960 
#    z 0.070390 -0.108960 1.890620 
# 
# From -- ./inp_files/329671.got.cif
#   From: 2010.05.17/outbox.cif.g08.bks.cpg/sg2_165_cif.got.tgz:329671.got - 2010.06.03 11:33:40.
