data_PCOD9111035
_publ_section_title
;
Structure prediction by ZEFSAII (Michael W. Deem and Ramdas Pophale) SiO2 
 PCOD9111035
Probable space group: P -1
;
_chemical_formula_sum "Si O2"
_cell_formula_units_Z 16
_cell_length_a 5.142392
_cell_length_b 21.257949
_cell_length_c 15.822631
_cell_angle_alpha 24.357084
_cell_angle_beta 96.232743
_cell_angle_gamma 94.599997
_cell_volume 708.402499
_symmetry_space_group_name_H-M "P -1"
_symmetry_group_IT_number 2
_symmetry_cell_setting 'triclinic'
loop_
_space_group_symop_operation_xyz
x,y,z
-x,-y,-z
loop_
_atom_site_type_symbol
_atom_site_label
_atom_site_fract_x
_atom_site_fract_y
_atom_site_fract_z
Si Si1 0.994674 0.718208 0.187605
Si Si2 0.471804 0.299734 0.335082
Si Si3 0.357067 0.016535 0.211180
Si Si4 0.822777 0.582358 0.964626
Si Si5 0.167393 0.485656 0.233743
Si Si6 0.392799 0.109167 0.789322
Si Si7 0.518473 0.326166 0.863597
Si Si8 0.108501 0.704950 0.405677
O O1 0.746333 0.630180 0.250517
O O2 0.042975 0.690981 0.321282
O O3 0.248830 0.676247 0.193372
O O4 0.895143 0.893441 0.948349
O O5 0.652340 0.148660 0.544441
O O6 0.330911 0.287242 0.254195
O O7 0.268330 0.345179 0.348289
O O8 0.630483 0.453182 0.146360
O O9 0.553468 0.980164 0.185484
O O10 0.475713 0.151801 0.104896
O O11 0.000000 0.500000 0.000000
O O12 0.008783 0.607700 0.019292
O O13 0.400027 0.568060 0.187225
O O14 0.978330 0.425231 0.373722
O O15 0.096492 0.160038 0.735841
O O16 0.592995 0.248390 0.629262
O O17 0.500000 0.000000 0.000000
#
# Coordination Sequence:
#
# PCOD9111035 Si02
#       8
#     2   2   2   2   2   2   2   2
#     4  10  23  41  58  89 135 170 212 256 310 360
#     4  10  20  42  68  94 125 156 207 269 321 374
#     4  10  22  37  63  91 125 167 210 259 318 370
#     4   9  21  39  64  98 124 154 202 269 323 372
#     4  11  24  39  66  92 126 169 215 255 317 384
#     4  12  22  36  60  92 129 163 216 272 311 359
#     4  10  25  42  61  89 136 175 207 255 309 378
#     4  12  24  37  63  95 123 173 217 265 307 367
#
# _framework density 22.586029
#
# number of rings (size 3 to 8) (size 9 to 14) (size 15 to 20)
#    0.750    0.750    2.500    2.625    3.500    3.000 
#    0.000    0.625    0.000    7.500    0.000    0.000 
#    0.000    0.000    0.000    0.000    0.000    0.000 
#
# Total GULP energy -89358.357596 kJ/mol
# GULP energy per Si atom -5584.897350 kJ/mol
# Density = 2.253462 g / cm^3
# Si number density = 22.586029 Si / 1000 Ang^3
#
#
#
# Elastic Constant Matrix: (Units=GPa)
#
#
# Indices 1 2 3 4 5 6 
#
# 1 100.1534 34.2221 24.0521 7.4433 0.9388 5.3292
# 2 34.2221 82.4206 56.5229 2.0146 5.9457 23.6573
# 3 24.0521 56.5229 116.2192 13.8042 17.5771 6.0296
# 4 7.4433 2.0146 13.8042 26.1239 0.7456 -0.4793
# 5 0.9388 5.9457 17.5771 0.7456 35.8257 -1.3187
# 6 5.3292 23.6573 6.0296 -0.4793 -1.3187 44.8153
#
#
#
# Elastic Compliance Matrix: (Units=1/GPa)
#
#
# Indices 1 2 3 4 5 6 
#
# 1 0.011969 -0.005731 0.000542 -0.003241 0.000494 0.001509
# 2 -0.005731 0.025227 -0.011306 0.005431 0.000992 -0.011027
# 3 0.000542 -0.011306 0.015491 -0.007247 -0.005455 0.003581
# 4 -0.003241 0.005431 -0.007247 0.042543 0.001817 -0.000998
# 5 0.000494 0.000992 -0.005455 0.001817 0.030413 0.001066
# 6 0.001509 -0.011027 0.003581 -0.000998 0.001066 0.027494
#
#
# Mechanical properties :
#
#
# Convention : Reuss Voigt Hill
#
# Bulk Modulus (GPa) = 50.76943 58.70973 54.73958
# Shear Modulus (GPa) = 25.94826 33.61939 29.78382
#
# Velocity S-wave (km/s) = 3.39317 3.86230 3.63531
# Velocity P-wave (km/s) = 6.15455 6.77791 6.47374
#
# Compressibility (1/GPa) = 0.01969689
#
# Stress axis : x y z
#
# Youngs Moduli (GPa) = 83.55146 39.64079 64.55447
#
# Poissons Ratio (x) = 0.22718 -0.03500
# Poissons Ratio (y) = 0.47883 0.72984
# Poissons Ratio (z) = -0.04530 0.44817
#
# Static dielectric constant tensor:
#      x y z
#    x 1.897020 0.013140 0.001270 
#    y 0.013140 1.884370 -0.014290 
#    z 0.001270 -0.014290 1.931230 
# 
# From -- ./inp_files/485446.got.cif
#   From: 2010.05.17/outbox.cif.g08.bks.cpg/sg2_243_cif.got.tgz:485446.got - 2010.06.03 11:33:40.
