data_PCOD9111298
_publ_section_title
;
Structure prediction by ZEFSAII (Michael W. Deem and Ramdas Pophale) SiO2 
 PCOD9111298
Probable space group: P -1
;
_chemical_formula_sum "Si O2"
_cell_formula_units_Z 16
_cell_length_a 17.872806
_cell_length_b 19.223869
_cell_length_c 5.664867
_cell_angle_alpha 84.094119
_cell_angle_beta 82.489240
_cell_angle_gamma 155.291223
_cell_volume 681.559047
_symmetry_space_group_name_H-M "P -1"
_symmetry_group_IT_number 2
_symmetry_cell_setting 'triclinic'
loop_
_space_group_symop_operation_xyz
x,y,z
-x,-y,-z
loop_
_atom_site_type_symbol
_atom_site_label
_atom_site_fract_x
_atom_site_fract_y
_atom_site_fract_z
Si Si1 0.022343 0.311350 0.764760
Si Si2 0.418150 0.874474 0.885370
Si Si3 0.306772 0.073557 0.187996
Si Si4 0.495870 0.289956 0.521288
Si Si5 0.911172 0.973508 0.739703
Si Si6 0.325708 0.292310 0.697812
Si Si7 0.196354 0.799990 0.731578
Si Si8 0.880027 0.469097 0.607786
O O1 0.250342 0.472753 0.650456
O O2 0.104196 0.462069 0.630167
O O3 0.855593 0.132582 0.711788
O O4 0.870053 0.191488 0.092320
O O5 0.237851 0.763333 0.868972
O O6 0.589972 0.004853 0.574109
O O7 0.344757 0.745732 0.115055
O O8 0.500000 0.000000 0.000000
O O9 0.445226 0.201232 0.331269
O O10 0.142214 0.994849 0.314547
O O11 0.424720 0.193342 0.840811
O O12 0.372815 0.258260 0.564674
O O13 0.698943 0.754268 0.007202
O O14 0.000000 0.000000 0.500000
O O15 0.103759 0.138874 0.788549
O O16 0.500000 0.500000 0.500000
O O17 0.004938 0.616918 0.705908
O O18 0.000000 0.500000 0.500000
#
# Coordination Sequence:
#
# PCOD9111298 Si02
#       8
#     2   2   2   2   2   2   2   2
#     4  12  29  48  73 105 147 203 248 312 389 454
#     4  11  23  45  73 103 135 175 234 315 376 447
#     4  11  27  51  74 109 161 202 255 310 381 455
#     4  11  27  50  74 111 157 203 253 308 380 467
#     4  10  20  42  72 106 144 194 248 309 359 434
#     4  10  21  41  71 111 145 194 251 309 371 437
#     4  11  25  44  71 103 137 183 242 304 387 444
#     4  12  25  47  68 104 139 178 247 309 371 453
#
# _framework density 23.475591000000001
#
# number of rings (size 3 to 8) (size 9 to 14) (size 15 to 20)
#    0.000    1.000    3.750    1.125    3.500    3.500 
#    2.250    0.000    0.000    0.000    0.000    0.000 
#    0.000    0.000    0.000    0.000    0.000    0.000 
#
# Total GULP energy -89254.671282 kJ/mol
# GULP energy per Si atom -5578.416955 kJ/mol
# Density = 2.342216 g / cm^3
# Si number density = 23.475591 Si / 1000 Ang^3
#
#
#
# Elastic Constant Matrix: (Units=GPa)
#
#
# Indices 1 2 3 4 5 6 
#
# 1 70.5737 5.7787 22.7377 -4.0918 -1.4062 -5.4213
# 2 5.7787 73.1543 40.9455 -6.7612 0.7157 -5.5724
# 3 22.7377 40.9455 130.5534 -4.9594 -9.0846 -17.8160
# 4 -4.0918 -6.7612 -4.9594 41.1803 -7.7279 0.7841
# 5 -1.4062 0.7157 -9.0846 -7.7279 35.5274 -4.7226
# 6 -5.4213 -5.5724 -17.8160 0.7841 -4.7226 40.8176
#
#
#
# Elastic Compliance Matrix: (Units=1/GPa)
#
#
# Indices 1 2 3 4 5 6 
#
# 1 0.015117 0.000431 -0.002563 0.001311 0.000348 0.000963
# 2 0.000431 0.016833 -0.005399 0.001914 -0.001311 -0.000190
# 3 -0.002563 -0.005399 0.010598 0.000697 0.003391 0.003927
# 4 0.001311 0.001914 0.000697 0.025911 0.005951 0.000930
# 5 0.000348 -0.001311 0.003391 0.005951 0.030989 0.004818
# 6 0.000963 -0.000190 0.003927 0.000930 0.004818 0.026855
#
#
# Mechanical properties :
#
#
# Convention : Reuss Voigt Hill
#
# Bulk Modulus (GPa) = 36.38091 45.91168 41.14630
# Shear Modulus (GPa) = 33.21704 37.15969 35.18837
#
# Velocity S-wave (km/s) = 3.76568 3.98289 3.87581
# Velocity P-wave (km/s) = 5.86840 6.38364 6.13143
#
# Compressibility (1/GPa) = 0.02748694
#
# Stress axis : x y z
#
# Youngs Moduli (GPa) = 66.15133 59.40812 94.36100
#
# Poissons Ratio (x) = -0.02563 0.24182
# Poissons Ratio (y) = -0.02854 0.50944
# Poissons Ratio (z) = 0.16952 0.32073
#
# Static dielectric constant tensor:
#      x y z
#    x 1.731250 -0.048610 -0.158150 
#    y -0.048610 1.878520 -0.079600 
#    z -0.158150 -0.079600 1.841780 
# 
# From -- ./inp_files/120418.got.cif
#   From: 2010.05.17/outbox.cif.g08.bks.cpg/sg2_61_cif.got.tgz:120418.got - 2010.06.03 11:33:40.
