data_PCOD9111250
_publ_section_title
;
Structure prediction by ZEFSAII (Michael W. Deem and Ramdas Pophale) SiO2 
 PCOD9111250
Probable space group: P -1
;
_chemical_formula_sum "Si O2"
_cell_formula_units_Z 12
_cell_length_a 8.123334
_cell_length_b 8.463020
_cell_length_c 11.918181
_cell_angle_alpha 114.823313
_cell_angle_beta 44.901005
_cell_angle_gamma 97.589836
_cell_volume 507.157881
_symmetry_space_group_name_H-M "P -1"
_symmetry_group_IT_number 2
_symmetry_cell_setting 'triclinic'
loop_
_space_group_symop_operation_xyz
x,y,z
-x,-y,-z
loop_
_atom_site_type_symbol
_atom_site_label
_atom_site_fract_x
_atom_site_fract_y
_atom_site_fract_z
Si Si1 0.283344 0.243429 0.269271
Si Si2 0.290491 0.180913 0.644463
Si Si3 0.404188 0.535243 0.682213
Si Si4 0.966625 0.212662 0.598549
Si Si5 0.495346 0.182617 0.912720
Si Si6 0.065749 0.172152 0.967685
O O1 0.449862 0.350730 0.284248
O O2 0.026820 0.291807 0.473764
O O3 0.384007 0.027104 0.175737
O O4 0.321859 0.268637 0.126045
O O5 0.399839 0.343738 0.677152
O O6 0.077368 0.163635 0.825499
O O7 0.174636 0.223209 0.590209
O O8 0.500000 0.000000 0.500000
O O9 0.500000 0.500000 0.500000
O O10 0.129966 0.652682 0.847110
O O11 0.705258 0.275667 0.802036
O O12 0.000000 0.000000 0.500000
O O13 0.326244 0.175502 0.887147
O O14 0.000000 0.000000 0.000000
#
# Coordination Sequence:
#
# PCOD9111250 Si02
#       6
#     2   2   2   2   2   2
#     4  10  20  42  70  99 141 187 223 292 347 416
#     4  12  25  45  72 103 138 188 240 291 349 418
#     4  12  24  46  69 103 145 179 241 292 344 421
#     4  10  21  39  68 101 139 181 229 284 352 411
#     4  10  22  42  70 102 141 182 234 282 359 420
#     4  12  25  44  71 104 138 185 235 288 356 420
#
# _framework density 23.661270999999999
#
# number of rings (size 3 to 8) (size 9 to 14) (size 15 to 20)
#    0.000    1.000    3.333    4.500    4.667    0.000 
#    3.000    5.833    0.000    0.000    0.000    0.000 
#    0.000    0.000    0.000    0.000    0.000    0.000 
#
# Total GULP energy -67154.396203 kJ/mol
# GULP energy per Si atom -5596.199684 kJ/mol
# Density = 2.360742 g / cm^3
# Si number density = 23.661271 Si / 1000 Ang^3
#
#
#
# Elastic Constant Matrix: (Units=GPa)
#
#
# Indices 1 2 3 4 5 6 
#
# 1 57.9128 7.3151 12.1503 -14.7189 2.4557 11.2778
# 2 7.3151 118.5472 51.2702 -25.8866 -0.0610 4.5488
# 3 12.1503 51.2702 145.2453 -27.4834 6.6678 -14.3649
# 4 -14.7189 -25.8866 -27.4834 39.2903 -5.4583 -2.7072
# 5 2.4557 -0.0610 6.6678 -5.4583 43.2150 -3.2309
# 6 11.2778 4.5488 -14.3649 -2.7072 -3.2309 29.3774
#
#
#
# Elastic Compliance Matrix: (Units=1/GPa)
#
#
# Indices 1 2 3 4 5 6 
#
# 1 0.020873 0.001258 -0.001719 0.006763 -0.000701 -0.008503
# 2 0.001258 0.011110 -0.003384 0.005323 0.000894 -0.003269
# 3 -0.001719 -0.003384 0.009668 0.004266 -0.000392 0.006261
# 4 0.006763 0.005323 0.004266 0.035131 0.003574 0.002296
# 5 -0.000701 0.000894 -0.000392 0.003574 0.023910 0.002898
# 6 -0.008503 -0.003269 0.006261 0.002296 0.002898 0.041402
#
#
# Mechanical properties :
#
#
# Convention : Reuss Voigt Hill
#
# Bulk Modulus (GPa) = 29.44611 51.46406 40.45509
# Shear Modulus (GPa) = 31.03599 39.10786 35.07192
#
# Velocity S-wave (km/s) = 3.62564 4.06990 3.85418
# Velocity P-wave (km/s) = 5.47712 6.62443 6.07791
#
# Compressibility (1/GPa) = 0.03396034
#
# Stress axis : x y z
#
# Youngs Moduli (GPa) = 47.90783 90.01244 103.43747
#
# Poissons Ratio (x) = -0.11326 0.17785
# Poissons Ratio (y) = -0.06028 0.35003
# Poissons Ratio (z) = 0.08237 0.30460
#
# Static dielectric constant tensor:
#      x y z
#    x 1.914270 0.000700 0.038640 
#    y 0.000700 1.880770 -0.039630 
#    z 0.038640 -0.039630 1.991050 
# 
# From -- ./inp_files/152569.got.cif
#   From: 2010.05.17/outbox.cif.g08.bks.cpg/sg2_77_cif.got.tgz:152569.got - 2010.06.03 11:33:40.
