data_PCOD9111262
_publ_section_title
;
Structure prediction by ZEFSAII (Michael W. Deem and Ramdas Pophale) SiO2 
 PCOD9111262
Probable space group: P -1
;
_chemical_formula_sum "Si O2"
_cell_formula_units_Z 16
_cell_length_a 14.108527
_cell_length_b 11.276460
_cell_length_c 9.577964
_cell_angle_alpha 109.633793
_cell_angle_beta 111.612629
_cell_angle_gamma 126.909909
_cell_volume 749.780628
_symmetry_space_group_name_H-M "P -1"
_symmetry_group_IT_number 2
_symmetry_cell_setting 'triclinic'
loop_
_space_group_symop_operation_xyz
x,y,z
-x,-y,-z
loop_
_atom_site_type_symbol
_atom_site_label
_atom_site_fract_x
_atom_site_fract_y
_atom_site_fract_z
Si Si1 0.801538 0.287028 0.373480
Si Si2 0.565772 0.426326 0.980060
Si Si3 0.752176 0.065639 0.521834
Si Si4 0.058497 0.196942 0.159962
Si Si5 0.204185 0.716356 0.132449
Si Si6 0.732132 0.041384 0.994724
Si Si7 0.645634 0.409978 0.327698
Si Si8 0.861131 0.627141 0.034015
O O1 0.808153 0.226831 0.501773
O O2 0.716706 0.338668 0.351068
O O3 0.000000 0.500000 0.500000
O O4 0.702300 0.086902 0.139621
O O5 0.620958 0.422230 0.157636
O O6 0.740088 0.602836 0.042208
O O7 0.500000 0.500000 0.000000
O O8 0.400487 0.180438 0.721583
O O9 0.686441 0.083174 0.623198
O O10 0.935246 0.179979 0.716250
O O11 0.213874 0.357365 0.423831
O O12 0.893362 0.106250 0.102443
O O13 0.121244 0.330472 0.104443
O O14 0.000000 0.000000 0.000000
O O15 0.217485 0.801666 0.028393
O O16 0.247077 0.614536 0.097684
O O17 0.000000 0.500000 0.000000
O O18 0.543677 0.778528 0.766805
#
# Coordination Sequence:
#
# PCOD9111262 Si02
#       8
#     2   2   2   2   2   2   2   2
#     4  12  22  43  75 106 143 182 230 295 360 419
#     4  12  30  48  69 102 142 192 239 282 342 422
#     4  11  24  44  72 105 141 180 229 288 361 411
#     4  12  29  48  74 101 140 198 240 287 349 419
#     4  10  20  42  71 104 139 177 226 289 356 415
#     4  12  24  44  73 105 147 180 234 294 360 420
#     4  12  28  47  72 111 141 184 239 296 357 418
#     4  11  26  48  72 105 141 183 236 291 352 417
#
# _framework density 21.339576000000001
#
# number of rings (size 3 to 8) (size 9 to 14) (size 15 to 20)
#    0.000    0.500    5.000    4.125    7.000    1.500 
#    0.000    0.000    0.000    0.000    0.000    0.000 
#    0.000    0.000    0.000    0.000    0.000    0.000 
#
# Total GULP energy -89485.004974 kJ/mol
# GULP energy per Si atom -5592.812811 kJ/mol
# Density = 2.129101 g / cm^3
# Si number density = 21.339576 Si / 1000 Ang^3
#
#
#
# Elastic Constant Matrix: (Units=GPa)
#
#
# Indices 1 2 3 4 5 6 
#
# 1 73.1235 -7.6485 32.7854 7.1875 -8.8480 3.9194
# 2 -7.6485 23.7853 17.3123 -6.2381 5.1703 9.3476
# 3 32.7854 17.3123 153.4388 6.9034 -12.1474 -0.9629
# 4 7.1875 -6.2381 6.9034 38.3259 3.2532 -3.8936
# 5 -8.8480 5.1703 -12.1474 3.2532 33.6068 11.3782
# 6 3.9194 9.3476 -0.9629 -3.8936 11.3782 28.7551
#
#
#
# Elastic Compliance Matrix: (Units=1/GPa)
#
#
# Indices 1 2 3 4 5 6 
#
# 1 0.018106 0.011039 -0.004736 -0.001944 0.004316 -0.008186
# 2 0.011039 0.064342 -0.010530 0.008732 -0.005005 -0.019611
# 3 -0.004736 -0.010530 0.009074 -0.002413 0.002906 0.002896
# 4 -0.001944 0.008732 -0.002413 0.029314 -0.006940 0.004061
# 5 0.004316 -0.005005 0.002906 -0.006940 0.038472 -0.015027
# 6 -0.008186 -0.019611 0.002896 0.004061 -0.015027 0.048860
#
#
# Mechanical properties :
#
#
# Convention : Reuss Voigt Hill
#
# Bulk Modulus (GPa) = 12.03869 37.24955 24.64412
# Shear Modulus (GPa) = 20.46559 33.99747 27.23153
#
# Velocity S-wave (km/s) = 3.10020 3.99578 3.57614
# Velocity P-wave (km/s) = 4.29753 6.22751 5.35026
#
# Compressibility (1/GPa) = 0.08306553
#
# Stress axis : x y z
#
# Youngs Moduli (GPa) = 55.23113 15.54199 110.20268
#
# Poissons Ratio (x) = -0.17156 0.52196
# Poissons Ratio (y) = -0.60967 1.16047
# Poissons Ratio (z) = 0.26159 0.16366
#
# Static dielectric constant tensor:
#      x y z
#    x 1.773360 -0.007440 -0.032810 
#    y -0.007440 1.712100 0.083460 
#    z -0.032810 0.083460 1.688350 
# 
# From -- ./inp_files/272756.got.cif
#   From: 2010.05.17/outbox.cif.g08.bks.cpg/sg2_137_cif.got.tgz:272756.got - 2010.06.03 11:33:40.
