data_PCOD9111668
_publ_section_title
;
Structure prediction by ZEFSAII (Michael W. Deem and Ramdas Pophale) SiO2 
 PCOD9111668
Probable space group: P -1
;
_chemical_formula_sum "Si O2"
_cell_formula_units_Z 12
_cell_length_a 8.413921
_cell_length_b 12.555808
_cell_length_c 11.025775
_cell_angle_alpha 58.337014
_cell_angle_beta 70.122836
_cell_angle_gamma 31.105156
_cell_volume 496.060307
_symmetry_space_group_name_H-M "P -1"
_symmetry_group_IT_number 2
_symmetry_cell_setting 'triclinic'
loop_
_space_group_symop_operation_xyz
x,y,z
-x,-y,-z
loop_
_atom_site_type_symbol
_atom_site_label
_atom_site_fract_x
_atom_site_fract_y
_atom_site_fract_z
Si Si1 0.405021 0.511816 0.150778
Si Si2 0.654604 0.957028 0.107597
Si Si3 0.430695 0.851547 0.334738
Si Si4 0.531866 0.680891 0.161232
Si Si5 0.031311 0.342061 0.428697
Si Si6 0.690890 0.079360 0.420461
O O1 0.460359 0.590022 0.183846
O O2 0.613331 0.259174 0.274492
O O3 0.032056 0.713728 0.140266
O O4 0.500000 0.500000 0.000000
O O5 0.526102 0.937447 0.248555
O O6 0.500000 0.000000 0.000000
O O7 0.533085 0.175814 0.011949
O O8 0.332177 0.856126 0.226547
O O9 0.210627 0.971056 0.434256
O O10 0.753396 0.572654 0.444808
O O11 0.882237 0.458526 0.262908
O O12 0.356288 0.213045 0.428889
O O13 0.072393 0.169922 0.549857
#
# Coordination Sequence:
#
# PCOD9111668 Si02
#       6
#     2   2   2   2   2   2
#     4  12  26  42  61  95 137 168 209 269 329 389
#     4  10  20  43  68  90 122 172 219 259 313 381
#     4   9  20  41  67  94 124 167 219 269 306 377
#     4   9  22  40  60  96 129 167 211 255 331 377
#     4   9  21  39  63 102 121 165 222 263 313 380
#     4  11  21  41  68  93 129 171 216 265 322 372
#
# _framework density 24.190607
#
# number of rings (size 3 to 8) (size 9 to 14) (size 15 to 20)
#    1.000    1.000    1.667    1.000    0.000    6.667 
#    3.000    5.000    0.000    0.000    0.000    0.000 
#    0.000    0.000    0.000    0.000    0.000    0.000 
#
# Total GULP energy -67044.945019 kJ/mol
# GULP energy per Si atom -5587.078752 kJ/mol
# Density = 2.413555 g / cm^3
# Si number density = 24.190607 Si / 1000 Ang^3
#
#
#
# Elastic Constant Matrix: (Units=GPa)
#
#
# Indices 1 2 3 4 5 6 
#
# 1 107.5632 44.9729 51.9864 -2.1530 -5.1452 8.4404
# 2 44.9729 69.2796 46.0346 -33.8863 -14.0688 19.0714
# 3 51.9864 46.0346 152.7561 -27.4511 -31.7148 18.7162
# 4 -2.1530 -33.8863 -27.4511 49.5162 13.8254 -11.1459
# 5 -5.1452 -14.0688 -31.7148 13.8254 39.9473 -11.9605
# 6 8.4404 19.0714 18.7162 -11.1459 -11.9605 39.8133
#
#
#
# Elastic Compliance Matrix: (Units=1/GPa)
#
#
# Indices 1 2 3 4 5 6 
#
# 1 0.016562 -0.013953 -0.003821 -0.010071 -0.001852 0.001593
# 2 -0.013953 0.037821 -0.001599 0.022563 0.000024 -0.008083
# 3 -0.003821 -0.001599 0.010088 0.002538 0.005868 -0.000693
# 4 -0.010071 0.022563 0.002538 0.037736 -0.004601 -0.000684
# 5 -0.001852 0.000024 0.005868 -0.004601 0.032917 0.006223
# 6 0.001593 -0.008083 -0.000693 -0.000684 0.006223 0.030655
#
#
# Mechanical properties :
#
#
# Convention : Reuss Voigt Hill
#
# Bulk Modulus (GPa) = 38.87375 68.39851 53.63613
# Shear Modulus (GPa) = 23.46303 38.29570 30.87936
#
# Velocity S-wave (km/s) = 3.11774 3.98311 3.57669
# Velocity P-wave (km/s) = 5.39120 7.03490 6.26717
#
# Compressibility (1/GPa) = 0.02572430
#
# Stress axis : x y z
#
# Youngs Moduli (GPa) = 60.37754 26.44061 99.12829
#
# Poissons Ratio (x) = 0.36893 0.37879
# Poissons Ratio (y) = 0.84246 0.15849
# Poissons Ratio (z) = 0.23072 0.04228
#
# Static dielectric constant tensor:
#      x y z
#    x 1.954720 0.026760 0.007760 
#    y 0.026760 1.946830 0.013140 
#    z 0.007760 0.013140 1.979630 
# 
# From -- ./inp_files/160453.got.cif
#   From: 2010.05.17/outbox.cif.g08.bks.cpg/sg2_81_cif.got.tgz:160453.got - 2010.06.03 11:33:40.
