data_PCOD9111509
_publ_section_title
;
Structure prediction by ZEFSAII (Michael W. Deem and Ramdas Pophale) SiO2 
 PCOD9111509
Probable space group: P -1
;
_chemical_formula_sum "Si O2"
_cell_formula_units_Z 13
_cell_length_a 15.076817
_cell_length_b 11.907766
_cell_length_c 15.129005
_cell_angle_alpha 28.926497
_cell_angle_beta 27.711979
_cell_angle_gamma 29.699732
_cell_volume 555.291314
_symmetry_space_group_name_H-M "P -1"
_symmetry_group_IT_number 2
_symmetry_cell_setting 'triclinic'
loop_
_space_group_symop_operation_xyz
x,y,z
-x,-y,-z
loop_
_atom_site_type_symbol
_atom_site_label
_atom_site_fract_x
_atom_site_fract_y
_atom_site_fract_z
Si Si1 0.500000 0.500000 0.500000
Si Si2 0.842519 0.252072 0.512652
Si Si3 0.208127 0.601995 0.823064
Si Si4 0.618920 0.097309 0.123590
Si Si5 0.205298 0.501371 0.272576
Si Si6 0.270276 0.088876 0.031052
Si Si7 0.969263 0.371336 0.853150
O O1 0.702255 0.422630 0.440552
O O2 0.350476 0.697698 0.574824
O O3 0.969394 0.390217 0.353176
O O4 0.713763 0.152217 0.760635
O O5 0.000000 0.000000 0.500000
O O6 0.969563 0.755513 0.896081
O O7 0.311348 0.305110 0.900152
O O8 0.186547 0.616761 0.936925
O O9 0.400206 0.226351 0.279160
O O10 0.704636 0.317328 0.883304
O O11 0.808821 0.871892 0.161369
O O12 0.593931 0.005269 0.111305
O O13 0.136178 0.614324 0.157470
O O14 0.000000 0.500000 0.500000
#
# Coordination Sequence:
#
# PCOD9111509 Si02
#       7
#     1   2   2   2   2   2   2
#     4  12  24  36  58  98 134 184 226 260 328 406
#     4  12  23  40  63  96 142 183 221 269 332 412
#     4  10  21  39  63  97 138 173 222 269 332 417
#     4  10  24  46  72  99 137 178 230 290 343 404
#     4  11  25  48  73 101 129 180 238 289 348 405
#     4  10  20  43  65  93 139 177 213 277 339 409
#     4  11  24  45  68 100 138 182 220 283 343 409
#
# _framework density 23.411134000000001
#
# number of rings (size 3 to 8) (size 9 to 14) (size 15 to 20)
#    0.000    1.231    3.077    3.231    2.154    3.692 
#   11.077    0.000    0.000    0.000    0.000    0.000 
#    0.000    0.000    0.000    0.000    0.000    0.000 
#
# Total GULP energy -72497.726398 kJ/mol
# GULP energy per Si atom -5576.748184 kJ/mol
# Density = 2.335785 g / cm^3
# Si number density = 23.411134 Si / 1000 Ang^3
#
#
#
# Elastic Constant Matrix: (Units=GPa)
#
#
# Indices 1 2 3 4 5 6 
#
# 1 -33.0413 9.7305 155.5748 105.7719 105.3823 -13.6182
# 2 9.7305 124.4524 45.7426 27.4539 0.5659 19.7613
# 3 155.5748 45.7426 -24.0469 -77.0273 -80.2811 40.4302
# 4 105.7719 27.4539 -77.0273 -30.7564 -62.7022 16.7491
# 5 105.3823 0.5659 -80.2811 -62.7022 -26.2929 19.9234
# 6 -13.6182 19.7613 40.4302 16.7491 19.9234 18.8716
#
#
#
# Elastic Compliance Matrix: (Units=1/GPa)
#
#
# Indices 1 2 3 4 5 6 
#
# 1 0.006093 -0.001187 0.002148 0.004046 0.003473 -0.006221
# 2 -0.001187 0.011344 -0.001379 -0.005200 0.004547 -0.009967
# 3 0.002148 -0.001379 0.010137 -0.008004 -0.006717 -0.004529
# 4 0.004046 -0.005200 -0.008004 0.025793 -0.010546 0.013754
# 5 0.003473 0.004547 -0.006717 -0.010546 0.021073 -0.000753
# 6 -0.006221 -0.009967 -0.004529 0.013754 -0.000753 0.057229
#
#
# Mechanical properties :
#
#
# Convention : Reuss Voigt Hill
#
# Bulk Modulus (GPa) = 37.39669 54.38444 45.89056
# Shear Modulus (GPa) = 35.35699 -17.21446 9.07127
#
# Velocity S-wave (km/s) = 3.89043 -2.71460 1.97058
# Velocity P-wave (km/s) = 6.01574 3.66813 4.98218
#
# Compressibility (1/GPa) = 0.02674034
#
# Stress axis : x y z
#
# Youngs Moduli (GPa) = 164.12890 88.15422 98.64649
#
# Poissons Ratio (x) = 0.10460 -0.21193
# Poissons Ratio (y) = 0.19474 0.13599
# Poissons Ratio (z) = -0.35261 0.12153
#
# Static dielectric constant tensor:
#      x y z
#    x 1.671010 0.179990 -1.014160 
#    y 0.179990 1.750020 0.811380 
#    z -1.014160 0.811380 -3.106570 
# 
# From -- ./inp_files/170835.got.cif
#   From: 2010.05.17/outbox.cif.g08.bks.cpg/sg2_86_cif.got.tgz:170835.got - 2010.06.03 11:33:40.
