data_PCOD9111466
_publ_section_title
;
Structure prediction by ZEFSAII (Michael W. Deem and Ramdas Pophale) SiO2 
 PCOD9111466
Probable space group: P -1
;
_chemical_formula_sum "Si O2"
_cell_formula_units_Z 14
_cell_length_a 26.703961
_cell_length_b 10.993681
_cell_length_c 12.853474
_cell_angle_alpha 149.462705
_cell_angle_beta 157.508182
_cell_angle_gamma 26.312800
_cell_volume 627.575541
_symmetry_space_group_name_H-M "P -1"
_symmetry_group_IT_number 2
_symmetry_cell_setting 'triclinic'
loop_
_space_group_symop_operation_xyz
x,y,z
-x,-y,-z
loop_
_atom_site_type_symbol
_atom_site_label
_atom_site_fract_x
_atom_site_fract_y
_atom_site_fract_z
Si Si1 0.440726 0.784418 0.239242
Si Si2 0.876476 0.430833 0.253181
Si Si3 0.697600 0.912427 0.600287
Si Si4 0.970163 0.206893 0.854832
Si Si5 0.707882 0.388987 0.329046
Si Si6 0.169882 0.740158 0.167640
Si Si7 0.647624 0.974861 0.315903
O O1 0.584069 0.489159 0.259199
O O2 0.500000 0.000000 0.500000
O O3 0.375149 0.843856 0.273113
O O4 0.309790 0.822637 0.935431
O O5 0.777619 0.650885 0.312736
O O6 0.000000 0.500000 0.500000
O O7 0.781116 0.453116 0.982665
O O8 0.960147 0.120496 0.229486
O O9 0.665024 0.667795 0.386907
O O10 0.633828 0.038259 0.457977
O O11 0.881170 0.769058 0.847566
O O12 0.869094 0.285402 0.616023
O O13 0.862201 0.366261 0.864941
O O14 0.285047 0.852392 0.483194
O O15 0.000000 0.000000 0.000000
O O16 0.500000 0.000000 0.000000
#
# Coordination Sequence:
#
# PCOD9111466 Si02
#       7
#     2   2   2   2   2   2   2
#     4   9  22  45  63  89 136 169 215 264 324 382
#     4  11  21  44  66  92 132 177 215 270 324 386
#     4  11  23  44  64  98 136 163 217 279 316 392
#     4  11  22  42  70  96 129 172 222 263 325 394
#     4  10  23  43  69  95 130 173 213 266 332 388
#     4  10  20  43  64  91 132 170 217 263 323 383
#     4  12  26  42  67 100 131 174 222 273 331 383
#
# _framework density 22.308071000000002
#
# number of rings (size 3 to 8) (size 9 to 14) (size 15 to 20)
#    0.000    1.429    5.714    0.429    2.000    5.714 
#   10.286    0.000    0.000    0.000    0.000    0.000 
#    0.000    0.000    0.000    0.000    0.000    0.000 
#
# Total GULP energy -78204.168356 kJ/mol
# GULP energy per Si atom -5586.012025 kJ/mol
# Density = 2.225730 g / cm^3
# Si number density = 22.308071 Si / 1000 Ang^3
#
#
#
# Elastic Constant Matrix: (Units=GPa)
#
#
# Indices 1 2 3 4 5 6 
#
# 1 120.3096 18.6242 50.9228 2.2081 -10.5916 -21.9090
# 2 18.6242 19.5590 6.6747 7.6067 -3.4346 -3.5473
# 3 50.9228 6.6747 165.7451 -7.8505 2.7862 -7.3124
# 4 2.2081 7.6067 -7.8505 34.8741 -5.0858 -1.9699
# 5 -10.5916 -3.4346 2.7862 -5.0858 42.0926 13.0278
# 6 -21.9090 -3.5473 -7.3124 -1.9699 13.0278 19.7223
#
#
#
# Elastic Compliance Matrix: (Units=1/GPa)
#
#
# Indices 1 2 3 4 5 6 
#
# 1 0.013363 -0.010029 -0.003066 0.001218 -0.001041 0.012713
# 2 -0.010029 0.066091 -0.000347 -0.013701 0.001847 -0.001971
# 3 -0.003066 -0.000347 0.007090 0.001711 -0.001075 0.000042
# 4 0.001218 -0.013701 0.001711 0.032419 0.002687 0.000986
# 5 -0.001041 0.001847 -0.001075 0.002687 0.030591 -0.021161
# 6 0.012713 -0.001971 0.000042 0.000986 -0.021161 0.078565
#
#
# Mechanical properties :
#
#
# Convention : Reuss Voigt Hill
#
# Bulk Modulus (GPa) = 16.76152 50.89522 33.82837
# Shear Modulus (GPa) = 18.18914 34.63061 26.40988
#
# Velocity S-wave (km/s) = 2.85855 3.94430 3.44448
# Velocity P-wave (km/s) = 4.29244 6.60360 5.56923
#
# Compressibility (1/GPa) = 0.05966045
#
# Stress axis : x y z
#
# Youngs Moduli (GPa) = 74.83248 15.13074 141.03906
#
# Poissons Ratio (x) = 0.15174 0.43239
# Poissons Ratio (y) = 0.75048 0.04897
# Poissons Ratio (z) = 0.22942 0.00525
#
# Static dielectric constant tensor:
#      x y z
#    x 1.998720 -0.081570 -0.012290 
#    y -0.081570 1.849530 -0.002540 
#    z -0.012290 -0.002540 1.834640 
# 
# From -- ./inp_files/272923.got.cif
#   From: 2010.05.17/outbox.cif.g08.bks.cpg/sg2_137_cif.got.tgz:272923.got - 2010.06.03 11:33:40.
