data_PCOD9111800
_publ_section_title
;
Structure prediction by ZEFSAII (Michael W. Deem and Ramdas Pophale) SiO2 
 PCOD9111800
Probable space group: P -1
;
_chemical_formula_sum "Si O2"
_cell_formula_units_Z 16
_cell_length_a 7.966173
_cell_length_b 5.320591
_cell_length_c 22.285181
_cell_angle_alpha 112.068258
_cell_angle_beta 117.244901
_cell_angle_gamma 49.786936
_cell_volume 636.798992
_symmetry_space_group_name_H-M "P -1"
_symmetry_group_IT_number 2
_symmetry_cell_setting 'triclinic'
loop_
_space_group_symop_operation_xyz
x,y,z
-x,-y,-z
loop_
_atom_site_type_symbol
_atom_site_label
_atom_site_fract_x
_atom_site_fract_y
_atom_site_fract_z
Si Si1 0.372133 0.022290 0.711439
Si Si2 0.574284 0.708295 0.833638
Si Si3 0.944502 0.298118 0.590015
Si Si4 0.734751 0.958155 0.682052
Si Si5 0.647592 0.150979 0.960291
Si Si6 0.742348 0.934590 0.549746
Si Si7 0.165487 0.659335 0.802502
Si Si8 0.984766 0.140573 0.918447
O O1 0.220094 0.308564 0.761287
O O2 0.192429 0.034077 0.637280
O O3 0.547483 0.730227 0.759098
O O4 0.516667 0.114176 0.703233
O O5 0.393156 0.642339 0.823668
O O6 0.834181 0.431884 0.872678
O O7 0.520976 0.032075 0.889102
O O8 0.799161 0.592303 0.641884
O O9 0.930181 0.540299 0.557540
O O10 0.823903 0.114755 0.538129
O O11 0.702150 0.104422 0.624003
O O12 0.953465 0.905939 0.745746
O O13 0.811714 0.171577 0.942612
O O14 0.500000 0.500000 0.000000
O O15 0.805884 0.888365 0.015165
O O16 0.500000 0.000000 0.500000
O O17 0.084641 0.801727 0.868004
#
# Coordination Sequence:
#
# PCOD9111800 Si02
#       8
#     2   2   2   2   2   2   2   2
#     4  11  23  43  64  96 132 175 221 284 334 410
#     4  12  24  38  66  91 126 169 219 273 346 399
#     4   9  22  40  66  99 138 183 228 284 337 405
#     4   9  22  39  65  95 134 172 227 273 344 397
#     4  11  25  46  63  89 129 167 217 275 340 409
#     4  10  20  43  70  98 142 186 230 280 343 405
#     4  11  23  42  63  93 129 165 219 271 336 408
#     4  11  25  42  64  93 126 166 219 272 338 415
#
# _framework density 25.125668000000001
#
# number of rings (size 3 to 8) (size 9 to 14) (size 15 to 20)
#    0.750    0.750    0.000    5.250    0.000    9.000 
#    0.000    1.250    0.000    0.000    0.000    0.000 
#    0.000    0.000    0.000    0.000    0.000    0.000 
#
# Total GULP energy -89413.771035 kJ/mol
# GULP energy per Si atom -5588.360690 kJ/mol
# Density = 2.506848 g / cm^3
# Si number density = 25.125668 Si / 1000 Ang^3
#
#
#
# Elastic Constant Matrix: (Units=GPa)
#
#
# Indices 1 2 3 4 5 6 
#
# 1 55.5870 6.5409 13.5497 9.7904 -4.2632 8.8095
# 2 6.5409 68.0686 19.8481 -3.0139 0.5154 7.7195
# 3 13.5497 19.8481 108.8942 -18.8671 12.4833 -1.3585
# 4 9.7904 -3.0139 -18.8671 45.5832 -4.0121 -1.1775
# 5 -4.2632 0.5154 12.4833 -4.0121 50.5330 7.5697
# 6 8.8095 7.7195 -1.3585 -1.1775 7.5697 34.1190
#
#
#
# Elastic Compliance Matrix: (Units=1/GPa)
#
#
# Indices 1 2 3 4 5 6 
#
# 1 0.021435 -0.000412 -0.004132 -0.006218 0.003322 -0.006557
# 2 -0.000412 0.016056 -0.003076 -0.000124 0.001137 -0.003905
# 3 -0.004132 -0.003076 0.011581 0.005274 -0.003227 0.003122
# 4 -0.006218 -0.000124 0.005274 0.025501 -0.000217 0.002772
# 5 0.003322 0.001137 -0.003227 -0.000217 0.021748 -0.006076
# 6 -0.006557 -0.003905 0.003122 0.002772 -0.006076 0.033454
#
#
# Mechanical properties :
#
#
# Convention : Reuss Voigt Hill
#
# Bulk Modulus (GPa) = 29.55740 34.71415 32.13577
# Shear Modulus (GPa) = 31.99168 38.88780 35.43974
#
# Velocity S-wave (km/s) = 3.57216 3.93839 3.75974
# Velocity P-wave (km/s) = 5.36685 5.87600 5.62719
#
# Compressibility (1/GPa) = 0.03383248
#
# Stress axis : x y z
#
# Youngs Moduli (GPa) = 46.65339 62.28080 86.35074
#
# Poissons Ratio (x) = 0.02564 0.35681
# Poissons Ratio (y) = 0.01921 0.26560
# Poissons Ratio (z) = 0.19278 0.19157
#
# Static dielectric constant tensor:
#      x y z
#    x 1.948390 0.010430 -0.030740 
#    y 0.010430 2.124120 -0.019670 
#    z -0.030740 -0.019670 1.987390 
# 
# From -- ./inp_files/605907.got.cif
#   From: 2010.05.17/outbox.cif.g08.bks.cpg/sg2_303_cif.got.tgz:605907.got - 2010.06.03 11:33:40.
