data_PCOD9111914
_publ_section_title
;
Structure prediction by ZEFSAII (Michael W. Deem and Ramdas Pophale) SiO2 
 PCOD9111914
Probable space group: P -1
;
_chemical_formula_sum "Si O2"
_cell_formula_units_Z 16
_cell_length_a 13.909770
_cell_length_b 11.514611
_cell_length_c 8.334451
_cell_angle_alpha 124.286663
_cell_angle_beta 39.299123
_cell_angle_gamma 126.531921
_cell_volume 665.392362
_symmetry_space_group_name_H-M "P -1"
_symmetry_group_IT_number 2
_symmetry_cell_setting 'triclinic'
loop_
_space_group_symop_operation_xyz
x,y,z
-x,-y,-z
loop_
_atom_site_type_symbol
_atom_site_label
_atom_site_fract_x
_atom_site_fract_y
_atom_site_fract_z
Si Si1 0.589356 0.269753 0.423595
Si Si2 0.686847 0.558605 0.354234
Si Si3 0.136816 0.564417 0.238956
Si Si4 0.940359 0.025756 0.850020
Si Si5 0.832403 0.173803 0.829787
Si Si6 0.403307 0.794459 0.264020
Si Si7 0.254792 0.154838 0.289223
Si Si8 0.737697 0.943726 0.354428
O O1 0.683851 0.440539 0.407449
O O2 0.609009 0.222547 0.542046
O O3 0.399955 0.212592 0.590028
O O4 0.329198 0.805158 0.872751
O O5 0.500000 0.500000 0.500000
O O6 0.272625 0.285171 0.490330
O O7 0.804744 0.540369 0.043896
O O8 0.100421 0.690983 0.272724
O O9 0.291331 0.650921 0.209312
O O10 0.000000 0.500000 0.500000
O O11 0.110994 0.116062 0.314312
O O12 0.100419 0.054563 0.765187
O O13 0.932299 0.160117 0.850367
O O14 0.797719 0.989628 0.132126
O O15 0.778659 0.004665 0.707702
O O16 0.343010 0.931408 0.396837
O O17 0.581595 0.815811 0.994338
#
# Coordination Sequence:
#
# PCOD9111914 Si02
#       8
#     2   2   2   2   2   2   2   2
#     4  11  21  41  76 113 151 206 261 315 386 473
#     4  11  25  48  75 114 156 204 263 325 391 467
#     4  11  27  51  75 112 156 210 264 323 399 469
#     4   9  20  39  72 117 163 203 256 330 390 446
#     4   9  20  45  80 109 147 207 266 314 385 469
#     4  12  21  42  76 113 156 207 260 320 385 470
#     4  10  20  43  78 117 156 199 265 318 387 474
#     4  11  19  39  72 120 160 199 263 327 377 465
#
# _framework density 24.045964000000001
#
# number of rings (size 3 to 8) (size 9 to 14) (size 15 to 20)
#    0.750    0.750    5.000    0.375    0.000    2.000 
#    6.750    5.000    0.000    1.500    0.000    0.000 
#    0.000    0.000    0.000    0.000    0.000    0.000 
#
# Total GULP energy -89428.559460 kJ/mol
# GULP energy per Si atom -5589.284966 kJ/mol
# Density = 2.399123 g / cm^3
# Si number density = 24.045964 Si / 1000 Ang^3
#
#
#
# Elastic Constant Matrix: (Units=GPa)
#
#
# Indices 1 2 3 4 5 6 
#
# 1 132.8373 56.4647 57.6141 -16.6146 -1.3889 -3.3217
# 2 56.4647 150.8796 78.1591 3.3235 14.0223 5.9497
# 3 57.6141 78.1591 190.5097 -21.7856 13.6366 -6.2741
# 4 -16.6146 3.3235 -21.7856 36.8943 -0.9470 5.9669
# 5 -1.3889 14.0223 13.6366 -0.9470 32.1616 -2.0202
# 6 -3.3217 5.9497 -6.2741 5.9669 -2.0202 27.6129
#
#
#
# Elastic Compliance Matrix: (Units=1/GPa)
#
#
# Indices 1 2 3 4 5 6 
#
# 1 0.010142 -0.003478 -0.001344 0.003995 0.002705 0.000999
# 2 -0.003478 0.010252 -0.003477 -0.004184 -0.003442 -0.002765
# 3 -0.001344 -0.003477 0.007698 0.003993 -0.001603 0.001357
# 4 0.003995 -0.004184 0.003993 0.032414 0.000966 -0.004644
# 5 0.002705 -0.003442 -0.001603 0.000966 0.033604 0.002953
# 6 0.000999 -0.002765 0.001357 -0.004644 0.002953 0.038459
#
#
# Mechanical properties :
#
#
# Convention : Reuss Voigt Hill
#
# Bulk Modulus (GPa) = 87.00657 95.41138 91.20897
# Shear Modulus (GPa) = 32.67976 38.13301 35.40638
#
# Velocity S-wave (km/s) = 3.69053 3.98658 3.84141
# Velocity P-wave (km/s) = 7.37713 7.80739 7.59531
#
# Compressibility (1/GPa) = 0.01149339
#
# Stress axis : x y z
#
# Youngs Moduli (GPa) = 98.59668 97.54336 129.89971
#
# Poissons Ratio (x) = 0.33926 0.17461
# Poissons Ratio (y) = 0.34292 0.45169
# Poissons Ratio (z) = 0.13254 0.33918
#
# Static dielectric constant tensor:
#      x y z
#    x 1.956570 -0.033080 -0.002860 
#    y -0.033080 1.969800 0.034150 
#    z -0.002860 0.034150 1.954770 
# 
# From -- ./inp_files/307480.got.cif
#   From: 2010.05.17/outbox.cif.g08.bks.cpg/sg2_154_cif.got.tgz:307480.got - 2010.06.03 11:33:40.
