data_PCOD9111716
_publ_section_title
;
Structure prediction by ZEFSAII (Michael W. Deem and Ramdas Pophale) SiO2 
 PCOD9111716
Probable space group: P -1
;
_chemical_formula_sum "Si O2"
_cell_formula_units_Z 16
_cell_length_a 9.708068
_cell_length_b 11.615705
_cell_length_c 19.453426
_cell_angle_alpha 49.682050
_cell_angle_beta 21.999167
_cell_angle_gamma 48.247941
_cell_volume 609.595500
_symmetry_space_group_name_H-M "P -1"
_symmetry_group_IT_number 2
_symmetry_cell_setting 'triclinic'
loop_
_space_group_symop_operation_xyz
x,y,z
-x,-y,-z
loop_
_atom_site_type_symbol
_atom_site_label
_atom_site_fract_x
_atom_site_fract_y
_atom_site_fract_z
Si Si1 0.353207 0.331347 0.259364
Si Si2 0.248032 0.902798 0.095090
Si Si3 0.517860 0.808255 0.147290
Si Si4 0.953838 0.492161 0.783927
Si Si5 0.963232 0.954866 0.455017
Si Si6 0.547330 0.531188 0.704660
Si Si7 0.962135 0.175716 0.925371
Si Si8 0.111065 0.754925 0.708944
O O1 0.021124 0.456577 0.326537
O O2 0.225080 0.189722 0.408872
O O3 0.538916 0.421764 0.194346
O O4 0.618073 0.248428 0.107908
O O5 0.069989 0.839875 0.136458
O O6 0.693044 0.828530 0.903222
O O7 0.179801 0.089661 0.050045
O O8 0.206069 0.853025 0.212271
O O9 0.595149 0.624216 0.185999
O O10 0.366358 0.887120 0.259070
O O11 0.064455 0.621937 0.728910
O O12 0.500000 0.500000 0.000000
O O13 0.169447 0.320015 0.773110
O O14 0.774787 0.106132 0.439620
O O15 0.000000 0.000000 0.500000
O O16 0.369538 0.670465 0.682634
O O17 0.000000 0.500000 0.500000
O O18 0.000000 0.000000 0.000000
#
# Coordination Sequence:
#
# PCOD9111716 Si02
#       8
#     2   2   2   2   2   2   2   2
#     4  11  22  45  71  95 147 185 229 291 346 411
#     4  10  21  45  67 100 134 184 225 290 346 410
#     4  10  23  41  70  94 142 172 233 285 340 408
#     4  10  20  43  69 101 137 179 228 285 345 411
#     4  11  21  45  71  97 138 186 235 282 348 417
#     4  12  27  46  64 105 142 186 234 286 343 417
#     4  11  24  41  71 106 138 175 236 289 349 408
#     4  11  24  43  73  99 137 189 229 283 355 408
#
# _framework density 26.246912999999999
#
# number of rings (size 3 to 8) (size 9 to 14) (size 15 to 20)
#    0.000    1.250    5.000    1.500    3.500    4.000 
#    4.500    1.250    0.000    0.000    0.000    0.000 
#    0.000    0.000    0.000    0.000    0.000    0.000 
#
# Total GULP energy -89416.286653 kJ/mol
# GULP energy per Si atom -5588.517916 kJ/mol
# Density = 2.618717 g / cm^3
# Si number density = 26.246913 Si / 1000 Ang^3
#
#
#
# Elastic Constant Matrix: (Units=GPa)
#
#
# Indices 1 2 3 4 5 6 
#
# 1 134.0054 59.1321 10.8073 0.5449 29.4797 4.1570
# 2 59.1321 195.7761 47.0875 -38.4143 13.2232 -16.8129
# 3 10.8073 47.0875 60.7483 -13.0643 4.2795 -5.3962
# 4 0.5449 -38.4143 -13.0643 40.9587 -3.2212 8.2669
# 5 29.4797 13.2232 4.2795 -3.2212 31.4987 -4.2894
# 6 4.1570 -16.8129 -5.3962 8.2669 -4.2894 53.6240
#
#
#
# Elastic Compliance Matrix: (Units=1/GPa)
#
#
# Indices 1 2 3 4 5 6 
#
# 1 0.011363 -0.003882 0.000640 -0.003911 -0.009793 -0.002214
# 2 -0.003882 0.008716 -0.004617 0.006532 0.001499 0.001682
# 3 0.000640 -0.004617 0.020469 0.002065 -0.001210 0.000148
# 4 -0.003911 0.006532 0.002065 0.031956 0.003623 -0.002078
# 5 -0.009793 0.001499 -0.001210 0.003623 0.041344 0.003856
# 6 -0.002214 0.001682 0.000148 -0.002078 0.003856 0.019991
#
#
# Mechanical properties :
#
#
# Convention : Reuss Voigt Hill
#
# Bulk Modulus (GPa) = 40.27533 69.39817 54.83675
# Shear Modulus (GPa) = 31.67936 43.44982 37.56459
#
# Velocity S-wave (km/s) = 3.47792 4.07311 3.78722
# Velocity P-wave (km/s) = 5.61302 6.97267 6.32946
#
# Compressibility (1/GPa) = 0.02482909
#
# Stress axis : x y z
#
# Youngs Moduli (GPa) = 88.00680 114.73707 48.85553
#
# Poissons Ratio (x) = 0.44541 -0.03125
# Poissons Ratio (y) = 0.34164 0.22554
# Poissons Ratio (z) = -0.05629 0.52969
#
# Static dielectric constant tensor:
#      x y z
#    x 2.111400 -0.153920 -0.041800 
#    y -0.153920 2.084240 -0.051880 
#    z -0.041800 -0.051880 2.014790 
# 
# From -- ./inp_files/559734.got.cif
#   From: 2010.05.17/outbox.cif.g08.bks.cpg/sg2_280_cif.got.tgz:559734.got - 2010.06.03 11:33:40.
