data_PCOD9111560
_publ_section_title
;
Structure prediction by ZEFSAII (Michael W. Deem and Ramdas Pophale) SiO2 
 PCOD9111560
Probable space group: P -1
;
_chemical_formula_sum "Si O2"
_cell_formula_units_Z 14
_cell_length_a 16.942189
_cell_length_b 5.868521
_cell_length_c 9.253500
_cell_angle_alpha 61.214535
_cell_angle_beta 69.344977
_cell_angle_gamma 110.395514
_cell_volume 584.683010
_symmetry_space_group_name_H-M "P -1"
_symmetry_group_IT_number 2
_symmetry_cell_setting 'triclinic'
loop_
_space_group_symop_operation_xyz
x,y,z
-x,-y,-z
loop_
_atom_site_type_symbol
_atom_site_label
_atom_site_fract_x
_atom_site_fract_y
_atom_site_fract_z
Si Si1 0.292790 0.230183 0.300960
Si Si2 0.415764 0.101969 0.705460
Si Si3 0.391807 0.721521 0.319992
Si Si4 0.901064 0.749058 0.535588
Si Si5 0.026547 0.237130 0.045618
Si Si6 0.710267 0.032604 0.887744
Si Si7 0.265708 0.669211 0.670218
O O1 0.387184 0.484568 0.276407
O O2 0.199813 0.261113 0.365384
O O3 0.312843 0.259828 0.107908
O O4 0.247983 0.877979 0.508857
O O5 0.500000 0.500000 0.500000
O O6 0.492156 0.037262 0.753481
O O7 0.360410 0.902182 0.654700
O O8 0.330439 0.031895 0.903493
O O9 0.357943 0.895969 0.188587
O O10 0.305011 0.531305 0.567808
O O11 0.839696 0.352083 0.699921
O O12 0.000000 0.000000 0.500000
O O13 0.951629 0.942775 0.296722
O O14 0.156678 0.445267 0.904535
O O15 0.000000 0.500000 0.000000
O O16 0.000000 0.000000 0.000000
#
# Coordination Sequence:
#
# PCOD9111560 Si02
#       7
#     2   2   2   2   2   2   2
#     4  10  20  43  66  92 134 179 225 278 347 434
#     4  12  24  44  68 104 134 178 233 301 363 417
#     4  10  22  44  67  92 136 181 225 280 350 429
#     4  11  24  45  65 101 139 181 239 294 359 428
#     4  12  25  45  77 107 144 196 240 295 368 429
#     4  10  24  44  68  94 136 182 230 285 358 438
#     4  11  23  43  68 101 139 179 238 292 348 428
#
# _framework density 23.944597000000002
#
# number of rings (size 3 to 8) (size 9 to 14) (size 15 to 20)
#    0.000    1.143    2.857    4.286    0.000    1.143 
#   15.429    0.000    0.000    0.000    0.000    0.000 
#    0.000    0.000    0.000    0.000    0.000    0.000 
#
# Total GULP energy -78064.810595 kJ/mol
# GULP energy per Si atom -5576.057900 kJ/mol
# Density = 2.389010 g / cm^3
# Si number density = 23.944597 Si / 1000 Ang^3
#
#
#
# Elastic Constant Matrix: (Units=GPa)
#
#
# Indices 1 2 3 4 5 6 
#
# 1 46.8873 33.4873 2.1606 -3.8994 -7.9672 28.4248
# 2 33.4873 145.8941 54.9432 19.9378 -9.0364 24.6862
# 3 2.1606 54.9432 127.9359 13.2062 -13.0369 -5.4225
# 4 -3.8994 19.9378 13.2062 51.9619 6.8984 -9.0811
# 5 -7.9672 -9.0364 -13.0369 6.8984 27.9703 -0.5398
# 6 28.4248 24.6862 -5.4225 -9.0811 -0.5398 32.3843
#
#
#
# Elastic Compliance Matrix: (Units=1/GPa)
#
#
# Indices 1 2 3 4 5 6 
#
# 1 0.053007 -0.003183 0.000542 -0.004763 0.014628 -0.045101
# 2 -0.003183 0.011470 -0.004499 -0.005157 0.001817 -0.008119
# 3 0.000542 -0.004499 0.010376 -0.000567 0.003766 0.004595
# 4 -0.004763 -0.005157 -0.000567 0.024811 -0.009120 0.014822
# 5 0.014628 0.001817 0.003766 -0.009120 0.044213 -0.015414
# 6 -0.045101 -0.008119 0.004595 0.014822 -0.015414 0.081323
#
#
# Mechanical properties :
#
#
# Convention : Reuss Voigt Hill
#
# Bulk Modulus (GPa) = 16.50846 55.76661 36.13753
# Shear Modulus (GPa) = 19.25507 37.80504 28.53005
#
# Velocity S-wave (km/s) = 2.83883 3.97779 3.45556
# Velocity P-wave (km/s) = 4.20175 6.66615 5.57190
#
# Compressibility (1/GPa) = 0.06057502
#
# Stress axis : x y z
#
# Youngs Moduli (GPa) = 18.86536 87.18285 96.37273
#
# Poissons Ratio (x) = 0.27749 -0.05227
# Poissons Ratio (y) = 0.06005 0.43356
# Poissons Ratio (z) = -0.01023 0.39222
#
# Static dielectric constant tensor:
#      x y z
#    x 1.994030 -0.140580 0.005820 
#    y -0.140580 2.026410 -0.156730 
#    z 0.005820 -0.156730 1.882830 
# 
# From -- ./inp_files/26874.got.cif
#   From: 2010.05.17/outbox.cif.g08.bks.cpg/sg2_14_cif.got.tgz:26874.got - 2010.06.03 11:33:40.
