data_PCOD9111358
_publ_section_title
;
Structure prediction by ZEFSAII (Michael W. Deem and Ramdas Pophale) SiO2 
 PCOD9111358
Probable space group: P -1
;
_chemical_formula_sum "Si O2"
_cell_formula_units_Z 16
_cell_length_a 6.964338
_cell_length_b 12.735001
_cell_length_c 8.708179
_cell_angle_alpha 101.901655
_cell_angle_beta 123.691683
_cell_angle_gamma 85.340091
_cell_volume 628.274184
_symmetry_space_group_name_H-M "P -1"
_symmetry_group_IT_number 2
_symmetry_cell_setting 'triclinic'
loop_
_space_group_symop_operation_xyz
x,y,z
-x,-y,-z
loop_
_atom_site_type_symbol
_atom_site_label
_atom_site_fract_x
_atom_site_fract_y
_atom_site_fract_z
Si Si1 0.753479 0.777670 0.691047
Si Si2 0.919652 0.140535 0.609081
Si Si3 0.651251 0.921136 0.396055
Si Si4 0.921900 0.647166 0.167310
Si Si5 0.440691 0.624469 0.003384
Si Si6 0.917500 0.576336 0.812073
Si Si7 0.368389 0.805182 0.777240
Si Si8 0.813159 0.084550 0.998426
O O1 0.770337 0.648832 0.655444
O O2 0.683869 0.837447 0.523476
O O3 0.009752 0.815486 0.864814
O O4 0.000000 0.000000 0.000000
O O5 0.839737 0.199360 0.436601
O O6 0.168320 0.096732 0.667919
O O7 0.944517 0.239148 0.766315
O O8 0.742730 0.039993 0.528820
O O9 0.395492 0.913191 0.212380
O O10 0.697046 0.671673 0.179009
O O11 0.072848 0.549500 0.264182
O O12 0.825166 0.599628 0.948534
O O13 0.500000 0.500000 0.000000
O O14 0.186694 0.616550 0.961848
O O15 0.391824 0.698691 0.856169
O O16 0.589467 0.814533 0.767363
O O17 0.320799 0.907085 0.894920
#
# Coordination Sequence:
#
# PCOD9111358 Si02
#       8
#     2   2   2   2   2   2   2   2
#     4  12  26  49  77 113 159 196 261 321 386 461
#     4  11  25  49  76 107 161 202 263 320 382 457
#     4  11  27  52  75 114 157 204 263 321 381 467
#     4  10  22  43  75 113 148 201 252 322 384 458
#     4  10  20  42  74 106 142 194 251 310 376 457
#     4  10  21  42  78 111 152 194 258 313 391 463
#     4  12  25  50  74 111 157 200 256 322 385 466
#     4  12  28  51  80 107 149 211 259 315 390 452
#
# _framework density 25.46659
#
# number of rings (size 3 to 8) (size 9 to 14) (size 15 to 20)
#    0.000    1.000    3.750    1.500    0.000    6.000 
#    2.250    7.500    0.000    0.000    0.000    0.000 
#    0.000    0.000    0.000    0.000    0.000    0.000 
#
# Total GULP energy -89285.470004 kJ/mol
# GULP energy per Si atom -5580.341875 kJ/mol
# Density = 2.540863 g / cm^3
# Si number density = 25.466590 Si / 1000 Ang^3
#
#
#
# Elastic Constant Matrix: (Units=GPa)
#
#
# Indices 1 2 3 4 5 6 
#
# 1 147.9968 18.3809 48.9151 -16.1015 20.1961 -15.3239
# 2 18.3809 124.7216 56.8730 -42.3809 9.8528 -8.0863
# 3 48.9151 56.8730 110.6307 -26.0143 12.9318 -5.5898
# 4 -16.1015 -42.3809 -26.0143 45.8638 -0.7183 8.0943
# 5 20.1961 9.8528 12.9318 -0.7183 43.4522 -2.9267
# 6 -15.3239 -8.0863 -5.5898 8.0943 -2.9267 46.8148
#
#
#
# Elastic Compliance Matrix: (Units=1/GPa)
#
#
# Indices 1 2 3 4 5 6 
#
# 1 0.008621 0.001384 -0.003628 0.001825 -0.003068 0.002120
# 2 0.001384 0.013783 -0.005019 0.010286 -0.002083 0.000326
# 3 -0.003628 -0.005019 0.013817 0.002053 -0.001310 -0.000842
# 4 0.001825 0.010286 0.002053 0.033663 -0.003465 -0.003418
# 5 -0.003068 -0.002083 -0.001310 -0.003465 0.025289 0.000660
# 6 0.002120 0.000326 -0.000842 -0.003418 0.000660 0.022643
#
#
# Mechanical properties :
#
#
# Convention : Reuss Voigt Hill
#
# Bulk Modulus (GPa) = 46.09446 70.18746 58.14096
# Shear Modulus (GPa) = 35.82321 44.50482 40.16401
#
# Velocity S-wave (km/s) = 3.75464 4.18494 3.97561
# Velocity P-wave (km/s) = 6.07747 7.13947 6.62977
#
# Compressibility (1/GPa) = 0.02169458
#
# Stress axis : x y z
#
# Youngs Moduli (GPa) = 115.99572 72.55123 72.37433
#
# Poissons Ratio (x) = -0.10041 0.26260
# Poissons Ratio (y) = -0.16054 0.36326
# Poissons Ratio (z) = 0.42087 0.36415
#
# Static dielectric constant tensor:
#      x y z
#    x 2.125570 0.005860 -0.021230 
#    y 0.005860 2.059000 -0.001440 
#    z -0.021230 -0.001440 1.971360 
# 
# From -- ./inp_files/187999.got.cif
#   From: 2010.05.17/outbox.cif.g08.bks.cpg/sg2_94_cif.got.tgz:187999.got - 2010.06.03 11:33:40.
