data_PCOD9111309
_publ_section_title
;
Structure prediction by ZEFSAII (Michael W. Deem and Ramdas Pophale) SiO2 
 PCOD9111309
Probable space group: P -1
;
_chemical_formula_sum "Si O2"
_cell_formula_units_Z 16
_cell_length_a 9.888873
_cell_length_b 18.449988
_cell_length_c 12.496894
_cell_angle_alpha 155.532791
_cell_angle_beta 65.848162
_cell_angle_gamma 127.434195
_cell_volume 674.029821
_symmetry_space_group_name_H-M "P -1"
_symmetry_group_IT_number 2
_symmetry_cell_setting 'triclinic'
loop_
_space_group_symop_operation_xyz
x,y,z
-x,-y,-z
loop_
_atom_site_type_symbol
_atom_site_label
_atom_site_fract_x
_atom_site_fract_y
_atom_site_fract_z
Si Si1 0.470441 0.321525 0.852922
Si Si2 0.597542 0.722982 0.900736
Si Si3 0.031565 0.648220 0.895899
Si Si4 0.903934 0.912301 0.201604
Si Si5 0.725865 0.217410 0.295608
Si Si6 0.100562 0.405264 0.889601
Si Si7 0.551448 0.038488 0.756667
Si Si8 0.547572 0.745166 0.693823
O O1 0.297317 0.243746 0.880300
O O2 0.412430 0.104996 0.517696
O O3 0.500000 0.500000 0.000000
O O4 0.675687 0.434270 0.987229
O O5 0.560775 0.723396 0.786981
O O6 0.469317 0.462555 0.626247
O O7 0.818783 0.853264 0.030119
O O8 0.545232 0.877866 0.167364
O O9 0.921491 0.428053 0.562744
O O10 0.018659 0.825809 0.080627
O O11 0.932643 0.604331 0.984529
O O12 0.245139 0.749305 0.983604
O O13 0.010294 0.163852 0.544096
O O14 0.637131 0.288804 0.336428
O O15 0.582385 0.111810 0.302377
O O16 0.710849 0.009512 0.974980
O O17 0.000000 0.500000 0.000000
#
# Coordination Sequence:
#
# PCOD9111309 Si02
#       8
#     2   2   2   2   2   2   2   2
#     4  12  23  41  65  94 131 177 217 252 307 393
#     4  10  22  41  66  95 124 168 209 267 324 368
#     4  12  23  42  63  96 130 169 210 259 315 384
#     4  12  24  42  66  91 136 174 208 260 316 377
#     4  10  20  42  72  92 121 170 210 265 317 378
#     4  12  26  39  61  96 134 170 212 257 313 378
#     4  11  23  39  65  95 131 162 213 259 318 379
#     4   9  20  42  70  89 122 166 217 263 322 372
#
# _framework density 23.737821
#
# number of rings (size 3 to 8) (size 9 to 14) (size 15 to 20)
#    0.000    1.000    5.000    1.875    3.500    1.000 
#    0.000    6.250    0.000    0.000    0.000    0.000 
#    0.000    0.000    0.000    0.000    0.000    0.000 
#
# Total GULP energy -89512.351334 kJ/mol
# GULP energy per Si atom -5594.521958 kJ/mol
# Density = 2.368379 g / cm^3
# Si number density = 23.737821 Si / 1000 Ang^3
#
#
#
# Elastic Constant Matrix: (Units=GPa)
#
#
# Indices 1 2 3 4 5 6 
#
# 1 73.2488 -4.4508 -8.7363 4.0738 14.3916 -32.1343
# 2 -4.4508 70.8365 -12.3147 -2.6057 6.6020 -3.1618
# 3 -8.7363 -12.3147 117.9883 -5.5404 20.1719 -27.8811
# 4 4.0738 -2.6057 -5.5404 19.5603 5.8796 0.0406
# 5 14.3916 6.6020 20.1719 5.8796 51.4075 10.4173
# 6 -32.1343 -3.1618 -27.8811 0.0406 10.4173 29.8264
#
#
#
# Elastic Compliance Matrix: (Units=1/GPa)
#
#
# Indices 1 2 3 4 5 6 
#
# 1 -0.031431 -0.014813 -0.029554 -0.015559 0.039659 -0.076890
# 2 -0.014813 0.009236 -0.008779 -0.001771 0.012167 -0.027434
# 3 -0.029554 -0.008779 -0.011604 -0.005779 0.025239 -0.052425
# 4 -0.015559 -0.001771 -0.005779 0.050734 0.006018 -0.024524
# 5 0.039659 0.012167 0.025239 0.006018 -0.018836 0.074180
# 6 -0.076890 -0.027434 -0.052425 -0.024524 0.074180 -0.127101
#
#
# Mechanical properties :
#
#
# Convention : Reuss Voigt Hill
#
# Bulk Modulus (GPa) = -7.13829 23.45223 8.15697
# Shear Modulus (GPa) = -72.03909 39.33053 -16.35428
#
# Velocity S-wave (km/s) = -5.51486 4.07488 -2.62764
# Velocity P-wave (km/s) = 6.60040 5.66045 2.40047
#
# Compressibility (1/GPa) = -0.14008962
#
# Stress axis : x y z
#
# Youngs Moduli (GPa) = -31.81572 108.26721 -86.18027
#
# Poissons Ratio (x) = 1.60378 -2.54694
# Poissons Ratio (y) = -0.47129 -0.75657
# Poissons Ratio (z) = -0.94027 0.95047
#
# Static dielectric constant tensor:
#      x y z
#    x 1.895520 -0.042250 0.011500 
#    y -0.042250 1.971040 -0.050470 
#    z 0.011500 -0.050470 1.925390 
# 
# From -- ./inp_files/186438.got.cif
#   From: 2010.05.17/outbox.cif.g08.bks.cpg/sg2_94_cif.got.tgz:186438.got - 2010.06.03 11:33:40.
