data_PCOD9111657
_publ_section_title
;
Structure prediction by ZEFSAII (Michael W. Deem and Ramdas Pophale) SiO2 
 PCOD9111657
Probable space group: P -1
;
_chemical_formula_sum "Si O2"
_cell_formula_units_Z 16
_cell_length_a 21.402855
_cell_length_b 11.597164
_cell_length_c 11.119136
_cell_angle_alpha 146.099101
_cell_angle_beta 32.424965
_cell_angle_gamma 152.868029
_cell_volume 638.874736
_symmetry_space_group_name_H-M "P -1"
_symmetry_group_IT_number 2
_symmetry_cell_setting 'triclinic'
loop_
_space_group_symop_operation_xyz
x,y,z
-x,-y,-z
loop_
_atom_site_type_symbol
_atom_site_label
_atom_site_fract_x
_atom_site_fract_y
_atom_site_fract_z
Si Si1 0.437066 0.197364 0.986148
Si Si2 0.842668 0.407560 0.121201
Si Si3 0.986073 0.380384 0.190495
Si Si4 0.975827 0.082159 0.412411
Si Si5 0.421478 0.410411 0.679289
Si Si6 0.232676 0.298976 0.370065
Si Si7 0.323789 0.865569 0.459196
Si Si8 0.866437 0.654733 0.852755
O O1 0.166804 0.135924 0.462347
O O2 0.379997 0.338825 0.135077
O O3 0.285865 0.891410 0.970292
O O4 0.566049 0.189888 0.719865
O O5 0.761889 0.456583 0.393734
O O6 0.000000 0.500000 0.000000
O O7 0.908322 0.602147 0.067051
O O8 0.025090 0.667430 0.366292
O O9 0.806916 0.177454 0.284974
O O10 0.033308 0.344261 0.210098
O O11 0.112635 0.147130 0.327509
O O12 0.029218 0.113798 0.215167
O O13 0.500000 0.500000 0.500000
O O14 0.507191 0.651924 0.845384
O O15 0.414844 0.163977 0.519273
O O16 0.253777 0.320498 0.874249
O O17 0.229088 0.632494 0.309525
#
# Coordination Sequence:
#
# PCOD9111657 Si02
#       8
#     2   2   2   2   2   2   2   2
#     4  11  25  46  70 102 146 185 242 293 354 430
#     4  12  24  44  76 108 142 189 244 298 359 424
#     4  11  23  45  73 105 146 185 239 302 361 417
#     4  10  20  43  68 106 144 177 241 292 355 419
#     4  11  27  44  70 104 145 195 243 289 361 437
#     4  11  22  39  73 103 139 190 233 293 350 428
#     4  10  24  46  68 103 144 187 237 292 362 428
#     4  10  25  44  72 105 147 188 235 307 356 430
#
# _framework density 25.044032000000001
#
# number of rings (size 3 to 8) (size 9 to 14) (size 15 to 20)
#    0.000    1.250    2.500    3.000    7.000    2.500 
#    0.000    6.250    0.000    0.000    0.000    0.000 
#    0.000    0.000    0.000    0.000    0.000    0.000 
#
# Total GULP energy -89446.249391 kJ/mol
# GULP energy per Si atom -5590.390587 kJ/mol
# Density = 2.498703 g / cm^3
# Si number density = 25.044032 Si / 1000 Ang^3
#
#
#
# Elastic Constant Matrix: (Units=GPa)
#
#
# Indices 1 2 3 4 5 6 
#
# 1 89.8717 55.4676 63.1967 -24.5561 -23.9325 -14.9224
# 2 55.4676 120.5586 51.4726 -6.0727 11.7482 4.2569
# 3 63.1967 51.4726 181.2065 -25.0167 -25.8005 -2.3799
# 4 -24.5561 -6.0727 -25.0167 40.4074 -0.1881 4.4962
# 5 -23.9325 11.7482 -25.8005 -0.1881 45.7773 -8.2823
# 6 -14.9224 4.2569 -2.3799 4.4962 -8.2823 43.7868
#
#
#
# Elastic Compliance Matrix: (Units=1/GPa)
#
#
# Indices 1 2 3 4 5 6 
#
# 1 0.042135 -0.021557 -0.001263 0.019482 0.030578 0.020170
# 2 -0.021557 0.021520 -0.003190 -0.010550 -0.020892 -0.012481
# 3 -0.001263 -0.003190 0.008080 0.003682 0.004884 0.000864
# 4 0.019482 -0.010550 0.003682 0.036555 0.016424 0.007218
# 5 0.030578 -0.020892 0.004884 0.016424 0.049710 0.020433
# 6 0.020170 -0.012481 0.000864 0.007218 0.020433 0.034096
#
#
# Mechanical properties :
#
#
# Convention : Reuss Voigt Hill
#
# Bulk Modulus (GPa) = 50.72215 81.32338 66.02277
# Shear Modulus (GPa) = 19.94519 40.76099 30.35309
#
# Velocity S-wave (km/s) = 2.82513 4.03870 3.48514
# Velocity P-wave (km/s) = 5.56228 7.36822 6.52800
#
# Compressibility (1/GPa) = 0.01971525
#
# Stress axis : x y z
#
# Youngs Moduli (GPa) = 23.73325 46.46863 123.75973
#
# Poissons Ratio (x) = 1.00173 0.15632
# Poissons Ratio (y) = 0.51162 0.39475
# Poissons Ratio (z) = 0.02998 0.14822
#
# Static dielectric constant tensor:
#      x y z
#    x 1.951770 -0.019990 0.017730 
#    y -0.019990 2.047580 0.061090 
#    z 0.017730 0.061090 2.124250 
# 
# From -- ./inp_files/471231.got.cif
#   From: 2010.05.17/outbox.cif.g08.bks.cpg/sg2_236_cif.got.tgz:471231.got - 2010.06.03 11:33:40.
