data_PCOD9111636
_publ_section_title
;
Structure prediction by ZEFSAII (Michael W. Deem and Ramdas Pophale) SiO2 
 PCOD9111636
Probable space group: P -1
;
_chemical_formula_sum "Si O2"
_cell_formula_units_Z 16
_cell_length_a 16.727486
_cell_length_b 6.462431
_cell_length_c 7.444397
_cell_angle_alpha 84.633817
_cell_angle_beta 130.409211
_cell_angle_gamma 82.197248
_cell_volume 589.245783
_symmetry_space_group_name_H-M "P -1"
_symmetry_group_IT_number 2
_symmetry_cell_setting 'triclinic'
loop_
_space_group_symop_operation_xyz
x,y,z
-x,-y,-z
loop_
_atom_site_type_symbol
_atom_site_label
_atom_site_fract_x
_atom_site_fract_y
_atom_site_fract_z
Si Si1 0.114459 0.761566 0.007790
Si Si2 0.703014 0.672381 0.061123
Si Si3 0.103987 0.295574 0.882565
Si Si4 0.365720 0.975335 0.773220
Si Si5 0.873585 0.886680 0.680933
Si Si6 0.475894 0.273290 0.720754
Si Si7 0.868683 0.416010 0.564618
Si Si8 0.646157 0.373220 0.714547
O O1 0.112359 0.523461 0.954375
O O2 0.231196 0.771435 0.102166
O O3 0.991117 0.895888 0.774928
O O4 0.124848 0.734848 0.241200
O O5 0.800131 0.763390 0.114289
O O6 0.637044 0.853049 0.082316
O O7 0.765467 0.465081 0.284213
O O8 0.644171 0.576965 0.826448
O O9 0.981812 0.334097 0.630107
O O10 0.119541 0.138490 0.090102
O O11 0.242769 0.969892 0.562896
O O12 0.448951 0.762776 0.987976
O O13 0.407202 0.095064 0.656665
O O14 0.866610 0.649159 0.624320
O O15 0.562862 0.252076 0.687217
O O16 0.394173 0.507258 0.542744
#
# Coordination Sequence:
#
# PCOD9111636 Si02
#       8
#     2   2   2   2   2   2   2   2
#     4   8  14  27  48  71  97 128 160 194 241 298
#     4  10  17  26  48  76 100 120 161 214 248 276
#     4   8  13  22  41  72 103 127 154 195 242 289
#     4  10  20  35  53  74  98 130 167 204 244 287
#     4   8  14  27  48  71  97 128 160 194 241 298
#     4  10  22  38  52  66  98 140 172 196 234 300
#     4   8  13  22  41  72 103 127 154 195 242 289
#     4  10  20  35  53  74  98 130 167 204 244 287
#
# _framework density 27.153352000000002
#
# number of rings (size 3 to 8) (size 9 to 14) (size 15 to 20)
#    0.000    3.000    0.000    4.875    0.000    2.000 
#    0.000    0.625    0.000    0.000    0.000    3.500 
#    0.000    0.000    0.000    1.125    0.000    0.000 
#
# Total GULP energy -89487.438869 kJ/mol
# GULP energy per Si atom -5592.964929 kJ/mol
# Density = 2.709155 g / cm^3
# Si number density = 27.153352 Si / 1000 Ang^3
#
#
#
# Elastic Constant Matrix: (Units=GPa)
#
#
# Indices 1 2 3 4 5 6 
#
# 1 105.3328 28.9193 17.3798 -3.5117 15.8224 0.8464
# 2 28.9193 65.8235 29.6720 -9.8548 4.7952 10.0716
# 3 17.3798 29.6720 122.6661 -9.6291 20.7855 8.1728
# 4 -3.5117 -9.8548 -9.6291 33.6754 4.5209 -17.7204
# 5 15.8224 4.7952 20.7855 4.5209 50.8753 -8.6434
# 6 0.8464 10.0716 8.1728 -17.7204 -8.6434 29.3611
#
#
#
# Elastic Compliance Matrix: (Units=1/GPa)
#
#
# Indices 1 2 3 4 5 6 
#
# 1 0.011262 -0.004788 0.000066 0.000607 -0.002999 0.000783
# 2 -0.004788 0.019928 -0.003732 0.001893 0.000211 -0.004454
# 3 0.000066 -0.003732 0.009989 0.001310 -0.004197 -0.001947
# 4 0.000607 0.001893 0.001310 0.044158 -0.000498 0.025473
# 5 -0.002999 0.000211 -0.004197 -0.000498 0.023661 0.007847
# 6 0.000783 -0.004454 -0.001947 0.025473 0.007847 0.053790
#
#
# Mechanical properties :
#
#
# Convention : Reuss Voigt Hill
#
# Bulk Modulus (GPa) = 41.20194 49.52941 45.36567
# Shear Modulus (GPa) = 26.62595 37.30579 31.96587
#
# Velocity S-wave (km/s) = 3.13481 3.71063 3.43481
# Velocity P-wave (km/s) = 5.32066 6.05298 5.69860
#
# Compressibility (1/GPa) = 0.02427070
#
# Stress axis : x y z
#
# Youngs Moduli (GPa) = 88.79545 50.18088 100.10583
#
# Poissons Ratio (x) = 0.24027 -0.00664
# Poissons Ratio (y) = 0.42517 0.37363
# Poissons Ratio (z) = -0.00589 0.18729
#
# Static dielectric constant tensor:
#      x y z
#    x 2.096760 0.029080 -0.023140 
#    y 0.029080 2.174900 -0.020570 
#    z -0.023140 -0.020570 2.084550 
# 
# From -- ./inp_files/292373.got.cif
#   From: 2010.05.17/outbox.cif.g08.bks.cpg/sg2_147_cif.got.tgz:292373.got - 2010.06.03 11:33:40.
