data_PCOD9111627
_publ_section_title
;
Structure prediction by ZEFSAII (Michael W. Deem and Ramdas Pophale) SiO2 
 PCOD9111627
Probable space group: P -1
;
_chemical_formula_sum "Si O2"
_cell_formula_units_Z 16
_cell_length_a 11.599715
_cell_length_b 9.294940
_cell_length_c 8.412282
_cell_angle_alpha 47.157845
_cell_angle_beta 85.532320
_cell_angle_gamma 89.228651
_cell_volume 662.050357
_symmetry_space_group_name_H-M "P -1"
_symmetry_group_IT_number 2
_symmetry_cell_setting 'triclinic'
loop_
_space_group_symop_operation_xyz
x,y,z
-x,-y,-z
loop_
_atom_site_type_symbol
_atom_site_label
_atom_site_fract_x
_atom_site_fract_y
_atom_site_fract_z
Si Si1 0.635404 0.727307 0.664578
Si Si2 0.567634 0.478796 0.343387
Si Si3 0.295505 0.702988 0.999398
Si Si4 0.907302 0.938403 0.786125
Si Si5 0.954571 0.390113 0.929800
Si Si6 0.880410 0.788784 0.535066
Si Si7 0.539990 0.883245 0.858636
Si Si8 0.295849 0.790172 0.299881
O O1 0.515027 0.672836 0.633461
O O2 0.669379 0.514580 0.892618
O O3 0.746360 0.791688 0.498426
O O4 0.613172 0.877620 0.693198
O O5 0.500000 0.500000 0.500000
O O6 0.687485 0.381661 0.444745
O O7 0.571203 0.687154 0.098738
O O8 0.167454 0.730070 0.927435
O O9 0.284066 0.702396 0.192278
O O10 0.405102 0.853901 0.847639
O O11 0.882026 0.859257 0.668327
O O12 0.804846 0.064378 0.764168
O O13 0.022797 0.078731 0.660989
O O14 0.946277 0.752647 0.023021
O O15 0.920508 0.566102 0.688452
O O16 0.000000 0.500000 0.000000
O O17 0.584946 0.074147 0.805230
#
# Coordination Sequence:
#
# PCOD9111627 Si02
#       8
#     2   2   2   2   2   2   2   2
#     4  10  20  43  67  95 129 168 221 267 315 389
#     4  11  23  41  66  94 135 173 207 258 336 388
#     4  10  21  39  66  92 130 167 210 265 325 384
#     4  10  21  39  60  91 125 159 217 265 313 377
#     4   9  20  40  65  85 119 170 212 260 323 368
#     4   9  19  41  62  88 122 164 210 272 311 369
#     4  11  23  43  67  98 133 169 218 267 318 388
#     4  12  24  41  64  98 136 167 211 270 325 392
#
# _framework density 24.167346999999999
#
# number of rings (size 3 to 8) (size 9 to 14) (size 15 to 20)
#    0.000    1.750    3.750    1.875    0.000    3.000 
#   15.750    2.500    0.000    0.000    0.000    0.000 
#    0.000    0.000    0.000    0.000    0.000    0.000 
#
# Total GULP energy -89465.110097 kJ/mol
# GULP energy per Si atom -5591.569381 kJ/mol
# Density = 2.411234 g / cm^3
# Si number density = 24.167347 Si / 1000 Ang^3
#
#
#
# Elastic Constant Matrix: (Units=GPa)
#
#
# Indices 1 2 3 4 5 6 
#
# 1 122.6254 18.6128 35.0543 -19.9236 20.8057 -0.2741
# 2 18.6128 77.1161 16.7043 -13.5074 10.3657 2.7937
# 3 35.0543 16.7043 58.9877 -17.9786 13.9326 -11.5132
# 4 -19.9236 -13.5074 -17.9786 27.8635 -2.2931 4.2634
# 5 20.8057 10.3657 13.9326 -2.2931 33.8372 -20.4908
# 6 -0.2741 2.7937 -11.5132 4.2634 -20.4908 49.5322
#
#
#
# Elastic Compliance Matrix: (Units=1/GPa)
#
#
# Indices 1 2 3 4 5 6 
#
# 1 0.011604 0.000385 -0.004284 0.005791 -0.007973 -0.004750
# 2 0.000385 0.015513 -0.001932 0.006716 -0.006523 -0.004598
# 3 -0.004284 -0.001932 0.025190 0.011410 -0.004497 0.003098
# 4 0.005791 0.006716 0.011410 0.050757 -0.010842 -0.006549
# 5 -0.007973 -0.006523 -0.004497 -0.010842 0.050300 0.021020
# 6 -0.004750 -0.004598 0.003098 -0.006549 0.021020 0.030402
#
#
# Mechanical properties :
#
#
# Convention : Reuss Voigt Hill
#
# Bulk Modulus (GPa) = 24.60284 44.38578 34.49431
# Shear Modulus (GPa) = 23.92628 34.80377 29.36503
#
# Velocity S-wave (km/s) = 3.14988 3.79900 3.48957
# Velocity P-wave (km/s) = 4.84059 6.13589 5.52632
#
# Compressibility (1/GPa) = 0.04064571
#
# Stress axis : x y z
#
# Youngs Moduli (GPa) = 86.17619 64.46346 39.69848
#
# Poissons Ratio (x) = -0.02484 0.17007
# Poissons Ratio (y) = -0.03320 0.07669
# Poissons Ratio (z) = 0.36918 0.12453
#
# Static dielectric constant tensor:
#      x y z
#    x 1.970040 0.012740 0.034740 
#    y 0.012740 1.877600 -0.022860 
#    z 0.034740 -0.022860 1.982320 
# 
# From -- ./inp_files/242101.got.cif
#   From: 2010.05.17/outbox.cif.g08.bks.cpg/sg2_122_cif.got.tgz:242101.got - 2010.06.03 11:33:40.
