data_PCOD9111958
_publ_section_title
;
Structure prediction by ZEFSAII (Michael W. Deem and Ramdas Pophale) SiO2 
 PCOD9111958
Probable space group: P -1
;
_chemical_formula_sum "Si O2"
_cell_formula_units_Z 15
_cell_length_a 9.045467
_cell_length_b 6.469864
_cell_length_c 17.751929
_cell_angle_alpha 121.548698
_cell_angle_beta 131.531782
_cell_angle_gamma 75.097320
_cell_volume 656.166661
_symmetry_space_group_name_H-M "P -1"
_symmetry_group_IT_number 2
_symmetry_cell_setting 'triclinic'
loop_
_space_group_symop_operation_xyz
x,y,z
-x,-y,-z
loop_
_atom_site_type_symbol
_atom_site_label
_atom_site_fract_x
_atom_site_fract_y
_atom_site_fract_z
Si Si1 0.500000 0.000000 0.500000
Si Si2 0.801880 0.242648 0.755591
Si Si3 0.054293 0.746051 0.939199
Si Si4 0.424176 0.496098 0.059606
Si Si5 0.426705 0.098970 0.708197
Si Si6 0.817361 0.791855 0.483555
Si Si7 0.227422 0.761702 0.688856
Si Si8 0.813413 0.014830 0.123405
O O1 0.705588 0.174812 0.629298
O O2 0.361539 0.211281 0.517871
O O3 0.625964 0.135641 0.732713
O O4 0.869489 0.530887 0.841445
O O5 0.992893 0.110198 0.811967
O O6 0.128632 0.798151 0.888957
O O7 0.233430 0.643993 0.024071
O O8 0.000000 0.000000 0.000000
O O9 0.576311 0.652230 0.197416
O O10 0.500000 0.500000 0.000000
O O11 0.348431 0.214450 0.999792
O O12 0.252255 0.043004 0.576075
O O13 0.408892 0.885354 0.722414
O O14 0.808432 0.526116 0.391908
O O15 0.029969 0.859130 0.606855
O O16 0.251410 0.852311 0.799162
#
# Coordination Sequence:
#
# PCOD9111958 Si02
#       8
#     1   2   2   2   2   2   2   2
#     4  10  20  44  64  96 132 168 218 268 322 388
#     4  10  23  43  66  96 132 172 221 270 328 390
#     4  11  25  44  68  96 131 178 225 266 325 394
#     4  11  24  41  64  99 132 166 217 269 329 387
#     4  11  23  42  69  94 135 171 217 276 327 385
#     4  10  24  42  67  95 133 175 217 272 324 395
#     4  11  23  43  66 101 131 168 225 264 335 391
#     4  11  23  43  70  95 136 174 212 276 329 391
#
# _framework density 22.860047000000002
#
# number of rings (size 3 to 8) (size 9 to 14) (size 15 to 20)
#    0.000    1.333    2.667    2.000    1.867    8.000 
#    9.600    3.333    0.000    0.000    0.000    0.000 
#    0.000    0.000    0.000    0.000    0.000    0.000 
#
# Total GULP energy -83629.590243 kJ/mol
# GULP energy per Si atom -5575.306016 kJ/mol
# Density = 2.280802 g / cm^3
# Si number density = 22.860047 Si / 1000 Ang^3
#
#
#
# Elastic Constant Matrix: (Units=GPa)
#
#
# Indices 1 2 3 4 5 6 
#
# 1 62.2720 22.8126 -4.9108 -2.5186 0.9186 1.2408
# 2 22.8126 58.0479 14.8036 0.6498 1.6397 -3.1657
# 3 -4.9108 14.8036 102.0757 -9.0033 1.9649 -9.7013
# 4 -2.5186 0.6498 -9.0033 22.0023 -5.6415 0.6485
# 5 0.9186 1.6397 1.9649 -5.6415 27.6162 5.4372
# 6 1.2408 -3.1657 -9.7013 0.6485 5.4372 42.2288
#
#
#
# Elastic Compliance Matrix: (Units=1/GPa)
#
#
# Indices 1 2 3 4 5 6 
#
# 1 0.019460 -0.008355 0.002382 0.003619 0.000572 -0.000780
# 2 -0.008355 0.021613 -0.003697 -0.003589 -0.001730 0.001294
# 3 0.002382 -0.003697 0.011078 0.004831 -0.000081 0.002134
# 4 0.003619 -0.003589 0.004831 0.050645 0.010366 -0.001378
# 5 0.000572 -0.001730 -0.000081 0.010366 0.039482 -0.005408
# 6 -0.000780 0.001294 0.002134 -0.001378 -0.005408 0.025008
#
#
# Mechanical properties :
#
#
# Convention : Reuss Voigt Hill
#
# Bulk Modulus (GPa) = 30.47609 31.97851 31.22730
# Shear Modulus (GPa) = 25.30831 31.01546 28.16188
#
# Velocity S-wave (km/s) = 3.33092 3.68741 3.51369
# Velocity P-wave (km/s) = 5.30602 5.66997 5.49101
#
# Compressibility (1/GPa) = 0.03281261
#
# Stress axis : x y z
#
# Youngs Moduli (GPa) = 51.38615 46.26873 90.27022
#
# Poissons Ratio (x) = 0.38656 -0.21501
# Poissons Ratio (y) = 0.42931 0.33369
# Poissons Ratio (z) = -0.12240 0.17104
#
# Static dielectric constant tensor:
#      x y z
#    x 1.901540 0.003400 -0.023860 
#    y 0.003400 1.875820 -0.029540 
#    z -0.023860 -0.029540 1.857360 
# 
# From -- ./inp_files/38425.got.cif
#   From: 2010.05.17/outbox.cif.g08.bks.cpg/sg2_20_cif.got.tgz:38425.got - 2010.06.03 11:33:40.
