data_PCOD9111302
_publ_section_title
;
Structure prediction by ZEFSAII (Michael W. Deem and Ramdas Pophale) SiO2 
 PCOD9111302
Probable space group: P -1
;
_chemical_formula_sum "Si O2"
_cell_formula_units_Z 13
_cell_length_a 5.059357
_cell_length_b 9.359201
_cell_length_c 15.524479
_cell_angle_alpha 70.660530
_cell_angle_beta 87.464965
_cell_angle_gamma 127.703152
_cell_volume 517.945653
_symmetry_space_group_name_H-M "P -1"
_symmetry_group_IT_number 2
_symmetry_cell_setting 'triclinic'
loop_
_space_group_symop_operation_xyz
x,y,z
-x,-y,-z
loop_
_atom_site_type_symbol
_atom_site_label
_atom_site_fract_x
_atom_site_fract_y
_atom_site_fract_z
Si Si1 0.554280 0.488989 0.646363
Si Si2 0.163025 0.094353 0.805002
Si Si3 0.488827 0.956525 0.742078
Si Si4 0.500000 0.500000 0.000000
Si Si5 0.735033 0.466851 0.187754
Si Si6 0.484389 0.179254 0.956176
Si Si7 0.025143 0.690549 0.457496
O O1 0.520518 0.304298 0.716919
O O2 0.425480 0.528530 0.723441
O O3 0.905509 0.686691 0.556967
O O4 0.271573 0.381934 0.594274
O O5 0.185926 0.109019 0.903791
O O6 0.193618 0.935642 0.803113
O O7 0.824442 0.050416 0.780703
O O8 0.334172 0.736795 0.765547
O O9 0.625797 0.098889 0.627438
O O10 0.569948 0.479262 0.102228
O O11 0.501692 0.691464 0.992142
O O12 0.147186 0.651346 0.132739
O O13 0.500000 0.000000 0.000000
O O14 0.000000 0.500000 0.500000
#
# Coordination Sequence:
#
# PCOD9111302 Si02
#       7
#     2   2   2   1   2   2   2
#     4  10  22  42  73 102 148 197 254 306 383 456
#     4  11  23  47  74 108 147 210 251 314 384 465
#     4  11  26  44  78 112 159 197 260 317 389 460
#     4  12  28  48  78 110 150 196 260 330 384 468
#     4  12  28  48  71 113 155 199 254 332 385 464
#     4  12  28  50  77 109 151 207 269 320 400 470
#     4  10  20  42  72 108 143 203 257 307 376 476
#
# _framework density 25.099159
#
# number of rings (size 3 to 8) (size 9 to 14) (size 15 to 20)
#    0.000    0.923    3.077    3.231    4.308    1.231 
#    0.000    0.769    0.000    0.000    0.000    0.000 
#    0.000    0.000    0.000    0.000    0.000    0.000 
#
# Total GULP energy -72472.790179 kJ/mol
# GULP energy per Si atom -5574.830014 kJ/mol
# Density = 2.504203 g / cm^3
# Si number density = 25.099159 Si / 1000 Ang^3
#
#
#
# Elastic Constant Matrix: (Units=GPa)
#
#
# Indices 1 2 3 4 5 6 
#
# 1 72.3970 22.2577 26.7297 2.3883 0.1106 -12.8968
# 2 22.2577 132.9623 54.6456 -5.6354 -6.3614 -33.9692
# 3 26.7297 54.6456 143.0176 8.0817 1.2398 -4.5602
# 4 2.3883 -5.6354 8.0817 52.5740 -16.2439 -5.4767
# 5 0.1106 -6.3614 1.2398 -16.2439 32.6946 4.1386
# 6 -12.8968 -33.9692 -4.5602 -5.4767 4.1386 39.0023
#
#
#
# Elastic Compliance Matrix: (Units=1/GPa)
#
#
# Indices 1 2 3 4 5 6 
#
# 1 0.015731 -0.000417 -0.002624 -0.000080 -0.000656 0.004590
# 2 -0.000417 0.012502 -0.004633 0.004202 0.003375 0.010441
# 3 -0.002624 -0.004633 0.009308 -0.002897 -0.002180 -0.003990
# 4 -0.000080 0.004202 -0.002897 0.024286 0.012311 0.005398
# 5 -0.000656 0.003375 -0.002180 0.012311 0.037415 0.000227
# 6 0.004590 0.010441 -0.003990 0.005398 0.000227 0.036518
#
#
# Mechanical properties :
#
#
# Convention : Reuss Voigt Hill
#
# Bulk Modulus (GPa) = 45.05870 61.73812 53.39841
# Shear Modulus (GPa) = 31.54462 41.17045 36.35754
#
# Velocity S-wave (km/s) = 3.54898 4.05447 3.81012
# Velocity P-wave (km/s) = 5.89788 6.82418 6.37787
#
# Compressibility (1/GPa) = 0.02219327
#
# Stress axis : x y z
#
# Youngs Moduli (GPa) = 63.56819 79.98990 107.43362
#
# Poissons Ratio (x) = 0.03335 0.28193
# Poissons Ratio (y) = 0.02651 0.49769
# Poissons Ratio (z) = 0.16682 0.37056
#
# Static dielectric constant tensor:
#      x y z
#    x 2.036490 -0.035310 -0.117310 
#    y -0.035310 2.038170 -0.112450 
#    z -0.117310 -0.112450 1.985140 
# 
# From -- ./inp_files/479713.got.cif
#   From: 2010.05.17/outbox.cif.g08.bks.cpg/sg2_240_cif.got.tgz:479713.got - 2010.06.03 11:33:40.
