data_PCOD9111184
_publ_section_title
;
Structure prediction by ZEFSAII (Michael W. Deem and Ramdas Pophale) SiO2 
 PCOD9111184
Probable space group: P -1
;
_chemical_formula_sum "Si O2"
_cell_formula_units_Z 12
_cell_length_a 5.052111
_cell_length_b 7.883567
_cell_length_c 16.916911
_cell_angle_alpha 129.887396
_cell_angle_beta 89.702349
_cell_angle_gamma 114.733850
_cell_volume 434.812772
_symmetry_space_group_name_H-M "P -1"
_symmetry_group_IT_number 2
_symmetry_cell_setting 'triclinic'
loop_
_space_group_symop_operation_xyz
x,y,z
-x,-y,-z
loop_
_atom_site_type_symbol
_atom_site_label
_atom_site_fract_x
_atom_site_fract_y
_atom_site_fract_z
Si Si1 0.296264 0.744061 0.353399
Si Si2 0.747745 0.558404 0.088943
Si Si3 0.093332 0.367298 0.526305
Si Si4 0.196228 0.916210 0.026364
Si Si5 0.701472 0.915814 0.677240
Si Si6 0.408888 0.558086 0.770034
O O1 0.523082 0.639695 0.333397
O O2 0.174714 0.783027 0.450448
O O3 0.944648 0.509385 0.255787
O O4 0.415126 0.936915 0.335482
O O5 0.554726 0.487588 0.150634
O O6 0.500000 0.500000 0.000000
O O7 0.886053 0.367237 0.028822
O O8 0.026781 0.856755 0.199885
O O9 0.420509 0.640497 0.632558
O O10 0.156821 0.175133 0.420044
O O11 0.000000 0.500000 0.500000
O O12 0.339418 0.142014 0.159103
O O13 0.500000 0.000000 0.000000
O O14 0.000000 0.000000 0.000000
#
# Coordination Sequence:
#
# PCOD9111184 Si02
#       6
#     2   2   2   2   2   2
#     4  11  25  48  79 108 157 204 255 331 402 476
#     4  10  23  47  80 116 160 211 266 337 398 478
#     4  11  27  47  78 113 150 203 266 333 397 480
#     4  10  20  42  70 102 149 204 258 311 385 476
#     4  10  25  49  75 113 155 203 265 324 406 477
#     4  10  23  45  73 112 150 210 258 312 406 483
#
# _framework density 27.598087
#
# number of rings (size 3 to 8) (size 9 to 14) (size 15 to 20)
#    0.000    1.667    0.000    3.500    9.333    2.000 
#    6.000   10.000    0.000    1.000    0.000    0.000 
#    0.000    0.000    0.000    0.000    0.000    0.000 
#
# Total GULP energy -66981.891212 kJ/mol
# GULP energy per Si atom -5581.824268 kJ/mol
# Density = 2.753527 g / cm^3
# Si number density = 27.598087 Si / 1000 Ang^3
#
#
#
# Elastic Constant Matrix: (Units=GPa)
#
#
# Indices 1 2 3 4 5 6 
#
# 1 134.5519 54.9136 35.9726 18.4102 -2.2059 -15.3580
# 2 54.9136 177.4851 43.8450 15.6366 -9.6693 18.8759
# 3 35.9726 43.8450 182.5942 23.4290 21.7339 -24.3341
# 4 18.4102 15.6366 23.4290 52.2728 -12.9078 6.1228
# 5 -2.2059 -9.6693 21.7339 -12.9078 55.2334 2.1634
# 6 -15.3580 18.8759 -24.3341 6.1228 2.1634 46.8152
#
#
#
# Elastic Compliance Matrix: (Units=1/GPa)
#
#
# Indices 1 2 3 4 5 6 
#
# 1 0.009814 -0.003395 0.000165 -0.003436 -0.001273 0.005183
# 2 -0.003395 0.007984 -0.002550 0.001344 0.002813 -0.005964
# 3 0.000165 -0.002550 0.008101 -0.004886 -0.005011 0.006164
# 4 -0.003436 0.001344 -0.004886 0.025072 0.008188 -0.007866
# 5 -0.001273 0.002813 -0.005011 0.008188 0.022678 -0.006275
# 6 0.005183 -0.005964 0.006164 -0.007866 -0.006275 0.029988
#
#
# Mechanical properties :
#
#
# Convention : Reuss Voigt Hill
#
# Bulk Modulus (GPa) = 69.74273 84.89930 77.32101
# Shear Modulus (GPa) = 41.67430 54.85762 48.26596
#
# Velocity S-wave (km/s) = 3.89014 4.46324 4.18651
# Velocity P-wave (km/s) = 6.74562 7.57563 7.17264
#
# Compressibility (1/GPa) = 0.01433841
#
# Stress axis : x y z
#
# Youngs Moduli (GPa) = 101.89031 125.25113 123.43652
#
# Poissons Ratio (x) = 0.42524 -0.02035
# Poissons Ratio (y) = 0.34593 0.31482
# Poissons Ratio (z) = -0.01680 0.31944
#
# Static dielectric constant tensor:
#      x y z
#    x 1.566540 0.896620 0.486930 
#    y 0.896620 0.978120 -0.572690 
#    z 0.486930 -0.572690 2.187350 
# 
# From -- ./inp_files/546807.got.cif
#   From: 2010.05.17/outbox.cif.g08.bks.cpg/sg2_274_cif.got.tgz:546807.got - 2010.06.03 11:33:40.
