data_PCOD9111470
_publ_section_title
;
Structure prediction by ZEFSAII (Michael W. Deem and Ramdas Pophale) SiO2 
 PCOD9111470
Probable space group: P -1
;
_chemical_formula_sum "Si O2"
_cell_formula_units_Z 14
_cell_length_a 7.102603
_cell_length_b 18.159317
_cell_length_c 12.925509
_cell_angle_alpha 22.479436
_cell_angle_beta 116.886779
_cell_angle_gamma 123.460172
_cell_volume 523.152454
_symmetry_space_group_name_H-M "P -1"
_symmetry_group_IT_number 2
_symmetry_cell_setting 'triclinic'
loop_
_space_group_symop_operation_xyz
x,y,z
-x,-y,-z
loop_
_atom_site_type_symbol
_atom_site_label
_atom_site_fract_x
_atom_site_fract_y
_atom_site_fract_z
Si Si1 0.202378 0.412107 0.682089
Si Si2 0.875217 0.358080 0.998563
Si Si3 0.900466 0.706150 0.405277
Si Si4 0.417018 0.831095 0.289129
Si Si5 0.077450 0.968908 0.304394
Si Si6 0.743294 0.903933 0.470000
Si Si7 0.336949 0.700684 0.759979
O O1 0.244818 0.323621 0.696971
O O2 0.401018 0.610296 0.524180
O O3 0.000000 0.500000 0.500000
O O4 0.127769 0.212323 0.997269
O O5 0.706002 0.336146 0.081477
O O6 0.852399 0.132201 0.249688
O O7 0.824713 0.478783 0.732700
O O8 0.128549 0.518334 0.887899
O O9 0.926704 0.863609 0.302279
O O10 0.162719 0.790980 0.318514
O O11 0.578413 0.900251 0.338260
O O12 0.500000 0.000000 0.000000
O O13 0.936874 0.859307 0.513522
O O14 0.297582 0.910625 0.443564
O O15 0.586840 0.742319 0.725242
#
# Coordination Sequence:
#
# PCOD9111470 Si02
#       7
#     2   2   2   2   2   2   2
#     4  10  21  39  67  91 134 174 207 272 329 376
#     4  10  21  44  73  91 135 176 210 273 328 375
#     4  10  20  43  64  94 135 169 213 273 319 385
#     4  11  21  38  64  95 127 171 218 263 326 388
#     4  11  23  41  67  98 132 170 218 269 321 390
#     4  12  22  41  68  96 132 172 215 268 326 383
#     4  10  24  46  67  98 131 172 221 268 321 385
#
# _framework density 26.760843000000001
#
# number of rings (size 3 to 8) (size 9 to 14) (size 15 to 20)
#    0.000    1.429    2.857    5.143    0.000    0.571 
#    5.143    7.857    0.000    0.000    0.000    0.000 
#    0.000    0.000    0.000    0.000    0.000    0.000 
#
# Total GULP energy -78526.593473 kJ/mol
# GULP energy per Si atom -5609.042391 kJ/mol
# Density = 2.669993 g / cm^3
# Si number density = 26.760843 Si / 1000 Ang^3
#
#
#
# Elastic Constant Matrix: (Units=GPa)
#
#
# Indices 1 2 3 4 5 6 
#
# 1 102.6574 40.3204 36.5755 8.3161 -19.6428 -19.9159
# 2 40.3204 136.0120 29.4088 -17.5529 -22.3095 -22.8320
# 3 36.5755 29.4088 155.8533 -7.2581 -8.2688 -12.1181
# 4 8.3161 -17.5529 -7.2581 55.4984 -7.1549 -3.6150
# 5 -19.6428 -22.3095 -8.2688 -7.1549 36.7393 14.5343
# 6 -19.9159 -22.8320 -12.1181 -3.6150 14.5343 41.7852
#
#
#
# Elastic Compliance Matrix: (Units=1/GPa)
#
#
# Indices 1 2 3 4 5 6 
#
# 1 0.012948 -0.002687 -0.002266 -0.002494 0.003224 0.002709
# 2 -0.002687 0.009998 -0.000612 0.004211 0.004161 0.002922
# 3 -0.002266 -0.000612 0.007174 0.001128 -0.000059 0.000784
# 4 -0.002494 0.004211 0.001128 0.020601 0.004888 0.001522
# 5 0.003224 0.004161 -0.000059 0.004888 0.035645 -0.008183
# 6 0.002709 0.002922 0.000784 0.001522 -0.008183 0.030025
#
#
# Mechanical properties :
#
#
# Convention : Reuss Voigt Hill
#
# Bulk Modulus (GPa) = 52.65942 67.45912 60.05927
# Shear Modulus (GPa) = 37.35518 46.01911 41.68714
#
# Velocity S-wave (km/s) = 3.74021 4.15136 3.95114
# Velocity P-wave (km/s) = 6.19458 6.94559 6.58081
#
# Compressibility (1/GPa) = 0.01898995
#
# Stress axis : x y z
#
# Youngs Moduli (GPa) = 77.23004 100.02431 139.39370
#
# Poissons Ratio (x) = 0.26875 0.31589
# Poissons Ratio (y) = 0.20751 0.08529
# Poissons Ratio (z) = 0.17502 0.06120
#
# Static dielectric constant tensor:
#      x y z
#    x 2.138300 0.000160 0.024340 
#    y 0.000160 2.059560 -0.004840 
#    z 0.024340 -0.004840 2.036240 
# 
# From -- ./inp_files/508079.got.cif
#   From: 2010.05.17/outbox.cif.g08.bks.cpg/sg2_255_cif.got.tgz:508079.got - 2010.06.03 11:33:40.
