data_PCOD9111962
_publ_section_title
;
Structure prediction by ZEFSAII (Michael W. Deem and Ramdas Pophale) SiO2 
 PCOD9111962
Probable space group: P -1
;
_chemical_formula_sum "Si O2"
_cell_formula_units_Z 15
_cell_length_a 7.567482
_cell_length_b 10.816386
_cell_length_c 11.321246
_cell_angle_alpha 71.548244
_cell_angle_beta 106.918780
_cell_angle_gamma 136.800450
_cell_volume 599.137038
_symmetry_space_group_name_H-M "P -1"
_symmetry_group_IT_number 2
_symmetry_cell_setting 'triclinic'
loop_
_space_group_symop_operation_xyz
x,y,z
-x,-y,-z
loop_
_atom_site_type_symbol
_atom_site_label
_atom_site_fract_x
_atom_site_fract_y
_atom_site_fract_z
Si Si1 0.173166 0.040931 0.631479
Si Si2 0.771462 0.681751 0.048610
Si Si3 0.234673 0.111976 0.205624
Si Si4 0.245923 0.728786 0.065453
Si Si5 0.411057 0.920506 0.810801
Si Si6 0.708123 0.441894 0.677080
Si Si7 0.401156 0.511795 0.693079
Si Si8 0.000000 0.500000 0.500000
O O1 0.460927 0.245460 0.627018
O O2 0.220078 0.908278 0.694557
O O3 0.000000 0.000000 0.500000
O O4 0.016766 0.008775 0.725687
O O5 0.730422 0.652292 0.189428
O O6 0.994419 0.691326 0.052633
O O7 0.500000 0.500000 0.000000
O O8 0.818250 0.839871 0.942034
O O9 0.358279 0.032647 0.229900
O O10 0.447734 0.302021 0.261188
O O11 0.242658 0.589762 0.171861
O O12 0.473976 0.916251 0.124968
O O13 0.296470 0.755907 0.927404
O O14 0.612523 0.540596 0.647474
O O15 0.951652 0.518804 0.624366
O O16 0.182743 0.468436 0.585061
#
# Coordination Sequence:
#
# PCOD9111962 Si02
#       8
#     2   2   2   2   2   2   2   1
#     4  11  25  44  65  96 131 169 222 266 321 386
#     4  10  21  41  64  96 133 165 214 262 327 386
#     4  11  24  43  66  97 132 170 215 269 327 382
#     4  10  20  44  65 100 129 165 221 270 323 384
#     4  10  23  40  69  96 131 169 212 271 326 379
#     4  11  25  43  70  95 130 174 217 272 323 385
#     4  11  25  43  64 100 132 172 218 264 327 390
#     4  12  24  44  66  94 130 174 218 262 326 384
#
# _framework density 25.036009
#
# number of rings (size 3 to 8) (size 9 to 14) (size 15 to 20)
#    0.000    1.333    2.667    2.000    1.867    3.200 
#    0.000    2.667    0.000    0.000    0.000    0.000 
#    0.000    0.000    0.000    0.000    0.000    0.000 
#
# Total GULP energy -83771.964448 kJ/mol
# GULP energy per Si atom -5584.797630 kJ/mol
# Density = 2.497903 g / cm^3
# Si number density = 25.036009 Si / 1000 Ang^3
#
#
#
# Elastic Constant Matrix: (Units=GPa)
#
#
# Indices 1 2 3 4 5 6 
#
# 1 180.0538 -10.5828 38.8961 -12.7450 16.8104 1.9116
# 2 -10.5828 40.9504 34.0399 24.3510 2.1743 -3.8368
# 3 38.8961 34.0399 92.3148 -23.9253 36.0808 3.0606
# 4 -12.7450 24.3510 -23.9253 8.4692 14.4543 4.5610
# 5 16.8104 2.1743 36.0808 14.4543 56.8568 -0.3558
# 6 1.9116 -3.8368 3.0606 4.5610 -0.3558 26.9783
#
#
#
# Elastic Compliance Matrix: (Units=1/GPa)
#
#
# Indices 1 2 3 4 5 6 
#
# 1 0.006401 0.001488 -0.001872 0.002947 -0.001514 -0.000548
# 2 0.001488 0.006709 0.006654 0.021479 -0.010402 -0.003675
# 3 -0.001872 0.006654 0.003791 -0.016942 0.002223 0.003543
# 4 0.002947 0.021479 -0.016942 -0.011150 0.011936 0.006810
# 5 -0.001514 -0.010402 0.002223 0.011936 0.013967 -0.003458
# 6 -0.000548 -0.003675 0.003543 0.006810 -0.003458 0.034984
#
#
# Mechanical properties :
#
#
# Convention : Reuss Voigt Hill
#
# Bulk Modulus (GPa) = 33.96840 48.66948 41.31894
# Shear Modulus (GPa) = 96.19778 35.19192 65.69485
#
# Velocity S-wave (km/s) = 6.20542 3.75327 5.12807
# Velocity P-wave (km/s) = 8.05855 6.18585 7.18348
#
# Compressibility (1/GPa) = 0.02943912
#
# Stress axis : x y z
#
# Youngs Moduli (GPa) = 156.21360 149.06192 263.81484
#
# Poissons Ratio (x) = -0.22173 0.49391
# Poissons Ratio (y) = -0.23237 -1.75540
# Poissons Ratio (z) = 0.29246 -0.99184
#
# Static dielectric constant tensor:
#      x y z
#    x 1.885780 0.011590 -0.026150 
#    y 0.011590 2.027210 0.019020 
#    z -0.026150 0.019020 1.931240 
# 
# From -- ./inp_files/362806.got.cif
#   From: 2010.05.17/outbox.cif.g08.bks.cpg/sg2_182_cif.got.tgz:362806.got - 2010.06.03 11:33:40.
