data_PCOD9111223
_publ_section_title
;
Structure prediction by ZEFSAII (Michael W. Deem and Ramdas Pophale) SiO2 
 PCOD9111223
Probable space group: P -1
;
_chemical_formula_sum "Si O2"
_cell_formula_units_Z 16
_cell_length_a 9.943826
_cell_length_b 19.253191
_cell_length_c 13.114154
_cell_angle_alpha 133.652334
_cell_angle_beta 58.076572
_cell_angle_gamma 151.680193
_cell_volume 838.719418
_symmetry_space_group_name_H-M "P -1"
_symmetry_group_IT_number 2
_symmetry_cell_setting 'triclinic'
loop_
_space_group_symop_operation_xyz
x,y,z
-x,-y,-z
loop_
_atom_site_type_symbol
_atom_site_label
_atom_site_fract_x
_atom_site_fract_y
_atom_site_fract_z
Si Si1 0.825128 0.503255 0.117070
Si Si2 0.705240 0.851031 0.904277
Si Si3 0.603294 0.378419 0.575046
Si Si4 0.432778 0.461884 0.108890
Si Si5 0.227976 0.743616 0.600711
Si Si6 0.690846 0.686352 0.570852
Si Si7 0.258529 0.914191 0.930482
Si Si8 0.815378 0.201136 0.553892
O O1 0.559532 0.318742 0.094250
O O2 0.658340 0.498747 0.107606
O O3 0.036276 0.663604 0.276703
O O4 0.000000 0.500000 0.000000
O O5 0.720692 0.782347 0.739321
O O6 0.665843 0.937297 0.967236
O O7 0.000000 0.000000 0.000000
O O8 0.521964 0.408566 0.730061
O O9 0.565852 0.245412 0.469462
O O10 0.439447 0.334127 0.497927
O O11 0.939569 0.567009 0.600276
O O12 0.085702 0.265062 0.076169
O O13 0.500000 0.500000 0.000000
O O14 0.311228 0.880676 0.770523
O O15 0.171506 0.737587 0.498396
O O16 0.500000 0.500000 0.500000
O O17 0.996333 0.797522 0.534859
O O18 0.500000 0.000000 0.000000
O O19 0.500000 0.000000 0.500000
#
# Coordination Sequence:
#
# PCOD9111223 Si02
#       8
#     2   2   2   2   2   2   2   2
#     4  12  28  46  68 102 141 184 229 286 354 407
#     4  12  24  43  74 101 134 181 235 286 341 412
#     4  10  20  42  70  95 127 180 228 277 338 400
#     4  11  25  45  67  99 143 183 225 282 350 415
#     4  10  22  41  68  99 132 173 231 279 334 405
#     4  12  21  44  72  96 130 179 235 281 336 404
#     4  11  25  43  69 104 138 178 231 284 341 411
#     4  12  27  43  69 101 139 178 227 288 344 403
#
# _framework density 19.076701
#
# number of rings (size 3 to 8) (size 9 to 14) (size 15 to 20)
#    0.000    0.750    5.000    1.500    7.000    1.000 
#    0.000    0.625    0.000    0.000    0.000    0.000 
#    0.000    0.000    0.000    0.000    0.000    0.000 
#
# Total GULP energy -89233.127787 kJ/mol
# GULP energy per Si atom -5577.070487 kJ/mol
# Density = 1.903328 g / cm^3
# Si number density = 19.076701 Si / 1000 Ang^3
#
#
#
# Elastic Constant Matrix: (Units=GPa)
#
#
# Indices 1 2 3 4 5 6 
#
# 1 546.4359 334.0474 -111.5538 -112.3981 63.4892 -182.5453
# 2 334.0474 324.5617 -101.6424 -86.2515 55.5393 -141.0995
# 3 -111.5538 -101.6424 330.1018 42.2898 -60.4222 108.6607
# 4 -112.3981 -86.2515 42.2898 63.3732 -19.9460 49.7545
# 5 63.4892 55.5393 -60.4222 -19.9460 58.5197 -43.1981
# 6 -182.5453 -141.0995 108.6607 49.7545 -43.1981 126.3677
#
#
#
# Elastic Compliance Matrix: (Units=1/GPa)
#
#
# Indices 1 2 3 4 5 6 
#
# 1 0.005894 -0.004034 -0.000760 0.002639 0.000300 0.003727
# 2 -0.004034 0.009770 -0.000172 0.003019 -0.001420 0.003556
# 3 -0.000760 -0.000172 0.004627 -0.000607 0.002469 -0.004187
# 4 0.002639 0.003019 -0.000607 0.027455 0.000951 -0.002781
# 5 0.000300 -0.001420 0.002469 0.000951 0.024463 0.004713
# 6 0.003727 0.003556 -0.004187 -0.002781 0.004713 0.023574
#
#
# Mechanical properties :
#
#
# Convention : Reuss Voigt Hill
#
# Bulk Modulus (GPa) = 96.54097 160.31130 128.42613
# Shear Modulus (GPa) = 45.80073 121.66867 83.73470
#
# Velocity S-wave (km/s) = 4.90519 7.99482 6.63242
# Velocity P-wave (km/s) = 9.09933 13.01693 11.23027
#
# Compressibility (1/GPa) = 0.01035830
#
# Stress axis : x y z
#
# Youngs Moduli (GPa) = 169.66433 102.35196 216.11826
#
# Poissons Ratio (x) = 0.41290 0.16434
# Poissons Ratio (y) = 0.68444 0.03716
# Poissons Ratio (z) = 0.12902 0.01760
#
# Static dielectric constant tensor:
#      x y z
#    x 1.723890 -0.003800 0.033720 
#    y -0.003800 1.618820 -0.017340 
#    z 0.033720 -0.017340 1.635980 
# 
# From -- ./inp_files/190933.got.cif
#   From: 2010.05.17/outbox.cif.g08.bks.cpg/sg2_96_cif.got.tgz:190933.got - 2010.06.03 11:33:40.
