data_PCOD9111884
_publ_section_title
;
Structure prediction by ZEFSAII (Michael W. Deem and Ramdas Pophale) SiO2 
 PCOD9111884
Probable space group: P -1
;
_chemical_formula_sum "Si O2"
_cell_formula_units_Z 13
_cell_length_a 8.892478
_cell_length_b 14.479879
_cell_length_c 8.844607
_cell_angle_alpha 66.704246
_cell_angle_beta 31.147235
_cell_angle_gamma 58.012584
_cell_volume 495.248632
_symmetry_space_group_name_H-M "P -1"
_symmetry_group_IT_number 2
_symmetry_cell_setting 'triclinic'
loop_
_space_group_symop_operation_xyz
x,y,z
-x,-y,-z
loop_
_atom_site_type_symbol
_atom_site_label
_atom_site_fract_x
_atom_site_fract_y
_atom_site_fract_z
Si Si1 0.278080 0.357785 0.122540
Si Si2 0.762298 0.917908 0.938278
Si Si3 0.000000 0.500000 0.000000
Si Si4 0.366024 0.710733 0.848488
Si Si5 0.455639 0.927842 0.720379
Si Si6 0.751349 0.717143 0.249454
Si Si7 0.923486 0.210180 0.531978
O O1 0.401669 0.368939 0.175655
O O2 0.182460 0.463500 0.032218
O O3 0.983710 0.321952 0.404770
O O4 0.571990 0.250197 0.873644
O O5 0.030537 0.844985 0.636769
O O6 0.659017 0.834810 0.175825
O O7 0.500000 0.000000 0.000000
O O8 0.798318 0.995696 0.987676
O O9 0.877649 0.628446 0.066954
O O10 0.359570 0.830865 0.809983
O O11 0.494051 0.689293 0.581263
O O12 0.020340 0.710561 0.144178
O O13 0.795595 0.869930 0.551160
O O14 0.500000 0.000000 0.500000
#
# Coordination Sequence:
#
# PCOD9111884 Si02
#       7
#     2   2   1   2   2   2   2
#     4  11  25  48  75 104 145 191 243 305 369 430
#     4  10  22  44  72 110 150 194 241 298 363 438
#     4  12  30  50  82 106 142 198 250 310 370 442
#     4  11  26  48  73 107 152 184 244 306 364 438
#     4  10  20  43  73 110 147 198 238 292 368 440
#     4  12  27  49  74 110 144 195 247 301 368 433
#     4  10  23  45  69 108 149 187 240 304 355 434
#
# _framework density 26.249441999999998
#
# number of rings (size 3 to 8) (size 9 to 14) (size 15 to 20)
#    0.000    1.231    3.077    1.846    2.154    4.308 
#    5.538    8.462    0.000    0.000    0.000    0.000 
#    0.000    0.000    0.000    0.000    0.000    0.000 
#
# Total GULP energy -72638.599499 kJ/mol
# GULP energy per Si atom -5587.584577 kJ/mol
# Density = 2.618970 g / cm^3
# Si number density = 26.249442 Si / 1000 Ang^3
#
#
#
# Elastic Constant Matrix: (Units=GPa)
#
#
# Indices 1 2 3 4 5 6 
#
# 1 115.7713 28.1332 14.8408 -0.0881 9.4037 -28.7697
# 2 28.1332 62.8198 4.4189 18.3745 3.1675 -29.3592
# 3 14.8408 4.4189 57.3631 -20.6948 -2.0674 -1.3226
# 4 -0.0881 18.3745 -20.6948 -9.4782 -7.3955 9.4550
# 5 9.4037 3.1675 -2.0674 -7.3955 30.6439 -5.2316
# 6 -28.7697 -29.3592 -1.3226 9.4550 -5.2316 65.6841
#
#
#
# Elastic Compliance Matrix: (Units=1/GPa)
#
#
# Indices 1 2 3 4 5 6 
#
# 1 0.010615 -0.003700 -0.001985 0.001380 -0.002236 0.002579
# 2 -0.003700 0.013993 0.005471 0.014898 0.004154 0.002931
# 3 -0.001985 0.005471 0.012925 -0.012821 -0.001571 0.003557
# 4 0.001380 0.014898 -0.012821 -0.031208 -0.008513 0.010819
# 5 -0.002236 0.004154 -0.001571 -0.008513 0.031511 0.004581
# 6 0.002579 0.002931 0.003557 0.010819 0.004581 0.016543
#
#
# Mechanical properties :
#
#
# Convention : Reuss Voigt Hill
#
# Bulk Modulus (GPa) = 26.94930 36.74887 31.84909
# Shear Modulus (GPa) = 74.43436 29.94074 52.18755
#
# Velocity S-wave (km/s) = 5.33086 3.38098 4.46369
# Velocity P-wave (km/s) = 6.94116 5.41032 6.22299
#
# Compressibility (1/GPa) = 0.03710671
#
# Stress axis : x y z
#
# Youngs Moduli (GPa) = 94.20914 71.46375 77.37079
#
# Poissons Ratio (x) = 0.26438 0.15355
# Poissons Ratio (y) = 0.34853 -0.42331
# Poissons Ratio (z) = 0.18697 -0.39099
#
# Static dielectric constant tensor:
#      x y z
#    x 2.085520 -0.014420 0.036690 
#    y -0.014420 1.904990 0.031720 
#    z 0.036690 0.031720 2.070910 
# 
# From -- ./inp_files/206127.got.cif
#   From: 2010.05.17/outbox.cif.g08.bks.cpg/sg2_104_cif.got.tgz:206127.got - 2010.06.03 11:33:40.
