data_PCOD9111243
_publ_section_title
;
Structure prediction by ZEFSAII (Michael W. Deem and Ramdas Pophale) SiO2 
 PCOD9111243
Probable space group: P -1
;
_chemical_formula_sum "Si O2"
_cell_formula_units_Z 15
_cell_length_a 14.896065
_cell_length_b 11.824208
_cell_length_c 12.559207
_cell_angle_alpha 128.083706
_cell_angle_beta 39.303702
_cell_angle_gamma 152.931410
_cell_volume 617.290800
_symmetry_space_group_name_H-M "P -1"
_symmetry_group_IT_number 2
_symmetry_cell_setting 'triclinic'
loop_
_space_group_symop_operation_xyz
x,y,z
-x,-y,-z
loop_
_atom_site_type_symbol
_atom_site_label
_atom_site_fract_x
_atom_site_fract_y
_atom_site_fract_z
Si Si1 0.205906 0.484072 0.261442
Si Si2 0.206563 0.296089 0.358512
Si Si3 0.861987 0.486664 0.964257
Si Si4 0.231467 0.302645 0.940776
Si Si5 0.500000 0.000000 0.000000
Si Si6 0.353715 0.892870 0.461096
Si Si7 0.061805 0.859203 0.264682
Si Si8 0.317658 0.696565 0.763582
O O1 0.159074 0.361171 0.342881
O O2 0.373905 0.761444 0.300727
O O3 0.936385 0.315872 0.370150
O O4 0.302392 0.449183 0.068261
O O5 0.509023 0.551312 0.252248
O O6 0.044777 0.203068 0.555418
O O7 0.124252 0.063858 0.273957
O O8 0.853028 0.641441 0.029117
O O9 0.635423 0.244220 0.118161
O O10 0.758021 0.286252 0.859372
O O11 0.119000 0.648018 0.873782
O O12 0.000000 0.000000 0.000000
O O13 0.689523 0.027373 0.892965
O O14 0.500000 0.000000 0.500000
O O15 0.459931 0.105503 0.408861
O O16 0.835996 0.580668 0.255173
#
# Coordination Sequence:
#
# PCOD9111243 Si02
#       8
#     2   2   2   2   1   2   2   2
#     4  11  28  45  73 105 144 202 242 303 375 438
#     4  11  25  47  67 106 145 188 249 303 368 447
#     4  10  23  41  66 103 130 184 244 300 361 427
#     4  12  28  45  70 100 151 206 247 298 367 447
#     4  10  20  42  70  98 134 180 234 294 368 432
#     4  11  25  48  74 108 147 186 249 313 371 445
#     4  10  23  43  73 101 143 185 236 313 372 428
#     4  10  23  39  72  99 138 179 241 310 361 438
#
# _framework density 24.299731000000001
#
# number of rings (size 3 to 8) (size 9 to 14) (size 15 to 20)
#    0.000    1.333    1.333    2.000   11.200    3.200 
#    0.000    1.333    0.000    0.000    0.000    0.000 
#    0.000    0.000    0.000    0.000    0.000    0.000 
#
# Total GULP energy -83798.820997 kJ/mol
# GULP energy per Si atom -5586.588066 kJ/mol
# Density = 2.424442 g / cm^3
# Si number density = 24.299731 Si / 1000 Ang^3
#
#
#
# Elastic Constant Matrix: (Units=GPa)
#
#
# Indices 1 2 3 4 5 6 
#
# 1 95.9274 56.6785 0.8611 5.2268 0.9385 -8.4594
# 2 56.6785 157.8225 24.7855 1.8135 -1.9290 -9.2048
# 3 0.8611 24.7855 53.6057 5.4501 6.0443 0.0578
# 4 5.2268 1.8135 5.4501 39.9265 -3.9072 5.6483
# 5 0.9385 -1.9290 6.0443 -3.9072 33.3630 2.7817
# 6 -8.4594 -9.2048 0.0578 5.6483 2.7817 38.8877
#
#
#
# Elastic Compliance Matrix: (Units=1/GPa)
#
#
# Indices 1 2 3 4 5 6 
#
# 1 0.013846 -0.005248 0.002631 -0.002410 -0.001638 0.002233
# 2 -0.005248 0.008950 -0.004315 0.000910 0.001491 0.000744
# 3 0.002631 -0.004315 0.021499 -0.003593 -0.004671 0.000375
# 4 -0.002410 0.000910 -0.003593 0.026869 0.004294 -0.004513
# 5 -0.001638 0.001491 -0.004671 0.004294 0.031695 -0.002887
# 6 0.002233 0.000744 0.000375 -0.004513 -0.002887 0.027239
#
#
# Mechanical properties :
#
#
# Convention : Reuss Voigt Hill
#
# Bulk Modulus (GPa) = 32.86097 52.44507 42.65302
# Shear Modulus (GPa) = 32.44535 37.43748 34.94142
#
# Velocity S-wave (km/s) = 3.65802 3.92938 3.79612
# Velocity P-wave (km/s) = 5.60304 6.49739 6.06672
#
# Compressibility (1/GPa) = 0.03043123
#
# Stress axis : x y z
#
# Youngs Moduli (GPa) = 72.22421 111.73533 46.51326
#
# Poissons Ratio (x) = 0.58636 -0.12239
# Poissons Ratio (y) = 0.37901 0.20072
# Poissons Ratio (z) = -0.19004 0.48217
#
# Static dielectric constant tensor:
#      x y z
#    x 1.937520 0.026790 0.082240 
#    y 0.026790 2.050880 0.060480 
#    z 0.082240 0.060480 2.020210 
# 
# From -- ./inp_files/451761.got.cif
#   From: 2010.05.17/outbox.cif.g08.bks.cpg/sg2_226_cif.got.tgz:451761.got - 2010.06.03 11:33:40.
