data_PCOD9111177
_publ_section_title
;
Structure prediction by ZEFSAII (Michael W. Deem and Ramdas Pophale) SiO2 
 PCOD9111177
Probable space group: P -1
;
_chemical_formula_sum "Si O2"
_cell_formula_units_Z 15
_cell_length_a 5.119291
_cell_length_b 17.516216
_cell_length_c 8.083328
_cell_angle_alpha 58.236889
_cell_angle_beta 73.813629
_cell_angle_gamma 65.416989
_cell_volume 558.742397
_symmetry_space_group_name_H-M "P -1"
_symmetry_group_IT_number 2
_symmetry_cell_setting 'triclinic'
loop_
_space_group_symop_operation_xyz
x,y,z
-x,-y,-z
loop_
_atom_site_type_symbol
_atom_site_label
_atom_site_fract_x
_atom_site_fract_y
_atom_site_fract_z
Si Si1 0.342061 0.015716 0.766132
Si Si2 0.000000 0.500000 0.500000
Si Si3 0.822595 0.271657 0.112161
Si Si4 0.427781 0.299148 0.581314
Si Si5 0.513883 0.534167 0.148223
Si Si6 0.218999 0.139208 0.924115
Si Si7 0.273213 0.913569 0.605095
Si Si8 0.026948 0.650316 0.675497
O O1 0.268739 0.932948 0.778714
O O2 0.124148 0.091865 0.834953
O O3 0.445106 0.075149 0.541227
O O4 0.617963 0.953211 0.891113
O O5 0.213122 0.387446 0.621559
O O6 0.269440 0.518708 0.326316
O O7 0.753282 0.186719 0.313631
O O8 0.975484 0.317164 0.171583
O O9 0.554596 0.354435 0.988972
O O10 0.008621 0.217430 0.987834
O O11 0.427100 0.196117 0.755614
O O12 0.741145 0.309714 0.500647
O O13 0.264860 0.319790 0.408204
O O14 0.822006 0.464724 0.238673
O O15 0.500000 0.500000 0.000000
O O16 0.000000 0.000000 0.500000
#
# Coordination Sequence:
#
# PCOD9111177 Si02
#       8
#     2   1   2   2   2   2   2   2
#     4  10  25  45  65 100 137 179 244 299 372 428
#     4  10  20  42  70 100 146 186 240 304 364 434
#     4  11  22  43  70 103 136 187 242 294 369 443
#     4  11  24  45  72 106 142 195 238 303 368 441
#     4   9  20  42  67 103 143 186 244 296 366 443
#     4  11  23  43  68 103 139 180 242 303 362 440
#     4  11  23  43  69  93 133 187 233 300 361 440
#     4  10  25  45  73 102 148 192 241 299 364 445
#
# _framework density 26.846004000000001
#
# number of rings (size 3 to 8) (size 9 to 14) (size 15 to 20)
#    0.000    1.600    2.667    0.800    1.867    4.800 
#    2.400   16.667    0.000    0.000    0.000    0.000 
#    0.000    0.000    0.000    0.000    0.000    0.000 
#
# Total GULP energy -83781.622023 kJ/mol
# GULP energy per Si atom -5585.441468 kJ/mol
# Density = 2.678490 g / cm^3
# Si number density = 26.846004 Si / 1000 Ang^3
#
#
#
# Elastic Constant Matrix: (Units=GPa)
#
#
# Indices 1 2 3 4 5 6 
#
# 1 65.0373 22.3730 15.6351 2.6640 -2.8198 -3.8042
# 2 22.3730 180.1282 34.1894 11.6552 -1.4339 -2.3952
# 3 15.6351 34.1894 97.2309 -8.5310 -16.5159 -7.8056
# 4 2.6640 11.6552 -8.5310 58.5660 3.8183 -4.5695
# 5 -2.8198 -1.4339 -16.5159 3.8183 25.2753 -0.8803
# 6 -3.8042 -2.3952 -7.8056 -4.5695 -0.8803 31.0615
#
#
#
# Elastic Compliance Matrix: (Units=1/GPa)
#
#
# Indices 1 2 3 4 5 6 
#
# 1 0.016530 -0.001622 -0.001929 -0.000647 0.000636 0.001337
# 2 -0.001622 0.006271 -0.002310 -0.001480 -0.001130 -0.000545
# 3 -0.001929 -0.002310 0.013257 0.002221 0.008102 0.003473
# 4 -0.000647 -0.001480 0.002221 0.018041 -0.001326 0.002981
# 5 0.000636 -0.001130 0.008102 -0.001326 0.045174 0.003112
# 6 0.001337 -0.000545 0.003473 0.002981 0.003112 0.033716
#
#
# Mechanical properties :
#
#
# Convention : Reuss Voigt Hill
#
# Bulk Modulus (GPa) = 41.09143 54.08793 47.58968
# Shear Modulus (GPa) = 32.71764 40.99382 36.85573
#
# Velocity S-wave (km/s) = 3.49480 3.91192 3.70923
# Velocity P-wave (km/s) = 5.62356 6.37145 6.00915
#
# Compressibility (1/GPa) = 0.02433597
#
# Stress axis : x y z
#
# Youngs Moduli (GPa) = 60.49642 159.46466 75.43122
#
# Poissons Ratio (x) = 0.25869 0.14551
# Poissons Ratio (y) = 0.09814 0.17423
# Poissons Ratio (z) = 0.11670 0.36832
#
# Static dielectric constant tensor:
#      x y z
#    x 2.448690 0.161710 0.190210 
#    y 0.161710 2.127190 0.124710 
#    z 0.190210 0.124710 2.254180 
# 
# From -- ./inp_files/138696.got.cif
#   From: 2010.05.17/outbox.cif.g08.bks.cpg/sg2_70_cif.got.tgz:138696.got - 2010.06.03 11:33:40.
