data_PCOD9111812
_publ_section_title
;
Structure prediction by ZEFSAII (Michael W. Deem and Ramdas Pophale) SiO2 
 PCOD9111812
Probable space group: P -1
;
_chemical_formula_sum "Si O2"
_cell_formula_units_Z 16
_cell_length_a 17.152864
_cell_length_b 19.887234
_cell_length_c 10.634577
_cell_angle_alpha 31.083272
_cell_angle_beta 146.640567
_cell_angle_gamma 156.600558
_cell_volume 722.030821
_symmetry_space_group_name_H-M "P -1"
_symmetry_group_IT_number 2
_symmetry_cell_setting 'triclinic'
loop_
_space_group_symop_operation_xyz
x,y,z
-x,-y,-z
loop_
_atom_site_type_symbol
_atom_site_label
_atom_site_fract_x
_atom_site_fract_y
_atom_site_fract_z
Si Si1 0.072315 0.128648 0.273153
Si Si2 0.801685 0.139474 0.763444
Si Si3 0.087651 0.974176 0.280905
Si Si4 0.341570 0.742019 0.778205
Si Si5 0.426016 0.513338 0.249869
Si Si6 0.026585 0.631080 0.724932
Si Si7 0.200544 0.417116 0.709768
Si Si8 0.425583 0.313096 0.070395
O O1 0.295002 0.325894 0.293079
O O2 0.070810 0.041494 0.282432
O O3 0.000000 0.000000 0.500000
O O4 0.919172 0.151254 0.018037
O O5 0.754521 0.259034 0.476364
O O6 0.976591 0.227243 0.754172
O O7 0.580889 0.929926 0.794220
O O8 0.020011 0.779844 0.518186
O O9 0.599498 0.681672 0.120386
O O10 0.319181 0.127303 0.298858
O O11 0.234190 0.741607 0.751577
O O12 0.303151 0.564540 0.028457
O O13 0.500000 0.500000 0.500000
O O14 0.842835 0.503946 0.579750
O O15 0.000000 0.500000 0.000000
O O16 0.337832 0.546832 0.803958
O O17 0.326968 0.379785 0.885638
O O18 0.000000 0.000000 0.000000
#
# Coordination Sequence:
#
# PCOD9111812 Si02
#       8
#     2   2   2   2   2   2   2   2
#     4  12  26  45  71 110 148 189 247 315 380 434
#     4  10  20  46  65 104 143 187 245 295 366 449
#     4  12  25  46  80 108 141 199 253 305 360 451
#     4  10  25  42  71 100 147 196 242 300 374 451
#     4  12  28  43  72 110 150 190 246 318 386 434
#     4  11  26  46  72 105 155 194 245 302 384 438
#     4  10  20  43  71 101 141 185 247 305 353 444
#     4  11  22  41  75 105 138 188 258 299 362 433
#
# _framework density 22.159718000000002
#
# number of rings (size 3 to 8) (size 9 to 14) (size 15 to 20)
#    0.000    1.000    3.750    2.250   12.250    0.500 
#    2.250    0.625    0.000    0.000    0.000    0.000 
#    0.000    0.000    0.000    0.000    0.000    0.000 
#
# Total GULP energy -89125.877702 kJ/mol
# GULP energy per Si atom -5570.367356 kJ/mol
# Density = 2.210928 g / cm^3
# Si number density = 22.159718 Si / 1000 Ang^3
#
#
#
# Elastic Constant Matrix: (Units=GPa)
#
#
# Indices 1 2 3 4 5 6 
#
# 1 103.6229 50.5746 63.7231 -2.5010 -7.6414 -6.1497
# 2 50.5746 82.6296 55.9653 9.3202 -6.1157 7.0910
# 3 63.7231 55.9653 197.6152 -5.8825 -32.9425 -11.9953
# 4 -2.5010 9.3202 -5.8825 33.3613 1.2113 1.5757
# 5 -7.6414 -6.1157 -32.9425 1.2113 50.8500 -3.4380
# 6 -6.1497 7.0910 -11.9953 1.5757 -3.4380 31.1365
#
#
#
# Elastic Compliance Matrix: (Units=1/GPa)
#
#
# Indices 1 2 3 4 5 6 
#
# 1 0.015588 -0.008733 -0.002205 0.003025 0.000067 0.004073
# 2 -0.008733 0.021773 -0.004379 -0.007051 -0.001919 -0.008225
# 3 -0.002205 -0.004379 0.008091 0.002125 0.004609 0.004080
# 4 0.003025 -0.007051 0.002125 0.032468 0.000305 0.001412
# 5 0.000067 -0.001919 0.004609 0.000305 0.022743 0.004721
# 6 0.004073 -0.008225 0.004080 0.001412 0.004721 0.036816
#
#
# Mechanical properties :
#
#
# Convention : Reuss Voigt Hill
#
# Bulk Modulus (GPa) = 67.48926 80.48819 73.98873
# Shear Modulus (GPa) = 28.89298 37.30990 33.10144
#
# Velocity S-wave (km/s) = 3.61481 4.10772 3.86912
# Velocity P-wave (km/s) = 6.92419 7.67454 7.30900
#
# Compressibility (1/GPa) = 0.01481717
#
# Stress axis : x y z
#
# Youngs Moduli (GPa) = 64.15024 45.92897 123.59986
#
# Poissons Ratio (x) = 0.40112 0.27252
# Poissons Ratio (y) = 0.56025 0.54124
# Poissons Ratio (z) = 0.14144 0.20112
#
# Static dielectric constant tensor:
#      x y z
#    x 1.888700 -0.016230 0.001490 
#    y -0.016230 2.064790 -0.017510 
#    z 0.001490 -0.017510 1.840300 
# 
# From -- ./inp_files/467066.got.cif
#   From: 2010.05.17/outbox.cif.g08.bks.cpg/sg2_234_cif.got.tgz:467066.got - 2010.06.03 11:33:40.
