data_PCOD9111181
_publ_section_title
;
Structure prediction by ZEFSAII (Michael W. Deem and Ramdas Pophale) SiO2 
 PCOD9111181
Probable space group: P -1
;
_chemical_formula_sum "Si O2"
_cell_formula_units_Z 16
_cell_length_a 8.643827
_cell_length_b 17.208065
_cell_length_c 14.571239
_cell_angle_alpha 43.284991
_cell_angle_beta 136.278511
_cell_angle_gamma 149.190042
_cell_volume 731.206811
_symmetry_space_group_name_H-M "P -1"
_symmetry_group_IT_number 2
_symmetry_cell_setting 'triclinic'
loop_
_space_group_symop_operation_xyz
x,y,z
-x,-y,-z
loop_
_atom_site_type_symbol
_atom_site_label
_atom_site_fract_x
_atom_site_fract_y
_atom_site_fract_z
Si Si1 0.674507 0.940956 0.636660
Si Si2 0.247242 0.831778 0.842146
Si Si3 0.057780 0.191714 0.442919
Si Si4 0.244690 0.614500 0.428798
Si Si5 0.841562 0.593503 0.022295
Si Si6 0.181003 0.826078 0.128145
Si Si7 0.255863 0.131350 0.069648
Si Si8 0.063013 0.609279 0.683043
O O1 0.768052 0.944220 0.778555
O O2 0.406467 0.754114 0.660703
O O3 0.500000 0.000000 0.500000
O O4 0.958379 0.058242 0.587232
O O5 0.416977 0.782935 0.911332
O O6 0.167789 0.882829 0.677455
O O7 0.512712 0.987109 0.885415
O O8 0.932335 0.681315 0.888848
O O9 0.406493 0.292933 0.473182
O O10 0.037185 0.307957 0.384298
O O11 0.211858 0.735227 0.290087
O O12 0.000000 0.500000 0.500000
O O13 0.164144 0.515630 0.386529
O O14 0.888905 0.475212 0.151502
O O15 0.119683 0.744621 0.075159
O O16 0.500000 0.500000 0.000000
O O17 0.857983 0.781879 0.039244
O O18 0.000000 0.000000 0.000000
#
# Coordination Sequence:
#
# PCOD9111181 Si02
#       8
#     2   2   2   2   2   2   2   2
#     4  10  20  42  70 102 138 170 230 283 348 396
#     4  11  24  43  72 106 128 182 244 282 341 419
#     4  11  25  44  73 100 133 187 236 286 342 418
#     4  11  27  44  65 101 141 186 226 285 351 418
#     4  11  25  42  67  98 144 184 219 290 359 410
#     4  10  25  45  66  99 141 182 228 289 355 407
#     4  10  21  41  72 104 133 173 230 293 330 404
#     4  10  23  44  68  96 138 182 226 283 355 409
#
# _framework density 21.881636
#
# number of rings (size 3 to 8) (size 9 to 14) (size 15 to 20)
#    0.000    1.500    2.500    1.500    5.250    9.000 
#    0.000    0.000    0.000    0.000    0.000    0.000 
#    0.000    0.000    0.000    0.000    0.000    0.000 
#
# Total GULP energy -89303.877423 kJ/mol
# GULP energy per Si atom -5581.492339 kJ/mol
# Density = 2.183183 g / cm^3
# Si number density = 21.881636 Si / 1000 Ang^3
#
#
#
# Elastic Constant Matrix: (Units=GPa)
#
#
# Indices 1 2 3 4 5 6 
#
# 1 75.1174 40.1565 49.8435 -15.2417 -2.2456 30.1377
# 2 40.1565 94.0179 30.3993 -1.5749 2.3418 7.6516
# 3 49.8435 30.3993 88.5901 -2.5526 15.2744 6.1220
# 4 -15.2417 -1.5749 -2.5526 41.9887 1.9063 -1.5914
# 5 -2.2456 2.3418 15.2744 1.9063 19.4185 -4.4156
# 6 30.1377 7.6516 6.1220 -1.5914 -4.4156 42.3443
#
#
#
# Elastic Compliance Matrix: (Units=1/GPa)
#
#
# Indices 1 2 3 4 5 6 
#
# 1 0.052171 -0.011666 -0.026449 0.014890 0.020297 -0.028523
# 2 -0.011666 0.014722 0.001574 -0.003266 -0.002908 0.004989
# 3 -0.026449 0.001574 0.028476 -0.006348 -0.022329 0.011856
# 4 0.014890 -0.003266 -0.006348 0.028302 0.002566 -0.007758
# 5 0.020297 -0.002908 -0.022329 0.002566 0.070776 -0.003215
# 6 -0.028523 0.004989 0.011856 -0.007758 -0.003215 0.040674
#
#
# Mechanical properties :
#
#
# Convention : Reuss Voigt Hill
#
# Bulk Modulus (GPa) = 44.86814 55.39153 50.12983
# Shear Modulus (GPa) = 15.84131 29.90538 22.87334
#
# Velocity S-wave (km/s) = 2.69356 3.70089 3.23665
# Velocity P-wave (km/s) = 5.49756 6.60539 6.07677
#
# Compressibility (1/GPa) = 0.02228753
#
# Stress axis : x y z
#
# Youngs Moduli (GPa) = 19.16787 67.92772 35.11676
#
# Poissons Ratio (x) = 0.79243 0.92881
# Poissons Ratio (y) = 0.22361 -0.05529
# Poissons Ratio (z) = 0.50697 -0.10694
#
# Static dielectric constant tensor:
#      x y z
#    x 1.877620 -0.034510 0.013030 
#    y -0.034510 1.852430 -0.031310 
#    z 0.013030 -0.031310 1.797160 
# 
# From -- ./inp_files/507283.got.cif
#   From: 2010.05.17/outbox.cif.g08.bks.cpg/sg2_254_cif.got.tgz:507283.got - 2010.06.03 11:33:40.
