data_PCOD9111667
_publ_section_title
;
Structure prediction by ZEFSAII (Michael W. Deem and Ramdas Pophale) SiO2 
 PCOD9111667
Probable space group: P -1
;
_chemical_formula_sum "Si O2"
_cell_formula_units_Z 16
_cell_length_a 14.923992
_cell_length_b 23.693336
_cell_length_c 6.436005
_cell_angle_alpha 96.326776
_cell_angle_beta 83.524994
_cell_angle_gamma 161.638904
_cell_volume 712.267519
_symmetry_space_group_name_H-M "P -1"
_symmetry_group_IT_number 2
_symmetry_cell_setting 'triclinic'
loop_
_space_group_symop_operation_xyz
x,y,z
-x,-y,-z
loop_
_atom_site_type_symbol
_atom_site_label
_atom_site_fract_x
_atom_site_fract_y
_atom_site_fract_z
Si Si1 0.786056 0.360627 0.686223
Si Si2 0.366777 0.545685 0.794774
Si Si3 0.964613 0.390448 0.015740
Si Si4 0.114377 0.061442 0.224367
Si Si5 0.946934 0.242247 0.464947
Si Si6 0.526431 0.059558 0.210179
Si Si7 0.187353 0.021806 0.503684
Si Si8 0.722526 0.661370 0.664960
O O1 0.475676 0.171547 0.589670
O O2 0.000000 0.500000 0.500000
O O3 0.873296 0.358342 0.799510
O O4 0.834955 0.443066 0.862102
O O5 0.140741 0.437424 0.967200
O O6 0.589506 0.727921 0.756197
O O7 0.544397 0.595919 0.837449
O O8 0.197036 0.426498 0.584548
O O9 0.677877 0.206459 0.144083
O O10 0.171824 0.031456 0.271633
O O11 0.874007 0.953032 0.368511
O O12 0.000000 0.000000 0.000000
O O13 0.743672 0.161443 0.357521
O O14 0.075602 0.269947 0.295780
O O15 0.764308 0.106938 0.651164
O O16 0.500000 0.000000 0.000000
O O17 0.929145 0.827394 0.554556
O O18 0.500000 0.500000 0.500000
#
# Coordination Sequence:
#
# PCOD9111667 Si02
#       8
#     2   2   2   2   2   2   2   2
#     4  11  26  42  67 100 135 177 216 281 339 402
#     4  10  20  43  68  89 135 172 219 275 329 398
#     4  11  25  42  65 103 135 169 231 273 334 404
#     4  10  21  40  64  92 122 166 216 265 330 389
#     4  10  23  42  67  95 135 180 222 272 336 391
#     4  11  24  41  67  98 133 180 221 277 331 399
#     4  10  22  39  65  89 126 168 214 266 327 393
#     4   9  21  42  66  94 126 172 223 269 324 389
#
# _framework density 22.463470000000001
#
# number of rings (size 3 to 8) (size 9 to 14) (size 15 to 20)
#    0.000    1.750    1.250    1.500    7.000    1.000 
#    4.500    0.625    0.000    0.000    0.000    0.000 
#    0.000    0.000    0.000    0.000    0.000    0.000 
#
# Total GULP energy -89346.847989 kJ/mol
# GULP energy per Si atom -5584.177999 kJ/mol
# Density = 2.241234 g / cm^3
# Si number density = 22.463470 Si / 1000 Ang^3
#
#
#
# Elastic Constant Matrix: (Units=GPa)
#
#
# Indices 1 2 3 4 5 6 
#
# 1 87.1467 23.3390 20.3403 2.3116 -5.2565 13.2417
# 2 23.3390 133.5584 29.3200 5.0814 15.9597 3.2346
# 3 20.3403 29.3200 69.7569 -1.4173 14.2891 9.9601
# 4 2.3116 5.0814 -1.4173 25.8610 0.0754 0.4504
# 5 -5.2565 15.9597 14.2891 0.0754 28.2399 -3.4710
# 6 13.2417 3.2346 9.9601 0.4504 -3.4710 29.3759
#
#
#
# Elastic Compliance Matrix: (Units=1/GPa)
#
#
# Indices 1 2 3 4 5 6 
#
# 1 0.013847 -0.002094 -0.003624 -0.000967 0.005085 -0.004167
# 2 -0.002094 0.008930 -0.002357 -0.001690 -0.004204 0.000289
# 3 -0.003624 -0.002357 0.019265 0.001973 -0.009812 -0.005829
# 4 -0.000967 -0.001690 0.001973 0.039208 -0.000414 -0.000697
# 5 0.005085 -0.004204 -0.009812 -0.000414 0.044531 0.006765
# 6 -0.004167 0.000289 -0.005829 -0.000697 0.006765 0.038674
#
#
# Mechanical properties :
#
#
# Convention : Reuss Voigt Hill
#
# Bulk Modulus (GPa) = 38.62192 48.49562 43.55877
# Shear Modulus (GPa) = 26.42186 31.19287 28.80737
#
# Velocity S-wave (km/s) = 3.43332 3.73044 3.58496
# Velocity P-wave (km/s) = 5.73999 6.33959 6.04723
#
# Compressibility (1/GPa) = 0.02589203
#
# Stress axis : x y z
#
# Youngs Moduli (GPa) = 72.21753 111.97614 51.90707
#
# Poissons Ratio (x) = 0.23449 0.18810
# Poissons Ratio (y) = 0.15123 0.12237
# Poissons Ratio (z) = 0.26170 0.26398
#
# Static dielectric constant tensor:
#      x y z
#    x 1.817490 0.040470 -0.082360 
#    y 0.040470 1.808700 -0.013160 
#    z -0.082360 -0.013160 1.868920 
# 
# From -- ./inp_files/72290.got.cif
#   From: 2010.05.17/outbox.cif.g08.bks.cpg/sg2_37_cif.got.tgz:72290.got - 2010.06.03 11:33:40.
