data_PCOD9111102
_publ_section_title
;
Structure prediction by ZEFSAII (Michael W. Deem and Ramdas Pophale) SiO2 
 PCOD9111102
Probable space group: P -1
;
_chemical_formula_sum "Si O2"
_cell_formula_units_Z 16
_cell_length_a 10.621923
_cell_length_b 8.984341
_cell_length_c 14.250412
_cell_angle_alpha 71.828603
_cell_angle_beta 147.501338
_cell_angle_gamma 110.839469
_cell_volume 682.674899
_symmetry_space_group_name_H-M "P -1"
_symmetry_group_IT_number 2
_symmetry_cell_setting 'triclinic'
loop_
_space_group_symop_operation_xyz
x,y,z
-x,-y,-z
loop_
_atom_site_type_symbol
_atom_site_label
_atom_site_fract_x
_atom_site_fract_y
_atom_site_fract_z
Si Si1 0.672735 0.539183 0.830990
Si Si2 0.160095 0.755077 0.043962
Si Si3 0.225405 0.931574 0.858541
Si Si4 0.171450 0.896311 0.228896
Si Si5 0.934624 0.118867 0.517520
Si Si6 0.740761 0.653379 0.058967
Si Si7 0.186473 0.648150 0.745831
Si Si8 0.453943 0.818883 0.601382
O O1 0.463337 0.635935 0.661559
O O2 0.905690 0.634466 0.904963
O O3 0.640498 0.356367 0.819953
O O4 0.721961 0.555035 0.969380
O O5 0.184744 0.875931 0.950183
O O6 0.193689 0.831069 0.151974
O O7 0.142682 0.768890 0.777801
O O8 0.096703 0.072945 0.712468
O O9 0.500000 0.000000 0.000000
O O10 0.336349 0.837533 0.423550
O O11 0.907632 0.819461 0.109160
O O12 0.276350 0.082697 0.251503
O O13 0.943373 0.287961 0.437430
O O14 0.680553 0.103747 0.415067
O O15 0.000000 0.000000 0.500000
O O16 0.860596 0.540993 0.226230
O O17 0.475966 0.677352 0.912342
#
# Coordination Sequence:
#
# PCOD9111102 Si02
#       8
#     2   2   2   2   2   2   2   2
#     4  10  21  42  71  95 141 172 230 276 346 408
#     4  10  23  43  67 102 131 184 222 284 336 416
#     4  11  25  40  67  98 134 180 229 278 340 419
#     4  10  26  42  68 103 138 178 232 280 349 404
#     4  10  24  44  65  97 136 178 223 289 345 402
#     4  10  20  42  69 101 130 183 222 282 343 417
#     4  10  21  42  69  95 140 175 224 278 348 406
#     4  11  24  46  66 102 137 182 225 297 340 407
#
# _framework density 23.437217
#
# number of rings (size 3 to 8) (size 9 to 14) (size 15 to 20)
#    0.000    1.750    2.500    0.000    8.750    2.500 
#    2.250    0.625    0.000    0.000    0.000    0.000 
#    0.000    0.000    0.000    0.000    0.000    0.000 
#
# Total GULP energy -89343.618568 kJ/mol
# GULP energy per Si atom -5583.976161 kJ/mol
# Density = 2.338387 g / cm^3
# Si number density = 23.437217 Si / 1000 Ang^3
#
#
#
# Elastic Constant Matrix: (Units=GPa)
#
#
# Indices 1 2 3 4 5 6 
#
# 1 134.2210 48.7343 41.9326 -14.4427 -19.0481 3.4087
# 2 48.7343 97.9854 57.9842 -45.2434 -9.2932 -4.4854
# 3 41.9326 57.9842 70.1087 -39.5152 -12.2396 -0.1990
# 4 -14.4427 -45.2434 -39.5152 51.3618 3.4178 -0.2524
# 5 -19.0481 -9.2932 -12.2396 3.4178 43.2560 -2.8532
# 6 3.4087 -4.4854 -0.1990 -0.2524 -2.8532 24.8267
#
#
#
# Elastic Compliance Matrix: (Units=1/GPa)
#
#
# Indices 1 2 3 4 5 6 
#
# 1 0.010481 -0.004401 -0.004978 -0.004937 0.002517 -0.002035
# 2 -0.004401 0.024700 -0.011041 0.012075 -0.000376 0.005058
# 3 -0.004978 -0.011041 0.036563 0.016707 0.004439 -0.000338
# 4 -0.004937 0.012075 0.016707 0.041449 0.002114 0.003658
# 5 0.002517 -0.000376 0.004439 0.002114 0.025404 0.002563
# 6 -0.002035 0.005058 -0.000338 0.003658 0.002563 0.041801
#
#
# Mechanical properties :
#
#
# Convention : Reuss Voigt Hill
#
# Bulk Modulus (GPa) = 32.35823 66.62414 49.49119
# Shear Modulus (GPa) = 21.59450 34.13316 27.86383
#
# Velocity S-wave (km/s) = 3.03871 3.82038 3.45174
# Velocity P-wave (km/s) = 5.11351 6.92450 6.08674
#
# Compressibility (1/GPa) = 0.03090404
#
# Stress axis : x y z
#
# Youngs Moduli (GPa) = 95.40846 40.48613 27.34995
#
# Poissons Ratio (x) = 0.17819 0.13614
# Poissons Ratio (y) = 0.41992 0.30198
# Poissons Ratio (z) = 0.47490 0.44702
#
# Static dielectric constant tensor:
#      x y z
#    x 1.910720 -0.019350 0.023030 
#    y -0.019350 1.896420 -0.025920 
#    z 0.023030 -0.025920 1.875910 
# 
# From -- ./inp_files/515465.got.cif
#   From: 2010.05.17/outbox.cif.g08.bks.cpg/sg2_258_cif.got.tgz:515465.got - 2010.06.03 11:33:40.
