data_PCOD9111653
_publ_section_title
;
Structure prediction by ZEFSAII (Michael W. Deem and Ramdas Pophale) SiO2 
 PCOD9111653
Probable space group: P -1
;
_chemical_formula_sum "Si O2"
_cell_formula_units_Z 14
_cell_length_a 21.205803
_cell_length_b 8.820652
_cell_length_c 9.090447
_cell_angle_alpha 128.974062
_cell_angle_beta 144.342895
_cell_angle_gamma 43.209793
_cell_volume 675.758651
_symmetry_space_group_name_H-M "P -1"
_symmetry_group_IT_number 2
_symmetry_cell_setting 'triclinic'
loop_
_space_group_symop_operation_xyz
x,y,z
-x,-y,-z
loop_
_atom_site_type_symbol
_atom_site_label
_atom_site_fract_x
_atom_site_fract_y
_atom_site_fract_z
Si Si1 0.402610 0.735148 0.522069
Si Si2 0.018406 0.560615 0.907935
Si Si3 0.543182 0.937409 0.377589
Si Si4 0.114077 0.938120 0.066900
Si Si5 0.589837 0.279553 0.131439
Si Si6 0.229952 0.556229 0.474730
Si Si7 0.058654 0.763946 0.550966
O O1 0.500000 0.500000 0.500000
O O2 0.259464 0.791186 0.284458
O O3 0.440388 0.713823 0.751016
O O4 0.419827 0.911128 0.559721
O O5 0.018118 0.374514 0.685068
O O6 0.144944 0.569298 0.182206
O O7 0.907484 0.809840 0.834621
O O8 0.000000 0.500000 0.000000
O O9 0.660168 0.692822 0.458248
O O10 0.500000 0.000000 0.500000
O O11 0.427725 0.921569 0.081598
O O12 0.089132 0.824166 0.805914
O O13 0.000000 0.000000 0.000000
O O14 0.720843 0.268963 0.354437
O O15 0.500000 0.500000 0.000000
O O16 0.168785 0.613449 0.555449
O O17 0.000000 0.000000 0.500000
#
# Coordination Sequence:
#
# PCOD9111653 Si02
#       7
#     2   2   2   2   2   2   2
#     4  12  26  45  70 102 147 191 241 306 361 429
#     4  10  20  43  68 102 135 184 240 285 354 431
#     4  11  25  43  70 106 142 191 244 301 364 437
#     4  12  27  46  69 109 153 185 240 306 366 431
#     4  10  23  44  68  96 134 184 242 295 365 428
#     4  10  21  41  72 101 138 183 248 303 354 441
#     4  11  23  40  75 101 139 195 239 292 365 431
#
# _framework density 20.717455999999999
#
# number of rings (size 3 to 8) (size 9 to 14) (size 15 to 20)
#    0.000    1.143    2.857    4.714    6.000    0.571 
#    2.571    0.000    0.000    0.000    0.000    0.000 
#    0.000    0.000    0.000    0.000    0.000    0.000 
#
# Total GULP energy -77943.657065 kJ/mol
# GULP energy per Si atom -5567.404076 kJ/mol
# Density = 2.067030 g / cm^3
# Si number density = 20.717456 Si / 1000 Ang^3
#
#
#
# Elastic Constant Matrix: (Units=GPa)
#
#
# Indices 1 2 3 4 5 6 
#
# 1 148.2128 38.7185 65.6008 11.7790 -9.4116 -7.8922
# 2 38.7185 114.3560 50.1355 1.3124 -1.5455 -19.2083
# 3 65.6008 50.1355 163.6935 31.4275 -6.0336 -3.9733
# 4 11.7790 1.3124 31.4275 30.4714 -5.5559 -7.5469
# 5 -9.4116 -1.5455 -6.0336 -5.5559 46.6980 3.4803
# 6 -7.8922 -19.2083 -3.9733 -7.5469 3.4803 23.8551
#
#
#
# Elastic Compliance Matrix: (Units=1/GPa)
#
#
# Indices 1 2 3 4 5 6 
#
# 1 0.008545 -0.001371 -0.003001 0.000364 0.001246 0.001157
# 2 -0.001371 0.013153 -0.004674 0.007639 -0.000418 0.011836
# 3 -0.003001 -0.004674 0.010765 -0.011404 -0.000238 -0.006536
# 4 0.000364 0.007639 -0.011404 0.049556 0.003290 0.019570
# 5 0.001246 -0.000418 -0.000238 0.003290 0.022173 -0.002158
# 6 0.001157 0.011836 -0.006536 0.019570 -0.002158 0.057251
#
#
# Mechanical properties :
#
#
# Convention : Reuss Voigt Hill
#
# Bulk Modulus (GPa) = 69.57741 81.68575 75.63158
# Shear Modulus (GPa) = 27.12626 38.32540 32.72583
#
# Velocity S-wave (km/s) = 3.62241 4.30572 3.97876
# Velocity P-wave (km/s) = 7.15211 8.01455 7.59558
#
# Compressibility (1/GPa) = 0.01437248
#
# Stress axis : x y z
#
# Youngs Moduli (GPa) = 117.02743 76.03083 92.89448
#
# Poissons Ratio (x) = 0.10421 0.27874
# Poissons Ratio (y) = 0.16040 0.43417
# Poissons Ratio (z) = 0.35115 0.35535
#
# Static dielectric constant tensor:
#      x y z
#    x 1.726250 0.072600 0.145870 
#    y 0.072600 1.763620 0.021320 
#    z 0.145870 0.021320 1.824470 
# 
# From -- ./inp_files/343060.got.cif
#   From: 2010.05.17/outbox.cif.g08.bks.cpg/sg2_172_cif.got.tgz:343060.got - 2010.06.03 11:33:40.
