data_PCOD9111525
_publ_section_title
;
Structure prediction by ZEFSAII (Michael W. Deem and Ramdas Pophale) SiO2 
 PCOD9111525
Probable space group: P -1
;
_chemical_formula_sum "Si O2"
_cell_formula_units_Z 16
_cell_length_a 17.721330
_cell_length_b 6.101502
_cell_length_c 6.725886
_cell_angle_alpha 79.397024
_cell_angle_beta 103.857047
_cell_angle_gamma 95.879593
_cell_volume 692.727266
_symmetry_space_group_name_H-M "P -1"
_symmetry_group_IT_number 2
_symmetry_cell_setting 'triclinic'
loop_
_space_group_symop_operation_xyz
x,y,z
-x,-y,-z
loop_
_atom_site_type_symbol
_atom_site_label
_atom_site_fract_x
_atom_site_fract_y
_atom_site_fract_z
Si Si1 0.413513 0.372073 0.659377
Si Si2 0.444530 0.819494 0.381072
Si Si3 0.727903 0.668193 0.148873
Si Si4 0.790558 0.264590 0.486649
Si Si5 0.314738 0.111269 0.301633
Si Si6 0.972823 0.774582 0.137478
Si Si7 0.112463 0.455697 0.209992
Si Si8 0.874720 0.922437 0.406813
O O1 0.419921 0.631147 0.559592
O O2 0.501009 0.289060 0.730497
O O3 0.359065 0.313421 0.821307
O O4 0.368412 0.257028 0.462530
O O5 0.500000 0.000000 0.500000
O O6 0.369098 0.942994 0.247048
O O7 0.749590 0.424553 0.280499
O O8 0.793489 0.835961 0.263853
O O9 0.725133 0.730601 0.905671
O O10 0.813264 0.404200 0.676912
O O11 0.742345 0.046649 0.573509
O O12 0.864085 0.172519 0.431279
O O13 0.942093 0.866134 0.308232
O O14 0.042277 0.608593 0.201718
O O15 0.902586 0.625756 0.009987
O O16 0.000000 0.000000 0.000000
O O17 0.111117 0.227956 0.369419
#
# Coordination Sequence:
#
# PCOD9111525 Si02
#       8
#     2   2   2   2   2   2   2   2
#     4  10  20  43  65  98 136 172 231 284 327 405
#     4   9  20  40  70  92 135 179 220 284 338 388
#     4  11  25  40  67 102 135 178 231 272 339 412
#     4  11  24  46  68 100 146 175 224 288 336 405
#     4  11  23  42  68  98 134 184 221 279 343 396
#     4  11  25  45  71  99 133 177 226 275 340 411
#     4  10  25  45  69  97 132 176 222 282 331 411
#     4  11  25  45  66  99 137 178 217 284 340 398
#
# _framework density 23.097111000000002
#
# number of rings (size 3 to 8) (size 9 to 14) (size 15 to 20)
#    0.000    1.500    2.500    1.125    3.500    7.500 
#    0.000    5.625    0.000    0.000    0.000    0.000 
#    0.000    0.000    0.000    0.000    0.000    0.000 
#
# Total GULP energy -89418.017265 kJ/mol
# GULP energy per Si atom -5588.626079 kJ/mol
# Density = 2.304454 g / cm^3
# Si number density = 23.097111 Si / 1000 Ang^3
#
#
#
# Elastic Constant Matrix: (Units=GPa)
#
#
# Indices 1 2 3 4 5 6 
#
# 1 58.5711 21.9203 11.8046 -10.4951 5.4290 -16.8008
# 2 21.9203 97.4625 39.5448 -6.4735 2.0436 -6.0232
# 3 11.8046 39.5448 73.9387 -8.6640 9.8791 -1.8024
# 4 -10.4951 -6.4735 -8.6640 29.0760 -3.2801 0.4464
# 5 5.4290 2.0436 9.8791 -3.2801 12.3712 -2.8336
# 6 -16.8008 -6.0232 -1.8024 0.4464 -2.8336 43.6516
#
#
#
# Elastic Compliance Matrix: (Units=1/GPa)
#
#
# Indices 1 2 3 4 5 6 
#
# 1 0.022471 -0.004189 0.000405 0.006503 -0.006021 0.007630
# 2 -0.004189 0.014231 -0.007697 0.000003 0.005728 0.000405
# 3 0.000405 -0.007697 0.019770 0.002737 -0.014207 -0.001040
# 4 0.006503 0.000003 0.002737 0.038156 0.005671 0.002594
# 5 -0.006021 0.005728 -0.014207 0.005671 0.096312 0.004080
# 6 0.007630 0.000405 -0.001040 0.002594 0.004080 0.026097
#
#
# Mechanical properties :
#
#
# Convention : Reuss Voigt Hill
#
# Bulk Modulus (GPa) = 29.84153 41.83463 35.83808
# Shear Modulus (GPa) = 19.90687 27.46659 23.68673
#
# Velocity S-wave (km/s) = 2.93896 3.45219 3.20586
# Velocity P-wave (km/s) = 4.94618 5.83455 5.40864
#
# Compressibility (1/GPa) = 0.03351035
#
# Stress axis : x y z
#
# Youngs Moduli (GPa) = 44.50143 70.27041 50.58064
#
# Poissons Ratio (x) = 0.29434 -0.02049
# Poissons Ratio (y) = 0.18640 0.38934
# Poissons Ratio (z) = -0.01803 0.54090
#
# Static dielectric constant tensor:
#      x y z
#    x 1.961060 -0.038350 -0.015520 
#    y -0.038350 1.848540 0.035510 
#    z -0.015520 0.035510 1.848280 
# 
# From -- ./inp_files/10861.got.cif
#   From: 2010.05.17/outbox.cif.g08.bks.cpg/sg2_6_cif.got.tgz:10861.got - 2010.06.03 11:33:40.
