data_PCOD9111600
_publ_section_title
;
Structure prediction by ZEFSAII (Michael W. Deem and Ramdas Pophale) SiO2 
 PCOD9111600
Probable space group: P -1
;
_chemical_formula_sum "Si O2"
_cell_formula_units_Z 16
_cell_length_a 10.146119
_cell_length_b 5.865243
_cell_length_c 11.386542
_cell_angle_alpha 102.029391
_cell_angle_beta 95.825747
_cell_angle_gamma 65.421607
_cell_volume 602.595868
_symmetry_space_group_name_H-M "P -1"
_symmetry_group_IT_number 2
_symmetry_cell_setting 'triclinic'
loop_
_space_group_symop_operation_xyz
x,y,z
-x,-y,-z
loop_
_atom_site_type_symbol
_atom_site_label
_atom_site_fract_x
_atom_site_fract_y
_atom_site_fract_z
Si Si1 0.146840 0.272271 0.531060
Si Si2 0.686901 0.251608 0.472681
Si Si3 0.005979 0.494485 0.760542
Si Si4 0.571411 0.820212 0.878515
Si Si5 0.031748 0.953344 0.199929
Si Si6 0.302279 0.680490 0.787272
Si Si7 0.400700 0.238817 0.377818
Si Si8 0.183237 0.551696 0.986142
O O1 0.145967 0.358280 0.675178
O O2 0.272905 0.247575 0.450747
O O3 0.000000 0.500000 0.500000
O O4 0.163382 0.982855 0.512539
O O5 0.693913 0.371056 0.358634
O O6 0.563191 0.141517 0.432268
O O7 0.637576 0.456112 0.593801
O O8 0.933658 0.289816 0.735877
O O9 0.059881 0.503980 0.898033
O O10 0.938517 0.792535 0.746662
O O11 0.450714 0.713447 0.824866
O O12 0.598710 0.899656 0.759025
O O13 0.726238 0.637853 0.924877
O O14 0.500000 0.000000 0.000000
O O15 0.855063 0.077510 0.187814
O O16 0.114355 0.823699 0.074258
O O17 0.293827 0.526393 0.886184
#
# Coordination Sequence:
#
# PCOD9111600 Si02
#       8
#     2   2   2   2   2   2   2   2
#     4  12  27  44  71 107 141 188 239 319 370 437
#     4  10  22  47  75  96 140 187 248 303 364 444
#     4  11  24  44  72 103 145 191 242 300 372 437
#     4  11  25  42  66 104 147 185 234 306 364 438
#     4  11  23  43  71 105 140 196 241 295 361 446
#     4  10  20  43  67 101 137 186 242 295 369 421
#     4  10  24  46  71 104 137 191 244 297 373 443
#     4  11  24  41  72  99 141 192 242 299 359 447
#
# _framework density 26.551791999999999
#
# number of rings (size 3 to 8) (size 9 to 14) (size 15 to 20)
#    0.000    1.250    1.250    4.875    3.500    2.500 
#    9.000    0.000    0.000    0.000    0.000    0.000 
#    0.000    0.000    0.000    0.000    0.000    0.000 
#
# Total GULP energy -89248.540481 kJ/mol
# GULP energy per Si atom -5578.033780 kJ/mol
# Density = 2.649136 g / cm^3
# Si number density = 26.551792 Si / 1000 Ang^3
#
#
#
# Elastic Constant Matrix: (Units=GPa)
#
#
# Indices 1 2 3 4 5 6 
#
# 1 100.6416 22.1016 50.9619 -18.2309 -10.1481 -7.8229
# 2 22.1016 127.0683 40.0521 8.1897 11.0864 -6.4373
# 3 50.9619 40.0521 167.4251 26.3155 -23.8747 -1.3309
# 4 -18.2309 8.1897 26.3155 42.9687 -3.1412 -13.4398
# 5 -10.1481 11.0864 -23.8747 -3.1412 50.9484 -5.7096
# 6 -7.8229 -6.4373 -1.3309 -13.4398 -5.7096 46.1965
#
#
#
# Elastic Compliance Matrix: (Units=1/GPa)
#
#
# Indices 1 2 3 4 5 6 
#
# 1 0.016811 -0.001611 -0.006510 0.013684 0.002242 0.006693
# 2 -0.001611 0.009148 -0.001941 -0.001442 -0.003296 0.000119
# 3 -0.006510 -0.001941 0.010323 -0.009590 0.002980 -0.003497
# 4 0.013684 -0.001442 -0.009590 0.039697 0.002528 0.013701
# 5 0.002242 -0.003296 0.002980 0.002528 0.022742 0.003553
# 6 0.006693 0.000119 -0.003497 0.013701 0.003553 0.027121
#
#
# Mechanical properties :
#
#
# Convention : Reuss Voigt Hill
#
# Bulk Modulus (GPa) = 61.87898 69.04070 65.45984
# Shear Modulus (GPa) = 33.03559 46.82404 39.92981
#
# Velocity S-wave (km/s) = 3.53114 4.20396 3.88215
# Velocity P-wave (km/s) = 6.32304 7.04436 6.69343
#
# Compressibility (1/GPa) = 0.01616058
#
# Stress axis : x y z
#
# Youngs Moduli (GPa) = 59.48334 109.31071 96.87098
#
# Poissons Ratio (x) = 0.17607 0.63060
# Poissons Ratio (y) = 0.09581 0.18799
# Poissons Ratio (z) = 0.38722 0.21213
#
# Static dielectric constant tensor:
#      x y z
#    x 2.147270 0.067590 -0.032400 
#    y 0.067590 2.186060 -0.047710 
#    z -0.032400 -0.047710 2.085520 
# 
# From -- ./inp_files/410799.got.cif
#   From: 2010.05.17/outbox.cif.g08.bks.cpg/sg2_206_cif.got.tgz:410799.got - 2010.06.03 11:33:40.
