data_PCOD9111982
_publ_section_title
;
Structure prediction by ZEFSAII (Michael W. Deem and Ramdas Pophale) SiO2 
 PCOD9111982
Probable space group: P -1
;
_chemical_formula_sum "Si O2"
_cell_formula_units_Z 15
_cell_length_a 12.829448
_cell_length_b 8.851911
_cell_length_c 5.423810
_cell_angle_alpha 86.766763
_cell_angle_beta 84.654861
_cell_angle_gamma 101.331985
_cell_volume 599.558329
_symmetry_space_group_name_H-M "P -1"
_symmetry_group_IT_number 2
_symmetry_cell_setting 'triclinic'
loop_
_space_group_symop_operation_xyz
x,y,z
-x,-y,-z
loop_
_atom_site_type_symbol
_atom_site_label
_atom_site_fract_x
_atom_site_fract_y
_atom_site_fract_z
Si Si1 0.443590 0.143588 0.071969
Si Si2 0.270097 0.496935 0.190534
Si Si3 0.909589 0.108493 0.803505
Si Si4 0.500000 0.500000 0.000000
Si Si5 0.101086 0.626202 0.893670
Si Si6 0.122744 0.184455 0.433116
Si Si7 0.315953 0.061235 0.620455
Si Si8 0.247176 0.749331 0.475018
O O1 0.514439 0.316466 0.045278
O O2 0.389650 0.114000 0.358102
O O3 0.363381 0.134449 0.857348
O O4 0.500000 0.000000 0.000000
O O5 0.371030 0.442745 0.063303
O O6 0.187314 0.352469 0.334629
O O7 0.313201 0.628303 0.374176
O O8 0.201514 0.578742 0.012533
O O9 0.798116 0.145335 0.722411
O O10 0.012280 0.175505 0.603269
O O11 0.897603 0.925912 0.794093
O O12 0.920887 0.207587 0.038673
O O13 0.137986 0.640762 0.605025
O O14 0.000000 0.500000 0.000000
O O15 0.202323 0.107781 0.591950
O O16 0.302279 0.874781 0.647066
#
# Coordination Sequence:
#
# PCOD9111982 Si02
#       8
#     2   2   2   1   2   2   2   2
#     4  12  28  52  77 111 146 201 257 319 374 453
#     4  11  24  45  66 101 150 182 250 309 375 451
#     4   9  21  40  67  99 141 186 245 298 381 455
#     4  12  28  48  76 110 150 206 254 310 384 452
#     4  11  23  40  69 104 138 191 242 311 381 459
#     4  10  20  44  66 102 143 191 235 316 372 452
#     4  11  26  48  76 104 148 193 253 313 381 449
#     4  10  23  41  71 100 141 195 242 310 377 457
#
# _framework density 25.018416999999999
#
# number of rings (size 3 to 8) (size 9 to 14) (size 15 to 20)
#    0.000    1.333    1.333    2.800    7.467    4.800 
#    2.400    4.000    0.000    0.000    0.000    0.000 
#    0.000    0.000    0.000    0.000    0.000    0.000 
#
# Total GULP energy -83629.264809 kJ/mol
# GULP energy per Si atom -5575.284321 kJ/mol
# Density = 2.496147 g / cm^3
# Si number density = 25.018417 Si / 1000 Ang^3
#
#
#
# Elastic Constant Matrix: (Units=GPa)
#
#
# Indices 1 2 3 4 5 6 
#
# 1 62.5315 32.2966 31.1019 14.6008 -18.5627 -13.9304
# 2 32.2966 167.1296 37.1859 -9.5509 -10.1124 -3.6199
# 3 31.1019 37.1859 76.4398 -1.4426 -18.9337 3.2076
# 4 14.6008 -9.5509 -1.4426 28.4424 2.0706 -11.6285
# 5 -18.5627 -10.1124 -18.9337 2.0706 39.8311 -6.6173
# 6 -13.9304 -3.6199 3.2076 -11.6285 -6.6173 39.8780
#
#
#
# Elastic Compliance Matrix: (Units=1/GPa)
#
#
# Indices 1 2 3 4 5 6 
#
# 1 0.031338 -0.004134 -0.008479 -0.015171 0.011773 0.008783
# 2 -0.004134 0.007490 -0.002198 0.004872 -0.001218 0.000631
# 3 -0.008479 -0.002198 0.018707 0.002994 0.003699 -0.003179
# 4 -0.015171 0.004872 0.002994 0.048455 -0.005582 0.008105
# 5 0.011773 -0.001218 0.003699 -0.005582 0.033603 0.007653
# 6 0.008783 0.000631 -0.003179 0.008105 0.007653 0.032091
#
#
# Mechanical properties :
#
#
# Convention : Reuss Voigt Hill
#
# Bulk Modulus (GPa) = 35.82383 56.36333 46.09358
# Shear Modulus (GPa) = 23.74056 35.33141 29.53598
#
# Velocity S-wave (km/s) = 3.08380 3.76202 3.43967
# Velocity P-wave (km/s) = 5.19902 6.43802 5.85141
#
# Compressibility (1/GPa) = 0.02791438
#
# Stress axis : x y z
#
# Youngs Moduli (GPa) = 31.91006 133.51827 53.45465
#
# Poissons Ratio (x) = 0.55194 0.45323
# Poissons Ratio (y) = 0.13191 0.11748
# Poissons Ratio (z) = 0.27056 0.29345
#
# Static dielectric constant tensor:
#      x y z
#    x 1.958730 0.029900 0.036530 
#    y 0.029900 2.003290 0.013210 
#    z 0.036530 0.013210 2.081210 
# 
# From -- ./inp_files/52768.got.cif
#   From: 2010.05.17/outbox.cif.g08.bks.cpg/sg2_27_cif.got.tgz:52768.got - 2010.06.03 11:33:40.
