data_PCOD9111433
_publ_section_title
;
Structure prediction by ZEFSAII (Michael W. Deem and Ramdas Pophale) SiO2 
 PCOD9111433
Probable space group: P -1
;
_chemical_formula_sum "Si O2"
_cell_formula_units_Z 14
_cell_length_a 12.075953
_cell_length_b 12.511307
_cell_length_c 15.063594
_cell_angle_alpha 152.381075
_cell_angle_beta 36.580567
_cell_angle_gamma 136.812134
_cell_volume 627.501052
_symmetry_space_group_name_H-M "P -1"
_symmetry_group_IT_number 2
_symmetry_cell_setting 'triclinic'
loop_
_space_group_symop_operation_xyz
x,y,z
-x,-y,-z
loop_
_atom_site_type_symbol
_atom_site_label
_atom_site_fract_x
_atom_site_fract_y
_atom_site_fract_z
Si Si1 0.342849 0.941036 0.774952
Si Si2 0.135386 0.798832 0.151438
Si Si3 0.716852 0.081505 0.406879
Si Si4 0.731698 0.852124 0.531161
Si Si5 0.819673 0.377422 0.199354
Si Si6 0.208567 0.398045 0.928951
Si Si7 0.404326 0.466420 0.132569
O O1 0.257807 0.908620 0.707946
O O2 0.564408 0.902262 0.609117
O O3 0.256563 0.765856 0.773923
O O4 0.322175 0.208238 0.008358
O O5 0.929107 0.868196 0.364133
O O6 0.263399 0.965587 0.256120
O O7 0.174335 0.788179 0.013761
O O8 0.169283 0.536414 0.967021
O O9 0.740476 0.337997 0.618359
O O10 0.500000 0.000000 0.500000
O O11 0.812742 0.876602 0.243403
O O12 0.711876 0.599005 0.402303
O O13 0.032229 0.475797 0.156485
O O14 0.417615 0.480881 0.880128
O O15 0.500000 0.500000 0.000000
#
# Coordination Sequence:
#
# PCOD9111433 Si02
#       7
#     2   2   2   2   2   2   2
#     4  12  24  41  64  94 128 156 204 260 311 355
#     4  10  22  39  66  93 121 168 209 243 304 362
#     4  10  23  38  65  91 116 161 208 254 303 360
#     4  10  22  40  63  93 124 167 207 246 296 377
#     4  11  26  39  61  96 129 162 196 258 315 355
#     4  10  20  43  63  88 126 159 207 256 289 374
#     4  11  22  40  65  93 114 163 212 248 300 369
#
# _framework density 22.31072
#
# number of rings (size 3 to 8) (size 9 to 14) (size 15 to 20)
#    0.000    1.429    4.286    2.143    8.000    2.286 
#    0.000    0.714    0.000    0.000    0.000    0.000 
#    0.000    0.000    0.000    0.000    0.000    0.000 
#
# Total GULP energy -78127.607391 kJ/mol
# GULP energy per Si atom -5580.543385 kJ/mol
# Density = 2.225994 g / cm^3
# Si number density = 22.310720 Si / 1000 Ang^3
#
#
#
# Elastic Constant Matrix: (Units=GPa)
#
#
# Indices 1 2 3 4 5 6 
#
# 1 72.6673 20.5259 36.9686 4.4736 10.4179 -27.9737
# 2 20.5259 83.0771 22.7787 13.1348 11.5579 -33.9409
# 3 36.9686 22.7787 107.8158 37.7858 8.4333 -18.8864
# 4 4.4736 13.1348 37.7858 35.1756 -2.9374 -3.0245
# 5 10.4179 11.5579 8.4333 -2.9374 38.1126 0.3170
# 6 -27.9737 -33.9409 -18.8864 -3.0245 0.3170 33.5267
#
#
#
# Elastic Compliance Matrix: (Units=1/GPa)
#
#
# Indices 1 2 3 4 5 6 
#
# 1 0.025257 0.005749 -0.006029 0.002553 -0.007314 0.023796
# 2 0.005749 0.026611 0.003416 -0.012502 -0.011632 0.032643
# 3 -0.006029 0.003416 0.020104 -0.021898 -0.005589 0.007831
# 4 0.002553 -0.012502 -0.021898 0.055787 0.012388 -0.017947
# 5 -0.007314 -0.011632 -0.005589 0.012388 0.034125 -0.020233
# 6 0.023796 0.032643 0.007831 -0.017947 -0.020233 0.085712
#
#
# Mechanical properties :
#
#
# Convention : Reuss Voigt Hill
#
# Bulk Modulus (GPa) = 12.78050 47.12296 29.95173
# Shear Modulus (GPa) = 18.69830 33.58212 26.14021
#
# Velocity S-wave (km/s) = 2.89811 3.88390 3.42664
# Velocity P-wave (km/s) = 4.11577 6.42495 5.39535
#
# Compressibility (1/GPa) = 0.07824422
#
# Stress axis : x y z
#
# Youngs Moduli (GPa) = 39.59366 37.57826 49.74136
#
# Poissons Ratio (x) = -0.21603 0.29988
# Poissons Ratio (y) = -0.22761 -0.16993
# Poissons Ratio (z) = 0.23870 -0.12838
#
# Static dielectric constant tensor:
#      x y z
#    x 1.932490 0.059560 0.039640 
#    y 0.059560 1.828170 0.016710 
#    z 0.039640 0.016710 1.910140 
# 
# From -- ./inp_files/519320.got.cif
#   From: 2010.05.17/outbox.cif.g08.bks.cpg/sg2_260_cif.got.tgz:519320.got - 2010.06.03 11:33:40.
