data_PCOD9111222
_publ_section_title
;
Structure prediction by ZEFSAII (Michael W. Deem and Ramdas Pophale) SiO2 
 PCOD9111222
Probable space group: P -1
;
_chemical_formula_sum "Si O2"
_cell_formula_units_Z 16
_cell_length_a 9.528591
_cell_length_b 28.505448
_cell_length_c 28.250568
_cell_angle_alpha 10.279066
_cell_angle_beta 39.587566
_cell_angle_gamma 38.691194
_cell_volume 855.706950
_symmetry_space_group_name_H-M "P -1"
_symmetry_group_IT_number 2
_symmetry_cell_setting 'triclinic'
loop_
_space_group_symop_operation_xyz
x,y,z
-x,-y,-z
loop_
_atom_site_type_symbol
_atom_site_label
_atom_site_fract_x
_atom_site_fract_y
_atom_site_fract_z
Si Si1 0.168758 0.450288 0.318895
Si Si2 0.237135 0.555190 0.505577
Si Si3 0.341241 0.918956 0.954479
Si Si4 0.515038 0.615526 0.605770
Si Si5 0.720389 0.359645 0.054865
Si Si6 0.834234 0.942577 0.041674
Si Si7 0.988024 0.176633 0.486731
Si Si8 0.825904 0.054464 0.240730
O O1 0.338941 0.450508 0.318734
O O2 0.131287 0.731560 0.021582
O O3 0.928149 0.411882 0.439538
O O4 0.252938 0.193865 0.517672
O O5 0.500000 0.500000 0.500000
O O6 0.196515 0.303989 0.736352
O O7 0.173016 0.810281 0.236042
O O8 0.484840 0.651566 0.160113
O O9 0.087771 0.867866 0.068730
O O10 0.375291 0.172567 0.663105
O O11 0.354727 0.986402 0.939258
O O12 0.253857 0.746430 0.550436
O O13 0.881245 0.576198 0.792090
O O14 0.666634 0.237450 0.139139
O O15 0.500000 0.500000 0.000000
O O16 0.858683 0.089206 0.311947
O O17 0.973850 0.080334 0.641224
#
# Coordination Sequence:
#
# PCOD9111222 Si02
#       8
#     2   2   2   2   2   2   2   2
#     4  12  22  40  61  85 130 164 198 254 318 368
#     4  12  25  40  56  83 118 167 210 256 313 367
#     4  11  22  38  64  77 113 160 208 264 308 359
#     4  12  23  39  63  90 124 161 201 262 318 355
#     4  10  20  42  70  95 126 158 199 244 293 364
#     4  11  22  42  55  84 107 154 223 253 308 367
#     4  10  22  39  62 101 119 153 211 240 295 357
#     4  10  22  39  62  94 118 162 204 237 304 371
#
# _framework density 18.697990000000001
#
# number of rings (size 3 to 8) (size 9 to 14) (size 15 to 20)
#    0.750    0.250    3.750    3.750    0.000    5.000 
#    0.000    0.000    0.000    4.500    0.000    0.000 
#    0.000    0.000    0.000    0.000    0.000    0.000 
#
# Total GULP energy -89178.797939 kJ/mol
# GULP energy per Si atom -5573.674871 kJ/mol
# Density = 1.865543 g / cm^3
# Si number density = 18.697990 Si / 1000 Ang^3
#
#
#
# Elastic Constant Matrix: (Units=GPa)
#
#
# Indices 1 2 3 4 5 6 
#
# 1 25.6506 25.9942 11.9459 3.1170 -0.4216 -5.5130
# 2 25.9942 76.7842 11.4154 -15.5587 -2.5007 -4.4655
# 3 11.9459 11.4154 113.4901 -13.8835 -8.0661 4.2428
# 4 3.1170 -15.5587 -13.8835 30.2300 0.1494 -0.0508
# 5 -0.4216 -2.5007 -8.0661 0.1494 18.0427 -6.2919
# 6 -5.5130 -4.4655 4.2428 -0.0508 -6.2919 22.0229
#
#
#
# Elastic Compliance Matrix: (Units=1/GPa)
#
#
# Indices 1 2 3 4 5 6 
#
# 1 0.082228 -0.031404 -0.009715 -0.029071 -0.001052 0.015721
# 2 -0.031404 0.026943 0.003193 0.018550 0.003597 -0.001943
# 3 -0.009715 0.003193 0.010831 0.007595 0.004055 -0.002695
# 4 -0.029071 0.018550 0.007595 0.049089 0.003536 -0.003856
# 5 -0.001052 0.003597 0.004055 0.003536 0.063945 0.017962
# 6 0.015721 -0.001943 -0.002695 -0.003856 0.017962 0.054591
#
#
# Mechanical properties :
#
#
# Convention : Reuss Voigt Hill
#
# Bulk Modulus (GPa) = 22.64988 34.95956 28.80472
# Shear Modulus (GPa) = 13.22066 25.16373 19.19220
#
# Velocity S-wave (km/s) = 2.66195 3.67249 3.20727
# Velocity P-wave (km/s) = 4.64627 6.05974 5.39946
#
# Compressibility (1/GPa) = 0.04415034
#
# Stress axis : x y z
#
# Youngs Moduli (GPa) = 12.16124 37.11531 92.32889
#
# Poissons Ratio (x) = 1.16555 0.89702
# Poissons Ratio (y) = 0.38191 -0.29481
# Poissons Ratio (z) = 0.11815 -0.11851
#
# Static dielectric constant tensor:
#      x y z
#    x 1.808010 -0.104470 0.072330 
#    y -0.104470 1.854910 -0.158120 
#    z 0.072330 -0.158120 1.757070 
# 
# From -- ./inp_files/617660.got.cif
#   From: 2010.05.17/outbox.cif.g08.bks.cpg/sg2_309_cif.got.tgz:617660.got - 2010.06.03 11:33:40.
