data_PCOD9111357
_publ_section_title
;
Structure prediction by ZEFSAII (Michael W. Deem and Ramdas Pophale) SiO2 
 PCOD9111357
Probable space group: P -1
;
_chemical_formula_sum "Si O2"
_cell_formula_units_Z 15
_cell_length_a 8.021684
_cell_length_b 11.196094
_cell_length_c 9.484849
_cell_angle_alpha 131.235770
_cell_angle_beta 114.803871
_cell_angle_gamma 83.290146
_cell_volume 565.364112
_symmetry_space_group_name_H-M "P -1"
_symmetry_group_IT_number 2
_symmetry_cell_setting 'triclinic'
loop_
_space_group_symop_operation_xyz
x,y,z
-x,-y,-z
loop_
_atom_site_type_symbol
_atom_site_label
_atom_site_fract_x
_atom_site_fract_y
_atom_site_fract_z
Si Si1 0.194408 0.535855 0.182474
Si Si2 0.000000 0.000000 0.000000
Si Si3 0.780477 0.589247 0.591992
Si Si4 0.897852 0.836856 0.606479
Si Si5 0.468714 0.638191 0.889322
Si Si6 0.412668 0.156840 0.169233
Si Si7 0.760249 0.120617 0.439583
Si Si8 0.433607 0.152670 0.661798
O O1 0.162848 0.480774 0.295325
O O2 0.358245 0.453526 0.117383
O O3 0.260569 0.731233 0.352442
O O4 0.000000 0.500000 0.000000
O O5 0.076522 0.984205 0.180968
O O6 0.219678 0.031651 0.039593
O O7 0.928704 0.749529 0.701453
O O8 0.712832 0.463299 0.342526
O O9 0.609318 0.671922 0.635399
O O10 0.685335 0.768291 0.429586
O O11 0.046477 0.823558 0.533188
O O12 0.549616 0.790889 0.935817
O O13 0.437761 0.712582 0.087938
O O14 0.590798 0.111247 0.263862
O O15 0.736556 0.951415 0.379921
O O16 0.500000 0.000000 0.500000
#
# Coordination Sequence:
#
# PCOD9111357 Si02
#       8
#     2   1   2   2   2   2   2   2
#     4  11  23  44  76 116 147 191 240 310 373 448
#     4  10  22  40  68  96 140 188 238 296 360 430
#     4  10  21  46  74 107 148 195 252 296 366 453
#     4  11  26  44  70 106 151 196 249 311 365 448
#     4  11  22  46  77 101 146 205 244 300 379 441
#     4  10  20  42  74 106 136 194 247 298 368 450
#     4  12  24  46  72 106 151 187 253 308 377 438
#     4  12  28  46  69 106 146 196 256 317 368 440
#
# _framework density 26.531575
#
# number of rings (size 3 to 8) (size 9 to 14) (size 15 to 20)
#    0.000    1.067    2.667    4.400    0.000    7.467 
#    2.400    0.000    0.000    0.000    0.000    0.000 
#    0.000    0.000    0.000    0.000    0.000    0.000 
#
# Total GULP energy -83727.041868 kJ/mol
# GULP energy per Si atom -5581.802791 kJ/mol
# Density = 2.647119 g / cm^3
# Si number density = 26.531575 Si / 1000 Ang^3
#
#
#
# Elastic Constant Matrix: (Units=GPa)
#
#
# Indices 1 2 3 4 5 6 
#
# 1 65.6001 19.7466 30.8154 -12.5258 18.4809 5.6578
# 2 19.7466 119.6794 34.6227 -8.3560 11.9768 -1.3134
# 3 30.8154 34.6227 151.3866 -17.1726 -11.5614 -19.8997
# 4 -12.5258 -8.3560 -17.1726 38.6747 -6.0660 3.6988
# 5 18.4809 11.9768 -11.5614 -6.0660 44.7086 -4.3448
# 6 5.6578 -1.3134 -19.8997 3.6988 -4.3448 21.2407
#
#
#
# Elastic Compliance Matrix: (Units=1/GPa)
#
#
# Indices 1 2 3 4 5 6 
#
# 1 0.025203 -0.000422 -0.007915 0.004125 -0.013506 -0.017636
# 2 -0.000422 0.009509 -0.002605 0.000493 -0.003221 -0.002485
# 3 -0.007915 -0.002605 0.011563 0.002001 0.008611 0.014193
# 4 0.004125 0.000493 0.002001 0.028899 0.002235 -0.003769
# 5 -0.013506 -0.003221 0.008611 0.002235 0.033076 0.017842
# 6 -0.017636 -0.002485 0.014193 -0.003769 0.017842 0.069226
#
#
# Mechanical properties :
#
#
# Convention : Reuss Voigt Hill
#
# Bulk Modulus (GPa) = 41.00362 56.33728 48.67045
# Shear Modulus (GPa) = 24.09746 37.69023 30.89385
#
# Velocity S-wave (km/s) = 3.01700 3.77315 3.41606
# Velocity P-wave (km/s) = 5.25591 6.34526 5.82610
#
# Compressibility (1/GPa) = 0.02438809
#
# Stress axis : x y z
#
# Youngs Moduli (GPa) = 39.67831 105.16831 86.48385
#
# Poissons Ratio (x) = 0.04443 0.68454
# Poissons Ratio (y) = 0.01676 0.22532
# Poissons Ratio (z) = 0.31406 0.27400
#
# Static dielectric constant tensor:
#      x y z
#    x 2.085630 0.020560 -0.074100 
#    y 0.020560 2.036210 -0.169920 
#    z -0.074100 -0.169920 1.790480 
# 
# From -- ./inp_files/191005.got.cif
#   From: 2010.05.17/outbox.cif.g08.bks.cpg/sg2_96_cif.got.tgz:191005.got - 2010.06.03 11:33:40.
