data_PCOD9111733
_publ_section_title
;
Structure prediction by ZEFSAII (Michael W. Deem and Ramdas Pophale) SiO2 
 PCOD9111733
Probable space group: P -1
;
_chemical_formula_sum "Si O2"
_cell_formula_units_Z 16
_cell_length_a 8.797958
_cell_length_b 9.473186
_cell_length_c 15.407371
_cell_angle_alpha 104.022875
_cell_angle_beta 40.473642
_cell_angle_gamma 92.095341
_cell_volume 786.106088
_symmetry_space_group_name_H-M "P -1"
_symmetry_group_IT_number 2
_symmetry_cell_setting 'triclinic'
loop_
_space_group_symop_operation_xyz
x,y,z
-x,-y,-z
loop_
_atom_site_type_symbol
_atom_site_label
_atom_site_fract_x
_atom_site_fract_y
_atom_site_fract_z
Si Si1 0.820124 0.839231 0.806748
Si Si2 0.778317 0.955309 0.140019
Si Si3 0.665037 0.240267 0.346301
Si Si4 0.086035 0.362103 0.875077
Si Si5 0.997111 0.551932 0.606709
Si Si6 0.539350 0.138833 0.885321
Si Si7 0.233427 0.595050 0.156526
Si Si8 0.548268 0.566818 0.386439
O O1 0.831758 0.718372 0.709105
O O2 0.089181 0.829910 0.720172
O O3 0.694178 0.998153 0.848543
O O4 0.676612 0.794270 0.943827
O O5 0.895544 0.803803 0.120170
O O6 0.590025 0.910025 0.148926
O O7 0.642459 0.103490 0.274431
O O8 0.000000 0.000000 0.000000
O O9 0.694026 0.393846 0.309384
O O10 0.454261 0.312567 0.517047
O O11 0.353937 0.370546 0.731357
O O12 0.926970 0.387546 0.859332
O O13 0.000000 0.500000 0.000000
O O14 0.896209 0.467898 0.716471
O O15 0.000000 0.500000 0.500000
O O16 0.272952 0.556358 0.503900
O O17 0.709147 0.250659 0.813247
O O18 0.500000 0.500000 0.000000
#
# Coordination Sequence:
#
# PCOD9111733 Si02
#       8
#     2   2   2   2   2   2   2   2
#     4  10  21  42  66  97 135 184 221 289 347 414
#     4  12  25  40  68 100 138 184 239 290 347 421
#     4  10  20  43  69  93 132 179 233 283 349 414
#     4  12  27  44  73 105 140 184 243 295 348 422
#     4  11  26  44  74 103 142 185 233 284 361 425
#     4  11  24  40  68 100 144 177 232 287 357 405
#     4  12  25  44  71 105 142 180 233 295 348 414
#     4  10  24  44  72  96 135 184 234 287 355 418
#
# _framework density 20.353489
#
# number of rings (size 3 to 8) (size 9 to 14) (size 15 to 20)
#    0.000    1.000    2.500    4.500    7.000    0.500 
#    0.000    3.125    0.000    0.000    0.000    0.000 
#    0.000    0.000    0.000    0.000    0.000    0.000 
#
# Total GULP energy -89250.528789 kJ/mol
# GULP energy per Si atom -5578.158049 kJ/mol
# Density = 2.030716 g / cm^3
# Si number density = 20.353489 Si / 1000 Ang^3
#
#
#
# Elastic Constant Matrix: (Units=GPa)
#
#
# Indices 1 2 3 4 5 6 
#
# 1 97.2241 39.5871 38.5258 3.7215 6.5817 10.6047
# 2 39.5871 138.4725 74.3089 -4.6652 12.6699 7.1406
# 3 38.5258 74.3089 133.1877 1.3385 19.1810 10.2889
# 4 3.7215 -4.6652 1.3385 47.7076 8.4500 7.5113
# 5 6.5817 12.6699 19.1810 8.4500 33.6281 9.5282
# 6 10.6047 7.1406 10.2889 7.5113 9.5282 35.1998
#
#
#
# Elastic Compliance Matrix: (Units=1/GPa)
#
#
# Indices 1 2 3 4 5 6 
#
# 1 0.012363 -0.002327 -0.002159 -0.000833 0.000639 -0.002617
# 2 -0.002327 0.010851 -0.005247 0.001576 -0.001029 -0.000024
# 3 -0.002159 -0.005247 0.011702 0.000158 -0.004140 -0.000619
# 4 -0.000833 0.001576 0.000158 0.022656 -0.005211 -0.003539
# 5 0.000639 -0.001029 -0.004140 -0.005211 0.035750 -0.007339
# 6 -0.002617 -0.000024 -0.000619 -0.003539 -0.007339 0.032125
#
#
# Mechanical properties :
#
#
# Convention : Reuss Voigt Hill
#
# Bulk Modulus (GPa) = 64.72465 74.85864 69.79165
# Shear Modulus (GPa) = 33.31938 37.73794 35.52866
#
# Velocity S-wave (km/s) = 4.05042 4.31063 4.18255
# Velocity P-wave (km/s) = 7.33102 7.85076 7.59534
#
# Compressibility (1/GPa) = 0.01545006
#
# Stress axis : x y z
#
# Youngs Moduli (GPa) = 80.88853 92.15745 85.45258
#
# Poissons Ratio (x) = 0.21447 0.18451
# Poissons Ratio (y) = 0.18825 0.44834
# Poissons Ratio (z) = 0.17465 0.48351
#
# Static dielectric constant tensor:
#      x y z
#    x 1.775730 0.018650 0.041430 
#    y 0.018650 1.770890 0.019070 
#    z 0.041430 0.019070 1.761840 
# 
# From -- ./inp_files/495361.got.cif
#   From: 2010.05.17/outbox.cif.g08.bks.cpg/sg2_248_cif.got.tgz:495361.got - 2010.06.03 11:33:40.
