data_PCOD9111242
_publ_section_title
;
Structure prediction by ZEFSAII (Michael W. Deem and Ramdas Pophale) SiO2 
 PCOD9111242
Probable space group: P -1
;
_chemical_formula_sum "Si O2"
_cell_formula_units_Z 14
_cell_length_a 11.291605
_cell_length_b 11.537975
_cell_length_c 13.258148
_cell_angle_alpha 110.371796
_cell_angle_beta 157.601779
_cell_angle_gamma 72.290951
_cell_volume 616.252402
_symmetry_space_group_name_H-M "P -1"
_symmetry_group_IT_number 2
_symmetry_cell_setting 'triclinic'
loop_
_space_group_symop_operation_xyz
x,y,z
-x,-y,-z
loop_
_atom_site_type_symbol
_atom_site_label
_atom_site_fract_x
_atom_site_fract_y
_atom_site_fract_z
Si Si1 0.272400 0.585989 0.787196
Si Si2 0.436658 0.611828 0.557999
Si Si3 0.306112 0.877882 0.225993
Si Si4 0.978987 0.810363 0.735566
Si Si5 0.634392 0.878850 0.761467
Si Si6 0.769601 0.678398 0.047133
Si Si7 0.704644 0.960087 0.054373
O O1 0.481651 0.654309 0.887372
O O2 0.000000 0.500000 0.500000
O O3 0.116068 0.687965 0.762463
O O4 0.500000 0.500000 0.000000
O O5 0.500000 0.500000 0.500000
O O6 0.498073 0.743072 0.590052
O O7 0.658516 0.625214 0.834509
O O8 0.074106 0.610723 0.302024
O O9 0.608663 0.801672 0.456297
O O10 0.411439 0.021385 0.331361
O O11 0.149204 0.838357 0.983524
O O12 0.010821 0.870247 0.064900
O O13 0.065378 0.924520 0.761721
O O14 0.519115 0.928406 0.793613
O O15 0.839151 0.826741 0.143651
O O16 0.500000 0.000000 0.000000
#
# Coordination Sequence:
#
# PCOD9111242 Si02
#       7
#     2   2   2   2   2   2   2
#     4  12  26  44  64  94 133 174 224 269 327 398
#     4  11  24  42  67  95 132 174 223 265 332 392
#     4  10  22  40  66  94 137 165 217 273 325 394
#     4  11  23  42  67  98 126 179 218 266 337 385
#     4   9  22  40  63 102 133 173 215 273 330 389
#     4  11  24  45  67  98 131 171 220 286 323 388
#     4  10  20  42  70  98 130 169 218 277 329 387
#
# _framework density 22.717963999999998
#
# number of rings (size 3 to 8) (size 9 to 14) (size 15 to 20)
#    0.000    1.429    1.429    3.000    0.000   10.857 
#    0.000    2.857    0.000    0.000    0.000    0.000 
#    0.000    0.000    0.000    0.000    0.000    0.000 
#
# Total GULP energy -78352.221045 kJ/mol
# GULP energy per Si atom -5596.587218 kJ/mol
# Density = 2.266626 g / cm^3
# Si number density = 22.717964 Si / 1000 Ang^3
#
#
#
# Elastic Constant Matrix: (Units=GPa)
#
#
# Indices 1 2 3 4 5 6 
#
# 1 117.0857 45.7951 26.1721 0.1739 5.4632 -22.6168
# 2 45.7951 141.4471 43.6695 -1.4910 -2.2223 -36.2347
# 3 26.1721 43.6695 127.2376 -12.3143 2.9858 -12.3470
# 4 0.1739 -1.4910 -12.3143 30.6489 -2.9721 3.6585
# 5 5.4632 -2.2223 2.9858 -2.9721 25.1816 -3.9142
# 6 -22.6168 -36.2347 -12.3470 3.6585 -3.9142 42.4462
#
#
#
# Elastic Compliance Matrix: (Units=1/GPa)
#
#
# Indices 1 2 3 4 5 6 
#
# 1 0.010380 -0.002231 -0.001127 -0.001194 -0.001956 0.003221
# 2 -0.002231 0.010520 -0.002610 -0.001140 0.002735 0.007383
# 3 -0.001127 -0.002610 0.009305 0.003606 -0.000741 -0.000501
# 4 -0.001194 -0.001140 0.003606 0.034738 0.003326 -0.003248
# 5 -0.001956 0.002735 -0.000741 0.003326 0.041577 0.004624
# 6 0.003221 0.007383 -0.000501 -0.003248 0.004624 0.032139
#
#
# Mechanical properties :
#
#
# Convention : Reuss Voigt Hill
#
# Bulk Modulus (GPa) = 54.73372 68.56043 61.64707
# Shear Modulus (GPa) = 31.91140 37.66425 34.78782
#
# Velocity S-wave (km/s) = 3.75197 4.07616 3.91742
# Velocity P-wave (km/s) = 6.55093 7.23864 6.90335
#
# Compressibility (1/GPa) = 0.01827027
#
# Stress axis : x y z
#
# Youngs Moduli (GPa) = 96.33472 95.05543 107.47448
#
# Poissons Ratio (x) = 0.21208 0.12108
# Poissons Ratio (y) = 0.21493 0.28049
# Poissons Ratio (z) = 0.10853 0.24808
#
# Static dielectric constant tensor:
#      x y z
#    x 1.864940 0.033930 -0.018480 
#    y 0.033930 1.829270 0.009840 
#    z -0.018480 0.009840 1.863650 
# 
# From -- ./inp_files/71532.got.cif
#   From: 2010.05.17/outbox.cif.g08.bks.cpg/sg2_36_cif.got.tgz:71532.got - 2010.06.03 11:33:40.
