data_PCOD9111734
_publ_section_title
;
Structure prediction by ZEFSAII (Michael W. Deem and Ramdas Pophale) SiO2 
 PCOD9111734
Probable space group: P -1
;
_chemical_formula_sum "Si O2"
_cell_formula_units_Z 16
_cell_length_a 5.245111
_cell_length_b 26.983720
_cell_length_c 5.808392
_cell_angle_alpha 66.658919
_cell_angle_beta 87.025194
_cell_angle_gamma 55.894421
_cell_volume 609.103704
_symmetry_space_group_name_H-M "P -1"
_symmetry_group_IT_number 2
_symmetry_cell_setting 'triclinic'
loop_
_space_group_symop_operation_xyz
x,y,z
-x,-y,-z
loop_
_atom_site_type_symbol
_atom_site_label
_atom_site_fract_x
_atom_site_fract_y
_atom_site_fract_z
Si Si1 0.306034 0.799042 0.322288
Si Si2 0.781068 0.832165 0.661237
Si Si3 0.138658 0.589991 0.690165
Si Si4 0.245334 0.451925 0.383497
Si Si5 0.829092 0.917533 0.884377
Si Si6 0.425233 0.322682 0.775104
Si Si7 0.308792 0.956113 0.223359
Si Si8 0.840537 0.710533 0.780178
O O1 0.339138 0.743809 0.254206
O O2 0.650119 0.761084 0.485744
O O3 0.051045 0.815806 0.496960
O O4 0.182114 0.865563 0.064002
O O5 0.794913 0.874786 0.781122
O O6 0.428510 0.887057 0.470126
O O7 0.861216 0.760053 0.852404
O O8 0.504339 0.534286 0.724179
O O9 0.938400 0.559419 0.784838
O O10 0.925533 0.638567 0.396635
O O11 0.115999 0.639061 0.796525
O O12 0.475225 0.379172 0.630074
O O13 0.000000 0.500000 0.500000
O O14 0.749094 0.988631 0.690339
O O15 0.593722 0.934851 0.075590
O O16 0.387750 0.305020 0.063319
O O17 0.000000 0.000000 0.000000
#
# Coordination Sequence:
#
# PCOD9111734 Si02
#       8
#     2   2   2   2   2   2   2   2
#     4  10  21  40  59  86 124 158 206 262 324 380
#     4  11  23  36  63  87 122 161 212 265 329 391
#     4   9  22  40  65  95 135 170 220 270 322 383
#     4  10  20  43  69  93 133 180 217 266 326 385
#     4  10  22  38  59  90 115 158 213 264 323 389
#     4   9  22  37  63  92 127 165 213 265 320 389
#     4  10  22  40  58  81 122 161 207 267 324 387
#     4  11  22  39  60  94 124 169 208 268 323 388
#
# _framework density 26.268106
#
# number of rings (size 3 to 8) (size 9 to 14) (size 15 to 20)
#    0.750    1.250    0.000    3.000    0.000    8.500 
#    0.000    1.250    0.000    0.000    0.000    0.000 
#    0.000    0.000    0.000    0.000    0.000    0.000 
#
# Total GULP energy -89343.714895 kJ/mol
# GULP energy per Si atom -5583.982181 kJ/mol
# Density = 2.620832 g / cm^3
# Si number density = 26.268106 Si / 1000 Ang^3
#
#
#
# Elastic Constant Matrix: (Units=GPa)
#
#
# Indices 1 2 3 4 5 6 
#
# 1 83.8046 18.5801 6.6995 -6.1188 9.3855 -6.2741
# 2 18.5801 142.5867 18.0960 12.2322 -2.0810 2.7530
# 3 6.6995 18.0960 42.3659 -2.2917 8.5669 -1.5389
# 4 -6.1188 12.2322 -2.2917 35.0570 8.2491 -1.2002
# 5 9.3855 -2.0810 8.5669 8.2491 34.4611 -2.3435
# 6 -6.2741 2.7530 -1.5389 -1.2002 -2.3435 41.6206
#
#
#
# Elastic Compliance Matrix: (Units=1/GPa)
#
#
# Indices 1 2 3 4 5 6 
#
# 1 0.013414 -0.002237 0.000092 0.004304 -0.004703 0.002033
# 2 -0.002237 0.008252 -0.004062 -0.004293 0.003078 -0.000984
# 3 0.000092 -0.004062 0.027305 0.005189 -0.008234 0.000978
# 4 0.004304 -0.004293 0.005189 0.033678 -0.010682 0.001494
# 5 -0.004703 0.003078 -0.008234 -0.010682 0.035120 0.000452
# 6 0.002033 -0.000984 0.000978 0.001494 0.000452 0.024503
#
#
# Mechanical properties :
#
#
# Convention : Reuss Voigt Hill
#
# Bulk Modulus (GPa) = 27.35291 39.50095 33.42693
# Shear Modulus (GPa) = 29.96307 37.25317 33.60812
#
# Velocity S-wave (km/s) = 3.38103 3.76997 3.58079
# Velocity P-wave (km/s) = 5.06729 5.83271 5.46342
#
# Compressibility (1/GPa) = 0.03655919
#
# Stress axis : x y z
#
# Youngs Moduli (GPa) = 74.54753 121.17625 36.62268
#
# Poissons Ratio (x) = 0.27104 -0.00336
# Poissons Ratio (y) = 0.16675 0.14875
# Poissons Ratio (z) = -0.00685 0.49217
#
# Static dielectric constant tensor:
#      x y z
#    x 2.137940 0.048400 0.051990 
#    y 0.048400 2.056970 -0.012370 
#    z 0.051990 -0.012370 2.183740 
# 
# From -- ./inp_files/14572.got.cif
#   From: 2010.05.17/outbox.cif.g08.bks.cpg/sg2_8_cif.got.tgz:14572.got - 2010.06.03 11:33:40.
