data_PCOD9111626
_publ_section_title
;
Structure prediction by ZEFSAII (Michael W. Deem and Ramdas Pophale) SiO2 
 PCOD9111626
Probable space group: P -1
;
_chemical_formula_sum "Si O2"
_cell_formula_units_Z 16
_cell_length_a 15.402909
_cell_length_b 22.399507
_cell_length_c 8.075274
_cell_angle_alpha 131.006263
_cell_angle_beta 130.429627
_cell_angle_gamma 19.225077
_cell_volume 687.593772
_symmetry_space_group_name_H-M "P -1"
_symmetry_group_IT_number 2
_symmetry_cell_setting 'triclinic'
loop_
_space_group_symop_operation_xyz
x,y,z
-x,-y,-z
loop_
_atom_site_type_symbol
_atom_site_label
_atom_site_fract_x
_atom_site_fract_y
_atom_site_fract_z
Si Si1 0.187248 0.999308 0.822226
Si Si2 0.671921 0.972541 0.670149
Si Si3 0.763565 0.413375 0.342627
Si Si4 0.948257 0.989110 0.660285
Si Si5 0.184049 0.387465 0.757551
Si Si6 0.259884 0.416137 0.249472
Si Si7 0.401613 0.621455 0.740074
Si Si8 0.646184 0.587919 0.198591
O O1 0.496616 0.792783 0.790010
O O2 0.077849 0.993383 0.783404
O O3 0.044433 0.074175 0.606204
O O4 0.202168 0.069247 0.079108
O O5 0.945103 0.779859 0.568170
O O6 0.500000 0.000000 0.500000
O O7 0.473123 0.164473 0.708274
O O8 0.628716 0.565458 0.564649
O O9 0.632305 0.411236 0.197415
O O10 0.750868 0.462259 0.237780
O O11 0.125410 0.836003 0.739108
O O12 0.643563 0.197936 0.713040
O O13 0.171115 0.453157 0.704724
O O14 0.967249 0.457428 0.665357
O O15 0.162977 0.455065 0.019073
O O16 0.500000 0.500000 0.500000
O O17 0.598807 0.566788 0.936235
#
# Coordination Sequence:
#
# PCOD9111626 Si02
#       8
#     2   2   2   2   2   2   2   2
#     4  10  22  41  69 100 131 178 223 276 329 397
#     4  11  22  41  66  98 134 172 216 272 340 386
#     4  12  24  41  64  99 135 167 222 279 336 382
#     4  11  23  43  70  95 135 176 230 270 330 403
#     4  10  22  42  71  90 130 176 229 260 326 410
#     4  10  20  43  67  95 126 177 220 269 323 401
#     4  12  26  41  65  98 136 172 218 281 341 393
#     4  12  25  43  67 101 128 180 226 274 330 398
#
# _framework density 23.269552000000001
#
# number of rings (size 3 to 8) (size 9 to 14) (size 15 to 20)
#    0.000    1.000    2.500    5.250    3.500    0.500 
#    0.000    0.000    0.000    5.250    0.000    0.000 
#    0.000    0.000    0.000    0.000    0.000    0.000 
#
# Total GULP energy -89307.195631 kJ/mol
# GULP energy per Si atom -5581.699727 kJ/mol
# Density = 2.321659 g / cm^3
# Si number density = 23.269552 Si / 1000 Ang^3
#
#
#
# Elastic Constant Matrix: (Units=GPa)
#
#
# Indices 1 2 3 4 5 6 
#
# 1 137.6060 40.1256 30.9209 -12.4414 12.6556 18.4770
# 2 40.1256 74.4076 -6.5065 13.6074 -0.4960 2.6930
# 3 30.9209 -6.5065 127.6548 -10.6389 18.0191 12.7606
# 4 -12.4414 13.6074 -10.6389 31.1427 -4.8907 3.6678
# 5 12.6556 -0.4960 18.0191 -4.8907 34.4995 -8.3105
# 6 18.4770 2.6930 12.7606 3.6678 -8.3105 32.3727
#
#
#
# Elastic Compliance Matrix: (Units=1/GPa)
#
#
# Indices 1 2 3 4 5 6 
#
# 1 0.012008 -0.007788 -0.001202 0.007982 -0.004643 -0.007828
# 2 -0.007788 0.019715 0.001268 -0.011485 0.001832 0.004077
# 3 -0.001202 0.001268 0.009603 0.001960 -0.005440 -0.004823
# 4 0.007982 -0.011485 0.001960 0.042014 -0.000385 -0.009232
# 5 -0.004643 0.001832 -0.005440 -0.000385 0.036914 0.014162
# 6 -0.007828 0.004077 -0.004823 -0.009232 0.014162 0.041602
#
#
# Mechanical properties :
#
#
# Convention : Reuss Voigt Hill
#
# Bulk Modulus (GPa) = 38.63807 52.08318 45.36062
# Shear Modulus (GPa) = 26.89219 37.94489 32.41854
#
# Velocity S-wave (km/s) = 3.40322 4.04253 3.73657
# Velocity P-wave (km/s) = 5.66420 6.64985 6.17672
#
# Compressibility (1/GPa) = 0.02588121
#
# Stress axis : x y z
#
# Youngs Moduli (GPa) = 83.27658 50.72220 104.13535
#
# Poissons Ratio (x) = 0.39503 0.12522
# Poissons Ratio (y) = 0.64857 -0.13205
# Poissons Ratio (z) = 0.10014 -0.06432
#
# Static dielectric constant tensor:
#      x y z
#    x 1.877780 -0.022010 -0.033650 
#    y -0.022010 1.847120 0.004240 
#    z -0.033650 0.004240 1.946310 
# 
# From -- ./inp_files/319482.got.cif
#   From: 2010.05.17/outbox.cif.g08.bks.cpg/sg2_160_cif.got.tgz:319482.got - 2010.06.03 11:33:40.
