data_PCOD9111288
_publ_section_title
;
Structure prediction by ZEFSAII (Michael W. Deem and Ramdas Pophale) SiO2 
 PCOD9111288
Probable space group: P -1
;
_chemical_formula_sum "Si O2"
_cell_formula_units_Z 13
_cell_length_a 22.800738
_cell_length_b 5.951382
_cell_length_c 22.592801
_cell_angle_alpha 120.470222
_cell_angle_beta 12.234665
_cell_angle_gamma 118.616990
_cell_volume 557.632836
_symmetry_space_group_name_H-M "P -1"
_symmetry_group_IT_number 2
_symmetry_cell_setting 'triclinic'
loop_
_space_group_symop_operation_xyz
x,y,z
-x,-y,-z
loop_
_atom_site_type_symbol
_atom_site_label
_atom_site_fract_x
_atom_site_fract_y
_atom_site_fract_z
Si Si1 0.530171 0.127854 0.803395
Si Si2 0.295951 0.272641 0.931552
Si Si3 0.805123 0.035614 0.774342
Si Si4 0.000000 0.500000 0.000000
Si Si5 0.507899 0.705161 0.598837
Si Si6 0.245919 0.337442 0.326548
Si Si7 0.737089 0.587045 0.484612
O O1 0.315801 0.214606 0.973547
O O2 0.721188 0.356456 0.663290
O O3 0.734026 0.891896 0.543246
O O4 0.340446 0.045305 0.033168
O O5 0.511076 0.484294 0.736849
O O6 0.404690 0.005420 0.755353
O O7 0.012513 0.402373 0.201206
O O8 0.870607 0.779877 0.634446
O O9 0.065509 0.211356 0.539196
O O10 0.562244 0.215649 0.004824
O O11 0.758282 0.672077 0.300837
O O12 0.755735 0.425970 0.184200
O O13 0.626812 0.571132 0.524237
#
# Coordination Sequence:
#
# PCOD9111288 Si02
#       7
#     2   2   2   1   2   2   2
#     4  11  25  43  71  99 135 184 232 292 349 409
#     4  11  25  44  66  98 138 181 229 278 338 407
#     4  10  23  43  67  98 134 175 229 290 356 424
#     4  10  20  42  72 102 132 176 226 270 330 402
#     4  10  22  43  69  98 140 176 218 282 332 390
#     4  10  23  43  67  98 134 175 229 290 356 424
#     4  11  25  44  66  98 138 181 229 278 338 407
#
# _framework density 23.312830000000002
#
# number of rings (size 3 to 8) (size 9 to 14) (size 15 to 20)
#    0.000    1.538    0.000    3.231    0.000   12.308 
#    0.000   20.000    0.000    2.769    0.000    0.000 
#    0.000    0.000    0.000    0.000    0.000    0.000 
#
# Total GULP energy -72519.847084 kJ/mol
# GULP energy per Si atom -5578.449776 kJ/mol
# Density = 2.325977 g / cm^3
# Si number density = 23.312830 Si / 1000 Ang^3
#
#
#
# Elastic Constant Matrix: (Units=GPa)
#
#
# Indices 1 2 3 4 5 6 
#
# 1 102.7351 96.6040 48.5385 9.9262 -9.0228 31.4875
# 2 96.6040 71.0149 42.6563 8.5876 11.4811 -6.8763
# 3 48.5385 42.6563 163.6276 9.2312 -18.4248 -0.5993
# 4 9.9262 8.5876 9.2312 37.1594 -9.1064 -5.8494
# 5 -9.0228 11.4811 -18.4248 -9.1064 37.9143 8.1883
# 6 31.4875 -6.8763 -0.5993 -5.8494 8.1883 18.4033
#
#
#
# Elastic Compliance Matrix: (Units=1/GPa)
#
#
# Indices 1 2 3 4 5 6 
#
# 1 -0.004539 0.010528 -0.002313 -0.000378 -0.008815 0.015426
# 2 0.010528 -0.001878 -0.001797 -0.004010 0.006159 -0.022789
# 3 -0.002313 -0.001797 0.007630 0.000287 0.003305 0.002155
# 4 -0.000378 -0.004010 0.000287 0.030559 0.007398 0.005579
# 5 -0.008815 0.006159 0.003305 0.007398 0.023797 0.009254
# 6 0.015426 -0.022789 0.002155 0.005579 0.009254 0.017156
#
#
# Mechanical properties :
#
#
# Convention : Reuss Voigt Hill
#
# Bulk Modulus (GPa) = 71.17953 79.21948 75.19951
# Shear Modulus (GPa) = 77.43414 28.66731 53.05073
#
# Velocity S-wave (km/s) = 5.76952 3.51048 4.77550
# Velocity P-wave (km/s) = 8.65920 7.10536 7.92048
#
# Compressibility (1/GPa) = 0.01404898
#
# Stress axis : x y z
#
# Youngs Moduli (GPa) = -220.32024 -532.41652 131.06337
#
# Poissons Ratio (x) = 5.60532 0.30314
# Poissons Ratio (y) = 2.31955 0.23553
# Poissons Ratio (z) = -0.50958 -0.95680
#
# Static dielectric constant tensor:
#      x y z
#    x 1.879990 0.003260 0.002190 
#    y 0.003260 1.887390 -0.003040 
#    z 0.002190 -0.003040 1.841980 
# 
# From -- ./inp_files/613919.got.cif
#   From: 2010.05.17/outbox.cif.g08.bks.cpg/sg2_307_cif.got.tgz:613919.got - 2010.06.03 11:33:40.
