data_PCOD9111588
_publ_section_title
;
Structure prediction by ZEFSAII (Michael W. Deem and Ramdas Pophale) SiO2 
 PCOD9111588
Probable space group: P -1
;
_chemical_formula_sum "Si O2"
_cell_formula_units_Z 16
_cell_length_a 5.149279
_cell_length_b 11.696824
_cell_length_c 13.253387
_cell_angle_alpha 111.969898
_cell_angle_beta 109.106637
_cell_angle_gamma 87.329205
_cell_volume 696.877690
_symmetry_space_group_name_H-M "P -1"
_symmetry_group_IT_number 2
_symmetry_cell_setting 'triclinic'
loop_
_space_group_symop_operation_xyz
x,y,z
-x,-y,-z
loop_
_atom_site_type_symbol
_atom_site_label
_atom_site_fract_x
_atom_site_fract_y
_atom_site_fract_z
Si Si1 0.022995 0.529142 0.629734
Si Si2 0.919691 0.713440 0.320886
Si Si3 0.766797 0.046163 0.238566
Si Si4 0.779919 0.036323 0.607857
Si Si5 0.462209 0.821629 0.202671
Si Si6 0.370593 0.381659 0.224305
Si Si7 0.825283 0.410680 0.876666
Si Si8 0.846187 0.887690 0.874867
O O1 0.044919 0.393011 0.632828
O O2 0.302264 0.616363 0.715999
O O3 0.000000 0.500000 0.500000
O O4 0.773269 0.583240 0.676572
O O5 0.614114 0.755074 0.291183
O O6 0.096679 0.842621 0.395120
O O7 0.992702 0.657219 0.203331
O O8 0.462911 0.092852 0.199329
O O9 0.949524 0.106960 0.192429
O O10 0.672209 0.897287 0.180082
O O11 0.973254 0.052153 0.365284
O O12 0.702717 0.080890 0.725603
O O13 0.500000 0.000000 0.500000
O O14 0.299800 0.699316 0.101319
O O15 0.342324 0.494801 0.179685
O O16 0.212121 0.249423 0.129071
O O17 0.000000 0.500000 0.000000
O O18 0.000000 0.000000 0.000000
#
# Coordination Sequence:
#
# PCOD9111588 Si02
#       8
#     2   2   2   2   2   2   2   2
#     4  11  23  46  70  96 137 183 226 286 349 394
#     4   9  21  39  62 100 136 168 224 292 330 420
#     4  11  24  45  68  99 139 180 235 275 341 416
#     4  10  22  42  70 100 138 179 224 285 353 404
#     4  10  20  43  66  96 141 164 230 286 337 407
#     4  11  25  46  67 105 136 175 241 278 336 430
#     4  10  22  40  69  99 132 175 219 286 351 397
#     4  12  27  48  69 100 145 191 228 289 339 410
#
# _framework density 22.959553
#
# number of rings (size 3 to 8) (size 9 to 14) (size 15 to 20)
#    0.000    1.500    2.500    1.500    1.750    3.500 
#    9.000    0.000    0.000    0.000    0.000    0.000 
#    0.000    0.000    0.000    0.000    0.000    0.000 
#
# Total GULP energy -89099.766509 kJ/mol
# GULP energy per Si atom -5568.735407 kJ/mol
# Density = 2.290730 g / cm^3
# Si number density = 22.959553 Si / 1000 Ang^3
#
#
#
# Elastic Constant Matrix: (Units=GPa)
#
#
# Indices 1 2 3 4 5 6 
#
# 1 101.6905 11.3528 16.2638 -10.8903 23.4744 3.7629
# 2 11.3528 77.8834 11.0134 -14.4230 -4.9968 11.0320
# 3 16.2638 11.0134 56.4505 10.9617 14.8560 3.8787
# 4 -10.8903 -14.4230 10.9617 20.6273 6.1556 0.8064
# 5 23.4744 -4.9968 14.8560 6.1556 16.5287 -0.2513
# 6 3.7629 11.0320 3.8787 0.8064 -0.2513 37.1949
#
#
#
# Elastic Compliance Matrix: (Units=1/GPa)
#
#
# Indices 1 2 3 4 5 6 
#
# 1 0.021531 -0.001231 0.000303 0.022249 -0.039548 -0.002594
# 2 -0.001231 0.017848 -0.007817 0.013450 0.009091 -0.004584
# 3 0.000303 -0.007817 0.027761 -0.013228 -0.022825 -0.000474
# 4 0.022249 0.013450 -0.013228 0.091850 -0.049959 -0.007190
# 5 -0.039548 0.009091 -0.022825 -0.049959 0.158626 0.005840
# 6 -0.002594 -0.004584 -0.000474 -0.007190 0.005840 0.028752
#
#
# Mechanical properties :
#
#
# Convention : Reuss Voigt Hill
#
# Bulk Modulus (GPa) = 20.14119 34.80938 27.47529
# Shear Modulus (GPa) = 13.14382 28.02980 20.58681
#
# Velocity S-wave (km/s) = 2.39525 3.49783 2.99767
# Velocity P-wave (km/s) = 4.05476 5.61313 4.89634
#
# Compressibility (1/GPa) = 0.04964949
#
# Stress axis : x y z
#
# Youngs Moduli (GPa) = 46.44499 56.02930 36.02238
#
# Poissons Ratio (x) = 0.06896 -0.01090
# Poissons Ratio (y) = 0.05717 0.28157
# Poissons Ratio (z) = -0.01405 0.43796
#
# Static dielectric constant tensor:
#      x y z
#    x 1.984750 0.063490 0.105560 
#    y 0.063490 2.144910 0.183390 
#    z 0.105560 0.183390 2.050340 
# 
# From -- ./inp_files/364659.got.cif
#   From: 2010.05.17/outbox.cif.g08.bks.cpg/sg2_183_cif.got.tgz:364659.got - 2010.06.03 11:33:40.
