data_PCOD9111105
_publ_section_title
;
Structure prediction by ZEFSAII (Michael W. Deem and Ramdas Pophale) SiO2 
 PCOD9111105
Probable space group: P -1
;
_chemical_formula_sum "Si O2"
_cell_formula_units_Z 14
_cell_length_a 7.666469
_cell_length_b 11.995532
_cell_length_c 12.081381
_cell_angle_alpha 36.902964
_cell_angle_beta 61.179015
_cell_angle_gamma 67.848388
_cell_volume 584.426007
_symmetry_space_group_name_H-M "P -1"
_symmetry_group_IT_number 2
_symmetry_cell_setting 'triclinic'
loop_
_space_group_symop_operation_xyz
x,y,z
-x,-y,-z
loop_
_atom_site_type_symbol
_atom_site_label
_atom_site_fract_x
_atom_site_fract_y
_atom_site_fract_z
Si Si1 0.273890 0.054574 0.548792
Si Si2 0.628384 0.554989 0.811050
Si Si3 0.406575 0.431570 0.769481
Si Si4 0.086148 0.756816 0.117120
Si Si5 0.664247 0.289128 0.608304
Si Si6 0.883319 0.899992 0.844029
Si Si7 0.260829 0.136982 0.745909
O O1 0.254791 0.256976 0.342030
O O2 0.272834 0.094557 0.647742
O O3 0.500000 0.000000 0.500000
O O4 0.086167 0.916687 0.694774
O O5 0.481805 0.562390 0.742937
O O6 0.782942 0.403765 0.843115
O O7 0.500000 0.500000 0.000000
O O8 0.594523 0.362469 0.692002
O O9 0.277419 0.546355 0.626943
O O10 0.288738 0.255791 0.000269
O O11 0.922711 0.726074 0.285813
O O12 0.957744 0.834129 0.992968
O O13 0.219036 0.934023 0.971755
O O14 0.457117 0.218079 0.674643
O O15 0.801534 0.109379 0.708431
#
# Coordination Sequence:
#
# PCOD9111105 Si02
#       7
#     2   2   2   2   2   2   2
#     4  11  26  48  68 101 140 194 241 289 356 424
#     4  12  26  47  72  99 148 189 242 294 347 429
#     4  11  25  43  72 109 144 185 235 293 357 423
#     4  10  23  38  71 109 135 191 238 286 362 409
#     4  11  23  43  70 109 152 178 232 296 365 415
#     4  11  24  43  74 103 146 182 233 296 354 424
#     4  10  20  42  69 101 145 182 235 293 345 436
#
# _framework density 23.955127999999998
#
# number of rings (size 3 to 8) (size 9 to 14) (size 15 to 20)
#    0.000    1.143    2.857    3.000    8.000    0.571 
#    0.000    5.714    0.000    0.000    0.000    0.000 
#    0.000    0.000    0.000    0.000    0.000    0.000 
#
# Total GULP energy -78210.582256 kJ/mol
# GULP energy per Si atom -5586.470161 kJ/mol
# Density = 2.390061 g / cm^3
# Si number density = 23.955128 Si / 1000 Ang^3
#
#
#
# Elastic Constant Matrix: (Units=GPa)
#
#
# Indices 1 2 3 4 5 6 
#
# 1 49.1227 23.5717 37.9531 3.0234 -11.9120 -9.2183
# 2 23.5717 85.9786 32.9712 6.5361 -6.4576 -40.5334
# 3 37.9531 32.9712 111.1692 -3.2488 -20.1206 -15.1540
# 4 3.0234 6.5361 -3.2488 49.4677 1.4027 0.3893
# 5 -11.9120 -6.4576 -20.1206 1.4027 44.0441 0.1485
# 6 -9.2183 -40.5334 -15.1540 0.3893 0.1485 45.5758
#
#
#
# Elastic Compliance Matrix: (Units=1/GPa)
#
#
# Indices 1 2 3 4 5 6 
#
# 1 0.030012 -0.005314 -0.008255 -0.001766 0.003627 -0.001398
# 2 -0.005314 0.023147 -0.002428 -0.003065 0.000882 0.018727
# 3 -0.008255 -0.002428 0.013276 0.001596 0.003424 0.000561
# 4 -0.001766 -0.003065 0.001596 0.020879 -0.000854 -0.002728
# 5 0.003627 0.000882 0.003424 -0.000854 0.025397 0.002581
# 6 -0.001398 0.018727 0.000561 -0.002728 0.002581 0.038515
#
#
# Mechanical properties :
#
#
# Convention : Reuss Voigt Hill
#
# Bulk Modulus (GPa) = 29.03666 48.36251 38.69958
# Shear Modulus (GPa) = 25.68045 37.93584 31.80814
#
# Velocity S-wave (km/s) = 3.27773 3.98379 3.64788
# Velocity P-wave (km/s) = 5.14512 6.43377 5.82519
#
# Compressibility (1/GPa) = 0.03443923
#
# Stress axis : x y z
#
# Youngs Moduli (GPa) = 33.32046 43.20296 75.32126
#
# Poissons Ratio (x) = 0.22960 0.62181
# Poissons Ratio (y) = 0.17708 0.18287
# Poissons Ratio (z) = 0.27507 0.10489
#
# Static dielectric constant tensor:
#      x y z
#    x 1.941660 -0.067470 -0.065490 
#    y -0.067470 1.719290 -0.236650 
#    z -0.065490 -0.236650 1.860010 
# 
# From -- ./inp_files/391812.got.cif
#   From: 2010.05.17/outbox.cif.g08.bks.cpg/sg2_196_cif.got.tgz:391812.got - 2010.06.03 11:33:40.
