data_PCOD9111904
_publ_section_title
;
Structure prediction by ZEFSAII (Michael W. Deem and Ramdas Pophale) SiO2 
 PCOD9111904
Probable space group: P -1
;
_chemical_formula_sum "Si O2"
_cell_formula_units_Z 16
_cell_length_a 14.732403
_cell_length_b 13.694470
_cell_length_c 14.170054
_cell_angle_alpha 148.437582
_cell_angle_beta 29.922029
_cell_angle_gamma 149.052693
_cell_volume 664.183636
_symmetry_space_group_name_H-M "P -1"
_symmetry_group_IT_number 2
_symmetry_cell_setting 'triclinic'
loop_
_space_group_symop_operation_xyz
x,y,z
-x,-y,-z
loop_
_atom_site_type_symbol
_atom_site_label
_atom_site_fract_x
_atom_site_fract_y
_atom_site_fract_z
Si Si1 0.962640 0.752209 0.976694
Si Si2 0.879680 0.052108 0.572769
Si Si3 0.695261 0.383399 0.456290
Si Si4 0.554693 0.311352 0.309458
Si Si5 0.140403 0.560787 0.017882
Si Si6 0.200901 0.720140 0.478414
Si Si7 0.610429 0.807774 0.261936
Si Si8 0.938870 0.833390 0.681697
O O1 0.874209 0.619331 0.045217
O O2 0.775154 0.718670 0.048943
O O3 0.082043 0.005561 0.094340
O O4 0.121324 0.673077 0.732409
O O5 0.979144 0.025872 0.367430
O O6 0.643905 0.901523 0.669082
O O7 0.914009 0.286415 0.745331
O O8 0.000000 0.000000 0.500000
O O9 0.671402 0.358420 0.343933
O O10 0.494913 0.232136 0.571432
O O11 0.753704 0.614610 0.636098
O O12 0.500000 0.500000 0.500000
O O13 0.648795 0.306742 0.118808
O O14 0.000000 0.500000 0.000000
O O15 0.413276 0.704810 0.285417
O O16 0.000000 0.500000 0.500000
O O17 0.123074 0.782424 0.504607
O O18 0.265954 0.941214 0.658611
#
# Coordination Sequence:
#
# PCOD9111904 Si02
#       8
#     2   2   2   2   2   2   2   2
#     4  11  24  44  69 103 140 182 237 287 352 419
#     4  12  25  42  67  96 136 183 226 283 350 412
#     4  12  23  45  71  98 141 179 231 290 346 420
#     4  12  24  40  62  95 131 183 229 283 346 407
#     4  12  22  42  63  95 136 175 232 282 335 420
#     4  10  20  43  75 100 141 185 232 289 356 419
#     4  10  23  43  72 102 140 186 226 297 356 410
#     4  11  22  43  72  97 137 184 223 289 354 407
#
# _framework density 24.089724
#
# number of rings (size 3 to 8) (size 9 to 14) (size 15 to 20)
#    0.000    0.750    3.750    5.625    0.000    0.000 
#    4.500    6.250    0.000    0.000    0.000    0.000 
#    0.000    0.000    0.000    0.000    0.000    0.000 
#
# Total GULP energy -89277.015072 kJ/mol
# GULP energy per Si atom -5579.813442 kJ/mol
# Density = 2.403489 g / cm^3
# Si number density = 24.089724 Si / 1000 Ang^3
#
#
#
# Elastic Constant Matrix: (Units=GPa)
#
#
# Indices 1 2 3 4 5 6 
#
# 1 121.6640 34.6793 1.3560 15.5814 -24.0223 2.0462
# 2 34.6793 158.3755 17.6087 17.6985 -4.4968 13.3642
# 3 1.3560 17.6087 70.1020 25.4072 -12.1496 12.4098
# 4 15.5814 17.6985 25.4072 32.6306 -2.6715 3.5486
# 5 -24.0223 -4.4968 -12.1496 -2.6715 42.0324 -3.0442
# 6 2.0462 13.3642 12.4098 3.5486 -3.0442 40.8987
#
#
#
# Elastic Compliance Matrix: (Units=1/GPa)
#
#
# Indices 1 2 3 4 5 6 
#
# 1 0.010880 -0.001878 0.003817 -0.006599 0.006700 -0.000018
# 2 -0.001878 0.007201 -0.000747 -0.002287 -0.000801 -0.001894
# 3 0.003817 -0.000747 0.023130 -0.018306 0.007274 -0.004835
# 4 -0.006599 -0.002287 -0.018306 0.048580 -0.006077 0.001965
# 5 0.006700 -0.000801 0.007274 -0.006077 0.029282 0.000426
# 6 -0.000018 -0.001894 -0.004835 0.001965 0.000426 0.026399
#
#
# Mechanical properties :
#
#
# Convention : Reuss Voigt Hill
#
# Bulk Modulus (GPa) = 22.93819 50.82550 36.88185
# Shear Modulus (GPa) = 31.72209 42.87885 37.30047
#
# Velocity S-wave (km/s) = 3.63275 4.22354 3.93924
# Velocity P-wave (km/s) = 5.20946 6.70288 6.00280
#
# Compressibility (1/GPa) = 0.04359541
#
# Stress axis : x y z
#
# Youngs Moduli (GPa) = 91.90897 138.87054 43.23400
#
# Poissons Ratio (x) = 0.26076 -0.16503
# Poissons Ratio (y) = 0.17258 0.03231
# Poissons Ratio (z) = -0.35082 0.10377
#
# Static dielectric constant tensor:
#      x y z
#    x 1.985910 0.098730 0.097530 
#    y 0.098730 2.197610 0.067210 
#    z 0.097530 0.067210 2.126040 
# 
# From -- ./inp_files/534539.got.cif
#   From: 2010.05.17/outbox.cif.g08.bks.cpg/sg2_268_cif.got.tgz:534539.got - 2010.06.03 11:33:40.
