data_PCOD9111349
_publ_section_title
;
Structure prediction by ZEFSAII (Michael W. Deem and Ramdas Pophale) SiO2 
 PCOD9111349
Probable space group: P -1
;
_chemical_formula_sum "Si O2"
_cell_formula_units_Z 16
_cell_length_a 18.274560
_cell_length_b 13.524601
_cell_length_c 8.731621
_cell_angle_alpha 79.453957
_cell_angle_beta 93.106280
_cell_angle_gamma 23.792189
_cell_volume 709.751908
_symmetry_space_group_name_H-M "P -1"
_symmetry_group_IT_number 2
_symmetry_cell_setting 'triclinic'
loop_
_space_group_symop_operation_xyz
x,y,z
-x,-y,-z
loop_
_atom_site_type_symbol
_atom_site_label
_atom_site_fract_x
_atom_site_fract_y
_atom_site_fract_z
Si Si1 0.016037 0.143388 0.161949
Si Si2 0.202610 0.748402 0.782236
Si Si3 0.099620 0.722175 0.225116
Si Si4 0.101421 0.299941 0.436312
Si Si5 0.466429 0.595666 0.306852
Si Si6 0.472448 0.370431 0.230186
Si Si7 0.741998 0.673743 0.060926
Si Si8 0.729955 0.720531 0.688785
O O1 0.996722 0.074722 0.293741
O O2 0.807610 0.474419 0.096448
O O3 0.000821 0.119888 0.996481
O O4 0.221502 0.952320 0.213945
O O5 0.358504 0.558157 0.707149
O O6 0.365235 0.504574 0.009971
O O7 0.070731 0.019755 0.740298
O O8 0.324008 0.497159 0.298538
O O9 0.137581 0.552406 0.271272
O O10 0.206875 0.249924 0.360584
O O11 0.000000 0.500000 0.500000
O O12 0.914230 0.490828 0.257622
O O13 0.284047 0.989163 0.616044
O O14 0.500000 0.500000 0.500000
O O15 0.469489 0.492789 0.229540
O O16 0.742757 0.710661 0.876297
O O17 0.500000 0.000000 0.000000
O O18 0.500000 0.000000 0.500000
#
# Coordination Sequence:
#
# PCOD9111349 Si02
#       8
#     2   2   2   2   2   2   2   2
#     4  10  22  45  68  99 141 181 235 299 363 422
#     4  11  23  43  76 103 133 196 237 292 371 430
#     4  10  20  42  74 101 140 183 241 297 356 433
#     4  12  27  44  70 107 141 192 250 301 365 437
#     4  12  25  42  64 103 145 181 235 297 364 435
#     4  11  22  44  69  99 143 182 243 299 356 438
#     4  11  26  49  70 102 148 190 244 305 363 434
#     4  11  23  45  73 104 145 194 239 297 364 431
#
# _framework density 22.543089999999999
#
# number of rings (size 3 to 8) (size 9 to 14) (size 15 to 20)
#    0.000    1.000    3.750    3.000    5.250    1.500 
#    6.750    0.000    0.000    0.000    0.000    0.000 
#    0.000    0.000    0.000    0.000    0.000    0.000 
#
# Total GULP energy -89116.985432 kJ/mol
# GULP energy per Si atom -5569.811589 kJ/mol
# Density = 2.249178 g / cm^3
# Si number density = 22.543090 Si / 1000 Ang^3
#
#
#
# Elastic Constant Matrix: (Units=GPa)
#
#
# Indices 1 2 3 4 5 6 
#
# 1 35.3205 13.1506 9.0068 -2.6170 -15.6255 -12.2334
# 2 13.1506 138.1226 35.9544 -20.0871 -9.7154 -5.1992
# 3 9.0068 35.9544 111.5878 -11.5599 3.5064 -6.8139
# 4 -2.6170 -20.0871 -11.5599 36.2765 3.7728 -1.2124
# 5 -15.6255 -9.7154 3.5064 3.7728 27.6717 -6.4834
# 6 -12.2334 -5.1992 -6.8139 -1.2124 -6.4834 29.1894
#
#
#
# Elastic Compliance Matrix: (Units=1/GPa)
#
#
# Indices 1 2 3 4 5 6 
#
# 1 0.059384 -0.000515 -0.003966 -0.000493 0.041678 0.033107
# 2 -0.000515 0.008723 -0.002372 0.003786 0.002929 0.001592
# 3 -0.003966 -0.002372 0.010386 0.002192 -0.004838 -0.000644
# 4 -0.000493 0.003786 0.002192 0.030694 -0.003042 0.001578
# 5 0.041678 0.002929 -0.004838 -0.003042 0.069254 0.032116
# 6 0.033107 0.001592 -0.000644 0.001578 0.032116 0.055467
#
#
# Mechanical properties :
#
#
# Convention : Reuss Voigt Hill
#
# Bulk Modulus (GPa) = 15.43547 44.58382 30.00964
# Shear Modulus (GPa) = 18.57298 33.75546 26.16422
#
# Velocity S-wave (km/s) = 2.87346 3.87379 3.41050
# Velocity P-wave (km/s) = 4.22741 6.31098 5.37119
#
# Compressibility (1/GPa) = 0.06478586
#
# Stress axis : x y z
#
# Youngs Moduli (GPa) = 16.83961 114.64139 96.28717
#
# Poissons Ratio (x) = 0.05909 0.38189
# Poissons Ratio (y) = 0.00868 0.22836
# Poissons Ratio (z) = 0.06679 0.27188
#
# Static dielectric constant tensor:
#      x y z
#    x 1.733260 -0.046780 0.145820 
#    y -0.046780 1.910760 0.042680 
#    z 0.145820 0.042680 2.169690 
# 
# From -- ./inp_files/347581.got.cif
#   From: 2010.05.17/outbox.cif.g08.bks.cpg/sg2_174_cif.got.tgz:347581.got - 2010.06.03 11:33:40.
