data_PCOD9111952
_publ_section_title
;
Structure prediction by ZEFSAII (Michael W. Deem and Ramdas Pophale) SiO2 
 PCOD9111952
Probable space group: P -1
;
_chemical_formula_sum "Si O2"
_cell_formula_units_Z 14
_cell_length_a 18.373125
_cell_length_b 5.653156
_cell_length_c 14.171713
_cell_angle_alpha 113.741512
_cell_angle_beta 29.312417
_cell_angle_gamma 103.085693
_cell_volume 633.611238
_symmetry_space_group_name_H-M "P -1"
_symmetry_group_IT_number 2
_symmetry_cell_setting 'triclinic'
loop_
_space_group_symop_operation_xyz
x,y,z
-x,-y,-z
loop_
_atom_site_type_symbol
_atom_site_label
_atom_site_fract_x
_atom_site_fract_y
_atom_site_fract_z
Si Si1 0.441508 0.628708 0.186634
Si Si2 0.792457 0.965863 0.759568
Si Si3 0.313964 0.291606 0.919973
Si Si4 0.954600 0.475363 0.379952
Si Si5 0.429879 0.191931 0.259427
Si Si6 0.431785 0.649856 0.696075
Si Si7 0.930765 0.991067 0.417563
O O1 0.572456 0.651087 0.118221
O O2 0.366150 0.417403 0.289198
O O3 0.359618 0.941857 0.308282
O O4 0.500000 0.500000 0.000000
O O5 0.866836 0.655301 0.595808
O O6 0.823638 0.103080 0.648451
O O7 0.898979 0.031916 0.731431
O O8 0.611714 0.054441 0.002136
O O9 0.341926 0.463579 0.824770
O O10 0.350092 0.966635 0.815791
O O11 0.139432 0.398210 0.169188
O O12 0.924850 0.686467 0.361318
O O13 0.915597 0.194509 0.382231
O O14 0.436605 0.328068 0.373995
O O15 0.500000 0.500000 0.500000
#
# Coordination Sequence:
#
# PCOD9111952 Si02
#       7
#     2   2   2   2   2   2   2
#     4  10  20  32  45  64  88 121 166 193 214 262
#     4   9  19  24  42  63  92 114 149 159 211 289
#     4  10  19  31  50  65  91 131 148 179 241 256
#     4  10  17  27  40  65  90 116 147 161 209 291
#     4  10  20  31  49  65  91 131 148 179 241 256
#     4  10  20  32  45  64  88 121 166 193 214 262
#     4   9  17  21  37  55  91 109 145 155 195 251
#
# _framework density 22.095569000000001
#
# number of rings (size 3 to 8) (size 9 to 14) (size 15 to 20)
#    0.857    1.429    0.000    5.571    2.000    0.000 
#    0.000    0.000    0.000    0.000    0.000    0.000 
#    0.000    0.000    0.000  174.857    0.000    0.000 
#
# Total GULP energy -78119.860895 kJ/mol
# GULP energy per Si atom -5579.990064 kJ/mol
# Density = 2.204528 g / cm^3
# Si number density = 22.095569 Si / 1000 Ang^3
#
#
#
# Elastic Constant Matrix: (Units=GPa)
#
#
# Indices 1 2 3 4 5 6 
#
# 1 71.9871 48.7680 49.0244 4.4647 10.2055 -8.6025
# 2 48.7680 249.8605 49.6036 -10.0443 4.2730 -23.4593
# 3 49.0244 49.6036 76.4666 1.4950 1.7422 0.0957
# 4 4.4647 -10.0443 1.4950 42.1395 2.7105 -2.9243
# 5 10.2055 4.2730 1.7422 2.7105 36.6655 0.3824
# 6 -8.6025 -23.4593 0.0957 -2.9243 0.3824 35.7371
#
#
#
# Elastic Compliance Matrix: (Units=1/GPa)
#
#
# Indices 1 2 3 4 5 6 
#
# 1 0.028228 -0.001582 -0.016886 -0.001936 -0.006787 0.005716
# 2 -0.001582 0.005147 -0.002357 0.001710 -0.000207 0.003146
# 3 -0.016886 -0.002357 0.025358 -0.000319 0.003853 -0.005747
# 4 -0.001936 0.001710 -0.000319 0.024637 -0.001495 0.002689
# 5 -0.006787 -0.000207 0.003853 -0.001495 0.029137 -0.002214
# 6 0.005716 0.003146 -0.005747 0.002689 -0.002214 0.031682
#
#
# Mechanical properties :
#
#
# Convention : Reuss Voigt Hill
#
# Bulk Modulus (GPa) = 58.53875 77.01179 67.77527
# Shear Modulus (GPa) = 26.10510 39.63631 32.87070
#
# Velocity S-wave (km/s) = 3.44097 4.23999 3.86120
# Velocity P-wave (km/s) = 6.50676 7.67461 7.11469
#
# Compressibility (1/GPa) = 0.01708270
#
# Stress axis : x y z
#
# Youngs Moduli (GPa) = 35.42565 194.30359 39.43550
#
# Poissons Ratio (x) = 0.30747 0.66590
# Poissons Ratio (y) = 0.05606 0.09294
# Poissons Ratio (z) = 0.59819 0.45791
#
# Static dielectric constant tensor:
#      x y z
#    x 1.819440 -0.037190 -0.104930 
#    y -0.037190 1.962300 -0.014880 
#    z -0.104930 -0.014880 1.827760 
# 
# From -- ./inp_files/539740.got.cif
#   From: 2010.05.17/outbox.cif.g08.bks.cpg/sg2_270_cif.got.tgz:539740.got - 2010.06.03 11:33:40.
