data_PCOD9111727
_publ_section_title
;
Structure prediction by ZEFSAII (Michael W. Deem and Ramdas Pophale) SiO2 
 PCOD9111727
Probable space group: P -1
;
_chemical_formula_sum "Si O2"
_cell_formula_units_Z 16
_cell_length_a 8.180259
_cell_length_b 14.515850
_cell_length_c 7.386955
_cell_angle_alpha 105.325121
_cell_angle_beta 55.919998
_cell_angle_gamma 113.597000
_cell_volume 664.834193
_symmetry_space_group_name_H-M "P -1"
_symmetry_group_IT_number 2
_symmetry_cell_setting 'triclinic'
loop_
_space_group_symop_operation_xyz
x,y,z
-x,-y,-z
loop_
_atom_site_type_symbol
_atom_site_label
_atom_site_fract_x
_atom_site_fract_y
_atom_site_fract_z
Si Si1 0.537840 0.392250 0.928571
Si Si2 0.737327 0.349048 0.452356
Si Si3 0.104524 0.268513 0.208776
Si Si4 0.060004 0.253034 0.789651
Si Si5 0.984639 0.552949 0.225087
Si Si6 0.143788 0.948440 0.774745
Si Si7 0.784354 0.921997 0.532566
Si Si8 0.358477 0.835534 0.856096
O O1 0.548833 0.342743 0.700260
O O2 0.773419 0.409454 0.850944
O O3 0.500000 0.500000 0.000000
O O4 0.345825 0.322255 0.127388
O O5 0.661667 0.267725 0.296022
O O6 0.937402 0.323041 0.398716
O O7 0.835151 0.464740 0.392771
O O8 0.011752 0.153937 0.269063
O O9 0.092491 0.269822 0.995140
O O10 0.107077 0.357129 0.710589
O O11 0.176429 0.179554 0.606876
O O12 0.810147 0.196238 0.897630
O O13 0.000000 0.500000 0.000000
O O14 0.278167 0.906726 0.808772
O O15 0.270435 0.025217 0.585979
O O16 0.000000 0.000000 0.000000
O O17 0.596887 0.894801 0.776903
O O18 0.000000 0.000000 0.500000
#
# Coordination Sequence:
#
# PCOD9111727 Si02
#       8
#     2   2   2   2   2   2   2   2
#     4  12  24  40  67  96 127 167 213 262 314 379
#     4  10  22  42  68  90 128 165 213 261 312 385
#     4  10  21  42  68  90 125 164 221 259 310 382
#     4  10  22  44  62  93 132 168 207 267 319 382
#     4  12  22  43  66  93 134 169 203 262 327 380
#     4  10  20  43  69  89 122 170 212 263 313 376
#     4  12  25  42  62  98 132 162 217 272 317 376
#     4  10  22  42  73  88 125 173 217 254 328 382
#
# _framework density 24.066151000000001
#
# number of rings (size 3 to 8) (size 9 to 14) (size 15 to 20)
#    0.000    1.500    6.250    1.500    0.000    3.500 
#    4.500    1.875    0.000    0.000    0.000    0.000 
#    0.000    0.000    0.000    0.000    0.000    0.000 
#
# Total GULP energy -89509.978558 kJ/mol
# GULP energy per Si atom -5594.373660 kJ/mol
# Density = 2.401138 g / cm^3
# Si number density = 24.066151 Si / 1000 Ang^3
#
#
#
# Elastic Constant Matrix: (Units=GPa)
#
#
# Indices 1 2 3 4 5 6 
#
# 1 57.2309 32.6273 10.5606 1.1465 -14.8079 5.4170
# 2 32.6273 158.2327 33.6491 6.0137 -28.0437 -28.6457
# 3 10.5606 33.6491 88.2405 -9.1783 -30.4987 0.3254
# 4 1.1465 6.0137 -9.1783 28.8466 9.6347 -10.7499
# 5 -14.8079 -28.0437 -30.4987 9.6347 32.7136 -11.1850
# 6 5.4170 -28.6457 0.3254 -10.7499 -11.1850 38.5385
#
#
#
# Elastic Compliance Matrix: (Units=1/GPa)
#
#
# Indices 1 2 3 4 5 6 
#
# 1 0.022114 -0.004598 0.000769 -0.003843 0.005903 -0.005891
# 2 -0.004598 0.012016 0.000433 -0.001890 0.013625 0.013001
# 3 0.000769 0.000433 0.017715 0.001434 0.018840 0.005932
# 4 -0.003843 -0.001890 0.001434 0.042458 -0.011966 0.007493
# 5 0.005903 0.013625 0.018840 -0.011966 0.075483 0.027709
# 6 -0.005891 0.013001 0.005932 0.007493 0.027709 0.046522
#
#
# Mechanical properties :
#
#
# Convention : Reuss Voigt Hill
#
# Bulk Modulus (GPa) = 22.19590 50.81981 36.50785
# Shear Modulus (GPa) = 20.99800 35.14420 28.07110
#
# Velocity S-wave (km/s) = 2.95704 3.82555 3.41899
# Velocity P-wave (km/s) = 4.57183 6.37775 5.54875
#
# Compressibility (1/GPa) = 0.04505337
#
# Stress axis : x y z
#
# Youngs Moduli (GPa) = 45.21977 83.22137 56.45048
#
# Poissons Ratio (x) = 0.38262 -0.04341
# Poissons Ratio (y) = 0.20790 -0.02443
# Poissons Ratio (z) = -0.03477 -0.03602
#
# Static dielectric constant tensor:
#      x y z
#    x 2.062400 0.081660 0.062300 
#    y 0.081660 1.973820 -0.016470 
#    z 0.062300 -0.016470 1.893370 
# 
# From -- ./inp_files/202899.got.cif
#   From: 2010.05.17/outbox.cif.g08.bks.cpg/sg2_102_cif.got.tgz:202899.got - 2010.06.03 11:33:40.
