data_PCOD9111215
_publ_section_title
;
Structure prediction by ZEFSAII (Michael W. Deem and Ramdas Pophale) SiO2 
 PCOD9111215
Probable space group: P -1
;
_chemical_formula_sum "Si O2"
_cell_formula_units_Z 14
_cell_length_a 13.029633
_cell_length_b 10.748596
_cell_length_c 16.051369
_cell_angle_alpha 35.397557
_cell_angle_beta 150.962775
_cell_angle_gamma 123.692201
_cell_volume 522.850415
_symmetry_space_group_name_H-M "P -1"
_symmetry_group_IT_number 2
_symmetry_cell_setting 'triclinic'
loop_
_space_group_symop_operation_xyz
x,y,z
-x,-y,-z
loop_
_atom_site_type_symbol
_atom_site_label
_atom_site_fract_x
_atom_site_fract_y
_atom_site_fract_z
Si Si1 0.284689 0.713109 0.905393
Si Si2 0.890580 0.195770 0.449128
Si Si3 0.833092 0.708262 0.148719
Si Si4 0.141770 0.879423 0.952535
Si Si5 0.475059 0.936619 0.391997
Si Si6 0.651565 0.457579 0.454665
Si Si7 0.113606 0.375952 0.023749
O O1 0.297270 0.707691 0.817359
O O2 0.539309 0.524213 0.243292
O O3 0.084200 0.636983 0.831153
O O4 0.159436 0.000588 0.696860
O O5 0.854634 0.448545 0.327464
O O6 0.928734 0.015781 0.653213
O O7 0.073449 0.592368 0.318971
O O8 0.872906 0.882957 0.143236
O O9 0.564284 0.918229 0.800448
O O10 0.088678 0.700735 0.069707
O O11 0.424215 0.693548 0.216690
O O12 0.336792 0.168273 0.233444
O O13 0.320710 0.802209 0.354167
O O14 0.747109 0.702141 0.744736
#
# Coordination Sequence:
#
# PCOD9111215 Si02
#       7
#     2   2   2   2   2   2   2
#     4   9  20  41  68  91 122 173 219 258 319 374
#     4  10  22  41  64  95 130 171 217 260 317 384
#     4  12  23  42  65  93 139 174 201 263 326 396
#     4  11  25  41  66 102 129 164 218 268 317 382
#     4  10  21  39  68  94 124 174 212 260 329 372
#     4  10  23  41  66  98 130 170 213 266 322 377
#     4  10  20  42  70  94 125 165 221 272 312 373
#
# _framework density 26.776299999999999
#
# number of rings (size 3 to 8) (size 9 to 14) (size 15 to 20)
#    0.000    1.714    2.857    0.857    0.000    8.000 
#    0.000    8.571    0.000    0.000    0.000    0.000 
#    0.000    0.000    0.000    0.000    0.000    0.000 
#
# Total GULP energy -78245.097914 kJ/mol
# GULP energy per Si atom -5588.935565 kJ/mol
# Density = 2.671536 g / cm^3
# Si number density = 26.776300 Si / 1000 Ang^3
#
#
#
# Elastic Constant Matrix: (Units=GPa)
#
#
# Indices 1 2 3 4 5 6 
#
# 1 81.6046 29.8210 38.5072 -0.1073 -7.7877 3.2249
# 2 29.8210 75.0022 35.3796 -13.7517 6.7450 -18.6029
# 3 38.5072 35.3796 118.6398 -7.4795 -17.2338 4.6269
# 4 -0.1073 -13.7517 -7.4795 41.6242 -3.0738 -1.8439
# 5 -7.7877 6.7450 -17.2338 -3.0738 49.2012 -5.4670
# 6 3.2249 -18.6029 4.6269 -1.8439 -5.4670 33.8415
#
#
#
# Elastic Compliance Matrix: (Units=1/GPa)
#
#
# Indices 1 2 3 4 5 6 
#
# 1 0.016645 -0.007137 -0.003000 -0.002939 0.001827 -0.004964
# 2 -0.007137 0.024106 -0.005607 0.007255 -0.004346 0.014391
# 3 -0.003000 -0.005607 0.011834 0.000399 0.004048 -0.003739
# 4 -0.002939 0.007255 0.000399 0.026818 0.001004 0.005837
# 5 0.001827 -0.004346 0.004048 0.001004 0.022759 0.000615
# 6 -0.004964 0.014391 -0.003739 0.005837 0.000615 0.038862
#
#
# Mechanical properties :
#
#
# Convention : Reuss Voigt Hill
#
# Bulk Modulus (GPa) = 47.40431 53.62911 50.51671
# Shear Modulus (GPa) = 27.84799 36.36931 32.10865
#
# Velocity S-wave (km/s) = 3.22844 3.68946 3.46662
# Velocity P-wave (km/s) = 5.62489 6.18236 5.91020
#
# Compressibility (1/GPa) = 0.02109513
#
# Stress axis : x y z
#
# Youngs Moduli (GPa) = 60.07866 41.48275 84.50219
#
# Poissons Ratio (x) = 0.29607 0.25354
# Poissons Ratio (y) = 0.42879 0.47384
# Poissons Ratio (z) = 0.18026 0.23261
#
# Static dielectric constant tensor:
#      x y z
#    x 2.134430 -0.035720 -0.016630 
#    y -0.035720 2.111490 0.048600 
#    z -0.016630 0.048600 2.110700 
# 
# From -- ./inp_files/573353.got.cif
#   From: 2010.05.17/outbox.cif.g08.bks.cpg/sg2_287_cif.got.tgz:573353.got - 2010.06.03 11:33:40.
