data_PCOD9111043
_publ_section_title
;
Structure prediction by ZEFSAII (Michael W. Deem and Ramdas Pophale) SiO2 
 PCOD9111043
Probable space group: P -1
;
_chemical_formula_sum "Si O2"
_cell_formula_units_Z 16
_cell_length_a 5.594936
_cell_length_b 21.297043
_cell_length_c 9.344142
_cell_angle_alpha 45.699636
_cell_angle_beta 117.356415
_cell_angle_gamma 113.308201
_cell_volume 702.827593
_symmetry_space_group_name_H-M "P -1"
_symmetry_group_IT_number 2
_symmetry_cell_setting 'triclinic'
loop_
_space_group_symop_operation_xyz
x,y,z
-x,-y,-z
loop_
_atom_site_type_symbol
_atom_site_label
_atom_site_fract_x
_atom_site_fract_y
_atom_site_fract_z
Si Si1 0.132589 0.697445 0.302339
Si Si2 0.313167 0.268054 0.464669
Si Si3 0.173136 0.171552 0.873645
Si Si4 0.827770 0.522725 0.552535
Si Si5 0.310785 0.729026 0.987101
Si Si6 0.779514 0.965778 0.682122
Si Si7 0.890765 0.862237 0.601542
Si Si8 0.948049 0.414895 0.021213
O O1 0.413830 0.681226 0.476982
O O2 0.147337 0.692019 0.143954
O O3 0.095298 0.796614 0.182476
O O4 0.902508 0.627952 0.419120
O O5 0.190861 0.203999 0.662991
O O6 0.336016 0.201907 0.442507
O O7 0.141750 0.344656 0.240518
O O8 0.410818 0.229225 0.935893
O O9 0.212427 0.073605 0.093225
O O10 0.500000 0.500000 0.500000
O O11 0.000000 0.500000 0.500000
O O12 0.970936 0.468992 0.795365
O O13 0.147894 0.806762 0.761507
O O14 0.318419 0.654440 0.985546
O O15 0.017175 0.045647 0.598826
O O16 0.500000 0.000000 0.500000
O O17 0.823681 0.889350 0.700524
O O18 0.000000 0.500000 0.000000
#
# Coordination Sequence:
#
# PCOD9111043 Si02
#       8
#     2   2   2   2   2   2   2   2
#     4  11  23  43  68  95 135 189 233 284 359 427
#     4  10  26  45  65 102 142 181 228 292 359 420
#     4  11  22  42  69  97 132 184 237 281 353 425
#     4  12  27  48  75 104 139 190 248 301 360 429
#     4  10  20  42  68  94 134 180 235 285 345 428
#     4  11  22  39  71 102 132 177 231 281 345 427
#     4  10  22  42  64 101 137 173 226 288 349 416
#     4  11  24  45  68 103 143 183 235 303 357 421
#
# _framework density 22.765184999999999
#
# number of rings (size 3 to 8) (size 9 to 14) (size 15 to 20)
#    0.000    1.250    3.750    1.500    3.500    2.000 
#    4.500    1.250    0.000    0.000    0.000    0.000 
#    0.000    0.000    0.000    0.000    0.000    0.000 
#
# Total GULP energy -89168.063119 kJ/mol
# GULP energy per Si atom -5573.003945 kJ/mol
# Density = 2.271337 g / cm^3
# Si number density = 22.765185 Si / 1000 Ang^3
#
#
#
# Elastic Constant Matrix: (Units=GPa)
#
#
# Indices 1 2 3 4 5 6 
#
# 1 52.9098 7.9641 33.1251 0.2963 -9.9769 1.9338
# 2 7.9641 110.1189 24.8703 0.2074 -13.0726 -16.0796
# 3 33.1251 24.8703 174.4176 -9.7536 -15.6332 3.3184
# 4 0.2963 0.2074 -9.7536 32.9962 3.0208 -2.0181
# 5 -9.9769 -13.0726 -15.6332 3.0208 28.6491 -9.1544
# 6 1.9338 -16.0796 3.3184 -2.0181 -9.1544 23.0843
#
#
#
# Elastic Compliance Matrix: (Units=1/GPa)
#
#
# Indices 1 2 3 4 5 6 
#
# 1 0.022448 0.000171 -0.003843 -0.001851 0.006362 0.001153
# 2 0.000171 0.012168 -0.001232 -0.000513 0.008863 0.012109
# 3 -0.003843 -0.001232 0.006886 0.001900 0.001399 -0.000805
# 4 -0.001851 -0.000513 0.001900 0.031212 -0.002763 0.001157
# 5 0.006362 0.008863 0.001399 -0.002763 0.050248 0.025124
# 6 0.001153 0.012109 -0.000805 0.001157 0.025124 0.061838
#
#
# Mechanical properties :
#
#
# Convention : Reuss Voigt Hill
#
# Bulk Modulus (GPa) = 31.55103 52.15171 41.85137
# Shear Modulus (GPa) = 24.36979 35.04503 29.70741
#
# Velocity S-wave (km/s) = 3.27538 3.92779 3.61633
# Velocity P-wave (km/s) = 5.30976 6.59760 5.98840
#
# Compressibility (1/GPa) = 0.03169469
#
# Stress axis : x y z
#
# Youngs Moduli (GPa) = 44.54711 82.18143 145.22360
#
# Poissons Ratio (x) = -0.01409 0.55809
# Poissons Ratio (y) = -0.00764 0.17896
# Poissons Ratio (z) = 0.17119 0.10127
#
# Static dielectric constant tensor:
#      x y z
#    x 1.510450 0.474490 0.206140 
#    y 0.474490 1.385880 -0.282940 
#    z 0.206140 -0.282940 1.748800 
# 
# From -- ./inp_files/141183.got.cif
#   From: 2010.05.17/outbox.cif.g08.bks.cpg/sg2_71_cif.got.tgz:141183.got - 2010.06.03 11:33:40.
