data_PCOD9111022
_publ_section_title
;
Structure prediction by ZEFSAII (Michael W. Deem and Ramdas Pophale) SiO2 
 PCOD9111022
Probable space group: P -1
;
_chemical_formula_sum "Si O2"
_cell_formula_units_Z 16
_cell_length_a 15.014589
_cell_length_b 8.964620
_cell_length_c 11.591355
_cell_angle_alpha 108.364573
_cell_angle_beta 135.685353
_cell_angle_gamma 49.049817
_cell_volume 787.427597
_symmetry_space_group_name_H-M "P -1"
_symmetry_group_IT_number 2
_symmetry_cell_setting 'triclinic'
loop_
_space_group_symop_operation_xyz
x,y,z
-x,-y,-z
loop_
_atom_site_type_symbol
_atom_site_label
_atom_site_fract_x
_atom_site_fract_y
_atom_site_fract_z
Si Si1 0.477904 0.584105 0.826610
Si Si2 0.811552 0.358271 0.938743
Si Si3 0.188000 0.166747 0.039660
Si Si4 0.122147 0.963684 0.502694
Si Si5 0.490181 0.232028 0.871470
Si Si6 0.055251 0.433086 0.200998
Si Si7 0.016592 0.951437 0.157487
Si Si8 0.155296 0.299389 0.529191
O O1 0.636083 0.485558 0.867812
O O2 0.303079 0.748115 0.642217
O O3 0.484393 0.399420 0.833566
O O4 0.487126 0.709947 0.966421
O O5 0.824301 0.255045 0.805737
O O6 0.881254 0.477304 0.026164
O O7 0.960807 0.159436 0.102308
O O8 0.180409 0.280236 0.176262
O O9 0.357074 0.002682 0.085274
O O10 0.024924 0.334446 0.848481
O O11 0.140953 0.032884 0.011668
O O12 0.038890 0.959149 0.312233
O O13 0.153047 0.122755 0.534732
O O14 0.000000 0.000000 0.500000
O O15 0.321916 0.264133 0.708360
O O16 0.123488 0.347516 0.372206
O O17 0.000000 0.500000 0.500000
#
# Coordination Sequence:
#
# PCOD9111022 Si02
#       8
#     2   2   2   2   2   2   2   2
#     4  11  25  42  64  97 130 169 215 267 317 386
#     4  10  20  42  68  92 128 169 215 258 319 376
#     4  10  22  42  69  97 129 174 211 260 317 383
#     4  12  27  43  65  95 129 168 220 267 321 386
#     4  11  25  43  66  94 131 170 214 266 325 377
#     4  10  23  42  67  97 132 168 216 261 316 382
#     4  10  21  41  69  92 123 175 213 261 315 380
#     4  12  27  43  64  95 131 171 213 270 323 380
#
# _framework density 20.319330000000001
#
# number of rings (size 3 to 8) (size 9 to 14) (size 15 to 20)
#    0.000    1.250    2.500    2.250    8.750    1.500 
#    0.000    0.000    0.000    0.000    0.000    0.000 
#    0.000    0.000    0.000    0.000    0.000    0.000 
#
# Total GULP energy -89142.995743 kJ/mol
# GULP energy per Si atom -5571.437234 kJ/mol
# Density = 2.027308 g / cm^3
# Si number density = 20.319330 Si / 1000 Ang^3
#
#
#
# Elastic Constant Matrix: (Units=GPa)
#
#
# Indices 1 2 3 4 5 6 
#
# 1 111.5256 25.2660 25.2042 5.5281 2.8629 -20.4636
# 2 25.2660 75.1984 6.7582 2.4847 10.2185 -15.0739
# 3 25.2042 6.7582 39.9743 6.3599 -0.0129 -2.2065
# 4 5.5281 2.4847 6.3599 25.2053 -2.2402 5.4988
# 5 2.8629 10.2185 -0.0129 -2.2402 42.1732 -6.3644
# 6 -20.4636 -15.0739 -2.2065 5.4988 -6.3644 38.4609
#
#
#
# Elastic Compliance Matrix: (Units=1/GPa)
#
#
# Indices 1 2 3 4 5 6 
#
# 1 0.012084 -0.002371 -0.006614 -0.001899 0.000477 0.005471
# 2 -0.002371 0.015549 -0.000538 -0.002151 -0.003026 0.004609
# 3 -0.006614 -0.000538 0.030143 -0.005842 0.000105 -0.001148
# 4 -0.001899 -0.002151 -0.005842 0.043710 0.001740 -0.008150
# 5 0.000477 -0.003026 0.000105 0.001740 0.024951 0.002954
# 6 0.005471 0.004609 -0.001148 -0.008150 0.002954 0.032306
#
#
# Mechanical properties :
#
#
# Convention : Reuss Voigt Hill
#
# Bulk Modulus (GPa) = 25.81955 37.90611 31.86283
# Shear Modulus (GPa) = 26.21919 32.46587 29.34253
#
# Velocity S-wave (km/s) = 3.59605 4.00156 3.80421
# Velocity P-wave (km/s) = 5.47509 6.32817 5.91702
#
# Compressibility (1/GPa) = 0.03873034
#
# Stress axis : x y z
#
# Youngs Moduli (GPa) = 82.75221 64.31183 33.17466
#
# Poissons Ratio (x) = 0.15249 0.21942
# Poissons Ratio (y) = 0.19621 0.01785
# Poissons Ratio (z) = 0.54733 0.03461
#
# Static dielectric constant tensor:
#      x y z
#    x 1.744220 0.014430 -0.018550 
#    y 0.014430 1.741910 0.011100 
#    z -0.018550 0.011100 1.670940 
# 
# From -- ./inp_files/318125.got.cif
#   From: 2010.05.17/outbox.cif.g08.bks.cpg/sg2_160_cif.got.tgz:318125.got - 2010.06.03 11:33:40.
