data_PCOD9111453
_publ_section_title
;
Structure prediction by ZEFSAII (Michael W. Deem and Ramdas Pophale) SiO2 
 PCOD9111453
Probable space group: P -1
;
_chemical_formula_sum "Si O2"
_cell_formula_units_Z 16
_cell_length_a 8.706124
_cell_length_b 15.536781
_cell_length_c 26.875872
_cell_angle_alpha 19.306311
_cell_angle_beta 62.094474
_cell_angle_gamma 71.883226
_cell_volume 949.885565
_symmetry_space_group_name_H-M "P -1"
_symmetry_group_IT_number 2
_symmetry_cell_setting 'triclinic'
loop_
_space_group_symop_operation_xyz
x,y,z
-x,-y,-z
loop_
_atom_site_type_symbol
_atom_site_label
_atom_site_fract_x
_atom_site_fract_y
_atom_site_fract_z
Si Si1 0.273392 0.659696 0.589084
Si Si2 0.848132 0.271776 0.684716
Si Si3 0.980406 0.160335 0.979280
Si Si4 0.422786 0.972598 0.583377
Si Si5 0.435187 0.222194 0.788558
Si Si6 0.439326 0.569716 0.236194
Si Si7 0.060235 0.603023 0.281157
Si Si8 0.207868 0.327824 0.948766
O O1 0.400849 0.508626 0.629574
O O2 0.131394 0.666214 0.564197
O O3 0.409702 0.937332 0.449364
O O4 0.128629 0.427845 0.777907
O O5 0.632610 0.241963 0.725470
O O6 0.910750 0.379837 0.673241
O O7 0.000000 0.500000 0.500000
O O8 0.839940 0.952451 0.857488
O O9 0.758858 0.039305 0.061275
O O10 0.032360 0.887872 0.115327
O O11 0.031810 0.258518 0.974836
O O12 0.269508 0.638904 0.794883
O O13 0.500000 0.000000 0.500000
O O14 0.365501 0.238345 0.447873
O O15 0.467533 0.227113 0.840742
O O16 0.250645 0.597810 0.232325
O O17 0.606514 0.639634 0.131607
#
# Coordination Sequence:
#
# PCOD9111453 Si02
#       8
#     2   2   2   2   2   2   2   2
#     4  10  17  28  49  75 105 123 152 194 236 300
#     4  10  22  35  49  69  96 128 165 204 237 276
#     4  10  17  26  46  77 103 120 149 192 247 293
#     4   9  16  32  44  69 104 135 152 183 235 300
#     4   9  17  29  49  72  98 120 155 198 245 282
#     4   9  17  28  48  73  98 127 153 193 238 296
#     4   9  19  29  48  73  98 121 163 198 243 279
#     4  10  19  30  49  68 101 135 154 191 239 286
#
# _framework density 16.844134
#
# number of rings (size 3 to 8) (size 9 to 14) (size 15 to 20)
#    0.000    2.500    3.750    1.500    5.250    1.500 
#    0.000    9.375    0.000    7.500    0.000    0.000 
#    0.000    0.000    0.000    0.000    0.000    0.000 
#
# Total GULP energy -89094.699353 kJ/mol
# GULP energy per Si atom -5568.418710 kJ/mol
# Density = 1.680580 g / cm^3
# Si number density = 16.844134 Si / 1000 Ang^3
#
#
#
# Elastic Constant Matrix: (Units=GPa)
#
#
# Indices 1 2 3 4 5 6 
#
# 1 124.5011 24.4574 41.5443 -10.4384 -21.0867 6.2543
# 2 24.4574 24.9808 33.6764 -8.6326 -8.5056 3.5524
# 3 41.5443 33.6764 114.2353 -11.0880 -9.0915 5.1545
# 4 -10.4384 -8.6326 -11.0880 25.9546 12.0662 -10.6390
# 5 -21.0867 -8.5056 -9.0915 12.0662 21.0885 -8.3236
# 6 6.2543 3.5524 5.1545 -10.6390 -8.3236 17.8349
#
#
#
# Elastic Compliance Matrix: (Units=1/GPa)
#
#
# Indices 1 2 3 4 5 6 
#
# 1 0.011249 -0.006373 -0.001720 -0.002485 0.009700 0.000867
# 2 -0.006373 0.080105 -0.019350 0.011917 0.012715 0.004915
# 3 -0.001720 -0.019350 0.014881 0.000491 -0.003939 -0.001388
# 4 -0.002485 0.011917 0.000491 0.062869 -0.023639 0.024826
# 5 0.009700 0.012715 -0.003939 -0.023639 0.081657 0.019213
# 6 0.000867 0.004915 -0.001388 0.024826 0.019213 0.078964
#
#
# Mechanical properties :
#
#
# Convention : Reuss Voigt Hill
#
# Bulk Modulus (GPa) = 19.47538 51.45258 35.46398
# Shear Modulus (GPa) = 12.44621 23.91154 18.17887
#
# Velocity S-wave (km/s) = 2.72123 3.77181 3.28874
# Velocity P-wave (km/s) = 4.63257 7.04141 5.95995
#
# Compressibility (1/GPa) = 0.05134687
#
# Stress axis : x y z
#
# Youngs Moduli (GPa) = 88.89591 12.48366 67.20071
#
# Poissons Ratio (x) = 0.07956 0.11562
# Poissons Ratio (y) = 0.56656 1.30034
# Poissons Ratio (z) = 0.15294 0.24156
#
# Static dielectric constant tensor:
#      x y z
#    x 1.623750 0.017730 0.001810 
#    y 0.017730 1.582990 -0.022530 
#    z 0.001810 -0.022530 1.605120 
# 
# From -- ./inp_files/250354.got.cif
#   From: 2010.05.17/outbox.cif.g08.bks.cpg/sg2_126_cif.got.tgz:250354.got - 2010.06.03 11:33:40.
