data_PCOD9111018
_publ_section_title
;
Structure prediction by ZEFSAII (Michael W. Deem and Ramdas Pophale) SiO2 
 PCOD9111018
Probable space group: P -1
;
_chemical_formula_sum "Si O2"
_cell_formula_units_Z 15
_cell_length_a 8.409372
_cell_length_b 16.362250
_cell_length_c 19.847019
_cell_angle_alpha 159.493551
_cell_angle_beta 42.670874
_cell_angle_gamma 138.130308
_cell_volume 630.120944
_symmetry_space_group_name_H-M "P -1"
_symmetry_group_IT_number 2
_symmetry_cell_setting 'triclinic'
loop_
_space_group_symop_operation_xyz
x,y,z
-x,-y,-z
loop_
_atom_site_type_symbol
_atom_site_label
_atom_site_fract_x
_atom_site_fract_y
_atom_site_fract_z
Si Si1 0.004435 0.548203 0.819686
Si Si2 0.286171 0.608735 0.043476
Si Si3 0.745739 0.924397 0.860673
Si Si4 0.500000 0.500000 0.000000
Si Si5 0.043182 0.327873 0.499769
Si Si6 0.594478 0.074438 0.360644
Si Si7 0.044659 0.800860 0.779842
Si Si8 0.233433 0.397131 0.761219
O O1 0.724732 0.447888 0.843470
O O2 0.070862 0.394159 0.619291
O O3 0.174145 0.527510 0.813838
O O4 0.051951 0.828206 0.002751
O O5 0.036457 0.693080 0.190811
O O6 0.484470 0.786061 0.167141
O O7 0.287088 0.380672 0.912787
O O8 0.362604 0.573891 0.917047
O O9 0.759515 0.801436 0.690207
O O10 0.812057 0.754513 0.766698
O O11 0.500000 0.000000 0.000000
O O12 0.791326 0.159515 0.422536
O O13 0.058524 0.572382 0.642604
O O14 0.727422 0.138443 0.296168
O O15 0.378806 0.202778 0.544022
O O16 0.000000 0.000000 0.000000
#
# Coordination Sequence:
#
# PCOD9111018 Si02
#       8
#     2   2   2   1   2   2   2   2
#     4  11  24  42  66  96 136 170 226 267 338 388
#     4  10  22  43  66  97 130 169 220 268 333 389
#     4  11  25  42  66  98 136 174 222 276 330 394
#     4  10  20  42  68  92 126 170 214 276 320 390
#     4  11  25  44  66  99 131 177 225 270 332 394
#     4  11  23  40  70  92 132 171 224 264 334 391
#     4  11  24  43  66  95 131 177 223 274 325 396
#     4  10  24  41  66  98 134 173 211 278 327 395
#
# _framework density 23.804953000000001
#
# number of rings (size 3 to 8) (size 9 to 14) (size 15 to 20)
#    0.000    1.333    1.333    4.400    5.600    2.667 
#    0.000   14.667    0.000    0.000    0.000    0.000 
#    0.000    0.000    0.000    0.000    0.000    0.000 
#
# Total GULP energy -83658.823636 kJ/mol
# GULP energy per Si atom -5577.254909 kJ/mol
# Density = 2.375077 g / cm^3
# Si number density = 23.804953 Si / 1000 Ang^3
#
#
#
# Elastic Constant Matrix: (Units=GPa)
#
#
# Indices 1 2 3 4 5 6 
#
# 1 98.2555 28.0195 54.4612 -29.9254 11.5508 -19.8995
# 2 28.0195 76.1303 53.4549 -20.1464 2.8302 0.6745
# 3 54.4612 53.4549 177.3473 -45.1267 11.3339 -4.6213
# 4 -29.9254 -20.1464 -45.1267 50.8925 4.6696 4.8885
# 5 11.5508 2.8302 11.3339 4.6696 46.3853 -16.6338
# 6 -19.8995 0.6745 -4.6213 4.8885 -16.6338 25.9685
#
#
#
# Elastic Compliance Matrix: (Units=1/GPa)
#
#
# Indices 1 2 3 4 5 6 
#
# 1 0.016203 -0.002976 -0.002536 0.004985 0.000320 0.011308
# 2 -0.002976 0.017651 -0.003828 0.002422 -0.001343 -0.004736
# 3 -0.002536 -0.003828 0.009134 0.005695 -0.003119 -0.003288
# 4 0.004985 0.002422 0.005695 0.029884 -0.007913 -0.005924
# 5 0.000320 -0.001343 -0.003119 -0.007913 0.030579 0.020802
# 6 0.011308 -0.004736 -0.003288 -0.005924 0.020802 0.061151
#
#
# Mechanical properties :
#
#
# Convention : Reuss Voigt Hill
#
# Bulk Modulus (GPa) = 41.13768 69.28938 55.21353
# Shear Modulus (GPa) = 26.12561 39.03576 32.58069
#
# Velocity S-wave (km/s) = 3.31643 4.05386 3.70354
# Velocity P-wave (km/s) = 5.65540 7.14717 6.44459
#
# Compressibility (1/GPa) = 0.02430861
#
# Stress axis : x y z
#
# Youngs Moduli (GPa) = 61.71779 56.65405 109.48236
#
# Poissons Ratio (x) = 0.16858 0.27766
# Poissons Ratio (y) = 0.18364 0.41909
# Poissons Ratio (z) = 0.15652 0.21687
#
# Static dielectric constant tensor:
#      x y z
#    x 2.730990 -0.729290 -0.577720 
#    y -0.729290 2.749820 0.552360 
#    z -0.577720 0.552360 2.340980 
# 
# From -- ./inp_files/202338.got.cif
#   From: 2010.05.17/outbox.cif.g08.bks.cpg/sg2_102_cif.got.tgz:202338.got - 2010.06.03 11:33:40.
