data_PCOD9111620
_publ_section_title
;
Structure prediction by ZEFSAII (Michael W. Deem and Ramdas Pophale) SiO2 
 PCOD9111620
Probable space group: P -1
;
_chemical_formula_sum "Si O2"
_cell_formula_units_Z 16
_cell_length_a 12.286528
_cell_length_b 11.842541
_cell_length_c 15.477868
_cell_angle_alpha 151.469140
_cell_angle_beta 45.542341
_cell_angle_gamma 124.101405
_cell_volume 757.842733
_symmetry_space_group_name_H-M "P -1"
_symmetry_group_IT_number 2
_symmetry_cell_setting 'triclinic'
loop_
_space_group_symop_operation_xyz
x,y,z
-x,-y,-z
loop_
_atom_site_type_symbol
_atom_site_label
_atom_site_fract_x
_atom_site_fract_y
_atom_site_fract_z
Si Si1 0.313048 0.889674 0.740134
Si Si2 0.173868 0.502893 0.978274
Si Si3 0.672646 0.840481 0.489411
Si Si4 0.185901 0.370576 0.208190
Si Si5 0.896572 0.212458 0.350237
Si Si6 0.326336 0.603381 0.133780
Si Si7 0.684326 0.461933 0.359021
Si Si8 0.085206 0.799303 0.072126
O O1 0.489998 0.835869 0.578588
O O2 0.203363 0.944401 0.755489
O O3 0.258898 0.665186 0.668584
O O4 0.294717 0.115183 0.966620
O O5 0.245293 0.313890 0.738435
O O6 0.026140 0.394049 0.021047
O O7 0.292261 0.530231 0.006384
O O8 0.120104 0.747874 0.119065
O O9 0.719961 0.710570 0.467482
O O10 0.698981 0.110995 0.653765
O O11 0.213006 0.562098 0.394905
O O12 0.207907 0.499275 0.192633
O O13 0.019818 0.307108 0.282716
O O14 0.994910 0.053798 0.262584
O O15 0.500000 0.500000 0.000000
O O16 0.500000 0.500000 0.500000
O O17 0.756995 0.272972 0.118158
#
# Coordination Sequence:
#
# PCOD9111620 Si02
#       8
#     2   2   2   2   2   2   2   2
#     4  11  21  40  69  92 131 172 217 271 320 385
#     4  10  24  42  66  97 130 181 212 266 333 378
#     4  10  23  43  63  98 129 175 218 266 327 385
#     4  11  24  41  59  99 131 163 218 264 325 383
#     4  11  24  40  67  97 127 172 215 273 328 377
#     4  12  25  41  65  96 137 169 217 267 317 398
#     4   9  20  39  65  93 127 167 218 264 320 387
#     4  10  20  43  67  92 137 168 220 271 319 396
#
# _framework density 21.112559999999998
#
# number of rings (size 3 to 8) (size 9 to 14) (size 15 to 20)
#    0.000    1.500    2.500    1.875    3.500    0.500 
#    4.500    6.250    0.000    6.750    0.000    0.000 
#    0.000    0.000    0.000    0.000    0.000    0.000 
#
# Total GULP energy -89250.425861 kJ/mol
# GULP energy per Si atom -5578.151616 kJ/mol
# Density = 2.106451 g / cm^3
# Si number density = 21.112560 Si / 1000 Ang^3
#
#
#
# Elastic Constant Matrix: (Units=GPa)
#
#
# Indices 1 2 3 4 5 6 
#
# 1 89.3869 35.6949 32.5401 2.9843 -0.3010 -14.9588
# 2 35.6949 123.4545 44.4890 13.9654 -4.5440 -15.1908
# 3 32.5401 44.4890 101.8665 -1.2890 -9.4476 -2.9788
# 4 2.9843 13.9654 -1.2890 36.0874 -2.1651 -9.2091
# 5 -0.3010 -4.5440 -9.4476 -2.1651 17.5301 5.4710
# 6 -14.9588 -15.1908 -2.9788 -9.2091 5.4710 19.5501
#
#
#
# Elastic Compliance Matrix: (Units=1/GPa)
#
#
# Indices 1 2 3 4 5 6 
#
# 1 0.015498 -0.001852 -0.004324 0.002094 -0.006179 0.012476
# 2 -0.001852 0.011158 -0.004301 -0.002974 -0.001585 0.005640
# 3 -0.004324 -0.004301 0.013682 0.001422 0.008301 -0.006219
# 4 0.002094 -0.002974 0.001422 0.032531 -0.000635 0.015009
# 5 -0.006179 -0.001585 0.008301 -0.000635 0.068461 -0.024152
# 6 0.012476 0.005640 -0.006219 0.015009 -0.024152 0.077960
#
#
# Mechanical properties :
#
#
# Convention : Reuss Voigt Hill
#
# Bulk Modulus (GPa) = 51.58734 60.01732 55.80233
# Shear Modulus (GPa) = 20.26707 28.09911 24.18309
#
# Velocity S-wave (km/s) = 3.10167 3.65213 3.38810
# Velocity P-wave (km/s) = 6.10857 6.80244 6.46482
#
# Compressibility (1/GPa) = 0.01938460
#
# Stress axis : x y z
#
# Youngs Moduli (GPa) = 64.52472 89.62411 73.08667
#
# Poissons Ratio (x) = 0.16599 0.31599
# Poissons Ratio (y) = 0.11950 0.31435
# Poissons Ratio (z) = 0.27898 0.38548
#
# Static dielectric constant tensor:
#      x y z
#    x 1.730280 -0.036180 -0.028770 
#    y -0.036180 1.803450 0.011150 
#    z -0.028770 0.011150 1.772520 
# 
# From -- ./inp_files/428679.got.cif
#   From: 2010.05.17/outbox.cif.g08.bks.cpg/sg2_215_cif.got.tgz:428679.got - 2010.06.03 11:33:40.
