data_PCOD9111072
_publ_section_title
;
Structure prediction by ZEFSAII (Michael W. Deem and Ramdas Pophale) SiO2 
 PCOD9111072
Probable space group: P -1
;
_chemical_formula_sum "Si O2"
_cell_formula_units_Z 13
_cell_length_a 9.392245
_cell_length_b 11.174892
_cell_length_c 9.360535
_cell_angle_alpha 83.092267
_cell_angle_beta 133.557570
_cell_angle_gamma 68.325291
_cell_volume 549.711707
_symmetry_space_group_name_H-M "P -1"
_symmetry_group_IT_number 2
_symmetry_cell_setting 'triclinic'
loop_
_space_group_symop_operation_xyz
x,y,z
-x,-y,-z
loop_
_atom_site_type_symbol
_atom_site_label
_atom_site_fract_x
_atom_site_fract_y
_atom_site_fract_z
Si Si1 0.203104 0.576541 0.279559
Si Si2 0.500000 0.500000 0.000000
Si Si3 0.825484 0.247171 0.019713
Si Si4 0.827511 0.259797 0.504977
Si Si5 0.380395 0.266123 0.557832
Si Si6 0.322489 0.068666 0.731519
Si Si7 0.641840 0.081890 0.498304
O O1 0.500000 0.500000 0.500000
O O2 0.071739 0.702278 0.296865
O O3 0.198618 0.438722 0.341939
O O4 0.116314 0.659681 0.055014
O O5 0.701019 0.339325 0.067218
O O6 0.655001 0.410414 0.267138
O O7 0.626239 0.238261 0.798681
O O8 0.081974 0.075630 0.249377
O O9 0.664492 0.214718 0.461500
O O10 0.058496 0.118023 0.595643
O O11 0.272074 0.222475 0.612917
O O12 0.465199 0.146535 0.504721
O O13 0.439631 0.947818 0.700891
O O14 0.500000 0.000000 0.000000
#
# Coordination Sequence:
#
# PCOD9111072 Si02
#       7
#     2   1   2   2   2   2   2
#     4  10  20  42  68  97 129 171 225 273 329 396
#     4  12  22  40  72 102 134 164 234 282 324 382
#     4  11  22  41  73 102 126 178 234 277 323 398
#     4  12  24  45  72 100 130 179 230 278 327 402
#     4  11  23  45  66  99 140 176 217 280 339 401
#     4  12  29  43  63 104 143 174 219 281 346 388
#     4  12  24  44  73  95 131 185 234 266 326 409
#
# _framework density 23.648759999999999
#
# number of rings (size 3 to 8) (size 9 to 14) (size 15 to 20)
#    0.000    0.615    7.692    2.308    4.308    0.615 
#    0.000    0.769    0.000    0.000    0.000    0.000 
#    0.000    0.000    0.000    0.000    0.000    0.000 
#
# Total GULP energy -72519.579593 kJ/mol
# GULP energy per Si atom -5578.429199 kJ/mol
# Density = 2.359493 g / cm^3
# Si number density = 23.648760 Si / 1000 Ang^3
#
#
#
# Elastic Constant Matrix: (Units=GPa)
#
#
# Indices 1 2 3 4 5 6 
#
# 1 58.7798 11.4577 0.3607 9.0823 -17.8883 -11.1839
# 2 11.4577 112.5186 15.1999 15.1344 -15.9211 -18.1070
# 3 0.3607 15.1999 70.0829 17.2260 0.4809 -5.6113
# 4 9.0823 15.1344 17.2260 26.1379 -7.4316 -12.1388
# 5 -17.8883 -15.9211 0.4809 -7.4316 23.1008 7.5640
# 6 -11.1839 -18.1070 -5.6113 -12.1388 7.5640 28.5628
#
#
#
# Elastic Compliance Matrix: (Units=1/GPa)
#
#
# Indices 1 2 3 4 5 6 
#
# 1 0.022951 0.000901 0.000449 -0.002107 0.016250 0.004447
# 2 0.000901 0.010847 -0.001631 -0.001636 0.006183 0.004576
# 3 0.000449 -0.001631 0.017721 -0.013015 -0.004796 -0.001638
# 4 -0.002107 -0.001636 -0.013015 0.060073 0.010867 0.018234
# 5 0.016250 0.006183 -0.004796 0.010867 0.064775 -0.003195
# 6 0.004447 0.004576 -0.001638 0.018234 -0.003195 0.047927
#
#
# Mechanical properties :
#
#
# Convention : Reuss Voigt Hill
#
# Bulk Modulus (GPa) = 19.62467 32.82422 26.22445
# Shear Modulus (GPa) = 20.67456 29.85115 25.26286
#
# Velocity S-wave (km/s) = 2.95995 3.55670 3.27196
# Velocity P-wave (km/s) = 4.47193 5.54769 5.03860
#
# Compressibility (1/GPa) = 0.05095626
#
# Stress axis : x y z
#
# Youngs Moduli (GPa) = 43.57043 92.18847 56.43029
#
# Poissons Ratio (x) = -0.08302 -0.02534
# Poissons Ratio (y) = -0.03924 0.09205
# Poissons Ratio (z) = -0.01956 0.15038
#
# Static dielectric constant tensor:
#      x y z
#    x 1.890830 0.027290 0.006170 
#    y 0.027290 1.905400 0.005740 
#    z 0.006170 0.005740 1.867780 
# 
# From -- ./inp_files/159264.got.cif
#   From: 2010.05.17/outbox.cif.g08.bks.cpg/sg2_80_cif.got.tgz:159264.got - 2010.06.03 11:33:40.
