data_PCOD9111542
_publ_section_title
;
Structure prediction by ZEFSAII (Michael W. Deem and Ramdas Pophale) SiO2 
 PCOD9111542
Probable space group: P -1
;
_chemical_formula_sum "Si O2"
_cell_formula_units_Z 16
_cell_length_a 8.372560
_cell_length_b 11.931263
_cell_length_c 8.889979
_cell_angle_alpha 103.862572
_cell_angle_beta 99.784811
_cell_angle_gamma 56.520348
_cell_volume 718.362163
_symmetry_space_group_name_H-M "P -1"
_symmetry_group_IT_number 2
_symmetry_cell_setting 'triclinic'
loop_
_space_group_symop_operation_xyz
x,y,z
-x,-y,-z
loop_
_atom_site_type_symbol
_atom_site_label
_atom_site_fract_x
_atom_site_fract_y
_atom_site_fract_z
Si Si1 0.639473 0.933545 0.221405
Si Si2 0.055543 0.734407 0.581971
Si Si3 0.300581 0.164462 0.130107
Si Si4 0.342467 0.459049 0.466101
Si Si5 0.288667 0.270362 0.596932
Si Si6 0.051426 0.877782 0.355984
Si Si7 0.900749 0.980567 0.838388
Si Si8 0.049350 0.477381 0.181452
O O1 0.590169 0.863383 0.324450
O O2 0.854302 0.899189 0.269361
O O3 0.500100 0.096601 0.230596
O O4 0.648651 0.857726 0.044425
O O5 0.181091 0.576983 0.586003
O O6 0.050895 0.842412 0.727977
O O7 0.841675 0.768303 0.533944
O O8 0.133760 0.750176 0.438345
O O9 0.121999 0.318170 0.170038
O O10 0.246657 0.055132 0.133408
O O11 0.500000 0.500000 0.500000
O O12 0.390684 0.323133 0.520969
O O13 0.234862 0.469325 0.292837
O O14 0.133394 0.396024 0.721341
O O15 0.166081 0.893353 0.244640
O O16 0.000000 0.000000 0.500000
O O17 0.000000 0.000000 0.000000
O O18 0.000000 0.500000 0.000000
#
# Coordination Sequence:
#
# PCOD9111542 Si02
#       8
#     2   2   2   2   2   2   2   2
#     4  10  21  38  59  89 127 159 201 261 313 371
#     4   9  20  39  60  85 124 167 208 252 307 391
#     4  11  22  37  60  93 124 158 209 257 315 367
#     4  11  24  41  64  97 125 163 216 274 325 366
#     4  10  20  43  66  89 124 171 216 256 315 392
#     4   9  19  36  57  85 121 161 198 246 311 369
#     4  11  20  34  58  89 119 159 205 251 305 371
#     4  11  22  42  70  92 122 176 220 254 310 395
#
# _framework density 22.272884999999999
#
# number of rings (size 3 to 8) (size 9 to 14) (size 15 to 20)
#    0.000    1.750    2.500    3.000    0.000    3.000 
#    0.000    9.375    0.000    0.000    0.000    0.000 
#    0.000    0.000    0.000    0.000    0.000    0.000 
#
# Total GULP energy -89121.773705 kJ/mol
# GULP energy per Si atom -5570.110857 kJ/mol
# Density = 2.222219 g / cm^3
# Si number density = 22.272885 Si / 1000 Ang^3
#
#
#
# Elastic Constant Matrix: (Units=GPa)
#
#
# Indices 1 2 3 4 5 6 
#
# 1 77.6547 14.2544 39.2343 -13.2697 8.5978 23.2997
# 2 14.2544 104.4050 47.3934 -14.6899 6.1017 9.7777
# 3 39.2343 47.3934 139.9513 -8.8027 5.9854 12.6244
# 4 -13.2697 -14.6899 -8.8027 41.3716 5.7493 -7.3944
# 5 8.5978 6.1017 5.9854 5.7493 25.1918 -4.5345
# 6 23.2997 9.7777 12.6244 -7.3944 -4.5345 41.2854
#
#
#
# Elastic Compliance Matrix: (Units=1/GPa)
#
#
# Indices 1 2 3 4 5 6 
#
# 1 0.019852 0.001563 -0.004436 0.005422 -0.009183 -0.010255
# 2 0.001563 0.012167 -0.003930 0.004124 -0.003893 -0.002251
# 3 -0.004436 -0.003930 0.009617 -0.000759 0.000427 0.000404
# 4 0.005422 0.004124 -0.000759 0.028536 -0.009127 0.000304
# 5 -0.009183 -0.003893 0.000427 -0.009127 0.047474 0.009554
# 6 -0.010255 -0.002251 0.000404 0.000304 0.009554 0.031522
#
#
# Mechanical properties :
#
#
# Convention : Reuss Voigt Hill
#
# Bulk Modulus (GPa) = 35.67386 58.19725 46.93556
# Shear Modulus (GPa) = 29.05007 36.31168 32.68087
#
# Velocity S-wave (km/s) = 3.61540 4.04209 3.83468
# Velocity P-wave (km/s) = 5.78616 6.92608 6.38162
#
# Compressibility (1/GPa) = 0.02803173
#
# Stress axis : x y z
#
# Youngs Moduli (GPa) = 50.37288 82.18916 103.98073
#
# Poissons Ratio (x) = -0.12848 0.46125
# Poissons Ratio (y) = -0.07874 0.40859
# Poissons Ratio (z) = 0.22345 0.32296
#
# Static dielectric constant tensor:
#      x y z
#    x 1.961050 -0.016310 -0.023140 
#    y -0.016310 1.849130 -0.067860 
#    z -0.023140 -0.067860 1.868400 
# 
# From -- ./inp_files/180483.got.cif
#   From: 2010.05.17/outbox.cif.g08.bks.cpg/sg2_91_cif.got.tgz:180483.got - 2010.06.03 11:33:40.
