data_PCOD9111517
_publ_section_title
;
Structure prediction by ZEFSAII (Michael W. Deem and Ramdas Pophale) SiO2 
 PCOD9111517
Probable space group: P -1
;
_chemical_formula_sum "Si O2"
_cell_formula_units_Z 14
_cell_length_a 12.182623
_cell_length_b 10.905773
_cell_length_c 9.502391
_cell_angle_alpha 113.575851
_cell_angle_beta 34.008198
_cell_angle_gamma 112.251163
_cell_volume 644.449883
_symmetry_space_group_name_H-M "P -1"
_symmetry_group_IT_number 2
_symmetry_cell_setting 'triclinic'
loop_
_space_group_symop_operation_xyz
x,y,z
-x,-y,-z
loop_
_atom_site_type_symbol
_atom_site_label
_atom_site_fract_x
_atom_site_fract_y
_atom_site_fract_z
Si Si1 0.068257 0.035729 0.788512
Si Si2 0.274194 0.630207 0.556205
Si Si3 0.189092 0.346722 0.419477
Si Si4 0.883001 0.241740 0.496233
Si Si5 0.475663 0.836780 0.951240
Si Si6 0.021404 0.318800 0.876844
Si Si7 0.574987 0.763796 0.510627
O O1 0.040489 0.905120 0.664088
O O2 0.962650 0.160619 0.899383
O O3 0.297988 0.093030 0.577440
O O4 0.000000 0.000000 0.000000
O O5 0.314070 0.488326 0.380119
O O6 0.185103 0.713824 0.564283
O O7 0.455983 0.711306 0.477581
O O8 0.114798 0.604951 0.840618
O O9 0.028726 0.334747 0.710299
O O10 0.063574 0.339808 0.408028
O O11 0.324899 0.224847 0.236337
O O12 0.698637 0.221943 0.788582
O O13 0.451365 0.780021 0.791310
O O14 0.500000 0.000000 0.000000
O O15 0.252014 0.333672 0.686542
#
# Coordination Sequence:
#
# PCOD9111517 Si02
#       7
#     2   2   2   2   2   2   2
#     4  10  20  43  65  96 122 159 217 271 317 366
#     4  12  24  41  65  95 131 177 211 258 323 375
#     4  11  26  42  64  96 131 172 217 259 314 394
#     4  12  24  41  65  95 135 170 210 264 323 380
#     4  11  23  45  66  98 126 168 214 270 327 372
#     4   9  21  42  65  94 122 169 216 269 317 363
#     4   9  22  41  65  95 123 166 219 264 309 385
#
# _framework density 21.723953999999999
#
# number of rings (size 3 to 8) (size 9 to 14) (size 15 to 20)
#    0.857    0.571    2.857    1.714    0.000   10.286 
#    0.000    0.000    0.000    0.000    0.000    0.000 
#    0.000    0.000    0.000    0.000    0.000    0.000 
#
# Total GULP energy -78147.789441 kJ/mol
# GULP energy per Si atom -5581.984960 kJ/mol
# Density = 2.167451 g / cm^3
# Si number density = 21.723954 Si / 1000 Ang^3
#
#
#
# Elastic Constant Matrix: (Units=GPa)
#
#
# Indices 1 2 3 4 5 6 
#
# 1 123.0827 12.9516 -2.5267 17.0698 10.2858 16.9457
# 2 12.9516 46.3930 -1.0750 28.3339 -0.1364 4.4024
# 3 -2.5267 -1.0750 73.3103 12.6643 4.6417 2.9372
# 4 17.0698 28.3339 12.6643 36.9746 -9.9663 4.8436
# 5 10.2858 -0.1364 4.6417 -9.9663 21.5688 4.1210
# 6 16.9457 4.4024 2.9372 4.8436 4.1210 27.6585
#
#
#
# Elastic Compliance Matrix: (Units=1/GPa)
#
#
# Indices 1 2 3 4 5 6 
#
# 1 0.010848 0.004960 0.003432 -0.012378 -0.010832 -0.004019
# 2 0.004960 0.056011 0.013089 -0.058611 -0.032239 0.001723
# 3 0.003432 0.013089 0.018824 -0.022381 -0.015968 0.000114
# 4 -0.012378 -0.058611 -0.022381 0.102209 0.058990 -0.007399
# 5 -0.010832 -0.032239 -0.015968 0.058990 0.083806 -0.009353
# 6 -0.004019 0.001723 0.000114 -0.007399 -0.009353 0.041020
#
#
# Mechanical properties :
#
#
# Convention : Reuss Voigt Hill
#
# Bulk Modulus (GPa) = 7.77328 29.05400 18.41364
# Shear Modulus (GPa) = 15.99295 32.80278 24.39787
#
# Velocity S-wave (km/s) = 2.71622 3.89006 3.35488
# Velocity P-wave (km/s) = 3.66376 5.79483 4.84784
#
# Compressibility (1/GPa) = 0.12864581
#
# Stress axis : x y z
#
# Youngs Moduli (GPa) = 92.18044 17.85367 53.12451
#
# Poissons Ratio (x) = -0.08856 -0.18231
# Poissons Ratio (y) = -0.45723 -0.69537
# Poissons Ratio (z) = -0.31634 -0.23369
#
# Static dielectric constant tensor:
#      x y z
#    x 1.759900 0.004520 -0.015560 
#    y 0.004520 1.835610 0.006900 
#    z -0.015560 0.006900 1.794930 
# 
# From -- ./inp_files/259762.got.cif
#   From: 2010.05.17/outbox.cif.g08.bks.cpg/sg2_130_cif.got.tgz:259762.got - 2010.06.03 11:33:40.
