data_PCOD9111931
_publ_section_title
;
Structure prediction by ZEFSAII (Michael W. Deem and Ramdas Pophale) SiO2 
 PCOD9111931
Probable space group: P -1
;
_chemical_formula_sum "Si O2"
_cell_formula_units_Z 15
_cell_length_a 9.269471
_cell_length_b 18.988496
_cell_length_c 5.151494
_cell_angle_alpha 82.777893
_cell_angle_beta 66.910938
_cell_angle_gamma 48.354516
_cell_volume 611.181055
_symmetry_space_group_name_H-M "P -1"
_symmetry_group_IT_number 2
_symmetry_cell_setting 'triclinic'
loop_
_space_group_symop_operation_xyz
x,y,z
-x,-y,-z
loop_
_atom_site_type_symbol
_atom_site_label
_atom_site_fract_x
_atom_site_fract_y
_atom_site_fract_z
Si Si1 0.353587 0.294386 0.159875
Si Si2 0.157405 0.744564 0.276906
Si Si3 0.309527 0.062546 0.406220
Si Si4 0.292593 0.783047 0.676910
Si Si5 0.000000 0.000000 0.000000
Si Si6 0.588747 0.088207 0.925676
Si Si7 0.216381 0.475976 0.922391
Si Si8 0.143097 0.585439 0.441662
O O1 0.109019 0.347243 0.352073
O O2 0.475222 0.262405 0.365464
O O3 0.474060 0.198826 0.946017
O O4 0.358344 0.369235 0.982601
O O5 0.248185 0.733104 0.935365
O O6 0.195069 0.652374 0.374845
O O7 0.907302 0.839091 0.385345
O O8 0.237942 0.772314 0.434587
O O9 0.500000 0.000000 0.500000
O O10 0.285124 0.989346 0.358054
O O11 0.398434 0.091242 0.118732
O O12 0.125426 0.895115 0.816931
O O13 0.770315 0.041734 0.031001
O O14 0.268412 0.502377 0.611011
O O15 0.184110 0.540106 0.151205
O O16 0.000000 0.500000 0.000000
#
# Coordination Sequence:
#
# PCOD9111931 Si02
#       8
#     2   2   2   2   1   2   2   2
#     4  10  22  44  66 100 128 174 225 276 332 405
#     4  12  25  46  66  98 137 178 226 270 339 393
#     4  11  23  38  63  94 132 172 227 268 326 395
#     4  11  26  43  68  96 140 180 219 276 334 398
#     4  10  20  44  62  92 138 176 218 264 340 382
#     4  10  21  41  62  94 128 173 219 269 327 395
#     4  10  22  41  70 101 133 165 223 285 339 386
#     4  11  23  44  72  98 130 177 221 283 331 396
#
# _framework density 24.542648
#
# number of rings (size 3 to 8) (size 9 to 14) (size 15 to 20)
#    0.000    1.333    2.667    3.200    1.867    5.867 
#   12.000    4.000    0.000    0.000    0.000    0.000 
#    0.000    0.000    0.000    0.000    0.000    0.000 
#
# Total GULP energy -83699.430736 kJ/mol
# GULP energy per Si atom -5579.962049 kJ/mol
# Density = 2.448679 g / cm^3
# Si number density = 24.542648 Si / 1000 Ang^3
#
#
#
# Elastic Constant Matrix: (Units=GPa)
#
#
# Indices 1 2 3 4 5 6 
#
# 1 79.3861 41.2262 15.2735 0.2071 14.5765 14.2931
# 2 41.2262 112.6274 15.3846 3.9392 6.3594 14.7494
# 3 15.2735 15.3846 57.7839 -15.1517 15.5069 6.6340
# 4 0.2071 3.9392 -15.1517 26.0780 2.9325 3.2070
# 5 14.5765 6.3594 15.5069 2.9325 37.7123 4.1624
# 6 14.2931 14.7494 6.6340 3.2070 4.1624 52.3994
#
#
#
# Elastic Compliance Matrix: (Units=1/GPa)
#
#
# Indices 1 2 3 4 5 6 
#
# 1 0.017055 -0.005489 -0.001182 0.000886 -0.004960 -0.002617
# 2 -0.005489 0.011460 -0.002795 -0.003347 0.001743 -0.001308
# 3 -0.001182 -0.002795 0.026014 0.017055 -0.010833 -0.002367
# 4 0.000886 -0.003347 0.017055 0.050370 -0.010297 -0.003724
# 5 -0.004960 0.001743 -0.010833 -0.010297 0.033371 0.000213
# 6 -0.002617 -0.001308 -0.002367 -0.003724 0.000213 0.020677
#
#
# Mechanical properties :
#
#
# Convention : Reuss Voigt Hill
#
# Bulk Modulus (GPa) = 28.09462 43.72957 35.91210
# Shear Modulus (GPa) = 26.35103 35.09879 30.72491
#
# Velocity S-wave (km/s) = 3.28027 3.78579 3.54206
# Velocity P-wave (km/s) = 5.08124 6.07997 5.60290
#
# Compressibility (1/GPa) = 0.03559400
#
# Stress axis : x y z
#
# Youngs Moduli (GPa) = 58.63554 87.26062 38.44119
#
# Poissons Ratio (x) = 0.47900 0.04545
# Poissons Ratio (y) = 0.32187 0.10746
# Poissons Ratio (z) = 0.06933 0.24393
#
# Static dielectric constant tensor:
#      x y z
#    x 1.913000 0.003600 -0.059280 
#    y 0.003600 1.930140 -0.031420 
#    z -0.059280 -0.031420 2.063850 
# 
# From -- ./inp_files/44112.got.cif
#   From: 2010.05.17/outbox.cif.g08.bks.cpg/sg2_23_cif.got.tgz:44112.got - 2010.06.03 11:33:40.
