data_PCOD9111239
_publ_section_title
;
Structure prediction by ZEFSAII (Michael W. Deem and Ramdas Pophale) SiO2 
 PCOD9111239
Probable space group: P -1
;
_chemical_formula_sum "Si O2"
_cell_formula_units_Z 16
_cell_length_a 19.800799
_cell_length_b 8.805541
_cell_length_c 5.696829
_cell_angle_alpha 125.798201
_cell_angle_beta 68.913317
_cell_angle_gamma 126.327959
_cell_volume 648.915246
_symmetry_space_group_name_H-M "P -1"
_symmetry_group_IT_number 2
_symmetry_cell_setting 'triclinic'
loop_
_space_group_symop_operation_xyz
x,y,z
-x,-y,-z
loop_
_atom_site_type_symbol
_atom_site_label
_atom_site_fract_x
_atom_site_fract_y
_atom_site_fract_z
Si Si1 0.961826 0.515825 0.305438
Si Si2 0.079127 0.166532 0.195808
Si Si3 0.617026 0.662109 0.212734
Si Si4 0.795699 0.356174 0.568132
Si Si5 0.483294 0.757271 0.266682
Si Si6 0.305708 0.962508 0.206001
Si Si7 0.328268 0.621577 0.613059
Si Si8 0.233251 0.168210 0.166047
O O1 0.961078 0.740453 0.488117
O O2 0.000000 0.500000 0.500000
O O3 0.000000 0.500000 0.000000
O O4 0.862891 0.919168 0.851115
O O5 0.147844 0.393629 0.186820
O O6 0.000000 0.000000 0.000000
O O7 0.565693 0.741316 0.184487
O O8 0.629819 0.804663 0.554964
O O9 0.563882 0.399579 0.039222
O O10 0.706543 0.731795 0.046664
O O11 0.764953 0.177499 0.641716
O O12 0.714360 0.327845 0.510760
O O13 0.863174 0.347948 0.306801
O O14 0.414441 0.636203 0.447326
O O15 0.500000 0.000000 0.500000
O O16 0.261622 0.011740 0.096520
O O17 0.340353 0.804254 0.946790
O O18 0.261485 0.367576 0.498632
#
# Coordination Sequence:
#
# PCOD9111239 Si02
#       8
#     2   2   2   2   2   2   2   2
#     4  10  24  47  76 105 144 191 248 310 379 452
#     4   9  22  48  72 104 140 190 246 306 373 444
#     4  10  24  42  65 104 138 183 237 288 361 437
#     4   9  23  42  72  98 140 184 244 288 380 433
#     4  10  20  42  70  96 141 186 229 294 358 433
#     4  12  23  41  72 103 136 190 236 300 363 433
#     4  10  23  43  68 100 140 187 240 295 362 443
#     4  10  23  45  67 101 145 186 240 296 366 449
#
# _framework density 24.656534000000001
#
# number of rings (size 3 to 8) (size 9 to 14) (size 15 to 20)
#    0.750    1.250    0.000    2.250    1.750    6.500 
#    2.250   11.250    2.750    0.000    0.000    0.000 
#    0.000    0.000    0.000    0.000    0.000    0.000 
#
# Total GULP energy -89256.022431 kJ/mol
# GULP energy per Si atom -5578.501402 kJ/mol
# Density = 2.460041 g / cm^3
# Si number density = 24.656534 Si / 1000 Ang^3
#
#
#
# Elastic Constant Matrix: (Units=GPa)
#
#
# Indices 1 2 3 4 5 6 
#
# 1 128.2632 29.7336 57.2428 -9.4377 -22.2446 8.1744
# 2 29.7336 60.1689 31.3736 9.8588 4.4570 2.2044
# 3 57.2428 31.3736 169.3395 32.3390 -14.9940 20.1302
# 4 -9.4377 9.8588 32.3390 49.1876 6.8816 -7.3928
# 5 -22.2446 4.4570 -14.9940 6.8816 45.7347 7.3015
# 6 8.1744 2.2044 20.1302 -7.3928 7.3015 29.8290
#
#
#
# Elastic Compliance Matrix: (Units=1/GPa)
#
#
# Indices 1 2 3 4 5 6 
#
# 1 0.011672 -0.005040 -0.003541 0.004935 0.004308 -0.000268
# 2 -0.005040 0.021112 -0.002444 -0.002534 -0.005269 0.002132
# 3 -0.003541 -0.002444 0.011048 -0.009678 0.005186 -0.009973
# 4 0.004935 -0.002534 -0.009678 0.031481 -0.007664 0.015044
# 5 0.004308 -0.005269 0.005186 -0.007664 0.029467 -0.013403
# 6 -0.000268 0.002132 -0.009973 0.015044 -0.013403 0.047180
#
#
# Mechanical properties :
#
#
# Convention : Reuss Voigt Hill
#
# Bulk Modulus (GPa) = 45.90695 66.05241 55.97968
# Shear Modulus (GPa) = 27.58303 40.91170 34.24737
#
# Velocity S-wave (km/s) = 3.34831 4.07783 3.73094
# Velocity P-wave (km/s) = 5.79718 7.00134 6.42752
#
# Compressibility (1/GPa) = 0.02178319
#
# Stress axis : x y z
#
# Youngs Moduli (GPa) = 85.67230 47.36648 90.51414
#
# Poissons Ratio (x) = 0.23871 0.32053
# Poissons Ratio (y) = 0.43175 0.22120
# Poissons Ratio (z) = 0.30338 0.11576
#
# Static dielectric constant tensor:
#      x y z
#    x 1.896580 -0.089910 0.015020 
#    y -0.089910 1.872510 0.020220 
#    z 0.015020 0.020220 2.079150 
# 
# From -- ./inp_files/123049.got.cif
#   From: 2010.05.17/outbox.cif.g08.bks.cpg/sg2_62_cif.got.tgz:123049.got - 2010.06.03 11:33:40.
