data_PCOD9111432
_publ_section_title
;
Structure prediction by ZEFSAII (Michael W. Deem and Ramdas Pophale) SiO2 
 PCOD9111432
Probable space group: P -1
;
_chemical_formula_sum "Si O2"
_cell_formula_units_Z 12
_cell_length_a 5.331333
_cell_length_b 5.234612
_cell_length_c 16.495803
_cell_angle_alpha 84.796912
_cell_angle_beta 98.704327
_cell_angle_gamma 96.140676
_cell_volume 451.141118
_symmetry_space_group_name_H-M "P -1"
_symmetry_group_IT_number 2
_symmetry_cell_setting 'triclinic'
loop_
_space_group_symop_operation_xyz
x,y,z
-x,-y,-z
loop_
_atom_site_type_symbol
_atom_site_label
_atom_site_fract_x
_atom_site_fract_y
_atom_site_fract_z
Si Si1 0.780956 0.001079 0.056213
Si Si2 0.229673 0.390749 0.563719
Si Si3 0.704621 0.723101 0.764989
Si Si4 0.482419 0.908923 0.602983
Si Si5 0.614222 0.469298 0.095835
Si Si6 0.087289 0.763548 0.302308
O O1 0.247367 0.255069 0.884267
O O2 0.813668 0.262327 0.100244
O O3 0.500000 0.000000 0.000000
O O4 0.000000 0.000000 0.000000
O O5 0.451378 0.630102 0.567527
O O6 0.158916 0.346484 0.657129
O O7 0.000000 0.500000 0.500000
O O8 0.290245 0.101141 0.553177
O O9 0.466155 0.825611 0.699629
O O10 0.599636 0.632430 0.849045
O O11 0.802552 0.479253 0.729427
O O12 0.895203 0.984457 0.761226
O O13 0.738854 0.101908 0.618978
O O14 0.500000 0.500000 0.000000
#
# Coordination Sequence:
#
# PCOD9111432 Si02
#       6
#     2   2   2   2   2   2
#     4  10  21  39  61  91 134 163 215 280 340 396
#     4  12  24  40  65  98 126 165 217 266 322 392
#     4  10  20  43  63  86 133 171 214 265 323 399
#     4  10  22  42  59  88 132 159 214 256 325 382
#     4  10  21  39  66  94 128 164 223 276 327 392
#     4  10  22  41  64  88 129 170 216 255 333 387
#
# _framework density 26.599219000000002
#
# number of rings (size 3 to 8) (size 9 to 14) (size 15 to 20)
#    1.000    0.667    1.667    3.000    0.000    1.333 
#    0.000   20.000    0.000    0.000    0.000    0.000 
#    0.000    0.000    0.000    0.000    0.000    0.000 
#
# Total GULP energy -66975.545363 kJ/mol
# GULP energy per Si atom -5581.295447 kJ/mol
# Density = 2.653868 g / cm^3
# Si number density = 26.599219 Si / 1000 Ang^3
#
#
#
# Elastic Constant Matrix: (Units=GPa)
#
#
# Indices 1 2 3 4 5 6 
#
# 1 80.8894 56.0068 29.1692 -6.6694 -6.4654 14.6582
# 2 56.0068 286.0314 67.1045 -16.5389 -15.7751 7.8885
# 3 29.1692 67.1045 150.1352 -30.9518 -27.9103 8.1630
# 4 -6.6694 -16.5389 -30.9518 50.1039 3.1840 -0.9492
# 5 -6.4654 -15.7751 -27.9103 3.1840 62.7570 -3.6463
# 6 14.6582 7.8885 8.1630 -0.9492 -3.6463 40.0409
#
#
#
# Elastic Compliance Matrix: (Units=1/GPa)
#
#
# Indices 1 2 3 4 5 6 
#
# 1 0.015591 -0.002534 -0.001605 0.000157 -0.000036 -0.004880
# 2 -0.002534 0.004330 -0.001373 0.000237 0.000227 0.000381
# 3 -0.001605 -0.001373 0.009227 0.004811 0.003314 -0.000607
# 4 0.000157 0.000237 0.004811 0.022956 0.001025 -0.000447
# 5 -0.000036 0.000227 0.003314 0.001025 0.017462 0.000908
# 6 -0.004880 0.000381 -0.000607 -0.000447 0.000908 0.026882
#
#
# Mechanical properties :
#
#
# Convention : Reuss Voigt Hill
#
# Bulk Modulus (GPa) = 55.17885 91.29079 73.23482
# Shear Modulus (GPa) = 44.04743 54.89872 49.47308
#
# Velocity S-wave (km/s) = 4.07377 4.54797 4.31739
# Velocity P-wave (km/s) = 6.55111 7.87236 7.24193
#
# Compressibility (1/GPa) = 0.01812289
#
# Stress axis : x y z
#
# Youngs Moduli (GPa) = 64.14068 230.93984 108.37773
#
# Poissons Ratio (x) = 0.58531 0.17398
# Poissons Ratio (y) = 0.16256 0.14877
# Poissons Ratio (z) = 0.10297 0.31701
#
# Static dielectric constant tensor:
#      x y z
#    x 2.001290 -0.080880 -0.014160 
#    y -0.080880 2.099200 -0.039860 
#    z -0.014160 -0.039860 2.035380 
# 
# From -- ./inp_files/545907.got.cif
#   From: 2010.05.17/outbox.cif.g08.bks.cpg/sg2_273_cif.got.tgz:545907.got - 2010.06.03 11:33:40.
