data_PCOD9111516
_publ_section_title
;
Structure prediction by ZEFSAII (Michael W. Deem and Ramdas Pophale) SiO2 
 PCOD9111516
Probable space group: P -1
;
_chemical_formula_sum "Si O2"
_cell_formula_units_Z 16
_cell_length_a 8.846775
_cell_length_b 22.075200
_cell_length_c 9.044680
_cell_angle_alpha 37.977261
_cell_angle_beta 134.855418
_cell_angle_gamma 139.198068
_cell_volume 683.842957
_symmetry_space_group_name_H-M "P -1"
_symmetry_group_IT_number 2
_symmetry_cell_setting 'triclinic'
loop_
_space_group_symop_operation_xyz
x,y,z
-x,-y,-z
loop_
_atom_site_type_symbol
_atom_site_label
_atom_site_fract_x
_atom_site_fract_y
_atom_site_fract_z
Si Si1 0.036834 0.742611 0.089623
Si Si2 0.263741 0.503828 0.759532
Si Si3 0.448792 0.088173 0.884840
Si Si4 0.361752 0.253259 0.987399
Si Si5 0.032992 0.154207 0.457664
Si Si6 0.598589 0.633835 0.513378
Si Si7 0.736995 0.969353 0.810017
Si Si8 0.766356 0.450166 0.032970
O O1 0.019914 0.809050 0.806145
O O2 0.318806 0.795946 0.212219
O O3 0.903676 0.614619 0.197283
O O4 0.883766 0.760604 0.080469
O O5 0.360984 0.594236 0.524151
O O6 0.500000 0.500000 0.000000
O O7 0.161183 0.533537 0.776738
O O8 0.206416 0.096411 0.662745
O O9 0.421212 0.057964 0.098642
O O10 0.500000 0.000000 0.000000
O O11 0.415962 0.326267 0.735855
O O12 0.578973 0.323736 0.112741
O O13 0.342452 0.137394 0.143523
O O14 0.188343 0.263972 0.451225
O O15 0.799583 0.074629 0.545800
O O16 0.642556 0.526738 0.753267
O O17 0.000000 0.000000 0.000000
O O18 0.000000 0.500000 0.000000
#
# Coordination Sequence:
#
# PCOD9111516 Si02
#       8
#     2   2   2   2   2   2   2   2
#     4  12  24  44  73  98 140 182 226 284 343 403
#     4  10  20  43  65  95 139 182 224 279 338 413
#     4  11  26  45  69 106 137 174 240 284 333 417
#     4  12  23  42  68  98 136 181 228 277 345 405
#     4  11  23  47  75  94 139 190 219 283 354 398
#     4  11  21  44  70  92 138 183 224 273 350 398
#     4  10  22  43  68  96 138 175 223 288 337 402
#     4  11  24  41  66 101 137 176 232 283 329 410
#
# _framework density 23.397183999999999
#
# number of rings (size 3 to 8) (size 9 to 14) (size 15 to 20)
#    0.000    1.000    7.500    1.875    1.750    2.500 
#    4.500    1.250    0.000    0.000    0.000    0.000 
#    0.000    0.000    0.000    0.000    0.000    0.000 
#
# Total GULP energy -89563.778610 kJ/mol
# GULP energy per Si atom -5597.736163 kJ/mol
# Density = 2.334393 g / cm^3
# Si number density = 23.397184 Si / 1000 Ang^3
#
#
#
# Elastic Constant Matrix: (Units=GPa)
#
#
# Indices 1 2 3 4 5 6 
#
# 1 158.6444 56.2409 19.6331 -13.5966 -40.8206 -2.4398
# 2 56.2409 120.9664 15.4723 -41.6531 2.7026 -18.6731
# 3 19.6331 15.4723 77.2789 -7.0297 -33.0777 -0.7530
# 4 -13.5966 -41.6531 -7.0297 34.5722 11.3674 -2.6365
# 5 -40.8206 2.7026 -33.0777 11.3674 50.3486 -4.0418
# 6 -2.4398 -18.6731 -0.7530 -2.6365 -4.0418 42.0557
#
#
#
# Elastic Compliance Matrix: (Units=1/GPa)
#
#
# Indices 1 2 3 4 5 6 
#
# 1 0.014464 -0.015022 0.006379 -0.018208 0.020442 -0.004894
# 2 -0.015022 0.035612 -0.012469 0.045926 -0.031482 0.014571
# 3 0.006379 -0.012469 0.022614 -0.016089 0.024053 -0.003459
# 4 -0.018208 0.045926 -0.016089 0.090708 -0.046651 0.020250
# 5 0.020442 -0.031482 0.024053 -0.046651 0.063724 -0.009162
# 6 -0.004894 0.014571 -0.003459 0.020250 -0.009162 0.030291
#
#
# Mechanical properties :
#
#
# Convention : Reuss Voigt Hill
#
# Bulk Modulus (GPa) = 32.82521 59.95359 46.38940
# Shear Modulus (GPa) = 16.13980 43.09818 29.61899
#
# Velocity S-wave (km/s) = 2.62929 4.29654 3.56184
# Velocity P-wave (km/s) = 4.82468 7.09179 6.06511
#
# Compressibility (1/GPa) = 0.03046439
#
# Stress axis : x y z
#
# Youngs Moduli (GPa) = 69.13932 28.08005 44.22008
#
# Poissons Ratio (x) = 0.42183 -0.28207
# Poissons Ratio (y) = 1.03863 0.55140
# Poissons Ratio (z) = -0.44102 0.35014
#
# Static dielectric constant tensor:
#      x y z
#    x 2.062290 0.028580 0.050740 
#    y 0.028580 1.893890 0.019050 
#    z 0.050740 0.019050 1.907100 
# 
# From -- ./inp_files/223265.got.cif
#   From: 2010.05.17/outbox.cif.g08.bks.cpg/sg2_112_cif.got.tgz:223265.got - 2010.06.03 11:33:40.
