data_PCOD9111411
_publ_section_title
;
Structure prediction by ZEFSAII (Michael W. Deem and Ramdas Pophale) SiO2 
 PCOD9111411
Probable space group: P -1
;
_chemical_formula_sum "Si O2"
_cell_formula_units_Z 16
_cell_length_a 8.913525
_cell_length_b 10.698464
_cell_length_c 14.547620
_cell_angle_alpha 73.418876
_cell_angle_beta 63.922334
_cell_angle_gamma 121.645090
_cell_volume 782.830899
_symmetry_space_group_name_H-M "P -1"
_symmetry_group_IT_number 2
_symmetry_cell_setting 'triclinic'
loop_
_space_group_symop_operation_xyz
x,y,z
-x,-y,-z
loop_
_atom_site_type_symbol
_atom_site_label
_atom_site_fract_x
_atom_site_fract_y
_atom_site_fract_z
Si Si1 0.083061 0.343633 0.075922
Si Si2 0.067566 0.364391 0.285823
Si Si3 0.076818 0.904917 0.458299
Si Si4 0.660724 0.738270 0.090206
Si Si5 0.051039 0.153568 0.826971
Si Si6 0.354652 0.728897 0.831838
Si Si7 0.689824 0.714417 0.450252
Si Si8 0.222566 0.549091 0.703648
O O1 0.052710 0.295680 0.201693
O O2 0.818226 0.243102 0.126645
O O3 0.197889 0.292963 0.998274
O O4 0.274397 0.581107 0.964085
O O5 0.361912 0.547450 0.197048
O O6 0.924380 0.195209 0.436102
O O7 0.941470 0.431560 0.297628
O O8 0.857203 0.745848 0.477146
O O9 0.347645 0.069974 0.300034
O O10 0.000000 0.000000 0.500000
O O11 0.748559 0.774116 0.164328
O O12 0.777966 0.941774 0.977833
O O13 0.126129 0.134550 0.713270
O O14 0.083631 0.328425 0.775675
O O15 0.270567 0.606436 0.785882
O O16 0.500000 0.500000 0.500000
O O17 0.500923 0.706880 0.548412
#
# Coordination Sequence:
#
# PCOD9111411 Si02
#       8
#     2   2   2   2   2   2   2   2
#     4  10  22  39  65  93 135 161 203 270 322 370
#     4  11  25  38  66  96 127 163 208 274 316 372
#     4  12  24  40  67  97 127 166 218 262 311 385
#     4  11  22  41  62  92 127 165 222 253 316 381
#     4  10  23  40  65  87 121 180 210 259 316 386
#     4  10  21  39  65  97 129 166 204 264 324 371
#     4  10  22  42  65  88 129 173 209 257 324 373
#     4  10  20  43  62  90 131 160 210 265 324 367
#
# _framework density 20.438641000000001
#
# number of rings (size 3 to 8) (size 9 to 14) (size 15 to 20)
#    0.000    1.500    2.500    2.625    3.500    3.500 
#    0.000   10.625    0.000    0.000    0.000    0.000 
#    0.000    0.000    0.000    0.000    0.000    0.000 
#
# Total GULP energy -89427.088244 kJ/mol
# GULP energy per Si atom -5589.193015 kJ/mol
# Density = 2.039212 g / cm^3
# Si number density = 20.438641 Si / 1000 Ang^3
#
#
#
# Elastic Constant Matrix: (Units=GPa)
#
#
# Indices 1 2 3 4 5 6 
#
# 1 73.9166 22.5960 39.4710 2.9590 0.9239 -7.1775
# 2 22.5960 41.3932 13.2336 1.2220 5.2392 4.7825
# 3 39.4710 13.2336 83.7683 4.8542 0.4051 -0.3266
# 4 2.9590 1.2220 4.8542 36.2083 6.4096 2.5602
# 5 0.9239 5.2392 0.4051 6.4096 39.0690 4.0865
# 6 -7.1775 4.7825 -0.3266 2.5602 4.0865 24.7161
#
#
#
# Elastic Compliance Matrix: (Units=1/GPa)
#
#
# Indices 1 2 3 4 5 6 
#
# 1 0.022192 -0.010287 -0.008746 -0.000925 0.000221 0.008379
# 2 -0.010287 0.031193 -0.000156 0.000983 -0.003200 -0.008598
# 3 -0.008746 -0.000156 0.016152 -0.001379 0.000521 -0.002240
# 4 -0.000925 0.000983 -0.001379 0.028842 -0.004544 -0.002713
# 5 0.000221 -0.003200 0.000521 -0.004544 0.027107 -0.003321
# 6 0.008379 -0.008598 -0.002240 -0.002713 -0.003321 0.045357
#
#
# Mechanical properties :
#
#
# Convention : Reuss Voigt Hill
#
# Bulk Modulus (GPa) = 32.09302 38.85325 35.47313
# Shear Modulus (GPa) = 22.76805 28.25051 25.50928
#
# Velocity S-wave (km/s) = 3.34124 3.72184 3.53667
# Velocity P-wave (km/s) = 5.53366 6.12539 5.83703
#
# Compressibility (1/GPa) = 0.03115943
#
# Stress axis : x y z
#
# Youngs Moduli (GPa) = 45.06209 32.05840 61.91122
#
# Poissons Ratio (x) = 0.32977 0.54149
# Poissons Ratio (y) = 0.46353 0.00965
# Poissons Ratio (z) = 0.39412 0.00500
#
# Static dielectric constant tensor:
#      x y z
#    x 1.704340 -0.005710 0.011450 
#    y -0.005710 1.731570 0.013130 
#    z 0.011450 0.013130 1.765370 
# 
# From -- ./inp_files/278653.got.cif
#   From: 2010.05.17/outbox.cif.g08.bks.cpg/sg2_140_cif.got.tgz:278653.got - 2010.06.03 11:33:40.
