data_PCOD9111401
_publ_section_title
;
Structure prediction by ZEFSAII (Michael W. Deem and Ramdas Pophale) SiO2 
 PCOD9111401
Probable space group: P -1
;
_chemical_formula_sum "Si O2"
_cell_formula_units_Z 14
_cell_length_a 7.628348
_cell_length_b 8.922686
_cell_length_c 16.299096
_cell_angle_alpha 129.223515
_cell_angle_beta 58.465835
_cell_angle_gamma 133.473707
_cell_volume 616.008545
_symmetry_space_group_name_H-M "P -1"
_symmetry_group_IT_number 2
_symmetry_cell_setting 'triclinic'
loop_
_space_group_symop_operation_xyz
x,y,z
-x,-y,-z
loop_
_atom_site_type_symbol
_atom_site_label
_atom_site_fract_x
_atom_site_fract_y
_atom_site_fract_z
Si Si1 0.458119 0.771595 0.474125
Si Si2 0.262767 0.630154 0.829537
Si Si3 0.756403 0.725510 0.688400
Si Si4 0.536761 0.172510 0.316714
Si Si5 0.210361 0.191315 0.716145
Si Si6 0.910534 0.758968 0.980074
Si Si7 0.523048 0.305687 0.826193
O O1 0.262056 0.513186 0.400917
O O2 0.412987 0.775704 0.582426
O O3 0.712962 0.798434 0.393894
O O4 0.500000 0.000000 0.500000
O O5 0.550538 0.715488 0.795723
O O6 0.254667 0.671340 0.747685
O O7 0.124055 0.367955 0.802333
O O8 0.147297 0.754167 0.945650
O O9 0.674550 0.785005 0.643317
O O10 0.022628 0.943352 0.713141
O O11 0.462310 0.912108 0.229274
O O12 0.458498 0.287121 0.740228
O O13 0.755069 0.543658 0.881938
O O14 0.716166 0.718389 0.082466
O O15 0.000000 0.000000 0.000000
#
# Coordination Sequence:
#
# PCOD9111401 Si02
#       7
#     2   2   2   2   2   2   2
#     4  11  22  40  61  94 131 165 210 254 309 359
#     4   9  22  41  63  89 126 164 207 252 314 361
#     4   9  22  40  62  91 130 164 212 246 304 381
#     4  10  20  43  61  91 129 163 215 248 298 385
#     4  11  23  43  61  95 131 163 202 263 310 365
#     4  11  22  43  68  91 119 165 209 258 319 368
#     4  11  24  40  66  94 124 158 214 260 307 376
#
# _framework density 22.726956999999999
#
# number of rings (size 3 to 8) (size 9 to 14) (size 15 to 20)
#    0.857    0.857    2.857    1.286    0.000    4.000 
#    2.571    1.429    0.000    0.000    0.000    0.000 
#    0.000    0.000    0.000    0.000    0.000    0.000 
#
# Total GULP energy -78004.758054 kJ/mol
# GULP energy per Si atom -5571.768432 kJ/mol
# Density = 2.267523 g / cm^3
# Si number density = 22.726957 Si / 1000 Ang^3
#
#
#
# Elastic Constant Matrix: (Units=GPa)
#
#
# Indices 1 2 3 4 5 6 
#
# 1 33.6059 26.7868 13.3790 8.2365 -2.8297 -17.9110
# 2 26.7868 118.8211 42.4234 33.5104 2.8045 -13.0861
# 3 13.3790 42.4234 73.0251 19.5105 -6.5675 -1.5930
# 4 8.2365 33.5104 19.5105 45.4740 -6.2283 -15.0115
# 5 -2.8297 2.8045 -6.5675 -6.2283 30.2133 7.4638
# 6 -17.9110 -13.0861 -1.5930 -15.0115 7.4638 37.9348
#
#
#
# Elastic Compliance Matrix: (Units=1/GPa)
#
#
# Indices 1 2 3 4 5 6 
#
# 1 0.049317 -0.008753 -0.005428 0.007441 0.000113 0.022960
# 2 -0.008753 0.014370 -0.005046 -0.008006 -0.004488 -0.001672
# 3 -0.005428 -0.005046 0.019245 -0.005029 0.004690 -0.006408
# 4 0.007441 -0.008006 -0.005029 0.033553 0.004047 0.013022
# 5 0.000113 -0.004488 0.004690 0.004047 0.037107 -0.006997
# 6 0.022960 -0.001672 -0.006408 0.013022 -0.006997 0.042885
#
#
# Mechanical properties :
#
#
# Convention : Reuss Voigt Hill
#
# Bulk Modulus (GPa) = 22.48181 43.40338 32.94260
# Shear Modulus (GPa) = 20.01943 32.24863 26.13403
#
# Velocity S-wave (km/s) = 2.97116 3.77099 3.39472
# Velocity P-wave (km/s) = 4.65661 6.17250 5.46735
#
# Compressibility (1/GPa) = 0.04448040
#
# Stress axis : x y z
#
# Youngs Moduli (GPa) = 20.27701 69.58734 51.96109
#
# Poissons Ratio (x) = 0.60907 0.28203
# Poissons Ratio (y) = 0.17748 0.26219
# Poissons Ratio (z) = 0.11006 0.35113
#
# Static dielectric constant tensor:
#      x y z
#    x 1.900590 0.015390 -0.043160 
#    y 0.015390 1.877460 -0.006050 
#    z -0.043160 -0.006050 1.936160 
# 
# From -- ./inp_files/556525.got.cif
#   From: 2010.05.17/outbox.cif.g08.bks.cpg/sg2_279_cif.got.tgz:556525.got - 2010.06.03 11:33:40.
