data_PCOD9111062
_publ_section_title
;
Structure prediction by ZEFSAII (Michael W. Deem and Ramdas Pophale) SiO2 
 PCOD9111062
Probable space group: P -1
;
_chemical_formula_sum "Si O2"
_cell_formula_units_Z 11
_cell_length_a 7.079750
_cell_length_b 6.901440
_cell_length_c 8.642636
_cell_angle_alpha 75.259720
_cell_angle_beta 104.302001
_cell_angle_gamma 83.303324
_cell_volume 388.403776
_symmetry_space_group_name_H-M "P -1"
_symmetry_group_IT_number 2
_symmetry_cell_setting 'triclinic'
loop_
_space_group_symop_operation_xyz
x,y,z
-x,-y,-z
loop_
_atom_site_type_symbol
_atom_site_label
_atom_site_fract_x
_atom_site_fract_y
_atom_site_fract_z
Si Si1 0.906734 0.218015 0.084396
Si Si2 0.000000 0.500000 0.500000
Si Si3 0.418680 0.719146 0.764079
Si Si4 0.250548 0.172371 0.973979
Si Si5 0.570870 0.681359 0.329964
Si Si6 0.197896 0.893328 0.407298
O O1 0.737809 0.346797 0.131122
O O2 0.035326 0.299501 0.960383
O O3 0.068674 0.092208 0.261451
O O4 0.796502 0.053122 0.013046
O O5 0.228384 0.393231 0.518595
O O6 0.059570 0.725485 0.433443
O O7 0.592608 0.791955 0.874033
O O8 0.489250 0.524179 0.710625
O O9 0.295673 0.897350 0.596020
O O10 0.344373 0.221558 0.822638
O O11 0.387112 0.808727 0.355509
#
# Coordination Sequence:
#
# PCOD9111062 Si02
#       6
#     2   1   2   2   2   2
#     4  11  26  45  71 100 139 186 224 276 350 401
#     4  10  20  42  68  96 134 174 222 268 336 402
#     4  11  25  44  70 105 135 177 234 283 332 406
#     4  11  26  46  69 100 144 180 225 284 341 406
#     4  11  25  45  74 100 138 181 229 280 342 405
#     4  11  25  45  72 103 136 182 227 280 344 403
#
# _framework density 28.321041000000001
#
# number of rings (size 3 to 8) (size 9 to 14) (size 15 to 20)
#    0.000    1.091    1.818    3.818    7.636    7.273 
#    0.000    0.000    0.000    0.000    0.000    0.000 
#    0.000    0.000    0.000    0.000    0.000    0.000 
#
# Total GULP energy -61481.094976 kJ/mol
# GULP energy per Si atom -5589.190452 kJ/mol
# Density = 2.825658 g / cm^3
# Si number density = 28.321041 Si / 1000 Ang^3
#
#
#
# Elastic Constant Matrix: (Units=GPa)
#
#
# Indices 1 2 3 4 5 6 
#
# 1 239.4611 52.6556 63.4913 22.3333 -20.4116 -6.9878
# 2 52.6556 68.1531 4.8820 9.3839 -6.8489 -12.8634
# 3 63.4913 4.8820 104.1217 8.0682 6.6303 16.9871
# 4 22.3333 9.3839 8.0682 28.1325 -3.8922 -14.3034
# 5 -20.4116 -6.8489 6.6303 -3.8922 58.2109 1.8233
# 6 -6.9878 -12.8634 16.9871 -14.3034 1.8233 57.4827
#
#
#
# Elastic Compliance Matrix: (Units=1/GPa)
#
#
# Indices 1 2 3 4 5 6 
#
# 1 0.006484 -0.004161 -0.003777 -0.002210 0.002055 0.000358
# 2 -0.004161 0.018608 0.001323 -0.001805 0.000371 0.002806
# 3 -0.003777 0.001323 0.013158 -0.004141 -0.002788 -0.004994
# 4 -0.002210 -0.001805 -0.004141 0.045374 0.002149 0.011773
# 5 0.002055 0.000371 -0.002788 0.002149 0.018370 0.001109
# 6 0.000358 0.002806 -0.004994 0.011773 0.001109 0.022438
#
#
# Mechanical properties :
#
#
# Convention : Reuss Voigt Hill
#
# Bulk Modulus (GPa) = 39.96567 72.64374 56.30471
# Shear Modulus (GPa) = 34.24619 48.14570 41.19595
#
# Velocity S-wave (km/s) = 3.48115 4.12758 3.81807
# Velocity P-wave (km/s) = 5.50456 6.95856 6.27382
#
# Compressibility (1/GPa) = 0.02502147
#
# Stress axis : x y z
#
# Youngs Moduli (GPa) = 154.22307 53.73982 75.99774
#
# Poissons Ratio (x) = 0.22359 0.28703
# Poissons Ratio (y) = 0.64167 -0.10054
# Poissons Ratio (z) = 0.58248 -0.07110
#
# Static dielectric constant tensor:
#      x y z
#    x 2.070610 -0.070140 -0.043770 
#    y -0.070140 2.239260 -0.107080 
#    z -0.043770 -0.107080 2.296270 
# 
# From -- ./inp_files/25282.got.cif
#   From: 2010.05.17/outbox.cif.g08.bks.cpg/sg2_13_cif.got.tgz:25282.got - 2010.06.03 11:33:40.
