data_PCOD9111188
_publ_section_title
;
Structure prediction by ZEFSAII (Michael W. Deem and Ramdas Pophale) SiO2 
 PCOD9111188
Probable space group: P -1
;
_chemical_formula_sum "Si O2"
_cell_formula_units_Z 16
_cell_length_a 7.386373
_cell_length_b 16.131889
_cell_length_c 8.916386
_cell_angle_alpha 37.284776
_cell_angle_beta 101.090308
_cell_angle_gamma 101.367288
_cell_volume 629.847368
_symmetry_space_group_name_H-M "P -1"
_symmetry_group_IT_number 2
_symmetry_cell_setting 'triclinic'
loop_
_space_group_symop_operation_xyz
x,y,z
-x,-y,-z
loop_
_atom_site_type_symbol
_atom_site_label
_atom_site_fract_x
_atom_site_fract_y
_atom_site_fract_z
Si Si1 0.198156 0.985106 0.636359
Si Si2 0.179594 0.675610 0.670494
Si Si3 0.298538 0.411108 0.904716
Si Si4 0.977602 0.759881 0.091894
Si Si5 0.369682 0.747821 0.872159
Si Si6 0.788964 0.696143 0.431782
Si Si7 0.485937 0.131003 0.694544
Si Si8 0.283306 0.574608 0.378959
O O1 0.326379 0.904810 0.658677
O O2 0.340451 0.089248 0.597480
O O3 0.000000 0.000000 0.500000
O O4 0.116819 0.886672 0.897451
O O5 0.238956 0.525118 0.846248
O O6 0.196491 0.685662 0.837927
O O7 0.320994 0.795914 0.445024
O O8 0.971878 0.700613 0.555006
O O9 0.133275 0.303722 0.977011
O O10 0.364207 0.499537 0.640409
O O11 0.464010 0.315365 0.099140
O O12 0.838029 0.788370 0.159636
O O13 0.105895 0.638937 0.330282
O O14 0.381042 0.694768 0.121585
O O15 0.613482 0.750778 0.403625
O O16 0.762845 0.544652 0.576757
O O17 0.500000 0.000000 0.000000
#
# Coordination Sequence:
#
# PCOD9111188 Si02
#       8
#     2   2   2   2   2   2   2   2
#     4  11  27  50  66  96 143 196 241 279 348 430
#     4  12  25  46  70 108 144 174 233 295 357 422
#     4  11  21  41  71 105 139 169 231 294 353 420
#     4  10  21  42  76  98 131 182 233 283 350 425
#     4  11  26  40  69 102 138 186 221 297 353 406
#     4  11  22  45  72 101 141 187 222 295 360 404
#     4  12  30  45  71 105 140 189 250 293 331 421
#     4  10  20  42  70 104 135 180 226 279 361 431
#
# _framework density 25.402982000000002
#
# number of rings (size 3 to 8) (size 9 to 14) (size 15 to 20)
#    0.000    1.000    2.500    3.750    7.000    4.000 
#    0.000    0.000    0.000    0.000    0.000    0.000 
#    0.000    0.000    0.000    0.000    0.000    0.000 
#
# Total GULP energy -89398.597128 kJ/mol
# GULP energy per Si atom -5587.412321 kJ/mol
# Density = 2.534516 g / cm^3
# Si number density = 25.402982 Si / 1000 Ang^3
#
#
#
# Elastic Constant Matrix: (Units=GPa)
#
#
# Indices 1 2 3 4 5 6 
#
# 1 89.2561 6.1659 26.7902 -6.0385 6.2680 11.4300
# 2 6.1659 104.2227 12.2786 5.4357 6.3201 7.9292
# 3 26.7902 12.2786 72.1248 -1.0825 2.4912 4.4879
# 4 -6.0385 5.4357 -1.0825 22.9925 0.6607 -0.8593
# 5 6.2680 6.3201 2.4912 0.6607 38.6134 -5.2403
# 6 11.4300 7.9292 4.4879 -0.8593 -5.2403 36.8981
#
#
#
# Elastic Compliance Matrix: (Units=1/GPa)
#
#
# Indices 1 2 3 4 5 6 
#
# 1 0.013486 0.000026 -0.004637 0.003243 -0.002478 -0.003896
# 2 0.000026 0.010199 -0.001575 -0.002512 -0.001845 -0.002329
# 3 -0.004637 -0.001575 0.015865 -0.000104 -0.000033 -0.000162
# 4 0.003243 -0.002512 -0.000104 0.044975 -0.000813 0.000480
# 5 -0.002478 -0.001845 -0.000033 -0.000813 0.027300 0.005027
# 6 -0.003896 -0.002329 -0.000162 0.000480 0.005027 0.029554
#
#
# Mechanical properties :
#
#
# Convention : Reuss Voigt Hill
#
# Bulk Modulus (GPa) = 36.79460 39.56366 38.17913
# Shear Modulus (GPa) = 30.71068 34.39207 32.55138
#
# Velocity S-wave (km/s) = 3.48075 3.68347 3.58355
# Velocity P-wave (km/s) = 5.53805 5.80507 5.67313
#
# Compressibility (1/GPa) = 0.02717790
#
# Stress axis : x y z
#
# Youngs Moduli (GPa) = 74.15075 98.04946 63.03163
#
# Poissons Ratio (x) = -0.00255 0.29228
# Poissons Ratio (y) = -0.00193 0.09928
# Poissons Ratio (z) = 0.34384 0.15443
#
# Static dielectric constant tensor:
#      x y z
#    x 2.120250 0.037190 0.038570 
#    y 0.037190 2.005610 0.061760 
#    z 0.038570 0.061760 2.151970 
# 
# From -- ./inp_files/205395.got.cif
#   From: 2010.05.17/outbox.cif.g08.bks.cpg/sg2_103_cif.got.tgz:205395.got - 2010.06.03 11:33:40.
