data_PCOD9111690
_publ_section_title
;
Structure prediction by ZEFSAII (Michael W. Deem and Ramdas Pophale) SiO2 
 PCOD9111690
Probable space group: P -1
;
_chemical_formula_sum "Si O2"
_cell_formula_units_Z 15
_cell_length_a 8.897422
_cell_length_b 7.623976
_cell_length_c 10.252669
_cell_angle_alpha 105.828624
_cell_angle_beta 111.166932
_cell_angle_gamma 57.886867
_cell_volume 546.443276
_symmetry_space_group_name_H-M "P -1"
_symmetry_group_IT_number 2
_symmetry_cell_setting 'triclinic'
loop_
_space_group_symop_operation_xyz
x,y,z
-x,-y,-z
loop_
_atom_site_type_symbol
_atom_site_label
_atom_site_fract_x
_atom_site_fract_y
_atom_site_fract_z
Si Si1 0.500000 0.500000 0.000000
Si Si2 0.642649 0.683180 0.738064
Si Si3 0.676313 0.679705 0.262122
Si Si4 0.704314 0.986956 0.667560
Si Si5 0.752101 0.858363 0.055467
Si Si6 0.236504 0.840086 0.700720
Si Si7 0.166142 0.717275 0.136803
Si Si8 0.056468 0.211022 0.533929
O O1 0.388829 0.485132 0.829430
O O2 0.692456 0.402192 0.958195
O O3 0.430722 0.749167 0.671628
O O4 0.751325 0.438253 0.746077
O O5 0.724011 0.766531 0.669835
O O6 0.658361 0.810644 0.894445
O O7 0.505815 0.846352 0.330018
O O8 0.682028 0.782819 0.144129
O O9 0.871847 0.629710 0.371149
O O10 0.827241 0.068196 0.800571
O O11 0.781779 0.954757 0.541865
O O12 0.966450 0.741036 0.061308
O O13 0.721530 0.089376 0.129150
O O14 0.130166 0.721215 0.589703
O O15 0.087204 0.071851 0.645047
#
# Coordination Sequence:
#
# PCOD9111690 Si02
#       8
#     1   2   2   2   2   2   2   2
#     4  10  22  42  64 106 126 182 224 272 356 390
#     4  12  24  41  69 106 136 180 236 289 343 411
#     4  10  21  38  74  95 134 187 221 283 346 410
#     4  11  23  42  69 103 134 190 227 284 343 415
#     4  11  21  43  67 102 139 183 226 285 360 398
#     4  10  22  39  72  97 134 189 231 286 336 419
#     4  11  25  44  68 100 146 179 220 296 345 413
#     4  10  20  43  68  96 138 187 234 268 356 409
#
# _framework density 27.450241999999999
#
# number of rings (size 3 to 8) (size 9 to 14) (size 15 to 20)
#    0.000    1.333    5.333    1.200    0.000    0.533 
#    2.400    0.667    0.000    6.400    0.000    0.000 
#    0.000    0.000    0.000    0.000    0.000    0.000 
#
# Total GULP energy -83661.438730 kJ/mol
# GULP energy per Si atom -5577.429249 kJ/mol
# Density = 2.738776 g / cm^3
# Si number density = 27.450242 Si / 1000 Ang^3
#
#
#
# Elastic Constant Matrix: (Units=GPa)
#
#
# Indices 1 2 3 4 5 6 
#
# 1 172.9005 30.3773 45.4655 -2.1119 35.9092 -17.0626
# 2 30.3773 62.8073 -18.7804 10.6279 6.8776 15.1201
# 3 45.4655 -18.7804 97.8263 3.4032 43.8799 -9.0564
# 4 -2.1119 10.6279 3.4032 27.8879 -1.4841 3.9997
# 5 35.9092 6.8776 43.8799 -1.4841 65.0832 -4.6140
# 6 -17.0626 15.1201 -9.0564 3.9997 -4.6140 43.9613
#
#
#
# Elastic Compliance Matrix: (Units=1/GPa)
#
#
# Indices 1 2 3 4 5 6 
#
# 1 0.009081 -0.007694 -0.005287 0.003575 -0.000216 0.004734
# 2 -0.007694 0.028565 0.012091 -0.011921 -0.007911 -0.010066
# 3 -0.005287 0.012091 0.020733 -0.007847 -0.012699 -0.002558
# 4 0.003575 -0.011921 -0.007847 0.041833 0.005578 0.000651
# 5 -0.000216 -0.007911 -0.012699 0.005578 0.025162 0.002154
# 6 0.004734 -0.010066 -0.002558 0.000651 0.002154 0.027687
#
#
# Mechanical properties :
#
#
# Convention : Reuss Voigt Hill
#
# Bulk Modulus (GPa) = 17.66805 49.73987 33.70396
# Shear Modulus (GPa) = 28.78398 45.81794 37.30096
#
# Velocity S-wave (km/s) = 3.24170 4.08993 3.69027
# Velocity P-wave (km/s) = 4.52348 6.36103 5.51926
#
# Compressibility (1/GPa) = 0.05659934
#
# Stress axis : x y z
#
# Youngs Moduli (GPa) = 110.11534 35.00764 48.23227
#
# Poissons Ratio (x) = 0.26935 0.25500
# Poissons Ratio (y) = 0.84724 -0.58318
# Poissons Ratio (z) = 0.58218 -0.42328
#
# Static dielectric constant tensor:
#      x y z
#    x 2.199300 0.178160 -0.040420 
#    y 0.178160 2.371390 -0.088470 
#    z -0.040420 -0.088470 2.189590 
# 
# From -- ./inp_files/376954.got.cif
#   From: 2010.05.17/outbox.cif.g08.bks.cpg/sg2_189_cif.got.tgz:376954.got - 2010.06.03 11:33:40.
