data_PCOD9111585
_publ_section_title
;
Structure prediction by ZEFSAII (Michael W. Deem and Ramdas Pophale) SiO2 
 PCOD9111585
Probable space group: P -1
;
_chemical_formula_sum "Si O2"
_cell_formula_units_Z 14
_cell_length_a 14.033794
_cell_length_b 7.644878
_cell_length_c 9.504075
_cell_angle_alpha 101.150226
_cell_angle_beta 118.709591
_cell_angle_gamma 115.725393
_cell_volume 693.666819
_symmetry_space_group_name_H-M "P -1"
_symmetry_group_IT_number 2
_symmetry_cell_setting 'triclinic'
loop_
_space_group_symop_operation_xyz
x,y,z
-x,-y,-z
loop_
_atom_site_type_symbol
_atom_site_label
_atom_site_fract_x
_atom_site_fract_y
_atom_site_fract_z
Si Si1 0.489677 0.165893 0.617727
Si Si2 0.121528 0.362529 0.329476
Si Si3 0.821926 0.179510 0.604841
Si Si4 0.694415 0.640404 0.733202
Si Si5 0.235848 0.554796 0.009665
Si Si6 0.045863 0.249938 0.578232
Si Si7 0.854652 0.136831 0.932410
O O1 0.547422 0.397786 0.611772
O O2 0.500000 0.000000 0.500000
O O3 0.335969 0.037346 0.541028
O O4 0.599144 0.253214 0.835409
O O5 0.178327 0.607857 0.353829
O O6 0.235180 0.333122 0.361663
O O7 0.090149 0.346067 0.468562
O O8 0.978980 0.186680 0.120053
O O9 0.887254 0.173017 0.795072
O O10 0.914558 0.219202 0.545303
O O11 0.723110 0.875872 0.820162
O O12 0.782234 0.609466 0.904391
O O13 0.169380 0.413095 0.799411
O O14 0.173181 0.686412 0.017501
O O15 0.000000 0.000000 0.500000
#
# Coordination Sequence:
#
# PCOD9111585 Si02
#       7
#     2   2   2   2   2   2   2
#     4  10  20  43  66  95 134 162 211 272 319 380
#     4  12  22  39  64  96 132 163 219 269 318 380
#     4  12  22  41  67  94 132 170 209 268 329 375
#     4  10  22  39  67  96 129 160 221 265 321 377
#     4  10  22  43  65  95 128 167 212 270 318 373
#     4  12  26  43  64  94 133 174 220 263 318 384
#     4  12  21  37  69  99 122 167 218 272 321 371
#
# _framework density 20.182600999999998
#
# number of rings (size 3 to 8) (size 9 to 14) (size 15 to 20)
#    0.857    0.000    5.714    3.857    0.000    0.571 
#    0.000    1.429    3.143    0.000    0.000    0.000 
#    0.000    0.000    0.000    0.000    0.000    0.000 
#
# Total GULP energy -78153.472461 kJ/mol
# GULP energy per Si atom -5582.390890 kJ/mol
# Density = 2.013666 g / cm^3
# Si number density = 20.182601 Si / 1000 Ang^3
#
#
#
# Elastic Constant Matrix: (Units=GPa)
#
#
# Indices 1 2 3 4 5 6 
#
# 1 42.2082 9.0659 43.0511 1.9675 -3.5971 9.7242
# 2 9.0659 111.4754 50.5327 15.1317 -13.7891 -4.5103
# 3 43.0511 50.5327 116.3855 18.2153 0.6726 33.0997
# 4 1.9675 15.1317 18.2153 35.9753 6.2388 -9.9493
# 5 -3.5971 -13.7891 0.6726 6.2388 26.6130 9.1580
# 6 9.7242 -4.5103 33.0997 -9.9493 9.1580 42.3454
#
#
#
# Elastic Compliance Matrix: (Units=1/GPa)
#
#
# Indices 1 2 3 4 5 6 
#
# 1 0.043712 0.006833 -0.023296 0.008455 0.004656 0.009879
# 2 0.006833 0.014375 -0.010783 -0.000106 0.006256 0.007013
# 3 -0.023296 -0.010783 0.032129 -0.018291 0.003690 -0.026009
# 4 0.008455 -0.000106 -0.018291 0.047610 -0.019132 0.027669
# 5 0.004656 0.006256 0.003690 -0.019132 0.052417 -0.019119
# 6 0.009879 0.007013 -0.026009 0.027669 -0.019119 0.053060
#
#
# Mechanical properties :
#
#
# Convention : Reuss Voigt Hill
#
# Bulk Modulus (GPa) = 27.99145 52.81872 40.40509
# Shear Modulus (GPa) = 16.14455 32.14804 24.14629
#
# Velocity S-wave (km/s) = 2.83136 3.99539 3.46264
# Velocity P-wave (km/s) = 4.95863 6.89286 6.00414
#
# Compressibility (1/GPa) = 0.03572519
#
# Stress axis : x y z
#
# Youngs Moduli (GPa) = 22.87702 69.56666 31.12433
#
# Poissons Ratio (x) = -0.47535 0.72506
# Poissons Ratio (y) = -0.15632 0.33561
# Poissons Ratio (z) = 0.53293 0.75013
#
# Static dielectric constant tensor:
#      x y z
#    x 1.757600 -0.021220 0.021970 
#    y -0.021220 1.745360 0.008610 
#    z 0.021970 0.008610 1.741160 
# 
# From -- ./inp_files/295843.got.cif
#   From: 2010.05.17/outbox.cif.g08.bks.cpg/sg2_148_cif.got.tgz:295843.got - 2010.06.03 11:33:40.
