data_PCOD9111843
_publ_section_title
;
Structure prediction by ZEFSAII (Michael W. Deem and Ramdas Pophale) SiO2 
 PCOD9111843
Probable space group: P -1
;
_chemical_formula_sum "Si O2"
_cell_formula_units_Z 15
_cell_length_a 9.660659
_cell_length_b 13.289637
_cell_length_c 9.893370
_cell_angle_alpha 61.580678
_cell_angle_beta 40.200300
_cell_angle_gamma 90.590015
_cell_volume 542.660904
_symmetry_space_group_name_H-M "P -1"
_symmetry_group_IT_number 2
_symmetry_cell_setting 'triclinic'
loop_
_space_group_symop_operation_xyz
x,y,z
-x,-y,-z
loop_
_atom_site_type_symbol
_atom_site_label
_atom_site_fract_x
_atom_site_fract_y
_atom_site_fract_z
Si Si1 0.994970 0.490968 0.795883
Si Si2 0.498613 0.488281 0.297711
Si Si3 0.000000 0.500000 0.500000
Si Si4 0.489157 0.035639 0.332556
Si Si5 0.432082 0.300731 0.723241
Si Si6 0.993058 0.260796 0.627284
Si Si7 0.979957 0.963215 0.381797
Si Si8 0.071125 0.696408 0.778300
O O1 0.313472 0.539057 0.468323
O O2 0.841228 0.417788 0.813269
O O3 0.803081 0.536483 0.975297
O O4 0.917392 0.367114 0.045323
O O5 0.411140 0.360790 0.555881
O O6 0.294934 0.409116 0.366938
O O7 0.138076 0.664522 0.367899
O O8 0.315267 0.092037 0.418484
O O9 0.500000 0.000000 0.500000
O O10 0.294610 0.878893 0.493673
O O11 0.798813 0.145578 0.965483
O O12 0.739428 0.333722 0.436747
O O13 0.231961 0.330027 0.948012
O O14 0.227115 0.120464 0.020596
O O15 0.007544 0.168473 0.564758
O O16 0.000000 0.000000 0.500000
#
# Coordination Sequence:
#
# PCOD9111843 Si02
#       8
#     2   2   1   2   2   2   2   2
#     4  10  22  40  72 103 141 194 253 313 378 453
#     4  10  21  43  77 102 140 194 249 314 375 458
#     4  12  26  44  70 108 150 202 250 320 390 462
#     4  12  27  48  81 118 157 199 263 330 394 472
#     4  10  20  43  72 100 141 194 247 299 388 459
#     4  12  29  49  76 115 159 201 264 330 394 460
#     4  12  30  50  74 113 163 215 256 320 400 480
#     4  10  22  45  74 107 142 195 260 311 382 470
#
# _framework density 27.641572
#
# number of rings (size 3 to 8) (size 9 to 14) (size 15 to 20)
#    0.000    1.067    2.667    2.400    5.600    6.933 
#    0.000    2.000    0.000    0.000    0.000    0.000 
#    0.000    0.000    0.000    0.000    0.000    0.000 
#
# Total GULP energy -83750.288896 kJ/mol
# GULP energy per Si atom -5583.352593 kJ/mol
# Density = 2.757866 g / cm^3
# Si number density = 27.641572 Si / 1000 Ang^3
#
#
#
# Elastic Constant Matrix: (Units=GPa)
#
#
# Indices 1 2 3 4 5 6 
#
# 1 126.8446 33.0364 51.9581 17.0621 13.2658 9.6330
# 2 33.0364 242.0605 61.4344 32.7335 18.8356 11.0361
# 3 51.9581 61.4344 147.8491 24.9237 -29.6133 6.4464
# 4 17.0621 32.7335 24.9237 70.1881 -4.5277 4.2946
# 5 13.2658 18.8356 -29.6133 -4.5277 32.5761 10.5893
# 6 9.6330 11.0361 6.4464 4.2946 10.5893 37.3663
#
#
#
# Elastic Compliance Matrix: (Units=1/GPa)
#
#
# Indices 1 2 3 4 5 6 
#
# 1 0.011907 0.001358 -0.007065 -0.001947 -0.012852 0.001614
# 2 0.001358 0.005983 -0.004410 -0.002205 -0.008778 0.001385
# 3 -0.007065 -0.004410 0.015633 -0.000046 0.021469 -0.005652
# 4 -0.001947 -0.002205 -0.000046 0.016215 0.004965 -0.002109
# 5 -0.012852 -0.008778 0.021469 0.004965 0.066841 -0.017311
# 6 0.001614 0.001385 -0.005652 -0.002109 -0.017311 0.032060
#
#
# Mechanical properties :
#
#
# Convention : Reuss Voigt Hill
#
# Bulk Modulus (GPa) = 75.24891 89.95688 82.60289
# Shear Modulus (GPa) = 28.85089 52.71445 40.78267
#
# Velocity S-wave (km/s) = 3.23422 4.37174 3.84527
# Velocity P-wave (km/s) = 6.42099 7.62217 7.04722
#
# Compressibility (1/GPa) = 0.01328923
#
# Stress axis : x y z
#
# Youngs Moduli (GPa) = 83.98138 167.13028 63.96530
#
# Poissons Ratio (x) = -0.22691 0.45192
# Poissons Ratio (y) = -0.11402 0.28210
# Poissons Ratio (z) = 0.59333 0.73707
#
# Static dielectric constant tensor:
#      x y z
#    x 2.469190 -0.211600 -0.191560 
#    y -0.211600 2.276020 0.145020 
#    z -0.191560 0.145020 2.203950 
# 
# From -- ./inp_files/433777.got.cif
#   From: 2010.05.17/outbox.cif.g08.bks.cpg/sg2_217_cif.got.tgz:433777.got - 2010.06.03 11:33:40.
