data_PCOD9111610
_publ_section_title
;
Structure prediction by ZEFSAII (Michael W. Deem and Ramdas Pophale) SiO2 
 PCOD9111610
Probable space group: P -1
;
_chemical_formula_sum "Si O2"
_cell_formula_units_Z 16
_cell_length_a 15.970064
_cell_length_b 19.951105
_cell_length_c 12.669992
_cell_angle_alpha 132.165673
_cell_angle_beta 152.731630
_cell_angle_gamma 29.240227
_cell_volume 799.270284
_symmetry_space_group_name_H-M "P -1"
_symmetry_group_IT_number 2
_symmetry_cell_setting 'triclinic'
loop_
_space_group_symop_operation_xyz
x,y,z
-x,-y,-z
loop_
_atom_site_type_symbol
_atom_site_label
_atom_site_fract_x
_atom_site_fract_y
_atom_site_fract_z
Si Si1 0.179391 0.002527 0.916956
Si Si2 0.589924 0.731422 0.237385
Si Si3 0.779183 0.217767 0.289908
Si Si4 0.362041 0.109133 0.861515
Si Si5 0.637447 0.355421 0.739831
Si Si6 0.171041 0.544770 0.031589
Si Si7 0.773554 0.569551 0.478568
Si Si8 0.946205 0.416651 0.828399
O O1 0.871763 0.180025 0.790661
O O2 0.113874 0.927765 0.719236
O O3 0.391971 0.895377 0.145389
O O4 0.383146 0.974831 0.031100
O O5 0.611442 0.701391 0.352322
O O6 0.938186 0.593464 0.432171
O O7 0.413361 0.718586 0.967582
O O8 0.516795 0.360518 0.226945
O O9 0.067344 0.169242 0.553952
O O10 0.222216 0.260153 0.905678
O O11 0.500000 0.000000 0.000000
O O12 0.814883 0.379157 0.955231
O O13 0.463308 0.404661 0.706018
O O14 0.370097 0.468341 0.470236
O O15 0.080401 0.616947 0.121352
O O16 0.930259 0.566086 0.743266
O O17 0.000000 0.500000 0.000000
#
# Coordination Sequence:
#
# PCOD9111610 Si02
#       8
#     2   2   2   2   2   2   2   2
#     4  10  24  42  60  91 126 159 206 249 310 358
#     4   8  20  44  67  88 120 164 201 261 300 372
#     4   9  22  42  62  86 122 165 199 253 301 363
#     4  12  25  40  63  92 125 166 208 248 300 370
#     4  12  24  38  64  93 125 163 203 255 309 367
#     4  11  22  40  63  95 121 161 211 252 298 375
#     4  10  20  43  67  90 121 159 211 250 314 357
#     4  12  24  40  63  89 129 168 198 256 309 360
#
# _framework density 20.018260000000001
#
# number of rings (size 3 to 8) (size 9 to 14) (size 15 to 20)
#    0.750    0.750    2.500    2.625    3.500    2.000 
#    2.250    2.500    0.000    0.000    0.000    0.000 
#    0.000    0.000    0.000    0.000    0.000    0.000 
#
# Total GULP energy -89316.255604 kJ/mol
# GULP energy per Si atom -5582.265975 kJ/mol
# Density = 1.997270 g / cm^3
# Si number density = 20.018260 Si / 1000 Ang^3
#
#
#
# Elastic Constant Matrix: (Units=GPa)
#
#
# Indices 1 2 3 4 5 6 
#
# 1 111.3438 1.9221 18.3543 -10.1921 4.9355 1.2323
# 2 1.9221 68.6253 5.7236 -13.1348 4.0946 13.6160
# 3 18.3543 5.7236 31.6010 -1.9827 7.1106 -3.0048
# 4 -10.1921 -13.1348 -1.9827 19.9140 13.1354 2.4490
# 5 4.9355 4.0946 7.1106 13.1354 31.6104 -0.9639
# 6 1.2323 13.6160 -3.0048 2.4490 -0.9639 26.7055
#
#
#
# Elastic Compliance Matrix: (Units=1/GPa)
#
#
# Indices 1 2 3 4 5 6 
#
# 1 0.011284 0.003777 -0.005454 0.012443 -0.006330 -0.004430
# 2 0.003777 0.024959 -0.002576 0.031218 -0.016723 -0.016656
# 3 -0.005454 -0.002576 0.038135 0.004759 -0.009215 0.005087
# 4 0.012443 0.031218 0.004759 0.119087 -0.057425 -0.028949
# 5 -0.006330 -0.016723 -0.009215 -0.057425 0.061190 0.015256
# 6 -0.004430 -0.016656 0.005087 -0.028949 0.015256 0.049920
#
#
# Mechanical properties :
#
#
# Convention : Reuss Voigt Hill
#
# Bulk Modulus (GPa) = 15.18135 29.28558 22.23346
# Shear Modulus (GPa) = 14.92370 28.01733 21.47051
#
# Velocity S-wave (km/s) = 2.73335 3.74517 3.27853
# Velocity P-wave (km/s) = 4.19069 5.77606 5.04602
#
# Compressibility (1/GPa) = 0.06587031
#
# Stress axis : x y z
#
# Youngs Moduli (GPa) = 88.62348 40.06647 26.22269
#
# Poissons Ratio (x) = -0.15133 0.14302
# Poissons Ratio (y) = -0.33474 0.06756
# Poissons Ratio (z) = 0.48335 0.10323
#
# Static dielectric constant tensor:
#      x y z
#    x 1.722030 0.020720 0.000110 
#    y 0.020720 1.706110 0.011340 
#    z 0.000110 0.011340 1.699960 
# 
# From -- ./inp_files/457508.got.cif
#   From: 2010.05.17/outbox.cif.g08.bks.cpg/sg2_229_cif.got.tgz:457508.got - 2010.06.03 11:33:40.
