data_PCOD9111252
_publ_section_title
;
Structure prediction by ZEFSAII (Michael W. Deem and Ramdas Pophale) SiO2 
 PCOD9111252
Probable space group: P -1
;
_chemical_formula_sum "Si O2"
_cell_formula_units_Z 16
_cell_length_a 11.255296
_cell_length_b 13.585194
_cell_length_c 9.080456
_cell_angle_alpha 57.708906
_cell_angle_beta 126.153072
_cell_angle_gamma 80.916370
_cell_volume 683.219281
_symmetry_space_group_name_H-M "P -1"
_symmetry_group_IT_number 2
_symmetry_cell_setting 'triclinic'
loop_
_space_group_symop_operation_xyz
x,y,z
-x,-y,-z
loop_
_atom_site_type_symbol
_atom_site_label
_atom_site_fract_x
_atom_site_fract_y
_atom_site_fract_z
Si Si1 0.253787 0.795333 0.335333
Si Si2 0.542094 0.670876 0.088880
Si Si3 0.935710 0.898960 0.220802
Si Si4 0.334602 0.017184 0.775497
Si Si5 0.384558 0.544791 0.225219
Si Si6 0.017834 0.360774 0.184374
Si Si7 0.869884 0.552696 0.211417
Si Si8 0.049913 0.676676 0.236185
O O1 0.500000 0.500000 0.500000
O O2 0.117672 0.771109 0.166515
O O3 0.480809 0.625554 0.624623
O O4 0.153604 0.841527 0.387952
O O5 0.381865 0.658783 0.025903
O O6 0.648996 0.629933 0.041662
O O7 0.737540 0.512315 0.451176
O O8 0.450994 0.844350 0.928790
O O9 0.841746 0.936525 0.281814
O O10 0.965032 0.760691 0.269003
O O11 0.780610 0.064195 0.880663
O O12 0.222077 0.174110 0.467154
O O13 0.500000 0.000000 0.000000
O O14 0.968656 0.410957 0.281011
O O15 0.000000 0.500000 0.000000
O O16 0.837194 0.383538 0.967042
O O17 0.000000 0.500000 0.500000
O O18 0.885222 0.675704 0.056267
#
# Coordination Sequence:
#
# PCOD9111252 Si02
#       8
#     2   2   2   2   2   2   2   2
#     4   8  18  34  65 103 132 188 236 294 350 432
#     4  10  21  38  70  98 135 188 240 285 365 418
#     4   9  17  35  64 104 134 180 248 283 355 426
#     4  12  24  41  70 107 146 188 240 305 363 430
#     4  11  25  45  73 103 150 193 239 301 368 428
#     4  12  31  47  72 112 147 191 249 300 368 444
#     4  10  20  42  71 100 138 190 238 291 357 434
#     4   8  15  32  62  99 130 180 230 280 351 424
#
# _framework density 23.418543
#
# number of rings (size 3 to 8) (size 9 to 14) (size 15 to 20)
#    0.750    1.250    0.000    4.500    8.750    1.000 
#    0.000    0.625    2.750    0.000    0.000    0.000 
#    0.000    0.000    0.000    0.000    0.000    0.000 
#
# Total GULP energy -89117.934598 kJ/mol
# GULP energy per Si atom -5569.870912 kJ/mol
# Density = 2.336524 g / cm^3
# Si number density = 23.418543 Si / 1000 Ang^3
#
#
#
# Elastic Constant Matrix: (Units=GPa)
#
#
# Indices 1 2 3 4 5 6 
#
# 1 102.3174 -5.4871 42.2991 0.0890 -14.4371 5.4029
# 2 -5.4871 98.7895 50.8324 -19.6800 -10.1859 -4.4953
# 3 42.2991 50.8324 125.7422 -30.7021 -18.6342 15.8396
# 4 0.0890 -19.6800 -30.7021 46.6741 7.9473 0.1115
# 5 -14.4371 -10.1859 -18.6342 7.9473 35.9941 -1.6531
# 6 5.4029 -4.4953 15.8396 0.1115 -1.6531 29.5950
#
#
#
# Elastic Compliance Matrix: (Units=1/GPa)
#
#
# Indices 1 2 3 4 5 6 
#
# 1 0.013083 0.003862 -0.006433 -0.003283 0.003821 0.001867
# 2 0.003862 0.014841 -0.007487 0.000986 0.001915 0.005660
# 3 -0.006433 -0.007487 0.016258 0.007278 0.001716 -0.008596
# 4 -0.003283 0.000986 0.007278 0.027228 -0.003440 -0.003441
# 5 0.003821 0.001915 0.001716 -0.003440 0.031525 0.000449
# 6 0.001867 0.005660 -0.008596 -0.003441 0.000449 0.038947
#
#
# Mechanical properties :
#
#
# Convention : Reuss Voigt Hill
#
# Bulk Modulus (GPa) = 41.55388 55.79310 48.67349
# Shear Modulus (GPa) = 29.40816 38.39961 33.90389
#
# Velocity S-wave (km/s) = 3.54752 4.05373 3.80904
# Velocity P-wave (km/s) = 5.87898 6.76656 6.33832
#
# Compressibility (1/GPa) = 0.02406514
#
# Stress axis : x y z
#
# Youngs Moduli (GPa) = 76.43259 67.38160 61.50980
#
# Poissons Ratio (x) = -0.26020 0.39569
# Poissons Ratio (y) = -0.29515 0.46053
# Poissons Ratio (z) = 0.49168 0.50449
#
# Static dielectric constant tensor:
#      x y z
#    x 2.026010 -0.061610 -0.050790 
#    y -0.061610 1.924560 0.081460 
#    z -0.050790 0.081460 1.978770 
# 
# From -- ./inp_files/317027.got.cif
#   From: 2010.05.17/outbox.cif.g08.bks.cpg/sg2_159_cif.got.tgz:317027.got - 2010.06.03 11:33:40.
