data_PCOD9111249
_publ_section_title
;
Structure prediction by ZEFSAII (Michael W. Deem and Ramdas Pophale) SiO2 
 PCOD9111249
Probable space group: P -1
;
_chemical_formula_sum "Si O2"
_cell_formula_units_Z 14
_cell_length_a 8.895257
_cell_length_b 15.381282
_cell_length_c 7.788392
_cell_angle_alpha 100.105390
_cell_angle_beta 76.000737
_cell_angle_gamma 40.049615
_cell_volume 543.085601
_symmetry_space_group_name_H-M "P -1"
_symmetry_group_IT_number 2
_symmetry_cell_setting 'triclinic'
loop_
_space_group_symop_operation_xyz
x,y,z
-x,-y,-z
loop_
_atom_site_type_symbol
_atom_site_label
_atom_site_fract_x
_atom_site_fract_y
_atom_site_fract_z
Si Si1 0.824843 0.880840 0.344701
Si Si2 0.766684 0.180331 0.918844
Si Si3 0.409041 0.333145 0.713107
Si Si4 0.470445 0.414103 0.404477
Si Si5 0.353905 0.957065 0.009103
Si Si6 0.886795 0.773761 0.643066
Si Si7 0.829474 0.714157 0.093715
O O1 0.954556 0.800382 0.468652
O O2 0.957536 0.742500 0.137367
O O3 0.927930 0.924344 0.258596
O O4 0.500000 0.000000 0.500000
O O5 0.581443 0.265620 0.821149
O O6 0.775216 0.077709 0.958707
O O7 0.618777 0.313053 0.150965
O O8 0.549309 0.307542 0.497069
O O9 0.327368 0.269148 0.711400
O O10 0.096916 0.530931 0.883103
O O11 0.500000 0.500000 0.500000
O O12 0.122624 0.583737 0.526341
O O13 0.581416 0.848707 0.068405
O O14 0.130784 0.143674 0.172975
O O15 0.568920 0.881299 0.770577
#
# Coordination Sequence:
#
# PCOD9111249 Si02
#       7
#     2   2   2   2   2   2   2
#     4  12  25  45  70  99 136 188 234 293 358 420
#     4  11  27  46  72 106 142 181 244 295 346 423
#     4  10  22  43  71 104 140 183 228 294 343 421
#     4  12  25  43  72 106 144 184 235 290 356 414
#     4  10  23  46  69 104 144 183 232 292 345 424
#     4  11  24  43  73 102 144 188 230 286 359 419
#     4  10  20  42  70  99 139 181 237 280 349 417
#
# _framework density 25.778623
#
# number of rings (size 3 to 8) (size 9 to 14) (size 15 to 20)
#    0.000    1.143    2.857    2.571    2.000    2.857 
#    2.571    1.429    0.000    0.000    0.000    0.000 
#    0.000    0.000    0.000    0.000    0.000    0.000 
#
# Total GULP energy -78337.232907 kJ/mol
# GULP energy per Si atom -5595.516636 kJ/mol
# Density = 2.571995 g / cm^3
# Si number density = 25.778623 Si / 1000 Ang^3
#
#
#
# Elastic Constant Matrix: (Units=GPa)
#
#
# Indices 1 2 3 4 5 6 
#
# 1 133.6824 45.2478 54.1011 -19.3010 -18.7868 31.6157
# 2 45.2478 83.8337 56.3065 -11.6470 -12.2381 16.2406
# 3 54.1011 56.3065 130.5526 -18.8186 -17.0713 12.1555
# 4 -19.3010 -11.6470 -18.8186 51.1422 9.1551 -12.4489
# 5 -18.7868 -12.2381 -17.0713 9.1551 35.6679 -14.5179
# 6 31.6157 16.2406 12.1555 -12.4489 -14.5179 48.7667
#
#
#
# Elastic Compliance Matrix: (Units=1/GPa)
#
#
# Indices 1 2 3 4 5 6 
#
# 1 0.010984 -0.002975 -0.002482 0.001143 0.001318 -0.004827
# 2 -0.002975 0.018388 -0.006381 0.000007 0.000713 -0.002390
# 3 -0.002482 -0.006381 0.011869 0.002027 0.002492 0.002035
# 4 0.001143 0.000007 0.002027 0.022080 -0.002625 0.003606
# 5 0.001318 0.000713 0.002492 -0.002625 0.033991 0.007736
# 6 -0.004827 -0.002390 0.002035 0.003606 0.007736 0.027147
#
#
# Mechanical properties :
#
#
# Convention : Reuss Voigt Hill
#
# Bulk Modulus (GPa) = 56.93116 73.26438 65.09777
# Shear Modulus (GPa) = 32.46985 39.94293 36.20639
#
# Velocity S-wave (km/s) = 3.55289 3.94059 3.75175
# Velocity P-wave (km/s) = 6.24205 7.01332 6.63889
#
# Compressibility (1/GPa) = 0.01756507
#
# Stress axis : x y z
#
# Youngs Moduli (GPa) = 91.04376 54.38353 84.25409
#
# Poissons Ratio (x) = 0.16178 0.20912
# Poissons Ratio (y) = 0.27084 0.53762
# Poissons Ratio (z) = 0.22597 0.34702
#
# Static dielectric constant tensor:
#      x y z
#    x 2.085620 -0.047470 0.002190 
#    y -0.047470 2.045790 -0.023090 
#    z 0.002190 -0.023090 2.068030 
# 
# From -- ./inp_files/207631.got.cif
#   From: 2010.05.17/outbox.cif.g08.bks.cpg/sg2_104_cif.got.tgz:207631.got - 2010.06.03 11:33:40.
