data_PCOD9111820
_publ_section_title
;
Structure prediction by ZEFSAII (Michael W. Deem and Ramdas Pophale) SiO2 
 PCOD9111820
Probable space group: P -1
;
_chemical_formula_sum "Si O2"
_cell_formula_units_Z 10
_cell_length_a 14.867142
_cell_length_b 5.360219
_cell_length_c 15.901105
_cell_angle_alpha 75.738584
_cell_angle_beta 161.298169
_cell_angle_gamma 106.468590
_cell_volume 388.628439
_symmetry_space_group_name_H-M "P -1"
_symmetry_group_IT_number 2
_symmetry_cell_setting 'triclinic'
loop_
_space_group_symop_operation_xyz
x,y,z
-x,-y,-z
loop_
_atom_site_type_symbol
_atom_site_label
_atom_site_fract_x
_atom_site_fract_y
_atom_site_fract_z
Si Si1 0.754423 0.932740 0.047407
Si Si2 0.362500 0.668256 0.295662
Si Si3 0.803713 0.620452 0.564175
Si Si4 0.857646 0.371940 0.467957
Si Si5 0.703375 0.791945 0.822456
O O1 0.426577 0.830936 0.784935
O O2 0.800243 0.852240 0.998244
O O3 0.930957 0.778101 0.279601
O O4 0.880838 0.238356 0.146082
O O5 0.500000 0.500000 0.500000
O O6 0.603282 0.778925 0.428829
O O7 0.166253 0.444952 0.085563
O O8 0.268653 0.932499 0.221929
O O9 0.785783 0.595271 0.450013
O O10 0.632395 0.337405 0.462598
O O11 0.000000 0.500000 0.500000
#
# Coordination Sequence:
#
# PCOD9111820 Si02
#       5
#     2   2   2   2   2
#     4  11  23  44  69 101 145 186 237 292 362 423
#     4  10  20  43  71 105 142 189 239 294 353 423
#     4   9  22  38  70  92 147 177 240 281 364 401
#     4  11  25  43  69 106 141 187 239 295 357 430
#     4   9  22  39  70 101 144 185 237 288 358 415
#
# _framework density 25.731517
#
# number of rings (size 3 to 8) (size 9 to 14) (size 15 to 20)
#    1.200    0.800    0.000    3.600    2.800    3.200 
#    0.000    2.000    0.000    0.000    0.000    0.000 
#    0.000    0.000    0.000    0.000    0.000    0.000 
#
# Total GULP energy -55847.469774 kJ/mol
# GULP energy per Si atom -5584.746977 kJ/mol
# Density = 2.567295 g / cm^3
# Si number density = 25.731517 Si / 1000 Ang^3
#
#
#
# Elastic Constant Matrix: (Units=GPa)
#
#
# Indices 1 2 3 4 5 6 
#
# 1 114.7005 47.3377 26.7528 5.5523 -13.9238 -2.8368
# 2 47.3377 192.7532 74.0120 25.5907 -7.2453 -5.6905
# 3 26.7528 74.0120 159.2623 21.1693 -6.7126 16.3370
# 4 5.5523 25.5907 21.1693 71.9065 7.4900 1.1384
# 5 -13.9238 -7.2453 -6.7126 7.4900 34.7047 -7.2654
# 6 -2.8368 -5.6905 16.3370 1.1384 -7.2654 29.7239
#
#
#
# Elastic Compliance Matrix: (Units=1/GPa)
#
#
# Indices 1 2 3 4 5 6 
#
# 1 0.010274 -0.001955 -0.000816 -0.000312 0.004054 0.002057
# 2 -0.001955 0.007215 -0.003084 -0.001682 0.001166 0.003239
# 3 -0.000816 -0.003084 0.008560 -0.001257 -0.000168 -0.005366
# 4 -0.000312 -0.001682 -0.001257 0.015369 -0.004309 -0.001303
# 5 0.004054 0.001166 -0.000168 -0.004309 0.033477 0.009050
# 6 0.002057 0.003239 -0.005366 -0.001303 0.009050 0.039671
#
#
# Mechanical properties :
#
#
# Convention : Reuss Voigt Hill
#
# Bulk Modulus (GPa) = 69.74472 84.76902 77.25687
# Shear Modulus (GPa) = 38.15202 48.50792 43.32997
#
# Velocity S-wave (km/s) = 3.85476 4.34655 4.10802
# Velocity P-wave (km/s) = 6.85389 7.62923 7.25193
#
# Compressibility (1/GPa) = 0.01433800
#
# Stress axis : x y z
#
# Youngs Moduli (GPa) = 97.33582 138.59749 116.82685
#
# Poissons Ratio (x) = 0.27100 0.09531
# Poissons Ratio (y) = 0.19032 0.36031
# Poissons Ratio (z) = 0.07941 0.42746
#
# Static dielectric constant tensor:
#      x y z
#    x 2.084340 -0.095100 0.098310 
#    y -0.095100 2.093730 -0.085280 
#    z 0.098310 -0.085280 2.115990 
# 
# From -- ./inp_files/2578.got.cif
#   From: 2010.05.17/outbox.cif.g08.bks.cpg/sg2_2_cif.got.tgz:2578.got - 2010.06.03 11:33:40.
