data_PCOD9111307
_publ_section_title
;
Structure prediction by ZEFSAII (Michael W. Deem and Ramdas Pophale) SiO2 
 PCOD9111307
Probable space group: P -1
;
_chemical_formula_sum "Si O2"
_cell_formula_units_Z 16
_cell_length_a 8.832334
_cell_length_b 6.714782
_cell_length_c 13.686613
_cell_angle_alpha 75.933276
_cell_angle_beta 84.377888
_cell_angle_gamma 61.544212
_cell_volume 692.095967
_symmetry_space_group_name_H-M "P -1"
_symmetry_group_IT_number 2
_symmetry_cell_setting 'triclinic'
loop_
_space_group_symop_operation_xyz
x,y,z
-x,-y,-z
loop_
_atom_site_type_symbol
_atom_site_label
_atom_site_fract_x
_atom_site_fract_y
_atom_site_fract_z
Si Si1 0.811196 0.849611 0.408223
Si Si2 0.509026 0.654489 0.064266
Si Si3 0.683228 0.367420 0.741707
Si Si4 0.124207 0.367321 0.364207
Si Si5 0.977676 0.971008 0.120409
Si Si6 0.564328 0.771862 0.298251
Si Si7 0.313537 0.115131 0.906374
Si Si8 0.130811 0.730402 0.727165
O O1 0.817404 0.809127 0.528059
O O2 0.638424 0.861022 0.370691
O O3 0.971628 0.615715 0.382729
O O4 0.839775 0.067728 0.350967
O O5 0.461378 0.561772 0.174819
O O6 0.682404 0.674985 0.061457
O O7 0.500000 0.500000 0.000000
O O8 0.371236 0.911067 0.005503
O O9 0.725277 0.570395 0.682708
O O10 0.607391 0.258223 0.678226
O O11 0.850982 0.181299 0.811003
O O12 0.042821 0.275275 0.296717
O O13 0.858287 0.844324 0.140713
O O14 0.881893 0.200663 0.165748
O O15 0.000000 0.000000 0.000000
O O16 0.549843 0.928641 0.184563
O O17 0.718795 0.516084 0.290347
#
# Coordination Sequence:
#
# PCOD9111307 Si02
#       8
#     2   2   2   2   2   2   2   2
#     4  10  20  42  72  90 129 170 214 257 330 392
#     4  10  23  40  64  88 122 172 216 256 318 388
#     4  11  23  42  58  96 134 158 213 274 318 364
#     4  10  22  41  67 101 124 166 213 272 322 376
#     4  12  23  39  64  92 127 169 211 267 316 367
#     4  10  23  40  67  92 126 174 211 260 320 389
#     4  10  21  40  60  86 125 164 213 252 315 384
#     4  11  22  43  65  93 126 173 219 255 319 393
#
# _framework density 23.118181
#
# number of rings (size 3 to 8) (size 9 to 14) (size 15 to 20)
#    0.000    1.500    3.750    1.125    3.500    1.500 
#    2.250    2.500    0.000    0.000    0.000    0.000 
#    0.000    0.000    0.000    0.000    0.000    0.000 
#
# Total GULP energy -89318.647270 kJ/mol
# GULP energy per Si atom -5582.415454 kJ/mol
# Density = 2.306556 g / cm^3
# Si number density = 23.118181 Si / 1000 Ang^3
#
#
#
# Elastic Constant Matrix: (Units=GPa)
#
#
# Indices 1 2 3 4 5 6 
#
# 1 158.3673 33.5228 37.0981 5.4433 13.6553 56.3955
# 2 33.5228 73.8231 38.1810 -2.1265 -8.3660 25.1560
# 3 37.0981 38.1810 101.5156 -17.4968 -0.1273 17.7947
# 4 5.4433 -2.1265 -17.4968 30.0192 10.6072 3.9233
# 5 13.6553 -8.3660 -0.1273 10.6072 32.8641 -0.2673
# 6 56.3955 25.1560 17.7947 3.9233 -0.2673 41.2655
#
#
#
# Elastic Compliance Matrix: (Units=1/GPa)
#
#
# Indices 1 2 3 4 5 6 
#
# 1 0.013623 0.000220 -0.001697 0.001089 -0.006110 -0.018163
# 2 0.000220 0.020898 -0.006826 -0.003474 0.006244 -0.009726
# 3 -0.001697 -0.006826 0.014956 0.010175 -0.004266 -0.000963
# 4 0.001089 -0.003474 0.010175 0.045546 -0.016064 -0.008192
# 5 -0.006110 0.006244 -0.004266 -0.016064 0.039792 0.008169
# 6 -0.018163 -0.009726 -0.000963 -0.008192 0.008169 0.056232
#
#
# Mechanical properties :
#
#
# Convention : Reuss Voigt Hill
#
# Bulk Modulus (GPa) = 30.42366 61.25663 45.84015
# Shear Modulus (GPa) = 22.87179 35.82336 29.34757
#
# Velocity S-wave (km/s) = 3.14879 3.94073 3.56681
# Velocity P-wave (km/s) = 5.13892 6.87463 6.06914
#
# Compressibility (1/GPa) = 0.03286915
#
# Stress axis : x y z
#
# Youngs Moduli (GPa) = 73.40635 47.85039 66.86474
#
# Poissons Ratio (x) = -0.01052 0.11349
# Poissons Ratio (y) = -0.01614 0.45645
# Poissons Ratio (z) = 0.12459 0.32665
#
# Static dielectric constant tensor:
#      x y z
#    x 1.957670 -0.023320 0.017370 
#    y -0.023320 1.912070 0.022810 
#    z 0.017370 0.022810 1.889150 
# 
# From -- ./inp_files/488285.got.cif
#   From: 2010.05.17/outbox.cif.g08.bks.cpg/sg2_245_cif.got.tgz:488285.got - 2010.06.03 11:33:40.
