data_PCOD9111570
_publ_section_title
;
Structure prediction by ZEFSAII (Michael W. Deem and Ramdas Pophale) SiO2 
 PCOD9111570
Probable space group: P -1
;
_chemical_formula_sum "Si O2"
_cell_formula_units_Z 14
_cell_length_a 7.824490
_cell_length_b 8.337581
_cell_length_c 13.170891
_cell_angle_alpha 111.071817
_cell_angle_beta 131.175412
_cell_angle_gamma 90.148554
_cell_volume 567.388270
_symmetry_space_group_name_H-M "P -1"
_symmetry_group_IT_number 2
_symmetry_cell_setting 'triclinic'
loop_
_space_group_symop_operation_xyz
x,y,z
-x,-y,-z
loop_
_atom_site_type_symbol
_atom_site_label
_atom_site_fract_x
_atom_site_fract_y
_atom_site_fract_z
Si Si1 0.141868 0.216199 0.622644
Si Si2 0.219682 0.383682 0.481845
Si Si3 0.355944 0.763204 0.403684
Si Si4 0.774913 0.398669 0.180173
Si Si5 0.017448 0.400712 0.088395
Si Si6 0.571758 0.751119 0.803198
Si Si7 0.510431 0.977631 0.321016
O O1 0.091845 0.304636 0.519255
O O2 0.190115 0.384454 0.758051
O O3 0.404383 0.190284 0.711468
O O4 0.000000 0.000000 0.500000
O O5 0.383304 0.262533 0.486560
O O6 0.404421 0.583119 0.628867
O O7 0.009280 0.376043 0.321588
O O8 0.190021 0.565087 0.261679
O O9 0.294407 0.850531 0.501930
O O10 0.342472 0.893042 0.333857
O O11 0.552055 0.291369 0.143215
O O12 0.784117 0.330531 0.053643
O O13 0.161897 0.262489 0.093920
O O14 0.000000 0.500000 0.000000
O O15 0.570488 0.931734 0.785094
#
# Coordination Sequence:
#
# PCOD9111570 Si02
#       7
#     2   2   2   2   2   2   2
#     4  10  17  26  47  82 119 144 166 212 282 349
#     4   9  17  30  52  84 115 142 177 226 285 336
#     4   9  19  34  56  86 120 149 179 228 282 336
#     4  11  21  35  58  85 114 146 185 235 283 333
#     4  11  24  41  59  78 108 156 202 232 266 323
#     4  10  20  36  58  84 112 143 186 236 282 334
#     4  10  18  32  57  88 119 142 171 230 299 343
#
# _framework density 24.674462999999999
#
# number of rings (size 3 to 8) (size 9 to 14) (size 15 to 20)
#    0.000    2.000    0.000    6.857    0.000    2.857 
#    0.000    2.143    0.000    1.714    0.000    0.000 
#    0.000    0.000    0.000    0.000    0.000    0.000 
#
# Total GULP energy -78082.190367 kJ/mol
# GULP energy per Si atom -5577.299312 kJ/mol
# Density = 2.461830 g / cm^3
# Si number density = 24.674463 Si / 1000 Ang^3
#
#
#
# Elastic Constant Matrix: (Units=GPa)
#
#
# Indices 1 2 3 4 5 6 
#
# 1 120.0825 50.3149 47.3792 -16.1194 -41.7688 -19.1952
# 2 50.3149 120.7235 25.8203 -27.5095 -11.9853 -3.5953
# 3 47.3792 25.8203 69.0506 -14.0375 -14.2910 -5.9484
# 4 -16.1194 -27.5095 -14.0375 37.2630 15.9369 -1.2520
# 5 -41.7688 -11.9853 -14.2910 15.9369 20.1448 -6.7388
# 6 -19.1952 -3.5953 -5.9484 -1.2520 -6.7388 48.0862
#
#
#
# Elastic Compliance Matrix: (Units=1/GPa)
#
#
# Indices 1 2 3 4 5 6 
#
# 1 -0.051928 0.016852 0.006281 0.054986 -0.149467 -0.038207
# 2 0.016852 0.004913 -0.004671 -0.010621 0.047256 0.012862
# 3 0.006281 -0.004671 0.017679 -0.007183 0.031329 0.008549
# 4 0.054986 -0.010621 -0.007183 -0.011937 0.124552 0.037411
# 5 -0.149467 0.047256 0.031329 0.124552 -0.340838 -0.096779
# 6 -0.038207 0.012862 0.008549 0.037411 -0.096779 -0.005025
#
#
# Mechanical properties :
#
#
# Convention : Reuss Voigt Hill
#
# Bulk Modulus (GPa) = 131.77335 61.87614 96.82474
# Shear Modulus (GPa) = -11.86152 33.52161 10.83005
#
# Velocity S-wave (km/s) = -2.19491 3.68986 2.09731
# Velocity P-wave (km/s) = 6.86274 6.57912 6.72242
#
# Compressibility (1/GPa) = 0.00758879
#
# Stress axis : x y z
#
# Youngs Moduli (GPa) = -19.25748 203.53046 56.56462
#
# Poissons Ratio (x) = -3.42986 -0.35531
# Poissons Ratio (y) = 0.32452 0.26422
# Poissons Ratio (z) = 0.12097 0.95070
#
# Static dielectric constant tensor:
#      x y z
#    x 2.216000 0.077340 0.078290 
#    y 0.077340 1.852610 0.016900 
#    z 0.078290 0.016900 1.976660 
# 
# From -- ./inp_files/184234.got.cif
#   From: 2010.05.17/outbox.cif.g08.bks.cpg/sg2_93_cif.got.tgz:184234.got - 2010.06.03 11:33:40.
