data_PCOD9111702
_publ_section_title
;
Structure prediction by ZEFSAII (Michael W. Deem and Ramdas Pophale) SiO2 
 PCOD9111702
Probable space group: P -1
;
_chemical_formula_sum "Si O2"
_cell_formula_units_Z 14
_cell_length_a 8.889754
_cell_length_b 13.189623
_cell_length_c 9.338203
_cell_angle_alpha 54.442390
_cell_angle_beta 55.911368
_cell_angle_gamma 48.094453
_cell_volume 635.607305
_symmetry_space_group_name_H-M "P -1"
_symmetry_group_IT_number 2
_symmetry_cell_setting 'triclinic'
loop_
_space_group_symop_operation_xyz
x,y,z
-x,-y,-z
loop_
_atom_site_type_symbol
_atom_site_label
_atom_site_fract_x
_atom_site_fract_y
_atom_site_fract_z
Si Si1 0.855927 0.858035 0.524384
Si Si2 0.273661 0.366705 0.883134
Si Si3 0.401915 0.084410 0.127569
Si Si4 0.298222 0.613274 0.104168
Si Si5 0.867906 0.567198 0.785832
Si Si6 0.662482 0.347338 0.612977
Si Si7 0.227827 0.924527 0.867245
O O1 0.725860 0.948287 0.658708
O O2 0.800169 0.728558 0.636528
O O3 0.110801 0.766740 0.477404
O O4 0.789975 0.970820 0.338132
O O5 0.505363 0.285040 0.761647
O O6 0.109058 0.493736 0.768599
O O7 0.218865 0.242801 0.040299
O O8 0.256483 0.422814 0.008333
O O9 0.587620 0.089452 0.114638
O O10 0.500000 0.000000 0.000000
O O11 0.143888 0.549509 0.210975
O O12 0.306684 0.620910 0.265187
O O13 0.500000 0.500000 0.000000
O O14 0.260987 0.767215 0.941800
O O15 0.500000 0.500000 0.500000
O O16 0.000000 0.000000 0.000000
#
# Coordination Sequence:
#
# PCOD9111702 Si02
#       7
#     2   2   2   2   2   2   2
#     4  11  24  47  74 102 145 189 236 300 360 427
#     4  10  20  43  68  97 143 179 231 300 356 407
#     4  11  25  45  72 101 138 190 246 292 357 428
#     4  12  24  45  74 105 142 191 242 290 356 432
#     4  10  22  41  74 101 134 186 242 290 349 420
#     4  12  23  45  70 103 147 182 233 302 367 412
#     4  12  25  49  71 103 155 190 227 301 369 425
#
# _framework density 22.026178000000002
#
# number of rings (size 3 to 8) (size 9 to 14) (size 15 to 20)
#    0.000    0.857    5.714    1.286    2.000    0.571 
#    5.143    1.429    0.000    0.000    0.000    0.000 
#    0.000    0.000    0.000    0.000    0.000    0.000 
#
# Total GULP energy -77983.802892 kJ/mol
# GULP energy per Si atom -5570.271635 kJ/mol
# Density = 2.197605 g / cm^3
# Si number density = 22.026178 Si / 1000 Ang^3
#
#
#
# Elastic Constant Matrix: (Units=GPa)
#
#
# Indices 1 2 3 4 5 6 
#
# 1 63.9421 47.9087 49.8547 0.4183 -10.7752 -4.3666
# 2 47.9087 139.7460 65.4966 -2.1813 6.7771 -5.7399
# 3 49.8547 65.4966 146.5717 -13.3263 7.7892 -3.7544
# 4 0.4183 -2.1813 -13.3263 59.7424 -17.2419 -8.3516
# 5 -10.7752 6.7771 7.7892 -17.2419 30.9052 2.9880
# 6 -4.3666 -5.7399 -3.7544 -8.3516 2.9880 34.1391
#
#
#
# Elastic Compliance Matrix: (Units=1/GPa)
#
#
# Indices 1 2 3 4 5 6 
#
# 1 0.029326 -0.007290 -0.007269 0.002336 0.014862 0.000996
# 2 -0.007290 0.010978 -0.002260 -0.001466 -0.005272 0.000768
# 3 -0.007269 -0.002260 0.010648 0.001238 -0.004082 0.000521
# 4 0.002336 -0.001466 0.001238 0.021050 0.012154 0.004274
# 5 0.014862 -0.005272 -0.004082 0.012154 0.046556 -0.000536
# 6 0.000996 0.000768 0.000521 0.004274 -0.000536 0.030698
#
#
# Mechanical properties :
#
#
# Convention : Reuss Voigt Hill
#
# Bulk Modulus (GPa) = 57.75555 75.19775 66.47665
# Shear Modulus (GPa) = 26.50168 37.42399 31.96284
#
# Velocity S-wave (km/s) = 3.47247 4.12645 3.81350
# Velocity P-wave (km/s) = 6.50812 7.54438 7.04533
#
# Compressibility (1/GPa) = 0.01731435
#
# Stress axis : x y z
#
# Youngs Moduli (GPa) = 34.09897 91.08721 93.91657
#
# Poissons Ratio (x) = 0.66405 0.68270
# Poissons Ratio (y) = 0.24859 0.21221
# Poissons Ratio (z) = 0.24787 0.20582
#
# Static dielectric constant tensor:
#      x y z
#    x 1.907460 0.016610 -0.037370 
#    y 0.016610 1.860540 0.000010 
#    z -0.037370 0.000010 1.872140 
# 
# From -- ./inp_files/184773.got.cif
#   From: 2010.05.17/outbox.cif.g08.bks.cpg/sg2_93_cif.got.tgz:184773.got - 2010.06.03 11:33:40.
