data_PCOD9111630
_publ_section_title
;
Structure prediction by ZEFSAII (Michael W. Deem and Ramdas Pophale) SiO2 
 PCOD9111630
Probable space group: P -1
;
_chemical_formula_sum "Si O2"
_cell_formula_units_Z 16
_cell_length_a 9.749397
_cell_length_b 12.567818
_cell_length_c 16.111364
_cell_angle_alpha 36.373554
_cell_angle_beta 44.232737
_cell_angle_gamma 69.464153
_cell_volume 683.888083
_symmetry_space_group_name_H-M "P -1"
_symmetry_group_IT_number 2
_symmetry_cell_setting 'triclinic'
loop_
_space_group_symop_operation_xyz
x,y,z
-x,-y,-z
loop_
_atom_site_type_symbol
_atom_site_label
_atom_site_fract_x
_atom_site_fract_y
_atom_site_fract_z
Si Si1 0.722155 0.834698 0.741570
Si Si2 0.119328 0.036568 0.014725
Si Si3 0.954972 0.755914 0.819760
Si Si4 0.318488 0.503698 0.637426
Si Si5 0.691075 0.767063 0.609713
Si Si6 0.360292 0.862701 0.301359
Si Si7 0.003558 0.304897 0.579890
Si Si8 0.330515 0.664883 0.694313
O O1 0.741644 0.684033 0.894249
O O2 0.623114 0.740212 0.753204
O O3 0.632341 0.963483 0.749276
O O4 0.000000 0.000000 0.500000
O O5 0.148355 0.257674 0.892082
O O6 0.377474 0.076927 0.866298
O O7 0.993515 0.842137 0.256107
O O8 0.000000 0.000000 0.000000
O O9 0.177385 0.763207 0.679806
O O10 0.855219 0.578639 0.044528
O O11 0.066768 0.996399 0.649985
O O12 0.500000 0.500000 0.500000
O O13 0.219902 0.627532 0.554123
O O14 0.446042 0.650177 0.570084
O O15 0.505582 0.771007 0.627980
O O16 0.772987 0.621090 0.623997
O O17 0.226585 0.831153 0.293060
O O18 0.000000 0.500000 0.500000
#
# Coordination Sequence:
#
# PCOD9111630 Si02
#       8
#     2   2   2   2   2   2   2   2
#     4  10  20  43  67  95 132 175 225 276 347 402
#     4  11  26  46  66 101 136 180 231 283 342 408
#     4  10  22  44  64  96 135 172 225 280 340 404
#     4  10  23  41  67  93 133 173 224 277 337 399
#     4  11  24  42  70  95 134 177 227 282 336 413
#     4  11  23  44  73  95 137 184 223 286 344 405
#     4  12  26  43  69 102 137 179 232 277 345 417
#     4  11  24  40  67  98 131 178 225 282 338 403
#
# _framework density 23.395641000000001
#
# number of rings (size 3 to 8) (size 9 to 14) (size 15 to 20)
#    0.000    1.250    2.500    3.750    7.000    1.500 
#    4.500    0.000    0.000    0.000    0.000    0.000 
#    0.000    0.000    0.000    0.000    0.000    0.000 
#
# Total GULP energy -89368.366451 kJ/mol
# GULP energy per Si atom -5585.522903 kJ/mol
# Density = 2.334239 g / cm^3
# Si number density = 23.395641 Si / 1000 Ang^3
#
#
#
# Elastic Constant Matrix: (Units=GPa)
#
#
# Indices 1 2 3 4 5 6 
#
# 1 168.6752 81.3073 23.0824 2.1073 13.4010 13.2541
# 2 81.3073 172.6018 27.2200 5.4721 16.3128 13.1113
# 3 23.0824 27.2200 39.4818 -5.1468 11.7506 1.7515
# 4 2.1073 5.4721 -5.1468 31.7001 -5.5128 4.2683
# 5 13.4010 16.3128 11.7506 -5.5128 39.8085 -0.7186
# 6 13.2541 13.1113 1.7515 4.2683 -0.7186 38.0118
#
#
#
# Elastic Compliance Matrix: (Units=1/GPa)
#
#
# Indices 1 2 3 4 5 6 
#
# 1 0.007959 -0.003206 -0.002173 -0.000256 -0.000788 -0.001555
# 2 -0.003206 0.008157 -0.003478 -0.001841 -0.001516 -0.001357
# 3 -0.002173 -0.003478 0.031559 0.004759 -0.006503 -0.000154
# 4 -0.000256 -0.001841 0.004759 0.033791 0.004057 -0.003213
# 5 -0.000788 -0.001516 -0.006503 0.004057 0.028509 0.001181
# 6 -0.001555 -0.001357 -0.000154 -0.003213 0.001181 0.027708
#
#
# Mechanical properties :
#
#
# Convention : Reuss Voigt Hill
#
# Bulk Modulus (GPa) = 33.37608 71.55313 52.46461
# Shear Modulus (GPa) = 30.23250 38.51403 34.37326
#
# Velocity S-wave (km/s) = 3.59866 4.06175 3.83719
# Velocity P-wave (km/s) = 5.61819 7.25585 6.48889
#
# Compressibility (1/GPa) = 0.02996157
#
# Stress axis : x y z
#
# Youngs Moduli (GPa) = 125.63916 122.59160 31.68696
#
# Poissons Ratio (x) = 0.39303 0.06885
# Poissons Ratio (y) = 0.40280 0.11021
# Poissons Ratio (z) = 0.27300 0.42637
#
# Static dielectric constant tensor:
#      x y z
#    x 1.898350 0.018350 0.041690 
#    y 0.018350 1.932670 -0.006730 
#    z 0.041690 -0.006730 1.976660 
# 
# From -- ./inp_files/499851.got.cif
#   From: 2010.05.17/outbox.cif.g08.bks.cpg/sg2_250_cif.got.tgz:499851.got - 2010.06.03 11:33:40.
