data_PCOD9111120
_publ_section_title
;
Structure prediction by ZEFSAII (Michael W. Deem and Ramdas Pophale) SiO2 
 PCOD9111120
Probable space group: P -1
;
_chemical_formula_sum "Si O2"
_cell_formula_units_Z 14
_cell_length_a 7.805820
_cell_length_b 12.577942
_cell_length_c 9.624538
_cell_angle_alpha 55.810503
_cell_angle_beta 114.671369
_cell_angle_gamma 129.272190
_cell_volume 602.293046
_symmetry_space_group_name_H-M "P -1"
_symmetry_group_IT_number 2
_symmetry_cell_setting 'triclinic'
loop_
_space_group_symop_operation_xyz
x,y,z
-x,-y,-z
loop_
_atom_site_type_symbol
_atom_site_label
_atom_site_fract_x
_atom_site_fract_y
_atom_site_fract_z
Si Si1 0.544737 0.149339 0.982732
Si Si2 0.434940 0.995738 0.640205
Si Si3 0.524006 0.307576 0.507564
Si Si4 0.581768 0.536152 0.156908
Si Si5 0.021417 0.211013 0.465317
Si Si6 0.772362 0.462463 0.754634
Si Si7 0.117466 0.154408 0.839100
O O1 0.522162 0.108141 0.167757
O O2 0.769712 0.310682 0.907866
O O3 0.344018 0.168241 0.853616
O O4 0.500000 0.000000 0.000000
O O5 0.169335 0.918682 0.597931
O O6 0.500000 0.000000 0.500000
O O7 0.548067 0.163879 0.615414
O O8 0.611243 0.405459 0.325620
O O9 0.264569 0.248485 0.478900
O O10 0.655730 0.420113 0.595585
O O11 0.386431 0.531107 0.187123
O O12 0.799436 0.700304 0.140651
O O13 0.500000 0.500000 0.000000
O O14 0.024460 0.366000 0.322637
O O15 0.994650 0.164564 0.653558
O O16 0.000000 0.000000 0.000000
#
# Coordination Sequence:
#
# PCOD9111120 Si02
#       7
#     2   2   2   2   2   2   2
#     4  11  22  42  63  89 126 169 202 248 320 376
#     4  12  27  40  61  95 137 163 200 262 323 368
#     4  11  20  43  70  88 122 173 212 253 307 376
#     4  10  21  36  63  99 121 154 208 271 308 346
#     4  11  21  43  67  94 117 168 222 254 300 377
#     4  10  20  42  69  87 123 167 214 257 306 373
#     4  11  22  39  66  92 126 158 210 263 307 365
#
# _framework density 23.244498
#
# number of rings (size 3 to 8) (size 9 to 14) (size 15 to 20)
#    0.000    1.143    5.714    2.143    6.000    0.571 
#    2.571    2.143    0.000    0.000    0.000    0.000 
#    0.000    0.000    0.000    0.000    0.000    0.000 
#
# Total GULP energy -78217.546410 kJ/mol
# GULP energy per Si atom -5586.967601 kJ/mol
# Density = 2.319159 g / cm^3
# Si number density = 23.244498 Si / 1000 Ang^3
#
#
#
# Elastic Constant Matrix: (Units=GPa)
#
#
# Indices 1 2 3 4 5 6 
#
# 1 25.2637 -3.1524 -6.7296 2.6916 0.6664 -7.6438
# 2 -3.1524 106.2236 47.4997 -19.6098 -0.8399 -6.4231
# 3 -6.7296 47.4997 167.8502 -21.3454 -12.9806 -3.2341
# 4 2.6916 -19.6098 -21.3454 54.1329 1.3541 -2.2812
# 5 0.6664 -0.8399 -12.9806 1.3541 24.3848 -0.9035
# 6 -7.6438 -6.4231 -3.2341 -2.2812 -0.9035 22.4562
#
#
#
# Elastic Compliance Matrix: (Units=1/GPa)
#
#
# Indices 1 2 3 4 5 6 
#
# 1 0.045082 0.001490 0.001671 -0.000377 0.000322 0.015987
# 2 0.001490 0.011516 -0.002817 0.003171 -0.001184 0.003670
# 3 0.001671 -0.002817 0.007354 0.001752 0.003717 0.001150
# 4 -0.000377 0.003171 0.001752 0.020462 0.000031 0.003111
# 5 0.000322 -0.001184 0.003717 0.000031 0.043012 0.002040
# 6 0.015987 0.003670 0.001150 0.003111 0.002040 0.051586
#
#
# Mechanical properties :
#
#
# Convention : Reuss Voigt Hill
#
# Bulk Modulus (GPa) = 15.47003 41.61923 28.54463
# Shear Modulus (GPa) = 25.01618 37.64277 31.32947
#
# Velocity S-wave (km/s) = 3.28414 4.02858 3.67525
# Velocity P-wave (km/s) = 4.58809 6.29151 5.50607
#
# Compressibility (1/GPa) = 0.06464110
#
# Stress axis : x y z
#
# Youngs Moduli (GPa) = 22.18169 86.83701 135.97711
#
# Poissons Ratio (x) = -0.12942 -0.22717
# Poissons Ratio (y) = -0.03306 0.38300
# Poissons Ratio (z) = -0.03706 0.24459
#
# Static dielectric constant tensor:
#      x y z
#    x 1.942960 0.021550 -0.012160 
#    y 0.021550 1.882880 -0.066420 
#    z -0.012160 -0.066420 1.885690 
# 
# From -- ./inp_files/158808.got.cif
#   From: 2010.05.17/outbox.cif.g08.bks.cpg/sg2_80_cif.got.tgz:158808.got - 2010.06.03 11:33:40.
