data_PCOD9111330
_publ_section_title
;
Structure prediction by ZEFSAII (Michael W. Deem and Ramdas Pophale) SiO2 
 PCOD9111330
Probable space group: P -1
;
_chemical_formula_sum "Si O2"
_cell_formula_units_Z 15
_cell_length_a 13.597634
_cell_length_b 9.410411
_cell_length_c 12.327861
_cell_angle_alpha 106.290470
_cell_angle_beta 156.642912
_cell_angle_gamma 67.741468
_cell_volume 568.998492
_symmetry_space_group_name_H-M "P -1"
_symmetry_group_IT_number 2
_symmetry_cell_setting 'triclinic'
loop_
_space_group_symop_operation_xyz
x,y,z
-x,-y,-z
loop_
_atom_site_type_symbol
_atom_site_label
_atom_site_fract_x
_atom_site_fract_y
_atom_site_fract_z
Si Si1 0.186968 0.518131 0.291811
Si Si2 0.969497 0.716489 0.785831
Si Si3 0.737838 0.187350 0.063179
Si Si4 0.306888 0.743073 0.326837
Si Si5 0.000000 0.000000 0.500000
Si Si6 0.698312 0.598191 0.198518
Si Si7 0.514227 0.981699 0.692974
Si Si8 0.489246 0.851989 0.876865
O O1 0.210110 0.688990 0.331001
O O2 0.478505 0.404283 0.542123
O O3 0.092538 0.442289 0.282561
O O4 0.000000 0.500000 0.000000
O O5 0.176181 0.687906 0.891522
O O6 0.728212 0.862925 0.537563
O O7 0.073839 0.776512 0.013360
O O8 0.922473 0.110357 0.333662
O O9 0.447827 0.259776 0.835768
O O10 0.749745 0.053190 0.957236
O O11 0.464236 0.863225 0.531022
O O12 0.193046 0.858312 0.594448
O O13 0.000000 0.500000 0.500000
O O14 0.500000 0.500000 0.000000
O O15 0.668652 0.693002 0.075669
O O16 0.537545 0.896320 0.815119
O O17 0.500000 0.000000 0.000000
#
# Coordination Sequence:
#
# PCOD9111330 Si02
#       8
#     2   2   2   2   1   2   2   2
#     4   9  21  46  70  93 149 194 241 302 380 449
#     4  11  23  42  72 106 144 190 249 318 373 457
#     4  11  25  41  77 110 145 198 253 319 387 452
#     4  10  23  45  69 105 146 198 237 314 377 458
#     4  10  20  42  72  98 142 188 244 304 386 438
#     4  11  28  50  76 112 157 202 256 328 394 470
#     4  12  24  42  71 108 140 189 259 305 381 451
#     4  11  23  45  75 101 145 194 250 320 376 458
#
# _framework density 26.362107999999999
#
# number of rings (size 3 to 8) (size 9 to 14) (size 15 to 20)
#    0.000    1.333    4.000    1.200    5.600    4.267 
#    9.600    0.000    0.000    0.000    0.000    0.000 
#    0.000    0.000    0.000    0.000    0.000    0.000 
#
# Total GULP energy -83571.869691 kJ/mol
# GULP energy per Si atom -5571.457979 kJ/mol
# Density = 2.630211 g / cm^3
# Si number density = 26.362108 Si / 1000 Ang^3
#
#
#
# Elastic Constant Matrix: (Units=GPa)
#
#
# Indices 1 2 3 4 5 6 
#
# 1 81.9575 54.4180 39.2242 -7.7169 -12.6958 34.2991
# 2 54.4180 137.3502 55.8024 -4.2099 -20.3272 35.7118
# 3 39.2242 55.8024 134.6413 -39.4885 -16.0551 25.3804
# 4 -7.7169 -4.2099 -39.4885 45.8820 -0.6649 -10.0434
# 5 -12.6958 -20.3272 -16.0551 -0.6649 29.4838 7.2049
# 6 34.2991 35.7118 25.3804 -10.0434 7.2049 58.5583
#
#
#
# Elastic Compliance Matrix: (Units=1/GPa)
#
#
# Indices 1 2 3 4 5 6 
#
# 1 0.021094 -0.003750 -0.001840 -0.000529 0.008012 -0.010347
# 2 -0.003750 0.012269 -0.003239 -0.003346 0.006283 -0.005229
# 3 -0.001840 -0.003239 0.013244 0.010540 0.004783 -0.001468
# 4 -0.000529 -0.003346 0.010540 0.031112 0.003241 0.002720
# 5 0.008012 0.006283 0.004783 0.003241 0.048281 -0.015982
# 6 -0.010347 -0.005229 -0.001468 0.002720 -0.015982 0.029396
#
#
# Mechanical properties :
#
#
# Convention : Reuss Voigt Hill
#
# Bulk Modulus (GPa) = 34.54426 72.53760 53.54093
# Shear Modulus (GPa) = 27.36678 40.41845 33.89262
#
# Velocity S-wave (km/s) = 3.22547 3.91986 3.58950
# Velocity P-wave (km/s) = 5.19651 6.93272 6.12643
#
# Compressibility (1/GPa) = 0.02894837
#
# Stress axis : x y z
#
# Youngs Moduli (GPa) = 47.40779 81.50564 75.50713
#
# Poissons Ratio (x) = 0.30562 0.13895
# Poissons Ratio (y) = 0.17776 0.24458
# Poissons Ratio (z) = 0.08724 0.26401
#
# Static dielectric constant tensor:
#      x y z
#    x 2.143820 -0.039620 -0.020610 
#    y -0.039620 2.128360 0.058930 
#    z -0.020610 0.058930 2.264300 
# 
# From -- ./inp_files/336241.got.cif
#   From: 2010.05.17/outbox.cif.g08.bks.cpg/sg2_169_cif.got.tgz:336241.got - 2010.06.03 11:33:40.
