data_PCOD9111986
_publ_section_title
;
Structure prediction by ZEFSAII (Michael W. Deem and Ramdas Pophale) SiO2 
 PCOD9111986
Probable space group: P -1
;
_chemical_formula_sum "Si O2"
_cell_formula_units_Z 16
_cell_length_a 10.829801
_cell_length_b 12.864243
_cell_length_c 11.431332
_cell_angle_alpha 131.973054
_cell_angle_beta 38.669206
_cell_angle_gamma 118.489128
_cell_volume 736.296946
_symmetry_space_group_name_H-M "P -1"
_symmetry_group_IT_number 2
_symmetry_cell_setting 'triclinic'
loop_
_space_group_symop_operation_xyz
x,y,z
-x,-y,-z
loop_
_atom_site_type_symbol
_atom_site_label
_atom_site_fract_x
_atom_site_fract_y
_atom_site_fract_z
Si Si1 0.735750 0.152346 0.319719
Si Si2 0.185321 0.578418 0.178716
Si Si3 0.347246 0.087809 0.955830
Si Si4 0.316545 0.310050 0.762100
Si Si5 0.257552 0.874139 0.436521
Si Si6 0.876286 0.692594 0.857598
Si Si7 0.824413 0.989185 0.745869
Si Si8 0.040195 0.233586 0.700608
O O1 0.524742 0.236945 0.511515
O O2 0.720002 0.100232 0.424561
O O3 0.909605 0.252876 0.260121
O O4 0.774935 0.022363 0.105986
O O5 0.272367 0.707081 0.274660
O O6 0.111678 0.473646 0.252150
O O7 0.023554 0.648142 0.259373
O O8 0.328291 0.472403 0.913019
O O9 0.564610 0.072910 0.728719
O O10 0.242396 0.241972 0.117359
O O11 0.334982 0.046312 0.067965
O O12 0.149556 0.291333 0.774357
O O13 0.244527 0.248046 0.892138
O O14 0.040325 0.939043 0.606788
O O15 0.821309 0.887399 0.560523
O O16 0.848801 0.150541 0.815455
#
# Coordination Sequence:
#
# PCOD9111986 Si02
#       8
#     2   2   2   2   2   2   2   2
#     4  12  23  37  64  98 125 161 202 255 318 370
#     4   9  23  43  62  89 125 174 199 255 301 364
#     4  12  23  39  64 100 125 155 204 262 320 360
#     4  10  22  41  62  90 124 166 203 252 302 366
#     4  11  22  40  63  96 128 157 206 251 319 372
#     4  10  23  39  63  95 125 161 200 256 313 369
#     4  10  23  40  67  92 124 164 203 264 303 361
#     4  10  20  44  66  86 125 171 211 243 308 365
#
# _framework density 21.730364000000002
#
# number of rings (size 3 to 8) (size 9 to 14) (size 15 to 20)
#    0.750    0.750    2.500    2.625    1.750    2.500 
#    4.500   13.125    0.000    0.000    0.000    0.000 
#    0.000    0.000    0.000    0.000    0.000    0.000 
#
# Total GULP energy -89391.863405 kJ/mol
# GULP energy per Si atom -5586.991463 kJ/mol
# Density = 2.168090 g / cm^3
# Si number density = 21.730364 Si / 1000 Ang^3
#
#
#
# Elastic Constant Matrix: (Units=GPa)
#
#
# Indices 1 2 3 4 5 6 
#
# 1 50.0748 27.1139 7.7611 2.1410 7.4728 -18.6886
# 2 27.1139 89.6543 31.3247 0.9127 -3.2570 -14.5773
# 3 7.7611 31.3247 49.3572 -3.6401 5.5789 -3.6241
# 4 2.1410 0.9127 -3.6401 41.1789 -1.6768 -0.8235
# 5 7.4728 -3.2570 5.5789 -1.6768 36.9893 -1.4744
# 6 -18.6886 -14.5773 -3.6241 -0.8235 -1.4744 31.0950
#
#
#
# Elastic Compliance Matrix: (Units=1/GPa)
#
#
# Indices 1 2 3 4 5 6 
#
# 1 0.030264 -0.007659 0.001814 -0.001220 -0.006541 0.014467
# 2 -0.007659 0.017738 -0.010442 -0.000670 0.004762 0.002703
# 3 0.001814 -0.010442 0.027317 0.002318 -0.005333 -0.000813
# 4 -0.001220 -0.000670 0.002318 0.024605 0.000950 -0.000081
# 5 -0.006541 0.004762 -0.005333 0.000950 0.029587 -0.000892
# 6 0.014467 0.002703 -0.000813 -0.000081 -0.000892 0.041983
#
#
# Mechanical properties :
#
#
# Convention : Reuss Voigt Hill
#
# Bulk Modulus (GPa) = 23.39565 35.72064 29.55814
# Shear Modulus (GPa) = 22.90251 30.04509 26.47380
#
# Velocity S-wave (km/s) = 3.24997 3.72241 3.49418
# Velocity P-wave (km/s) = 4.98726 5.91176 5.46908
#
# Compressibility (1/GPa) = 0.04274299
#
# Stress axis : x y z
#
# Youngs Moduli (GPa) = 33.04267 56.37569 36.60773
#
# Poissons Ratio (x) = 0.43179 -0.06640
# Poissons Ratio (y) = 0.25308 0.38227
# Poissons Ratio (z) = -0.05993 0.58869
#
# Static dielectric constant tensor:
#      x y z
#    x 1.786730 -0.027660 -0.019620 
#    y -0.027660 1.821770 0.016630 
#    z -0.019620 0.016630 1.789710 
# 
# From -- ./inp_files/426378.got.cif
#   From: 2010.05.17/outbox.cif.g08.bks.cpg/sg2_214_cif.got.tgz:426378.got - 2010.06.03 11:33:40.
