data_PCOD9111338
_publ_section_title
;
Structure prediction by ZEFSAII (Michael W. Deem and Ramdas Pophale) SiO2 
 PCOD9111338
Probable space group: P -1
;
_chemical_formula_sum "Si O2"
_cell_formula_units_Z 14
_cell_length_a 17.367648
_cell_length_b 5.323436
_cell_length_c 6.818377
_cell_angle_alpha 108.677816
_cell_angle_beta 62.786571
_cell_angle_gamma 106.115950
_cell_volume 524.619589
_symmetry_space_group_name_H-M "P -1"
_symmetry_group_IT_number 2
_symmetry_cell_setting 'triclinic'
loop_
_space_group_symop_operation_xyz
x,y,z
-x,-y,-z
loop_
_atom_site_type_symbol
_atom_site_label
_atom_site_fract_x
_atom_site_fract_y
_atom_site_fract_z
Si Si1 0.774690 0.988436 0.168194
Si Si2 0.026959 0.251551 0.671362
Si Si3 0.970386 0.229415 0.124255
Si Si4 0.205856 0.422452 0.309392
Si Si5 0.696032 0.200186 0.968259
Si Si6 0.485294 0.685064 0.879373
Si Si7 0.667641 0.700169 0.580936
O O1 0.865683 0.150495 0.182294
O O2 0.712523 0.163158 0.168934
O O3 0.725737 0.812868 0.355896
O O4 0.796365 0.810464 0.911014
O O5 0.994740 0.531800 0.704735
O O6 0.129814 0.332996 0.528482
O O7 0.000000 0.000000 0.500000
O O8 0.015445 0.062498 0.845696
O O9 0.000000 0.500000 0.000000
O O10 0.289000 0.502082 0.380594
O O11 0.214577 0.669703 0.211696
O O12 0.615734 0.368768 0.084257
O O13 0.671456 0.933711 0.801725
O O14 0.565133 0.636151 0.632789
O O15 0.500000 0.500000 0.000000
O O16 0.500000 0.000000 0.000000
#
# Coordination Sequence:
#
# PCOD9111338 Si02
#       7
#     2   2   2   2   2   2   2
#     4  11  24  43  65 106 141 190 250 310 374 459
#     4  11  24  45  70 103 140 189 249 312 374 447
#     4  11  25  46  71 101 144 195 253 310 386 451
#     4  11  22  42  68 101 141 190 243 308 379 445
#     4  10  23  41  69  98 144 190 242 308 381 445
#     4  10  20  42  73 104 145 194 251 305 381 459
#     4  10  22  41  69  98 143 190 244 301 378 448
#
# _framework density 26.686004000000001
#
# number of rings (size 3 to 8) (size 9 to 14) (size 15 to 20)
#    0.000    1.429    2.857    1.714    0.000    6.857 
#    0.000    0.714    0.000    0.000    0.000    0.000 
#    0.000    0.000    0.000    0.000    0.000    0.000 
#
# Total GULP energy -77961.041124 kJ/mol
# GULP energy per Si atom -5568.645795 kJ/mol
# Density = 2.662527 g / cm^3
# Si number density = 26.686004 Si / 1000 Ang^3
#
#
#
# Elastic Constant Matrix: (Units=GPa)
#
#
# Indices 1 2 3 4 5 6 
#
# 1 82.3136 35.9473 13.4042 -8.7428 -2.3542 2.9527
# 2 35.9473 195.2772 47.6895 4.7918 21.1312 -18.9270
# 3 13.4042 47.6895 162.4845 -33.0553 8.5328 4.9942
# 4 -8.7428 4.7918 -33.0553 48.9234 10.1471 -2.5075
# 5 -2.3542 21.1312 8.5328 10.1471 43.8182 -10.6826
# 6 2.9527 -18.9270 4.9942 -2.5075 -10.6826 40.2456
#
#
#
# Elastic Compliance Matrix: (Units=1/GPa)
#
#
# Indices 1 2 3 4 5 6 
#
# 1 0.013783 -0.002975 0.000279 0.002628 0.001022 -0.002010
# 2 -0.002975 0.006736 -0.002169 -0.002138 -0.001745 0.003059
# 3 0.000279 -0.002169 0.008246 0.006245 -0.002565 -0.002356
# 4 0.002628 -0.002138 0.006245 0.026625 -0.006721 -0.002098
# 5 0.001022 -0.001745 -0.002565 -0.006721 0.027298 0.006250
# 6 -0.002010 0.003059 -0.002356 -0.002098 0.006250 0.028254
#
#
# Mechanical properties :
#
#
# Convention : Reuss Voigt Hill
#
# Bulk Modulus (GPa) = 52.53772 70.46194 61.49983
# Shear Modulus (GPa) = 39.36502 49.46639 44.41571
#
# Velocity S-wave (km/s) = 3.84489 4.31007 4.08411
# Velocity P-wave (km/s) = 6.28021 7.15754 6.73318
#
# Compressibility (1/GPa) = 0.01903394
#
# Stress axis : x y z
#
# Youngs Moduli (GPa) = 72.55291 148.45363 121.27785
#
# Poissons Ratio (x) = 0.44169 -0.03382
# Poissons Ratio (y) = 0.21587 0.26305
# Poissons Ratio (z) = -0.02024 0.32199
#
# Static dielectric constant tensor:
#      x y z
#    x 2.262710 0.390280 -0.164230 
#    y 0.390280 2.455110 0.011390 
#    z -0.164230 0.011390 1.813040 
# 
# From -- ./inp_files/11321.got.cif
#   From: 2010.05.17/outbox.cif.g08.bks.cpg/sg2_6_cif.got.tgz:11321.got - 2010.06.03 11:33:40.
