data_PCOD9111106
_publ_section_title
;
Structure prediction by ZEFSAII (Michael W. Deem and Ramdas Pophale) SiO2 
 PCOD9111106
Probable space group: P -1
;
_chemical_formula_sum "Si O2"
_cell_formula_units_Z 16
_cell_length_a 16.458825
_cell_length_b 13.280660
_cell_length_c 5.430616
_cell_angle_alpha 87.196915
_cell_angle_beta 80.821191
_cell_angle_gamma 32.278238
_cell_volume 617.427425
_symmetry_space_group_name_H-M "P -1"
_symmetry_group_IT_number 2
_symmetry_cell_setting 'triclinic'
loop_
_space_group_symop_operation_xyz
x,y,z
-x,-y,-z
loop_
_atom_site_type_symbol
_atom_site_label
_atom_site_fract_x
_atom_site_fract_y
_atom_site_fract_z
Si Si1 0.030971 0.703221 0.446060
Si Si2 0.078153 0.376532 0.727489
Si Si3 0.470854 0.183814 0.941071
Si Si4 0.363429 0.644909 0.357930
Si Si5 0.731822 0.415785 0.912025
Si Si6 0.742044 0.053604 0.898556
Si Si7 0.333851 0.255733 0.501324
Si Si8 0.848071 0.113260 0.181159
O O1 0.955494 0.706046 0.281055
O O2 0.101924 0.724839 0.266192
O O3 0.184297 0.489073 0.519575
O O4 0.898855 0.865818 0.690130
O O5 0.251981 0.237739 0.633032
O O6 0.000000 0.500000 0.500000
O O7 0.000000 0.500000 0.000000
O O8 0.636526 0.062442 0.946825
O O9 0.451366 0.163001 0.675468
O O10 0.344786 0.405252 0.971184
O O11 0.410091 0.178489 0.200371
O O12 0.500000 0.500000 0.500000
O O13 0.369301 0.527266 0.260526
O O14 0.366526 0.746023 0.194977
O O15 0.186342 0.840193 0.522972
O O16 0.735208 0.318735 0.104079
O O17 0.794770 0.059638 0.116572
O O18 0.000000 0.000000 0.000000
#
# Coordination Sequence:
#
# PCOD9111106 Si02
#       8
#     2   2   2   2   2   2   2   2
#     4  10  22  41  67  95 129 165 218 274 326 389
#     4  10  20  42  69 102 130 166 215 267 327 392
#     4  11  24  41  67  95 132 172 222 266 321 398
#     4  11  23  39  61  84 129 172 220 265 321 388
#     4  10  22  38  59  90 119 173 221 263 320 386
#     4  11  25  41  58  98 130 170 219 276 329 377
#     4  10  23  43  69  96 129 172 216 269 326 398
#     4  11  23  37  60  85 129 166 214 276 326 377
#
# _framework density 25.913972999999999
#
# number of rings (size 3 to 8) (size 9 to 14) (size 15 to 20)
#    0.000    1.500    0.000    5.250   10.500    4.000 
#    4.500    1.250    0.000    0.000    0.000    0.000 
#    0.000    0.000    0.000    0.000    0.000    0.000 
#
# Total GULP energy -89415.297040 kJ/mol
# GULP energy per Si atom -5588.456065 kJ/mol
# Density = 2.585499 g / cm^3
# Si number density = 25.913973 Si / 1000 Ang^3
#
#
#
# Elastic Constant Matrix: (Units=GPa)
#
#
# Indices 1 2 3 4 5 6 
#
# 1 120.5428 22.1550 68.9910 -11.0569 -31.4619 -0.9689
# 2 22.1550 89.6542 17.5954 7.4331 -2.8290 1.8878
# 3 68.9910 17.5954 142.5675 19.5245 -3.6216 -17.3328
# 4 -11.0569 7.4331 19.5245 40.4493 -6.0290 -8.4467
# 5 -31.4619 -2.8290 -3.6216 -6.0290 42.0955 12.9238
# 6 -0.9689 1.8878 -17.3328 -8.4467 12.9238 32.7029
#
#
#
# Elastic Compliance Matrix: (Units=1/GPa)
#
#
# Indices 1 2 3 4 5 6 
#
# 1 0.024086 -0.003480 -0.014104 0.014946 0.022220 -0.011482
# 2 -0.003480 0.012174 0.000583 -0.003924 -0.002084 -0.000687
# 3 -0.014104 0.000583 0.016317 -0.011694 -0.014070 0.010737
# 4 0.014946 -0.003924 -0.011694 0.037076 0.015897 -0.002234
# 5 0.022220 -0.002084 -0.014070 0.015897 0.047889 -0.021498
# 6 -0.011482 -0.000687 0.010737 -0.002234 -0.021498 0.043887
#
#
# Mechanical properties :
#
#
# Convention : Reuss Voigt Hill
#
# Bulk Modulus (GPa) = 53.84263 63.36080 58.60172
# Shear Modulus (GPa) = 22.56082 39.31774 30.93928
#
# Velocity S-wave (km/s) = 2.95380 3.89940 3.45907
# Velocity P-wave (km/s) = 5.69700 6.69159 6.21422
#
# Compressibility (1/GPa) = 0.01857264
#
# Stress axis : x y z
#
# Youngs Moduli (GPa) = 41.51797 82.14463 61.28564
#
# Poissons Ratio (x) = 0.28587 0.86440
# Poissons Ratio (y) = 0.14449 -0.03570
# Poissons Ratio (z) = 0.58559 -0.04785
#
# Static dielectric constant tensor:
#      x y z
#    x 1.990680 -0.043740 0.037730 
#    y -0.043740 2.072100 0.086160 
#    z 0.037730 0.086160 2.294340 
# 
# From -- ./inp_files/98250.got.cif
#   From: 2010.05.17/outbox.cif.g08.bks.cpg/sg2_50_cif.got.tgz:98250.got - 2010.06.03 11:33:40.
