data_PCOD9111640
_publ_section_title
;
Structure prediction by ZEFSAII (Michael W. Deem and Ramdas Pophale) SiO2 
 PCOD9111640
Probable space group: P -1
;
_chemical_formula_sum "Si O2"
_cell_formula_units_Z 16
_cell_length_a 10.217814
_cell_length_b 8.172443
_cell_length_c 14.427688
_cell_angle_alpha 126.239633
_cell_angle_beta 58.475915
_cell_angle_gamma 135.224100
_cell_volume 673.023156
_symmetry_space_group_name_H-M "P -1"
_symmetry_group_IT_number 2
_symmetry_cell_setting 'triclinic'
loop_
_space_group_symop_operation_xyz
x,y,z
-x,-y,-z
loop_
_atom_site_type_symbol
_atom_site_label
_atom_site_fract_x
_atom_site_fract_y
_atom_site_fract_z
Si Si1 0.972499 0.075006 0.185521
Si Si2 0.040735 0.268004 0.568989
Si Si3 0.218350 0.908933 0.559206
Si Si4 0.331463 0.280348 0.224294
Si Si5 0.121122 0.807556 0.934958
Si Si6 0.520438 0.314001 0.992342
Si Si7 0.864252 0.282445 0.823596
Si Si8 0.596921 0.356561 0.517780
O O1 0.839241 0.003730 0.300003
O O2 0.910925 0.166580 0.153196
O O3 0.181538 0.287187 0.218136
O O4 0.996323 0.871990 0.062000
O O5 0.961381 0.269430 0.498377
O O6 0.923580 0.282797 0.697293
O O7 0.263518 0.486453 0.565684
O O8 0.000000 0.000000 0.500000
O O9 0.313405 0.777283 0.516010
O O10 0.376791 0.141276 0.515497
O O11 0.382743 0.445328 0.350561
O O12 0.220027 0.988723 0.194269
O O13 0.507467 0.367434 0.122487
O O14 0.048614 0.524941 0.883728
O O15 0.337234 0.028868 0.950127
O O16 0.704506 0.330306 0.905188
O O17 0.500000 0.500000 0.000000
#
# Coordination Sequence:
#
# PCOD9111640 Si02
#       8
#     2   2   2   2   2   2   2   2
#     4  10  20  43  67  98 134 170 225 279 334 396
#     4  12  25  47  66  98 141 178 223 276 337 398
#     4  11  25  41  71  99 128 183 228 280 337 393
#     4  11  24  45  67  99 140 176 221 277 340 398
#     4  10  24  41  68 104 130 177 223 281 336 398
#     4  11  26  44  71 103 136 175 225 281 334 398
#     4  12  25  45  69  97 141 180 220 274 340 404
#     4  11  25  43  67 100 130 179 230 281 327 401
#
# _framework density 23.773326000000001
#
# number of rings (size 3 to 8) (size 9 to 14) (size 15 to 20)
#    0.000    1.000    2.500    3.750    7.000    4.500 
#    4.500    0.000    0.000    0.000    0.000    0.000 
#    0.000    0.000    0.000    0.000    0.000    0.000 
#
# Total GULP energy -89572.424052 kJ/mol
# GULP energy per Si atom -5598.276503 kJ/mol
# Density = 2.371922 g / cm^3
# Si number density = 23.773326 Si / 1000 Ang^3
#
#
#
# Elastic Constant Matrix: (Units=GPa)
#
#
# Indices 1 2 3 4 5 6 
#
# 1 42.1868 7.5829 18.9793 -9.4118 -5.3417 6.2056
# 2 7.5829 118.9293 36.3019 -12.6598 -17.7216 19.9300
# 3 18.9793 36.3019 137.2562 -36.3979 -12.9177 9.4559
# 4 -9.4118 -12.6598 -36.3979 46.7650 1.7739 -0.9638
# 5 -5.3417 -17.7216 -12.9177 1.7739 29.8144 -7.2640
# 6 6.2056 19.9300 9.4559 -0.9638 -7.2640 27.1738
#
#
#
# Elastic Compliance Matrix: (Units=1/GPa)
#
#
# Indices 1 2 3 4 5 6 
#
# 1 0.026467 0.000602 -0.002304 0.003494 0.002716 -0.004834
# 2 0.000602 0.010704 -0.001729 0.001389 0.004119 -0.006236
# 3 -0.002304 -0.001729 0.010165 0.006873 0.002342 -0.000873
# 4 0.003494 0.001389 0.006873 0.027676 0.002135 -0.002655
# 5 0.002716 0.004119 0.002342 0.002135 0.038825 0.005998
# 6 -0.004834 -0.006236 -0.000873 -0.002655 0.005998 0.044291
#
#
# Mechanical properties :
#
#
# Convention : Reuss Voigt Hill
#
# Bulk Modulus (GPa) = 24.70648 47.12229 35.91438
# Shear Modulus (GPa) = 28.01435 36.45119 32.23277
#
# Velocity S-wave (km/s) = 3.43650 3.91996 3.68616
# Velocity P-wave (km/s) = 5.11479 6.35237 5.76688
#
# Compressibility (1/GPa) = 0.04047522
#
# Stress axis : x y z
#
# Youngs Moduli (GPa) = 37.78320 93.41942 98.38113
#
# Poissons Ratio (x) = -0.05628 0.22666
# Poissons Ratio (y) = -0.02276 0.17009
# Poissons Ratio (z) = 0.08705 0.16151
#
# Static dielectric constant tensor:
#      x y z
#    x 1.888850 -0.011060 -0.004990 
#    y -0.011060 1.937260 -0.010730 
#    z -0.004990 -0.010730 1.871790 
# 
# From -- ./inp_files/516232.got.cif
#   From: 2010.05.17/outbox.cif.g08.bks.cpg/sg2_259_cif.got.tgz:516232.got - 2010.06.03 11:33:40.
