data_PCOD9111645
_publ_section_title
;
Structure prediction by ZEFSAII (Michael W. Deem and Ramdas Pophale) SiO2 
 PCOD9111645
Probable space group: P -1
;
_chemical_formula_sum "Si O2"
_cell_formula_units_Z 16
_cell_length_a 14.300239
_cell_length_b 8.956090
_cell_length_c 11.024558
_cell_angle_alpha 58.190876
_cell_angle_beta 105.256394
_cell_angle_gamma 140.629082
_cell_volume 733.351569
_symmetry_space_group_name_H-M "P -1"
_symmetry_group_IT_number 2
_symmetry_cell_setting 'triclinic'
loop_
_space_group_symop_operation_xyz
x,y,z
-x,-y,-z
loop_
_atom_site_type_symbol
_atom_site_label
_atom_site_fract_x
_atom_site_fract_y
_atom_site_fract_z
Si Si1 0.094946 0.579807 0.320989
Si Si2 0.277689 0.593601 0.554532
Si Si3 0.061046 0.404520 0.112633
Si Si4 0.749432 0.863789 0.764606
Si Si5 0.619950 0.329905 0.897561
Si Si6 0.953136 0.925934 0.157133
Si Si7 0.259183 0.889447 0.558687
Si Si8 0.478946 0.675539 0.394340
O O1 0.149576 0.504013 0.462638
O O2 0.082344 0.471534 0.233045
O O3 0.922054 0.399364 0.369262
O O4 0.213517 0.911930 0.233224
O O5 0.204370 0.389747 0.730401
O O6 0.345301 0.862365 0.522207
O O7 0.378826 0.614523 0.495390
O O8 0.223451 0.550519 0.066685
O O9 0.944941 0.097974 0.151448
O O10 0.000000 0.500000 0.000000
O O11 0.628776 0.532522 0.886659
O O12 0.723992 0.913076 0.602353
O O13 0.910976 0.991352 0.768559
O O14 0.599668 0.372465 0.735058
O O15 0.500000 0.000000 0.000000
O O16 0.000000 0.000000 0.000000
O O17 0.345422 0.013008 0.662828
O O18 0.500000 0.500000 0.500000
#
# Coordination Sequence:
#
# PCOD9111645 Si02
#       8
#     2   2   2   2   2   2   2   2
#     4  11  21  42  76 105 133 178 246 303 353 415
#     4  11  23  43  69 105 137 189 237 297 358 421
#     4  11  26  42  68 101 142 179 240 295 357 428
#     4  10  20  43  67  99 133 181 231 292 349 429
#     4  11  26  46  67  99 147 193 232 294 371 426
#     4  11  23  40  68 103 143 178 235 296 363 422
#     4  11  22  40  73 102 140 181 240 290 361 421
#     4  12  26  44  69 102 149 188 244 292 353 440
#
# _framework density 21.817640000000001
#
# number of rings (size 3 to 8) (size 9 to 14) (size 15 to 20)
#    0.000    1.000    5.000    1.875    3.500    1.500 
#    0.000    0.625    0.000    0.000    0.000    0.000 
#    0.000    0.000    0.000    0.000    0.000    0.000 
#
# Total GULP energy -89074.452718 kJ/mol
# GULP energy per Si atom -5567.153295 kJ/mol
# Density = 2.176798 g / cm^3
# Si number density = 21.817640 Si / 1000 Ang^3
#
#
#
# Elastic Constant Matrix: (Units=GPa)
#
#
# Indices 1 2 3 4 5 6 
#
# 1 94.7639 31.7262 32.1763 -13.3972 22.5557 -15.4904
# 2 31.7262 93.6738 37.2842 -1.7023 7.1648 -13.3870
# 3 32.1763 37.2842 87.8950 -12.8945 17.5154 -19.6105
# 4 -13.3972 -1.7023 -12.8945 32.9840 -2.6750 3.6258
# 5 22.5557 7.1648 17.5154 -2.6750 29.3399 2.3581
# 6 -15.4904 -13.3870 -19.6105 3.6258 2.3581 42.0664
#
#
#
# Elastic Compliance Matrix: (Units=1/GPa)
#
#
# Indices 1 2 3 4 5 6 
#
# 1 0.016002 -0.003671 -0.000305 0.004757 -0.011175 0.004798
# 2 -0.003671 0.013883 -0.005227 -0.002717 0.002245 0.000738
# 3 -0.000305 -0.005227 0.017738 0.005077 -0.009144 0.006569
# 4 0.004757 -0.002717 0.005077 0.033797 -0.002984 0.000508
# 5 -0.011175 0.002245 -0.009144 -0.002984 0.048125 -0.010104
# 6 0.004798 0.000738 0.006569 0.000508 -0.010104 0.029358
#
#
# Mechanical properties :
#
#
# Convention : Reuss Voigt Hill
#
# Bulk Modulus (GPa) = 34.22580 53.18958 43.70769
# Shear Modulus (GPa) = 26.73094 32.55446 29.64270
#
# Velocity S-wave (km/s) = 3.50408 3.86698 3.69000
# Velocity P-wave (km/s) = 5.66504 6.66109 6.18316
#
# Compressibility (1/GPa) = 0.02921773
#
# Stress axis : x y z
#
# Youngs Moduli (GPa) = 62.49188 72.02825 56.37457
#
# Poissons Ratio (x) = 0.26444 0.01721
# Poissons Ratio (y) = 0.22943 0.29465
# Poissons Ratio (z) = 0.01908 0.37646
#
# Static dielectric constant tensor:
#      x y z
#    x 1.833190 -0.082440 0.047990 
#    y -0.082440 2.031890 -0.088510 
#    z 0.047990 -0.088510 1.901040 
# 
# From -- ./inp_files/405680.got.cif
#   From: 2010.05.17/outbox.cif.g08.bks.cpg/sg2_203_cif.got.tgz:405680.got - 2010.06.03 11:33:40.
