data_PCOD9111051
_publ_section_title
;
Structure prediction by ZEFSAII (Michael W. Deem and Ramdas Pophale) SiO2 
 PCOD9111051
Probable space group: P -1
;
_chemical_formula_sum "Si O2"
_cell_formula_units_Z 16
_cell_length_a 8.915257
_cell_length_b 11.392433
_cell_length_c 12.634750
_cell_angle_alpha 108.360891
_cell_angle_beta 90.924884
_cell_angle_gamma 138.713772
_cell_volume 735.207914
_symmetry_space_group_name_H-M "P -1"
_symmetry_group_IT_number 2
_symmetry_cell_setting 'triclinic'
loop_
_space_group_symop_operation_xyz
x,y,z
-x,-y,-z
loop_
_atom_site_type_symbol
_atom_site_label
_atom_site_fract_x
_atom_site_fract_y
_atom_site_fract_z
Si Si1 0.237136 0.400221 0.984175
Si Si2 0.713558 0.086853 0.947983
Si Si3 0.390303 0.548948 0.456432
Si Si4 0.858855 0.161697 0.320046
Si Si5 0.354630 0.746465 0.142969
Si Si6 0.685075 0.315065 0.311719
Si Si7 0.199175 0.021340 0.512988
Si Si8 0.969771 0.304862 0.736046
O O1 0.984521 0.197477 0.991276
O O2 0.127053 0.356869 0.852796
O O3 0.500000 0.500000 0.000000
O O4 0.317080 0.578703 0.092495
O O5 0.787939 0.270310 0.953403
O O6 0.560079 0.899432 0.810875
O O7 0.500000 0.000000 0.000000
O O8 0.500000 0.500000 0.500000
O O9 0.349682 0.612670 0.573482
O O10 0.140808 0.337283 0.338206
O O11 0.549190 0.736686 0.431954
O O12 0.807707 0.273901 0.351894
O O13 0.826887 0.072527 0.406251
O O14 0.645970 0.963546 0.189708
O O15 0.254784 0.753534 0.246061
O O16 0.853753 0.496084 0.279108
O O17 0.144446 0.886490 0.381889
O O18 0.000000 0.000000 0.500000
#
# Coordination Sequence:
#
# PCOD9111051 Si02
#       8
#     2   2   2   2   2   2   2   2
#     4  11  24  42  68 100 135 179 233 285 352 417
#     4  10  20  42  68  95 131 176 225 287 344 405
#     4  12  24  43  62  95 138 179 219 276 340 408
#     4  11  25  42  65 100 131 174 230 272 336 406
#     4  10  23  41  65  96 131 176 226 281 338 413
#     4  11  23  41  68  98 131 172 231 281 334 413
#     4  12  25  43  68  97 140 181 219 283 353 407
#     4  11  23  44  70  96 135 185 223 286 351 404
#
# _framework density 21.762553
#
# number of rings (size 3 to 8) (size 9 to 14) (size 15 to 20)
#    0.000    1.000    2.500    5.625    3.500    2.000 
#    0.000    2.500    0.000    0.000    0.000    0.000 
#    0.000    0.000    0.000    0.000    0.000    0.000 
#
# Total GULP energy -89172.892795 kJ/mol
# GULP energy per Si atom -5573.305800 kJ/mol
# Density = 2.171302 g / cm^3
# Si number density = 21.762553 Si / 1000 Ang^3
#
#
#
# Elastic Constant Matrix: (Units=GPa)
#
#
# Indices 1 2 3 4 5 6 
#
# 1 113.7720 33.7063 24.4788 18.4748 13.1706 11.1801
# 2 33.7063 147.8440 18.4721 16.9781 14.4329 11.1720
# 3 24.4788 18.4721 47.6598 17.7776 9.2074 4.3379
# 4 18.4748 16.9781 17.7776 41.3862 1.4265 6.4460
# 5 13.1706 14.4329 9.2074 1.4265 29.2808 3.2624
# 6 11.1801 11.1720 4.3379 6.4460 3.2624 41.8702
#
#
#
# Elastic Compliance Matrix: (Units=1/GPa)
#
#
# Indices 1 2 3 4 5 6 
#
# 1 0.010808 -0.001361 -0.003420 -0.002456 -0.002821 -0.001571
# 2 -0.001361 0.007760 -0.000984 -0.001888 -0.002688 -0.001105
# 3 -0.003420 -0.000984 0.028023 -0.009935 -0.006337 0.000296
# 4 -0.002456 -0.001888 -0.009935 0.030605 0.003984 -0.002833
# 5 -0.002821 -0.002688 -0.006337 0.003984 0.038712 -0.001503
# 6 -0.001571 -0.001105 0.000296 -0.002833 -0.001503 0.025120
#
#
# Mechanical properties :
#
#
# Convention : Reuss Voigt Hill
#
# Bulk Modulus (GPa) = 28.52173 51.39892 39.96033
# Shear Modulus (GPa) = 30.44224 38.01535 34.22880
#
# Velocity S-wave (km/s) = 3.74416 4.18404 3.97019
# Velocity P-wave (km/s) = 5.64145 6.85645 6.27841
#
# Compressibility (1/GPa) = 0.03506098
#
# Stress axis : x y z
#
# Youngs Moduli (GPa) = 92.52309 128.86766 35.68473
#
# Poissons Ratio (x) = 0.17535 0.12204
# Poissons Ratio (y) = 0.12590 0.03513
# Poissons Ratio (z) = 0.31642 0.12686
#
# Static dielectric constant tensor:
#      x y z
#    x 1.799830 0.084640 0.042530 
#    y 0.084640 1.778180 -0.018020 
#    z 0.042530 -0.018020 1.829180 
# 
# From -- ./inp_files/500571.got.cif
#   From: 2010.05.17/outbox.cif.g08.bks.cpg/sg2_251_cif.got.tgz:500571.got - 2010.06.03 11:33:40.
