data_PCOD9111399
_publ_section_title
;
Structure prediction by ZEFSAII (Michael W. Deem and Ramdas Pophale) SiO2 
 PCOD9111399
Probable space group: P -1
;
_chemical_formula_sum "Si O2"
_cell_formula_units_Z 14
_cell_length_a 11.758560
_cell_length_b 8.714092
_cell_length_c 7.763629
_cell_angle_alpha 127.775981
_cell_angle_beta 92.210074
_cell_angle_gamma 68.501572
_cell_volume 566.022677
_symmetry_space_group_name_H-M "P -1"
_symmetry_group_IT_number 2
_symmetry_cell_setting 'triclinic'
loop_
_space_group_symop_operation_xyz
x,y,z
-x,-y,-z
loop_
_atom_site_type_symbol
_atom_site_label
_atom_site_fract_x
_atom_site_fract_y
_atom_site_fract_z
Si Si1 0.676175 0.874128 0.167174
Si Si2 0.615128 0.175942 0.653765
Si Si3 0.923312 0.358644 0.363694
Si Si4 0.890203 0.445225 0.019366
Si Si5 0.466186 0.345241 0.120554
Si Si6 0.860283 0.053398 0.751363
Si Si7 0.276040 0.784616 0.777405
O O1 0.760374 0.654031 0.121267
O O2 0.613984 0.791899 0.954886
O O3 0.581172 0.051855 0.415613
O O4 0.755320 0.997480 0.181656
O O5 0.531400 0.251627 0.872922
O O6 0.758755 0.014932 0.604441
O O7 0.609679 0.398668 0.732021
O O8 0.918818 0.373106 0.167727
O O9 0.782629 0.374187 0.405641
O O10 0.000000 0.500000 0.500000
O O11 0.012401 0.139547 0.314011
O O12 0.886348 0.238443 0.788424
O O13 0.000000 0.500000 0.000000
O O14 0.574922 0.309748 0.240548
O O15 0.784381 0.144074 0.987779
#
# Coordination Sequence:
#
# PCOD9111399 Si02
#       7
#     2   2   2   2   2   2   2
#     4  12  22  40  66 101 126 167 220 259 319 377
#     4  10  22  39  67  95 125 169 217 264 306 390
#     4  11  23  41  62  92 127 167 216 263 322 377
#     4  11  22  38  66  93 126 170 212 263 321 376
#     4  10  22  44  63  91 136 170 208 261 329 368
#     4  10  20  43  61  86 130 170 206 263 327 374
#     4  10  23  41  63  90 130 169 209 263 317 387
#
# _framework density 24.733993999999999
#
# number of rings (size 3 to 8) (size 9 to 14) (size 15 to 20)
#    0.000    1.429    1.429    5.143    2.000    1.714 
#    7.714    2.857    0.000    0.000    0.000    0.000 
#    0.000    0.000    0.000    0.000    0.000    0.000 
#
# Total GULP energy -78144.319381 kJ/mol
# GULP energy per Si atom -5581.737099 kJ/mol
# Density = 2.467770 g / cm^3
# Si number density = 24.733994 Si / 1000 Ang^3
#
#
#
# Elastic Constant Matrix: (Units=GPa)
#
#
# Indices 1 2 3 4 5 6 
#
# 1 112.4016 32.4168 44.6484 8.2264 37.7671 9.1421
# 2 32.4168 107.9124 29.3288 15.2340 11.8433 -5.2556
# 3 44.6484 29.3288 79.2348 11.7059 28.8385 -2.1137
# 4 8.2264 15.2340 11.7059 28.2703 8.4917 6.0578
# 5 37.7671 11.8433 28.8385 8.4917 37.1635 1.1286
# 6 9.1421 -5.2556 -2.1137 6.0578 1.1286 51.2889
#
#
#
# Elastic Compliance Matrix: (Units=1/GPa)
#
#
# Indices 1 2 3 4 5 6 
#
# 1 0.015410 -0.002861 -0.003588 0.003014 -0.012554 -0.003268
# 2 -0.002861 0.011453 -0.002681 -0.005448 0.002517 0.002161
# 3 -0.003588 -0.002681 0.019871 -0.003030 -0.010281 0.001768
# 4 0.003014 -0.005448 -0.003030 0.042541 -0.008512 -0.006058
# 5 -0.012554 0.002517 -0.010281 -0.008512 0.048726 0.002005
# 6 -0.003268 0.002161 0.001768 -0.006058 0.002005 0.021046
#
#
# Mechanical properties :
#
#
# Convention : Reuss Voigt Hill
#
# Bulk Modulus (GPa) = 35.11778 56.92630 46.02204
# Shear Modulus (GPa) = 26.76679 36.22152 31.49416
#
# Velocity S-wave (km/s) = 3.29323 3.83096 3.57222
# Velocity P-wave (km/s) = 5.35626 6.52945 5.97173
#
# Compressibility (1/GPa) = 0.02847560
#
# Stress axis : x y z
#
# Youngs Moduli (GPa) = 64.89124 87.31390 50.32355
#
# Poissons Ratio (x) = 0.24980 0.18055
# Poissons Ratio (y) = 0.18565 0.13490
# Poissons Ratio (z) = 0.23282 0.23406
#
# Static dielectric constant tensor:
#      x y z
#    x 2.112240 -0.013170 0.081460 
#    y -0.013170 1.956180 -0.013480 
#    z 0.081460 -0.013480 2.030100 
# 
# From -- ./inp_files/241570.got.cif
#   From: 2010.05.17/outbox.cif.g08.bks.cpg/sg2_121_cif.got.tgz:241570.got - 2010.06.03 11:33:40.
