data_PCOD9111573
_publ_section_title
;
Structure prediction by ZEFSAII (Michael W. Deem and Ramdas Pophale) SiO2 
 PCOD9111573
Probable space group: P -1
;
_chemical_formula_sum "Si O2"
_cell_formula_units_Z 16
_cell_length_a 7.110304
_cell_length_b 16.607585
_cell_length_c 9.828621
_cell_angle_alpha 117.026047
_cell_angle_beta 94.134118
_cell_angle_gamma 43.090033
_cell_volume 638.718840
_symmetry_space_group_name_H-M "P -1"
_symmetry_group_IT_number 2
_symmetry_cell_setting 'triclinic'
loop_
_space_group_symop_operation_xyz
x,y,z
-x,-y,-z
loop_
_atom_site_type_symbol
_atom_site_label
_atom_site_fract_x
_atom_site_fract_y
_atom_site_fract_z
Si Si1 0.271982 0.118758 0.459076
Si Si2 0.778555 0.199981 0.639427
Si Si3 0.167321 0.039603 0.801306
Si Si4 0.322719 0.661294 0.834277
Si Si5 0.019678 0.370995 0.152627
Si Si6 0.211915 0.339948 0.581869
Si Si7 0.475370 0.773176 0.764957
Si Si8 0.749677 0.512943 0.999085
O O1 0.115856 0.277061 0.578660
O O2 0.987875 0.159548 0.499020
O O3 0.500000 0.000000 0.500000
O O4 0.503092 0.041977 0.284535
O O5 0.542278 0.219573 0.579023
O O6 0.544319 0.358415 0.821015
O O7 0.982626 0.090699 0.691719
O O8 0.211273 0.933075 0.810778
O O9 0.964729 0.183304 0.988673
O O10 0.202763 0.607102 0.752350
O O11 0.404184 0.697685 0.744167
O O12 0.595696 0.556575 0.879023
O O13 0.941579 0.506426 0.274978
O O14 0.943502 0.370911 0.992505
O O15 0.372636 0.233826 0.103347
O O16 0.266725 0.320283 0.409320
O O17 0.000000 0.500000 0.000000
#
# Coordination Sequence:
#
# PCOD9111573 Si02
#       8
#     2   2   2   2   2   2   2   2
#     4   9  19  39  64  92 127 163 212 266 313 371
#     4   9  20  40  67  96 123 166 214 268 325 366
#     4   9  21  41  63  95 128 167 219 265 317 379
#     4  11  23  42  65  94 131 169 213 265 323 392
#     4  11  24  41  62  94 130 168 214 261 327 381
#     4  10  23  41  64  96 128 170 218 267 313 382
#     4  11  23  40  64  89 134 172 215 263 317 385
#     4  10  20  43  66  94 127 164 212 264 322 385
#
# _framework density 25.050146999999999
#
# number of rings (size 3 to 8) (size 9 to 14) (size 15 to 20)
#    0.000    2.000    1.250    1.125    0.000    9.500 
#   13.500    3.750    0.000    0.000    0.000    0.000 
#    0.000    0.000    0.000    0.000    0.000    0.000 
#
# Total GULP energy -89276.936278 kJ/mol
# GULP energy per Si atom -5579.808517 kJ/mol
# Density = 2.499313 g / cm^3
# Si number density = 25.050147 Si / 1000 Ang^3
#
#
#
# Elastic Constant Matrix: (Units=GPa)
#
#
# Indices 1 2 3 4 5 6 
#
# 1 101.3224 36.5114 6.5960 -2.2824 -13.8726 19.5886
# 2 36.5114 130.5127 30.4851 -7.8470 -1.4586 19.9598
# 3 6.5960 30.4851 60.9202 6.5428 -11.7651 0.6068
# 4 -2.2824 -7.8470 6.5428 24.9731 2.1708 -10.5436
# 5 -13.8726 -1.4586 -11.7651 2.1708 30.3288 -1.3218
# 6 19.5886 19.9598 0.6068 -10.5436 -1.3218 45.9467
#
#
#
# Elastic Compliance Matrix: (Units=1/GPa)
#
#
# Indices 1 2 3 4 5 6 
#
# 1 0.012630 -0.003407 0.001914 -0.002827 0.006367 -0.004396
# 2 -0.003407 0.010572 -0.006056 0.003973 -0.003782 -0.002257
# 3 0.001914 -0.006056 0.022018 -0.008393 0.009721 -0.000123
# 4 -0.002827 0.003973 -0.008393 0.048288 -0.007358 0.010459
# 5 0.006367 -0.003782 0.009721 -0.007358 0.039924 -0.001740
# 6 -0.004396 -0.002257 -0.000123 0.010459 -0.001740 0.026970
#
#
# Mechanical properties :
#
#
# Convention : Reuss Voigt Hill
#
# Bulk Modulus (GPa) = 33.19723 48.88225 41.03974
# Shear Modulus (GPa) = 26.94832 34.86057 30.90444
#
# Velocity S-wave (km/s) = 3.28346 3.73450 3.51622
# Velocity P-wave (km/s) = 5.25889 6.17669 5.73617
#
# Compressibility (1/GPa) = 0.03012299
#
# Stress axis : x y z
#
# Youngs Moduli (GPa) = 79.17375 94.59366 45.41732
#
# Poissons Ratio (x) = 0.32230 -0.08695
# Poissons Ratio (y) = 0.26976 0.27504
# Poissons Ratio (z) = -0.15158 0.57284
#
# Static dielectric constant tensor:
#      x y z
#    x 2.023570 0.000990 -0.009870 
#    y 0.000990 2.037640 -0.009700 
#    z -0.009870 -0.009700 2.085090 
# 
# From -- ./inp_files/367857.got.cif
#   From: 2010.05.17/outbox.cif.g08.bks.cpg/sg2_184_cif.got.tgz:367857.got - 2010.06.03 11:33:40.
