data_PCOD9111163
_publ_section_title
;
Structure prediction by ZEFSAII (Michael W. Deem and Ramdas Pophale) SiO2 
 PCOD9111163
Probable space group: P -1
;
_chemical_formula_sum "Si O2"
_cell_formula_units_Z 16
_cell_length_a 5.558579
_cell_length_b 17.643045
_cell_length_c 9.044007
_cell_angle_alpha 128.820387
_cell_angle_beta 104.429483
_cell_angle_gamma 78.517041
_cell_volume 668.155101
_symmetry_space_group_name_H-M "P -1"
_symmetry_group_IT_number 2
_symmetry_cell_setting 'triclinic'
loop_
_space_group_symop_operation_xyz
x,y,z
-x,-y,-z
loop_
_atom_site_type_symbol
_atom_site_label
_atom_site_fract_x
_atom_site_fract_y
_atom_site_fract_z
Si Si1 0.819158 0.296367 0.354015
Si Si2 0.981367 0.420891 0.274014
Si Si3 0.158063 0.415427 0.740009
Si Si4 0.112601 0.089981 0.209686
Si Si5 0.736356 0.655560 0.020746
Si Si6 0.758019 0.230102 0.790906
Si Si7 0.495605 0.232005 0.442705
Si Si8 0.784754 0.017564 0.607753
O O1 0.880631 0.331952 0.243892
O O2 0.548572 0.274628 0.340763
O O3 0.902588 0.376190 0.585919
O O4 0.954478 0.191030 0.281537
O O5 0.805921 0.479584 0.198707
O O6 0.000000 0.500000 0.500000
O O7 0.239776 0.397477 0.198363
O O8 0.189167 0.416410 0.920760
O O9 0.334190 0.323929 0.599297
O O10 0.383953 0.128146 0.264372
O O11 0.137551 0.054451 0.337043
O O12 0.000000 0.000000 0.000000
O O13 0.480533 0.710525 0.099558
O O14 0.975975 0.722151 0.120685
O O15 0.686285 0.211414 0.584065
O O16 0.786934 0.132876 0.774345
O O17 0.500000 0.000000 0.500000
O O18 0.000000 0.000000 0.500000
#
# Coordination Sequence:
#
# PCOD9111163 Si02
#       8
#     2   2   2   2   2   2   2   2
#     4  10  21  43  65  93 142 186 235 292 369 425
#     4  10  23  45  66 101 143 189 236 292 367 444
#     4   9  20  40  69  96 134 178 241 294 356 422
#     4  11  26  44  65 102 146 189 238 295 370 437
#     4  11  23  45  71 104 140 185 242 303 363 422
#     4  11  23  43  74 106 139 186 246 307 354 428
#     4  10  20  42  69  98 135 191 235 302 364 425
#     4  12  25  45  75 107 141 189 249 301 361 432
#
# _framework density 23.946538
#
# number of rings (size 3 to 8) (size 9 to 14) (size 15 to 20)
#    0.000    1.500    2.500    1.875    3.500    1.000 
#   11.250    1.875    0.000    0.000    0.000    0.000 
#    0.000    0.000    0.000    0.000    0.000    0.000 
#
# Total GULP energy -89200.896663 kJ/mol
# GULP energy per Si atom -5575.056041 kJ/mol
# Density = 2.389203 g / cm^3
# Si number density = 23.946538 Si / 1000 Ang^3
#
#
#
# Elastic Constant Matrix: (Units=GPa)
#
#
# Indices 1 2 3 4 5 6 
#
# 1 93.3430 48.7627 49.9682 -4.3559 -9.3659 10.6450
# 2 48.7627 218.6759 53.9496 -15.0568 -16.0457 18.3063
# 3 49.9682 53.9496 98.9777 -8.6061 -16.3063 5.6213
# 4 -4.3559 -15.0568 -8.6061 45.9803 9.2714 -13.2248
# 5 -9.3659 -16.0457 -16.3063 9.2714 29.3458 -5.8351
# 6 10.6450 18.3063 5.6213 -13.2248 -5.8351 30.8527
#
#
#
# Elastic Compliance Matrix: (Units=1/GPa)
#
#
# Indices 1 2 3 4 5 6 
#
# 1 0.015606 -0.001547 -0.006948 -0.001419 -0.000036 -0.003816
# 2 -0.001547 0.005691 -0.002004 0.000564 0.000916 -0.002063
# 3 -0.006948 -0.002004 0.015568 0.001160 0.005423 0.002272
# 4 -0.001419 0.000564 0.001160 0.026057 -0.005739 0.010027
# 5 -0.000036 0.000916 0.005423 -0.005739 0.040109 0.003607
# 6 -0.003816 -0.002063 0.002272 0.010027 0.003607 0.039519
#
#
# Mechanical properties :
#
#
# Convention : Reuss Voigt Hill
#
# Bulk Modulus (GPa) = 63.02069 79.59527 71.30798
# Shear Modulus (GPa) = 29.61426 38.45684 34.03555
#
# Velocity S-wave (km/s) = 3.52046 4.01177 3.77412
# Velocity P-wave (km/s) = 6.54975 7.40068 6.98818
#
# Compressibility (1/GPa) = 0.01586780
#
# Stress axis : x y z
#
# Youngs Moduli (GPa) = 64.07818 175.71447 64.23233
#
# Poissons Ratio (x) = 0.27178 0.44629
# Poissons Ratio (y) = 0.09911 0.12872
# Poissons Ratio (z) = 0.44522 0.35214
#
# Static dielectric constant tensor:
#      x y z
#    x 2.113650 -0.007980 0.037530 
#    y -0.007980 1.903970 0.000960 
#    z 0.037530 0.000960 1.980700 
# 
# From -- ./inp_files/138074.got.cif
#   From: 2010.05.17/outbox.cif.g08.bks.cpg/sg2_70_cif.got.tgz:138074.got - 2010.06.03 11:33:40.
