data_PCOD9111033
_publ_section_title
;
Structure prediction by ZEFSAII (Michael W. Deem and Ramdas Pophale) SiO2 
 PCOD9111033
Probable space group: P -1
;
_chemical_formula_sum "Si O2"
_cell_formula_units_Z 16
_cell_length_a 17.842041
_cell_length_b 7.811306
_cell_length_c 7.577605
_cell_angle_alpha 52.947864
_cell_angle_beta 58.222942
_cell_angle_gamma 95.921257
_cell_volume 562.320756
_symmetry_space_group_name_H-M "P -1"
_symmetry_group_IT_number 2
_symmetry_cell_setting 'triclinic'
loop_
_space_group_symop_operation_xyz
x,y,z
-x,-y,-z
loop_
_atom_site_type_symbol
_atom_site_label
_atom_site_fract_x
_atom_site_fract_y
_atom_site_fract_z
Si Si1 0.597114 0.402141 0.790887
Si Si2 0.008208 0.466521 0.721595
Si Si3 0.240433 0.714045 0.977860
Si Si4 0.881399 0.700889 0.814251
Si Si5 0.572702 0.802030 0.366405
Si Si6 0.811245 0.925398 0.358455
Si Si7 0.391843 0.819027 0.439892
Si Si8 0.226768 0.021237 0.224543
O O1 0.568270 0.588003 0.625699
O O2 0.617353 0.253621 0.706966
O O3 0.713755 0.612730 0.616680
O O4 0.477413 0.141332 0.176946
O O5 0.137575 0.706230 0.464989
O O6 0.000000 0.500000 0.500000
O O7 0.935813 0.538170 0.874697
O O8 0.947595 0.150556 0.040674
O O9 0.210908 0.916545 0.860788
O O10 0.271040 0.680044 0.759572
O O11 0.355550 0.895351 0.825165
O O12 0.151309 0.388421 0.303648
O O13 0.808070 0.797065 0.921322
O O14 0.000000 0.000000 0.500000
O O15 0.452457 0.709728 0.523245
O O16 0.651117 0.860086 0.068192
O O17 0.776527 0.954417 0.577475
#
# Coordination Sequence:
#
# PCOD9111033 Si02
#       8
#     2   2   2   2   2   2   2   2
#     4  10  24  43  62  92 129 169 224 270 338 382
#     4  10  20  42  68  93 132 172 215 268 333 397
#     4  10  22  42  64  93 130 173 217 275 334 391
#     4   9  20  37  63  94 124 167 209 260 324 390
#     4  11  24  43  66  95 127 178 224 272 335 392
#     4  10  23  40  64  95 132 169 215 271 332 392
#     4  11  24  43  67  92 131 172 231 277 328 391
#     4  11  22  39  66  96 132 169 220 266 329 403
#
# _framework density 28.453513000000001
#
# number of rings (size 3 to 8) (size 9 to 14) (size 15 to 20)
#    0.000    1.750    0.000    4.125    5.250    3.000 
#    2.250    0.625    0.000    0.000    0.000    0.000 
#    0.000    0.000    0.000    0.000    0.000    0.000 
#
# Total GULP energy -89280.120054 kJ/mol
# GULP energy per Si atom -5580.007503 kJ/mol
# Density = 2.838875 g / cm^3
# Si number density = 28.453513 Si / 1000 Ang^3
#
#
#
# Elastic Constant Matrix: (Units=GPa)
#
#
# Indices 1 2 3 4 5 6 
#
# 1 83.4687 6.4059 3.2246 -8.9136 -8.8428 -9.3217
# 2 6.4059 121.8027 42.5422 -36.9316 1.9382 14.8716
# 3 3.2246 42.5422 134.9930 -32.2633 16.8635 -6.5948
# 4 -8.9136 -36.9316 -32.2633 78.8477 -0.4625 -20.0224
# 5 -8.8428 1.9382 16.8635 -0.4625 31.8834 -2.9403
# 6 -9.3217 14.8716 -6.5948 -20.0224 -2.9403 60.0361
#
#
#
# Elastic Compliance Matrix: (Units=1/GPa)
#
#
# Indices 1 2 3 4 5 6 
#
# 1 0.012988 -0.000495 -0.000020 0.002014 0.003949 0.003002
# 2 -0.000495 0.010355 -0.002623 0.003262 0.000500 -0.001818
# 3 -0.000020 -0.002623 0.009766 0.003404 -0.004720 0.002624
# 4 0.002014 0.003262 0.003404 0.017249 -0.000674 0.005598
# 5 0.003949 0.000500 -0.004720 -0.000674 0.035051 0.001463
# 6 0.003002 -0.001818 0.002624 0.005598 0.001463 0.019800
#
#
# Mechanical properties :
#
#
# Convention : Reuss Voigt Hill
#
# Bulk Modulus (GPa) = 37.26585 49.40108 43.33347
# Shear Modulus (GPa) = 41.51817 53.35955 47.43886
#
# Velocity S-wave (km/s) = 3.82404 4.33520 4.08762
# Velocity P-wave (km/s) = 5.71167 6.51601 6.12705
#
# Compressibility (1/GPa) = 0.02683422
#
# Stress axis : x y z
#
# Youngs Moduli (GPa) = 76.99444 96.56807 102.39310
#
# Poissons Ratio (x) = 0.04780 0.00200
# Poissons Ratio (y) = 0.03811 0.26860
# Poissons Ratio (z) = 0.00150 0.25332
#
# Static dielectric constant tensor:
#      x y z
#    x 2.441550 0.020920 -0.051930 
#    y 0.020920 2.459330 -0.187330 
#    z -0.051930 -0.187330 2.476350 
# 
# From -- ./inp_files/343320.got.cif
#   From: 2010.05.17/outbox.cif.g08.bks.cpg/sg2_172_cif.got.tgz:343320.got - 2010.06.03 11:33:40.
