data_PCOD9111402
_publ_section_title
;
Structure prediction by ZEFSAII (Michael W. Deem and Ramdas Pophale) SiO2 
 PCOD9111402
Probable space group: P -1
;
_chemical_formula_sum "Si O2"
_cell_formula_units_Z 16
_cell_length_a 6.618662
_cell_length_b 23.278491
_cell_length_c 14.892117
_cell_angle_alpha 158.586839
_cell_angle_beta 103.451419
_cell_angle_gamma 66.291967
_cell_volume 694.671844
_symmetry_space_group_name_H-M "P -1"
_symmetry_group_IT_number 2
_symmetry_cell_setting 'triclinic'
loop_
_space_group_symop_operation_xyz
x,y,z
-x,-y,-z
loop_
_atom_site_type_symbol
_atom_site_label
_atom_site_fract_x
_atom_site_fract_y
_atom_site_fract_z
Si Si1 0.136414 0.517190 0.707441
Si Si2 0.696451 0.554561 0.075449
Si Si3 0.928988 0.822113 0.773091
Si Si4 0.470609 0.661690 0.671176
Si Si5 0.178436 0.180665 0.554831
Si Si6 0.467471 0.436757 0.121428
Si Si7 0.424857 0.209722 0.952901
Si Si8 0.891121 0.126305 0.304369
O O1 0.121358 0.341050 0.478376
O O2 0.310168 0.431959 0.513804
O O3 0.267636 0.588892 0.890716
O O4 0.865108 0.689906 0.918533
O O5 0.622975 0.617644 0.055121
O O6 0.958373 0.369819 0.851229
O O7 0.500000 0.500000 0.000000
O O8 0.708602 0.727779 0.366260
O O9 0.207787 0.736669 0.709557
O O10 0.905660 0.911864 0.805068
O O11 0.791752 0.991535 0.075995
O O12 0.500000 0.500000 0.500000
O O13 0.488990 0.788074 0.932665
O O14 0.015223 0.109426 0.386993
O O15 0.401399 0.004079 0.368669
O O16 0.301329 0.659664 0.422235
O O17 0.452164 0.335594 0.062245
#
# Coordination Sequence:
#
# PCOD9111402 Si02
#       8
#     2   2   2   2   2   2   2   2
#     4  12  23  37  63  96 136 185 212 255 321 382
#     4  10  25  49  72  99 122 162 216 280 344 390
#     4  11  22  36  61  91 137 172 220 261 311 380
#     4  12  21  41  57  93 146 175 215 263 306 381
#     4  10  24  45  73  92 128 166 214 279 331 381
#     4  11  24  43  66  93 134 168 217 280 319 385
#     4  12  24  42  66  98 130 178 221 258 323 390
#     4  10  20  43  61  93 129 176 212 270 315 373
#
# _framework density 23.032461000000001
#
# number of rings (size 3 to 8) (size 9 to 14) (size 15 to 20)
#    0.000    1.000    6.250    0.375    1.750    3.000 
#    4.500    1.250    0.000    0.000    0.000    0.000 
#    0.000    0.000    0.000    0.000    0.000    0.000 
#
# Total GULP energy -89081.745717 kJ/mol
# GULP energy per Si atom -5567.609107 kJ/mol
# Density = 2.298004 g / cm^3
# Si number density = 23.032461 Si / 1000 Ang^3
#
#
#
# Elastic Constant Matrix: (Units=GPa)
#
#
# Indices 1 2 3 4 5 6 
#
# 1 102.4148 28.7075 19.3159 15.5735 2.6940 -11.7746
# 2 28.7075 78.1377 18.0762 7.6175 -6.1180 -8.8466
# 3 19.3159 18.0762 104.1173 33.9425 -0.3293 -7.5961
# 4 15.5735 7.6175 33.9425 39.9129 -7.7279 7.8834
# 5 2.6940 -6.1180 -0.3293 -7.7279 18.4366 -6.8336
# 6 -11.7746 -8.8466 -7.5961 7.8834 -6.8336 22.9130
#
#
#
# Elastic Compliance Matrix: (Units=1/GPa)
#
#
# Indices 1 2 3 4 5 6 
#
# 1 0.012553 -0.003676 0.001145 -0.007202 -0.003517 0.006840
# 2 -0.003676 0.015826 -0.001672 0.000213 0.008073 0.006002
# 3 0.001145 -0.001672 0.015560 -0.015935 -0.003598 0.009511
# 4 -0.007202 0.000213 -0.015935 0.048162 0.013024 -0.021588
# 5 -0.003517 0.008073 -0.003598 0.013024 0.068817 0.016159
# 6 0.006840 0.006002 0.009511 -0.021588 0.016159 0.064876
#
#
# Mechanical properties :
#
#
# Convention : Reuss Voigt Hill
#
# Bulk Modulus (GPa) = 28.14184 46.31878 37.23031
# Shear Modulus (GPa) = 20.32179 30.82386 25.57282
#
# Velocity S-wave (km/s) = 2.97359 3.66222 3.33572
# Velocity P-wave (km/s) = 4.90250 6.16736 5.57095
#
# Compressibility (1/GPa) = 0.03553427
#
# Stress axis : x y z
#
# Youngs Moduli (GPa) = 79.66455 63.18787 64.26817
#
# Poissons Ratio (x) = 0.23225 -0.07360
# Poissons Ratio (y) = 0.29281 0.10744
# Poissons Ratio (z) = -0.09124 0.10563
#
# Static dielectric constant tensor:
#      x y z
#    x 1.985750 -0.076590 -0.038560 
#    y -0.076590 2.176330 -0.122220 
#    z -0.038560 -0.122220 2.037520 
# 
# From -- ./inp_files/551410.got.cif
#   From: 2010.05.17/outbox.cif.g08.bks.cpg/sg2_276_cif.got.tgz:551410.got - 2010.06.03 11:33:40.
