data_PCOD9111230
_publ_section_title
;
Structure prediction by ZEFSAII (Michael W. Deem and Ramdas Pophale) SiO2 
 PCOD9111230
Probable space group: P -1
;
_chemical_formula_sum "Si O2"
_cell_formula_units_Z 14
_cell_length_a 8.026747
_cell_length_b 8.744861
_cell_length_c 11.784106
_cell_angle_alpha 63.127634
_cell_angle_beta 108.429671
_cell_angle_gamma 70.120706
_cell_volume 574.824442
_symmetry_space_group_name_H-M "P -1"
_symmetry_group_IT_number 2
_symmetry_cell_setting 'triclinic'
loop_
_space_group_symop_operation_xyz
x,y,z
-x,-y,-z
loop_
_atom_site_type_symbol
_atom_site_label
_atom_site_fract_x
_atom_site_fract_y
_atom_site_fract_z
Si Si1 0.884936 0.457124 0.619390
Si Si2 0.594762 0.239593 0.233325
Si Si3 0.263851 0.162864 0.187997
Si Si4 0.647339 0.747451 0.292028
Si Si5 0.471655 0.673939 0.062279
Si Si6 0.077191 0.764224 0.074514
Si Si7 0.751897 0.890395 0.557515
O O1 0.717763 0.543471 0.450957
O O2 0.848218 0.352544 0.750790
O O3 0.853841 0.667157 0.593978
O O4 0.122535 0.298772 0.673373
O O5 0.358938 0.295054 0.197507
O O6 0.633739 0.421867 0.179252
O O7 0.749059 0.050379 0.415132
O O8 0.582274 0.207267 0.107145
O O9 0.157593 0.139230 0.285353
O O10 0.472763 0.941034 0.265822
O O11 0.104509 0.249461 0.018817
O O12 0.542937 0.762050 0.145140
O O13 0.263315 0.691908 0.051138
O O14 0.000000 0.000000 0.000000
O O15 0.500000 0.000000 0.500000
#
# Coordination Sequence:
#
# PCOD9111230 Si02
#       7
#     2   2   2   2   2   2   2
#     4  11  25  43  70 100 134 177 229 267 338 403
#     4  10  23  43  70  94 137 179 218 274 335 402
#     4  11  23  44  73  95 132 183 224 272 332 399
#     4  11  24  44  71 101 131 177 226 281 327 393
#     4  11  25  42  65 103 140 170 220 280 339 388
#     4  12  26  40  64 102 137 171 218 279 334 392
#     4  10  20  42  70  96 127 175 227 270 321 399
#
# _framework density 24.355262
#
# number of rings (size 3 to 8) (size 9 to 14) (size 15 to 20)
#    0.000    1.143    4.286    2.571    2.000    7.429 
#    0.000    1.429    0.000    0.000    0.000    0.000 
#    0.000    0.000    0.000    0.000    0.000    0.000 
#
# Total GULP energy -78179.383423 kJ/mol
# GULP energy per Si atom -5584.241673 kJ/mol
# Density = 2.429983 g / cm^3
# Si number density = 24.355262 Si / 1000 Ang^3
#
#
#
# Elastic Constant Matrix: (Units=GPa)
#
#
# Indices 1 2 3 4 5 6 
#
# 1 55.9041 -4.8902 34.2688 -3.1554 -15.1589 -19.3210
# 2 -4.8902 96.2129 28.4770 2.0443 -13.5295 -15.8437
# 3 34.2688 28.4770 125.2417 8.5511 -56.0171 -18.0897
# 4 -3.1554 2.0443 8.5511 43.0704 -4.2357 -4.4044
# 5 -15.1589 -13.5295 -56.0171 -4.2357 52.2515 5.7618
# 6 -19.3210 -15.8437 -18.0897 -4.4044 5.7618 30.5705
#
#
#
# Elastic Compliance Matrix: (Units=1/GPa)
#
#
# Indices 1 2 3 4 5 6 
#
# 1 0.029740 0.006673 -0.006533 0.005252 0.001702 0.018824
# 2 0.006673 0.013309 -0.003095 0.001536 0.001165 0.009285
# 3 -0.006533 -0.003095 0.018242 -0.002163 0.016504 0.001639
# 4 0.005252 0.001536 -0.002163 0.024685 0.000918 0.006219
# 5 0.001702 0.001165 0.016504 0.000918 0.037198 0.004567
# 6 0.018824 0.009285 0.001639 0.006219 0.004567 0.050426
#
#
# Mechanical properties :
#
#
# Convention : Reuss Voigt Hill
#
# Bulk Modulus (GPa) = 18.05671 43.67444 30.86557
# Shear Modulus (GPa) = 25.25630 39.81203 32.53416
#
# Velocity S-wave (km/s) = 3.22374 4.04745 3.65885
# Velocity P-wave (km/s) = 4.61374 6.30981 5.52722
#
# Compressibility (1/GPa) = 0.05538109
#
# Stress axis : x y z
#
# Youngs Moduli (GPa) = 33.62468 75.13732 54.81848
#
# Poissons Ratio (x) = -0.50138 0.35814
# Poissons Ratio (y) = -0.22437 0.16964
# Poissons Ratio (z) = 0.21968 0.23252
#
# Static dielectric constant tensor:
#      x y z
#    x 1.923240 -0.015050 0.013500 
#    y -0.015050 2.078650 -0.137590 
#    z 0.013500 -0.137590 2.121980 
# 
# From -- ./inp_files/381401.got.cif
#   From: 2010.05.17/outbox.cif.g08.bks.cpg/sg2_191_cif.got.tgz:381401.got - 2010.06.03 11:33:40.
