data_PCOD9111890
_publ_section_title
;
Structure prediction by ZEFSAII (Michael W. Deem and Ramdas Pophale) SiO2 
 PCOD9111890
Probable space group: P -1
;
_chemical_formula_sum "Si O2"
_cell_formula_units_Z 14
_cell_length_a 11.876275
_cell_length_b 13.849715
_cell_length_c 4.921055
_cell_angle_alpha 115.945568
_cell_angle_beta 132.107724
_cell_angle_gamma 60.588397
_cell_volume 515.719606
_symmetry_space_group_name_H-M "P -1"
_symmetry_group_IT_number 2
_symmetry_cell_setting 'triclinic'
loop_
_space_group_symop_operation_xyz
x,y,z
-x,-y,-z
loop_
_atom_site_type_symbol
_atom_site_label
_atom_site_fract_x
_atom_site_fract_y
_atom_site_fract_z
Si Si1 0.972867 0.318135 0.100221
Si Si2 0.018852 0.884258 0.729166
Si Si3 0.651700 0.197206 0.809751
Si Si4 0.546927 0.596965 0.532769
Si Si5 0.330039 0.240782 0.666069
Si Si6 0.312979 0.027542 0.693821
Si Si7 0.859165 0.455346 0.599336
O O1 0.159449 0.307097 0.349421
O O2 0.964086 0.211127 0.129588
O O3 0.895028 0.420396 0.305242
O O4 0.885205 0.346986 0.707363
O O5 0.850391 0.911178 0.328538
O O6 0.188721 0.846730 0.808404
O O7 0.000000 0.000000 0.000000
O O8 0.608186 0.320516 0.760911
O O9 0.485919 0.201482 0.685910
O O10 0.687901 0.098115 0.527350
O O11 0.500000 0.500000 0.500000
O O12 0.683586 0.536170 0.466909
O O13 0.621307 0.679260 0.933315
O O14 0.297752 0.126585 0.572510
O O15 0.500000 0.000000 0.000000
O O16 0.000000 0.500000 0.000000
#
# Coordination Sequence:
#
# PCOD9111890 Si02
#       7
#     2   2   2   2   2   2   2
#     4  11  25  46  72 102 143 183 241 295 349 418
#     4   9  22  44  70 104 140 181 230 290 364 423
#     4  11  23  44  68  96 141 176 231 291 353 420
#     4  12  27  41  65  97 138 187 231 285 350 414
#     4  11  24  41  69 101 129 181 234 288 353 417
#     4  10  20  43  73  99 133 174 229 291 355 424
#     4  12  25  45  70 101 138 189 241 293 344 415
#
# _framework density 27.146533999999999
#
# number of rings (size 3 to 8) (size 9 to 14) (size 15 to 20)
#    0.000    1.143    2.857    2.571    4.000    0.571 
#    0.000    1.429    0.000    0.000    0.000    0.000 
#    0.000    0.000    0.000    0.000    0.000    0.000 
#
# Total GULP energy -78266.267904 kJ/mol
# GULP energy per Si atom -5590.447707 kJ/mol
# Density = 2.708475 g / cm^3
# Si number density = 27.146534 Si / 1000 Ang^3
#
#
#
# Elastic Constant Matrix: (Units=GPa)
#
#
# Indices 1 2 3 4 5 6 
#
# 1 134.8716 71.2250 24.3005 -18.1194 21.1707 -23.8073
# 2 71.2250 186.8192 42.5567 -28.5477 22.4187 -22.4127
# 3 24.3005 42.5567 82.5052 -18.1309 10.6486 -32.6692
# 4 -18.1194 -28.5477 -18.1309 58.6844 -11.7491 32.4335
# 5 21.1707 22.4187 10.6486 -11.7491 41.7048 -21.0308
# 6 -23.8073 -22.4127 -32.6692 32.4335 -21.0308 63.3830
#
#
#
# Elastic Compliance Matrix: (Units=1/GPa)
#
#
# Indices 1 2 3 4 5 6 
#
# 1 0.009813 -0.003193 -0.000297 0.000023 -0.002374 0.001605
# 2 -0.003193 0.007634 -0.002971 0.002500 -0.002018 -0.001980
# 3 -0.000297 -0.002971 0.016676 -0.000653 0.001469 0.008254
# 4 0.000023 0.002500 -0.000653 0.024746 -0.000387 -0.012235
# 5 -0.002374 -0.002018 0.001469 -0.000387 0.030571 0.009493
# 6 0.001605 -0.001980 0.008254 -0.012235 0.009493 0.029345
#
#
# Mechanical properties :
#
#
# Convention : Reuss Voigt Hill
#
# Bulk Modulus (GPa) = 47.16773 75.59559 61.38166
# Shear Modulus (GPa) = 36.02995 50.49536 43.26265
#
# Velocity S-wave (km/s) = 3.64708 4.31757 3.99641
# Velocity P-wave (km/s) = 5.92857 7.26381 6.62989
#
# Compressibility (1/GPa) = 0.02120094
#
# Stress axis : x y z
#
# Youngs Moduli (GPa) = 101.90668 131.00126 59.96679
#
# Poissons Ratio (x) = 0.41825 0.01779
# Poissons Ratio (y) = 0.32536 0.17818
# Poissons Ratio (z) = 0.03023 0.38925
#
# Static dielectric constant tensor:
#      x y z
#    x 2.185460 -0.008120 0.084730 
#    y -0.008120 1.835740 -0.257780 
#    z 0.084730 -0.257780 2.281290 
# 
# From -- ./inp_files/53698.got.cif
#   From: 2010.05.17/outbox.cif.g08.bks.cpg/sg2_27_cif.got.tgz:53698.got - 2010.06.03 11:33:40.
