data_PCOD9111786
_publ_section_title
;
Structure prediction by ZEFSAII (Michael W. Deem and Ramdas Pophale) SiO2 
 PCOD9111786
Probable space group: P -1
;
_chemical_formula_sum "Si O2"
_cell_formula_units_Z 14
_cell_length_a 7.390885
_cell_length_b 15.541985
_cell_length_c 9.542421
_cell_angle_alpha 129.898668
_cell_angle_beta 132.226726
_cell_angle_gamma 67.205868
_cell_volume 620.857763
_symmetry_space_group_name_H-M "P -1"
_symmetry_group_IT_number 2
_symmetry_cell_setting 'triclinic'
loop_
_space_group_symop_operation_xyz
x,y,z
-x,-y,-z
loop_
_atom_site_type_symbol
_atom_site_label
_atom_site_fract_x
_atom_site_fract_y
_atom_site_fract_z
Si Si1 0.495585 0.801397 0.548484
Si Si2 0.062061 0.798438 0.831213
Si Si3 0.428479 0.686487 0.690356
Si Si4 0.494898 0.038058 0.697517
Si Si5 0.972354 0.447231 0.777809
Si Si6 0.290468 0.275198 0.860698
Si Si7 0.252464 0.656513 0.019782
O O1 0.486944 0.758880 0.658075
O O2 0.335898 0.720228 0.273640
O O3 0.781000 0.806950 0.653797
O O4 0.413151 0.927539 0.626810
O O5 0.222981 0.737189 0.736574
O O6 0.231038 0.913110 0.066515
O O7 0.072510 0.727313 0.906985
O O8 0.295116 0.570614 0.445035
O O9 0.661471 0.686108 0.913795
O O10 0.326991 0.142902 0.734405
O O11 0.500000 0.000000 0.500000
O O12 0.055149 0.321884 0.718565
O O13 0.142647 0.530379 0.856686
O O14 0.000000 0.500000 0.000000
O O15 0.507575 0.337265 0.946132
#
# Coordination Sequence:
#
# PCOD9111786 Si02
#       7
#     2   2   2   2   2   2   2
#     4  12  21  41  71  94 131 177 212 264 332 384
#     4  10  24  41  67 100 132 167 219 267 325 390
#     4  10  25  41  63 101 132 163 227 266 316 393
#     4  10  20  43  70  96 130 169 218 263 325 397
#     4  12  24  41  67  93 132 173 218 269 327 377
#     4  10  24  43  64  96 132 166 218 277 315 391
#     4  10  22  42  64  96 126 174 221 260 326 390
#
# _framework density 22.549447000000001
#
# number of rings (size 3 to 8) (size 9 to 14) (size 15 to 20)
#    0.000    1.714    4.286    1.714    2.000    6.286 
#    0.000    0.714    0.000    0.000    0.000    0.000 
#    0.000    0.000    0.000    0.000    0.000    0.000 
#
# Total GULP energy -78224.828161 kJ/mol
# GULP energy per Si atom -5587.487726 kJ/mol
# Density = 2.249812 g / cm^3
# Si number density = 22.549447 Si / 1000 Ang^3
#
#
#
# Elastic Constant Matrix: (Units=GPa)
#
#
# Indices 1 2 3 4 5 6 
#
# 1 53.2195 25.6235 4.2231 -5.0789 -3.5051 12.5925
# 2 25.6235 105.0924 41.3370 -9.9203 6.9053 9.8274
# 3 4.2231 41.3370 131.1476 -13.7122 -5.3124 4.0703
# 4 -5.0789 -9.9203 -13.7122 28.3899 8.2022 -3.2930
# 5 -3.5051 6.9053 -5.3124 8.2022 29.4953 -10.9596
# 6 12.5925 9.8274 4.0703 -3.2930 -10.9596 42.7010
#
#
#
# Elastic Compliance Matrix: (Units=1/GPa)
#
#
# Indices 1 2 3 4 5 6 
#
# 1 0.022858 -0.005660 0.001456 0.001662 0.002008 -0.004933
# 2 -0.005660 0.013371 -0.003864 0.003341 -0.006321 -0.002405
# 3 0.001456 -0.003864 0.009160 0.002772 0.002081 0.000335
# 4 0.001662 0.003341 0.002772 0.041363 -0.012125 -0.001445
# 5 0.002008 -0.006321 0.002081 -0.012125 0.043408 0.010870
# 6 -0.004933 -0.002405 0.000335 -0.001445 0.010870 0.028074
#
#
# Mechanical properties :
#
#
# Convention : Reuss Voigt Hill
#
# Bulk Modulus (GPa) = 34.18475 47.98076 41.08276
# Shear Modulus (GPa) = 27.15634 34.66897 30.91265
#
# Velocity S-wave (km/s) = 3.47407 3.92531 3.70656
# Velocity P-wave (km/s) = 5.59330 6.47057 6.04786
#
# Compressibility (1/GPa) = 0.02925281
#
# Stress axis : x y z
#
# Youngs Moduli (GPa) = 43.74902 74.78926 109.17209
#
# Poissons Ratio (x) = 0.42327 -0.15896
# Poissons Ratio (y) = 0.24760 0.42188
# Poissons Ratio (z) = -0.06370 0.28901
#
# Static dielectric constant tensor:
#      x y z
#    x 1.851330 -0.038900 -0.003410 
#    y -0.038900 1.867180 0.012740 
#    z -0.003410 0.012740 1.842080 
# 
# From -- ./inp_files/204586.got.cif
#   From: 2010.05.17/outbox.cif.g08.bks.cpg/sg2_103_cif.got.tgz:204586.got - 2010.06.03 11:33:40.
