data_PCOD9111920
_publ_section_title
;
Structure prediction by ZEFSAII (Michael W. Deem and Ramdas Pophale) SiO2 
 PCOD9111920
Probable space group: P -1
;
_chemical_formula_sum "Si O2"
_cell_formula_units_Z 15
_cell_length_a 13.516255
_cell_length_b 8.977831
_cell_length_c 5.103137
_cell_angle_alpha 90.699080
_cell_angle_beta 81.651251
_cell_angle_gamma 86.847410
_cell_volume 611.631220
_symmetry_space_group_name_H-M "P -1"
_symmetry_group_IT_number 2
_symmetry_cell_setting 'triclinic'
loop_
_space_group_symop_operation_xyz
x,y,z
-x,-y,-z
loop_
_atom_site_type_symbol
_atom_site_label
_atom_site_fract_x
_atom_site_fract_y
_atom_site_fract_z
Si Si1 0.158046 0.214432 0.522940
Si Si2 0.032020 0.724989 0.101251
Si Si3 0.884492 0.125139 0.410382
Si Si4 0.652735 0.690915 0.340351
Si Si5 0.802389 0.522579 0.886549
Si Si6 0.500000 0.500000 0.500000
Si Si7 0.480497 0.899991 0.248060
Si Si8 0.687038 0.295050 0.550131
O O1 0.273070 0.195723 0.569640
O O2 0.163280 0.334431 0.289220
O O3 0.082058 0.289339 0.767746
O O4 0.123120 0.047221 0.518491
O O5 0.080531 0.799421 0.337075
O O6 0.101232 0.573713 0.043009
O O7 0.041654 0.830967 0.849198
O O8 0.777359 0.203690 0.367203
O O9 0.583553 0.612611 0.575027
O O10 0.565056 0.764261 0.199583
O O11 0.725581 0.579177 0.142609
O O12 0.741940 0.413428 0.714945
O O13 0.594796 0.373228 0.423644
O O14 0.373005 0.829174 0.275591
O O15 0.500000 0.000000 0.500000
O O16 0.500000 0.000000 0.000000
#
# Coordination Sequence:
#
# PCOD9111920 Si02
#       8
#     2   2   2   2   2   1   2   2
#     4  12  26  46  72 108 145 188 247 303 366 434
#     4  11  27  48  74 103 148 195 242 299 367 438
#     4  11  26  47  74 105 144 192 244 303 364 434
#     4  11  26  40  75  99 148 182 243 292 364 425
#     4  11  26  45  71 107 142 196 239 304 364 437
#     4  10  20  44  60 100 132 182 224 286 350 426
#     4  11  27  46  72 107 143 187 238 296 360 429
#     4  10  23  44  71 100 144 185 239 293 361 429
#
# _framework density 24.524583
#
# number of rings (size 3 to 8) (size 9 to 14) (size 15 to 20)
#    0.000    1.067    1.333    2.800    9.333    8.000 
#    0.000    0.000    0.000    0.000    0.000    0.000 
#    0.000    0.000    0.000    0.000    0.000    0.000 
#
# Total GULP energy -83570.851732 kJ/mol
# GULP energy per Si atom -5571.390115 kJ/mol
# Density = 2.446876 g / cm^3
# Si number density = 24.524583 Si / 1000 Ang^3
#
#
#
# Elastic Constant Matrix: (Units=GPa)
#
#
# Indices 1 2 3 4 5 6 
#
# 1 134.2706 45.7077 23.8832 0.4252 -29.7351 1.7338
# 2 45.7077 53.0920 32.6588 4.2571 -11.6961 1.7076
# 3 23.8832 32.6588 101.3248 -11.3261 -5.7068 23.5661
# 4 0.4252 4.2571 -11.3261 38.2115 6.4787 -10.8130
# 5 -29.7351 -11.6961 -5.7068 6.4787 29.1984 -1.8644
# 6 1.7338 1.7076 23.5661 -10.8130 -1.8644 48.3420
#
#
#
# Elastic Compliance Matrix: (Units=1/GPa)
#
#
# Indices 1 2 3 4 5 6 
#
# 1 0.012471 -0.008862 0.000397 -0.000654 0.009366 -0.000113
# 2 -0.008862 0.033997 -0.009989 -0.006620 0.004280 0.002671
# 3 0.000397 -0.009989 0.014738 0.004120 -0.002013 -0.006002
# 4 -0.000654 -0.006620 0.004120 0.031048 -0.009092 0.004843
# 5 0.009366 0.004280 -0.002013 -0.009092 0.047143 0.000279
# 6 -0.000113 0.002671 -0.006002 0.004843 0.000279 0.024616
#
#
# Mechanical properties :
#
#
# Convention : Reuss Voigt Hill
#
# Bulk Modulus (GPa) = 41.15256 54.79852 47.97554
# Shear Modulus (GPa) = 23.92104 35.57955 29.75029
#
# Velocity S-wave (km/s) = 3.12651 3.81303 3.48671
# Velocity P-wave (km/s) = 5.46351 6.46362 5.98450
#
# Compressibility (1/GPa) = 0.02429983
#
# Stress axis : x y z
#
# Youngs Moduli (GPa) = 80.18310 29.41428 67.85019
#
# Poissons Ratio (x) = 0.26067 -0.02697
# Poissons Ratio (y) = 0.71057 0.67776
# Poissons Ratio (z) = -0.03187 0.29382
#
# Static dielectric constant tensor:
#      x y z
#    x 1.905640 -0.010680 -0.003160 
#    y -0.010680 2.261030 -0.123220 
#    z -0.003160 -0.123220 1.966200 
# 
# From -- ./inp_files/90021.got.cif
#   From: 2010.05.17/outbox.cif.g08.bks.cpg/sg2_46_cif.got.tgz:90021.got - 2010.06.03 11:33:40.
