data_PCOD9111674
_publ_section_title
;
Structure prediction by ZEFSAII (Michael W. Deem and Ramdas Pophale) SiO2 
 PCOD9111674
Probable space group: P -1
;
_chemical_formula_sum "Si O2"
_cell_formula_units_Z 14
_cell_length_a 10.252676
_cell_length_b 10.070220
_cell_length_c 12.710198
_cell_angle_alpha 122.748074
_cell_angle_beta 123.346243
_cell_angle_gamma 30.575037
_cell_volume 550.500736
_symmetry_space_group_name_H-M "P -1"
_symmetry_group_IT_number 2
_symmetry_cell_setting 'triclinic'
loop_
_space_group_symop_operation_xyz
x,y,z
-x,-y,-z
loop_
_atom_site_type_symbol
_atom_site_label
_atom_site_fract_x
_atom_site_fract_y
_atom_site_fract_z
Si Si1 0.143162 0.199088 0.206023
Si Si2 0.218965 0.208863 0.019543
Si Si3 0.069588 0.131601 0.582746
Si Si4 0.731366 0.186577 0.172164
Si Si5 0.566157 0.602296 0.170624
Si Si6 0.440536 0.395195 0.353416
Si Si7 0.959281 0.311253 0.380129
O O1 0.317014 0.899851 0.153327
O O2 0.142718 0.251679 0.351968
O O3 0.832034 0.424446 0.148557
O O4 0.237057 0.219708 0.157040
O O5 0.162253 0.069013 0.919702
O O6 0.000000 0.500000 0.000000
O O7 0.500000 0.000000 0.000000
O O8 0.010548 0.267864 0.506286
O O9 0.870721 0.365300 0.678657
O O10 0.374657 0.888688 0.636747
O O11 0.000000 0.000000 0.500000
O O12 0.563239 0.416454 0.107947
O O13 0.554926 0.323278 0.257108
O O14 0.967300 0.116637 0.271277
O O15 0.664394 0.584057 0.324195
O O16 0.500000 0.500000 0.500000
#
# Coordination Sequence:
#
# PCOD9111674 Si02
#       7
#     2   2   2   2   2   2   2
#     4   9  20  36  56  82 112 148 186 240 288 340
#     4  12  27  44  59  79 111 161 211 236 266 328
#     4  10  17  26  48  84 124 144 168 204 286 377
#     4   9  21  37  57  88 119 152 183 241 286 343
#     4   8  18  31  58  83 115 137 179 224 315 339
#     4  10  18  29  50  81 126 139 175 215 290 362
#     4   8  19  30  57  86 121 142 172 228 303 350
#
# _framework density 25.431391999999999
#
# number of rings (size 3 to 8) (size 9 to 14) (size 15 to 20)
#    1.714    0.571    2.857    0.857    6.000    6.286 
#    0.000    0.000    0.000    0.000    0.000    6.000 
#    0.000    0.000    0.000    0.000    0.000    0.000 
#
# Total GULP energy -78059.735637 kJ/mol
# GULP energy per Si atom -5575.695403 kJ/mol
# Density = 2.537351 g / cm^3
# Si number density = 25.431392 Si / 1000 Ang^3
#
#
#
# Elastic Constant Matrix: (Units=GPa)
#
#
# Indices 1 2 3 4 5 6 
#
# 1 78.7253 57.1370 59.0856 -1.1947 -33.4000 12.9339
# 2 57.1370 172.1176 35.1811 22.1508 -11.8320 2.9915
# 3 59.0856 35.1811 67.8698 4.5776 -16.9191 11.0529
# 4 -1.1947 22.1508 4.5776 31.5254 10.8543 -2.2908
# 5 -33.4000 -11.8320 -16.9191 10.8543 58.9934 3.5578
# 6 12.9339 2.9915 11.0529 -2.2908 3.5578 43.2462
#
#
#
# Elastic Compliance Matrix: (Units=1/GPa)
#
#
# Indices 1 2 3 4 5 6 
#
# 1 0.065504 -0.012314 -0.044855 0.010005 0.020419 -0.008424
# 2 -0.012314 0.009506 0.005462 -0.007045 -0.002290 0.001444
# 3 -0.044855 0.005462 0.049438 -0.009799 -0.008353 0.000570
# 4 0.010005 -0.007045 -0.009799 0.040812 -0.006229 0.002674
# 5 0.020419 -0.002290 -0.008353 -0.006229 0.027188 -0.006380
# 6 -0.008424 0.001444 0.000570 0.002674 -0.006380 0.026064
#
#
# Mechanical properties :
#
#
# Convention : Reuss Voigt Hill
#
# Bulk Modulus (GPa) = 47.54351 69.05779 58.30065
# Shear Modulus (GPa) = 15.20051 37.90693 26.55372
#
# Velocity S-wave (km/s) = 2.44746 3.86496 3.23481
# Velocity P-wave (km/s) = 5.16934 6.86518 6.07671
#
# Compressibility (1/GPa) = 0.02103336
#
# Stress axis : x y z
#
# Youngs Moduli (GPa) = 15.26635 105.20181 20.22720
#
# Poissons Ratio (x) = 1.29545 0.90730
# Poissons Ratio (y) = 0.18799 -0.11048
# Poissons Ratio (z) = 0.68477 -0.57462
#
# Static dielectric constant tensor:
#      x y z
#    x 2.111570 -0.006640 0.053380 
#    y -0.006640 1.997200 -0.041220 
#    z 0.053380 -0.041220 2.128110 
# 
# From -- ./inp_files/495451.got.cif
#   From: 2010.05.17/outbox.cif.g08.bks.cpg/sg2_248_cif.got.tgz:495451.got - 2010.06.03 11:33:40.
