data_PCOD9111166
_publ_section_title
;
Structure prediction by ZEFSAII (Michael W. Deem and Ramdas Pophale) SiO2 
 PCOD9111166
Probable space group: P -1
;
_chemical_formula_sum "Si O2"
_cell_formula_units_Z 16
_cell_length_a 14.298703
_cell_length_b 9.167898
_cell_length_c 11.861456
_cell_angle_alpha 68.973269
_cell_angle_beta 90.844214
_cell_angle_gamma 142.821350
_cell_volume 769.087179
_symmetry_space_group_name_H-M "P -1"
_symmetry_group_IT_number 2
_symmetry_cell_setting 'triclinic'
loop_
_space_group_symop_operation_xyz
x,y,z
-x,-y,-z
loop_
_atom_site_type_symbol
_atom_site_label
_atom_site_fract_x
_atom_site_fract_y
_atom_site_fract_z
Si Si1 0.791429 0.153625 0.606204
Si Si2 0.849007 0.639283 0.307995
Si Si3 0.739757 0.157643 0.358416
Si Si4 0.830628 0.162325 0.123785
Si Si5 0.471786 0.797110 0.120979
Si Si6 0.751256 0.778750 0.848806
Si Si7 0.365238 0.741922 0.374088
Si Si8 0.180822 0.171855 0.914994
O O1 0.724357 0.043681 0.506718
O O2 0.686865 0.150472 0.658978
O O3 0.000000 0.500000 0.500000
O O4 0.751817 0.943998 0.736708
O O5 0.859990 0.479892 0.299973
O O6 0.765243 0.513522 0.464077
O O7 0.735425 0.579817 0.234325
O O8 0.044533 0.983877 0.227447
O O9 0.808516 0.146939 0.262168
O O10 0.557241 0.975829 0.363992
O O11 0.659570 0.998323 0.109901
O O12 0.851319 0.021109 0.111331
O O13 0.000000 0.500000 0.000000
O O14 0.376479 0.531323 0.118819
O O15 0.360480 0.668840 0.268753
O O16 0.500000 0.000000 0.000000
O O17 0.721523 0.743433 0.993150
O O18 0.000000 0.000000 0.000000
#
# Coordination Sequence:
#
# PCOD9111166 Si02
#       8
#     2   2   2   2   2   2   2   2
#     4  11  21  41  70 106 134 173 225 280 334 407
#     4  10  20  42  69  99 131 185 224 270 340 408
#     4  10  22  42  69  99 136 175 224 277 336 403
#     4  11  25  44  68  95 130 182 231 273 336 410
#     4  11  29  45  64 102 142 180 222 291 347 392
#     4  11  24  43  65 102 141 171 227 284 344 398
#     4  10  23  43  69  97 139 181 227 272 341 408
#     4  10  24  41  68 100 134 175 229 274 334 413
#
# _framework density 20.803882999999999
#
# number of rings (size 3 to 8) (size 9 to 14) (size 15 to 20)
#    0.000    1.500    2.500    3.000    8.750    4.000 
#    0.000    2.500    0.000    0.000    0.000    0.000 
#    0.000    0.000    0.000    0.000    0.000    0.000 
#
# Total GULP energy -89347.813914 kJ/mol
# GULP energy per Si atom -5584.238370 kJ/mol
# Density = 2.075653 g / cm^3
# Si number density = 20.803883 Si / 1000 Ang^3
#
#
#
# Elastic Constant Matrix: (Units=GPa)
#
#
# Indices 1 2 3 4 5 6 
#
# 1 108.9395 33.3940 65.2589 18.9541 8.0743 -20.7198
# 2 33.3940 100.7457 60.9924 14.3014 -0.2345 -12.7248
# 3 65.2589 60.9924 129.7464 20.2607 27.1740 -29.1731
# 4 18.9541 14.3014 20.2607 32.9176 -1.3289 -7.3895
# 5 8.0743 -0.2345 27.1740 -1.3289 51.4860 1.1211
# 6 -20.7198 -12.7248 -29.1731 -7.3895 1.1211 25.8649
#
#
#
# Elastic Compliance Matrix: (Units=1/GPa)
#
#
# Indices 1 2 3 4 5 6 
#
# 1 0.013892 -0.000221 -0.005644 -0.003596 0.000628 0.003599
# 2 -0.000221 0.014832 -0.008125 -0.001752 0.004405 -0.002736
# 3 -0.005644 -0.008125 0.019992 -0.002868 -0.010075 0.013648
# 4 -0.003596 -0.001752 -0.002868 0.035795 0.002926 0.003122
# 5 0.000628 0.004405 -0.010075 0.002926 0.024932 -0.008938
# 6 0.003599 -0.002736 0.013648 0.003122 -0.008938 0.056873
#
#
# Mechanical properties :
#
#
# Convention : Reuss Voigt Hill
#
# Bulk Modulus (GPa) = 48.22768 73.19135 60.70952
# Shear Modulus (GPa) = 24.84991 34.03946 29.44468
#
# Velocity S-wave (km/s) = 3.45988 4.04939 3.76619
# Velocity P-wave (km/s) = 6.26046 7.55787 6.93955
#
# Compressibility (1/GPa) = 0.02073498
#
# Stress axis : x y z
#
# Youngs Moduli (GPa) = 71.98497 67.42302 50.01895
#
# Poissons Ratio (x) = 0.01492 0.28230
# Poissons Ratio (y) = 0.01593 0.40642
# Poissons Ratio (z) = 0.40628 0.54783
#
# Static dielectric constant tensor:
#      x y z
#    x 1.808760 0.030370 0.006980 
#    y 0.030370 1.737090 -0.007720 
#    z 0.006980 -0.007720 1.828110 
# 
# From -- ./inp_files/447165.got.cif
#   From: 2010.05.17/outbox.cif.g08.bks.cpg/sg2_224_cif.got.tgz:447165.got - 2010.06.03 11:33:40.
