data_PCOD9111830
_publ_section_title
;
Structure prediction by ZEFSAII (Michael W. Deem and Ramdas Pophale) SiO2 
 PCOD9111830
Probable space group: P -1
;
_chemical_formula_sum "Si O2"
_cell_formula_units_Z 16
_cell_length_a 9.114920
_cell_length_b 5.279524
_cell_length_c 20.433896
_cell_angle_alpha 120.579637
_cell_angle_beta 56.568214
_cell_angle_gamma 110.672059
_cell_volume 702.869310
_symmetry_space_group_name_H-M "P -1"
_symmetry_group_IT_number 2
_symmetry_cell_setting 'triclinic'
loop_
_space_group_symop_operation_xyz
x,y,z
-x,-y,-z
loop_
_atom_site_type_symbol
_atom_site_label
_atom_site_fract_x
_atom_site_fract_y
_atom_site_fract_z
Si Si1 0.849948 0.732415 0.745399
Si Si2 0.221647 0.888747 0.734512
Si Si3 0.251183 0.944151 0.311463
Si Si4 0.435581 0.934534 0.398299
Si Si5 0.474312 0.831151 0.915939
Si Si6 0.628985 0.849597 0.141665
Si Si7 0.168220 0.657072 0.515562
Si Si8 0.270387 0.329500 0.575028
O O1 0.026467 0.894686 0.754825
O O2 0.828893 0.831984 0.688804
O O3 0.853900 0.381139 0.705926
O O4 0.670603 0.802447 0.835066
O O5 0.232473 0.990079 0.820168
O O6 0.375428 0.088575 0.683066
O O7 0.277799 0.557747 0.662836
O O8 0.441914 0.907527 0.227868
O O9 0.837219 0.989343 0.427987
O O10 0.444271 0.200778 0.483842
O O11 0.299004 0.007588 0.384088
O O12 0.339173 0.659806 0.425446
O O13 0.375145 0.503507 0.905984
O O14 0.371244 0.009103 0.911291
O O15 0.500000 0.000000 0.000000
O O16 0.188547 0.504095 0.559334
O O17 0.000000 0.500000 0.500000
#
# Coordination Sequence:
#
# PCOD9111830 Si02
#       8
#     2   2   2   2   2   2   2   2
#     4  10  23  38  61  94 125 160 207 251 316 364
#     4  11  23  44  59  95 131 170 201 267 316 377
#     4   9  20  39  59  85 121 166 211 265 297 361
#     4   9  23  41  64  83 121 169 226 265 316 360
#     4  10  20  43  71  96 123 162 205 247 295 381
#     4   9  21  39  65  95 126 162 202 243 315 372
#     4  10  23  40  58  86 117 156 232 274 315 355
#     4  10  24  38  60  84 120 166 221 259 320 362
#
# _framework density 22.763836000000001
#
# number of rings (size 3 to 8) (size 9 to 14) (size 15 to 20)
#    0.750    1.500    0.000    1.125    3.500    3.500 
#    4.500    1.250    0.000    0.000    0.000    0.000 
#    0.000    0.000    0.000    0.000    0.000    0.000 
#
# Total GULP energy -89453.747195 kJ/mol
# GULP energy per Si atom -5590.859200 kJ/mol
# Density = 2.271202 g / cm^3
# Si number density = 22.763836 Si / 1000 Ang^3
#
#
#
# Elastic Constant Matrix: (Units=GPa)
#
#
# Indices 1 2 3 4 5 6 
#
# 1 128.2146 55.9775 29.9202 -3.3449 39.8878 -0.8698
# 2 55.9775 139.4045 52.4401 -6.9512 34.6610 -21.7458
# 3 29.9202 52.4401 101.4904 9.5926 41.5615 -5.2612
# 4 -3.3449 -6.9512 9.5926 24.2443 7.2683 9.4641
# 5 39.8878 34.6610 41.5615 7.2683 45.9927 -3.4653
# 6 -0.8698 -21.7458 -5.2612 9.4641 -3.4653 36.2011
#
#
#
# Elastic Compliance Matrix: (Units=1/GPa)
#
#
# Indices 1 2 3 4 5 6 
#
# 1 0.012280 -0.003269 0.001911 0.004712 -0.010935 -0.003669
# 2 -0.003269 0.011569 -0.004108 0.003127 -0.002271 0.005239
# 3 0.001911 -0.004108 0.017341 -0.003561 -0.013690 -0.000281
# 4 0.004712 0.003127 -0.003561 0.053349 -0.012687 -0.013687
# 5 -0.010935 -0.002271 -0.013690 -0.012687 0.047634 0.004260
# 6 -0.003669 0.005239 -0.000281 -0.013687 0.004260 0.034628
#
#
# Mechanical properties :
#
#
# Convention : Reuss Voigt Hill
#
# Bulk Modulus (GPa) = 33.04840 71.75391 52.40116
# Shear Modulus (GPa) = 25.27571 36.67238 30.97404
#
# Velocity S-wave (km/s) = 3.33580 4.01807 3.69273
# Velocity P-wave (km/s) = 5.42090 7.28807 6.42270
#
# Compressibility (1/GPa) = 0.03025865
#
# Stress axis : x y z
#
# Youngs Moduli (GPa) = 81.43033 86.43743 57.66843
#
# Poissons Ratio (x) = 0.28253 -0.11020
# Poissons Ratio (y) = 0.26616 0.23691
# Poissons Ratio (z) = -0.15561 0.35509
#
# Static dielectric constant tensor:
#      x y z
#    x 1.912530 0.006330 -0.024640 
#    y 0.006330 1.873230 0.006020 
#    z -0.024640 0.006020 1.853410 
# 
# From -- ./inp_files/552931.got.cif
#   From: 2010.05.17/outbox.cif.g08.bks.cpg/sg2_277_cif.got.tgz:552931.got - 2010.06.03 11:33:40.
