data_PCOD9111992
_publ_section_title
;
Structure prediction by ZEFSAII (Michael W. Deem and Ramdas Pophale) SiO2 
 PCOD9111992
Probable space group: P -1
;
_chemical_formula_sum "Si O2"
_cell_formula_units_Z 15
_cell_length_a 11.953382
_cell_length_b 13.731187
_cell_length_c 16.534960
_cell_angle_alpha 29.990916
_cell_angle_beta 145.967771
_cell_angle_gamma 128.064125
_cell_volume 707.798037
_symmetry_space_group_name_H-M "P -1"
_symmetry_group_IT_number 2
_symmetry_cell_setting 'triclinic'
loop_
_space_group_symop_operation_xyz
x,y,z
-x,-y,-z
loop_
_atom_site_type_symbol
_atom_site_label
_atom_site_fract_x
_atom_site_fract_y
_atom_site_fract_z
Si Si1 0.170748 0.298777 0.287810
Si Si2 0.714636 0.978009 0.598220
Si Si3 0.044259 0.695151 0.126161
Si Si4 0.000000 0.000000 0.500000
Si Si5 0.533080 0.209470 0.687504
Si Si6 0.096028 0.687616 0.499309
Si Si7 0.148672 0.220598 0.876146
Si Si8 0.825737 0.778256 0.423243
O O1 0.283920 0.128259 0.410032
O O2 0.351040 0.338670 0.421743
O O3 0.053405 0.189091 0.354693
O O4 0.000000 0.500000 0.000000
O O5 0.500000 0.000000 0.500000
O O6 0.750047 0.197497 0.458752
O O7 0.909231 0.823798 0.878651
O O8 0.283470 0.695084 0.262679
O O9 0.045361 0.461443 0.299309
O O10 0.941633 0.798139 0.076129
O O11 0.909793 0.941202 0.400513
O O12 0.413853 0.184737 0.715957
O O13 0.649063 0.979804 0.883207
O O14 0.193211 0.437053 0.744565
O O15 0.028668 0.749186 0.322103
O O16 0.882049 0.769533 0.368191
#
# Coordination Sequence:
#
# PCOD9111992 Si02
#       8
#     2   2   2   1   2   2   2   2
#     4  11  25  45  69 100 139 180 226 278 347 402
#     4  12  24  42  67  97 132 176 228 280 338 403
#     4  11  23  43  69  95 135 174 227 276 332 408
#     4  10  20  44  66  90 142 176 214 274 334 402
#     4  11  22  41  70  98 131 179 223 275 337 401
#     4  10  22  43  63  96 138 171 222 281 330 407
#     4  10  22  42  67  95 136 175 218 279 337 395
#     4  10  22  41  66  96 131 176 220 274 342 399
#
# _framework density 21.192485000000001
#
# number of rings (size 3 to 8) (size 9 to 14) (size 15 to 20)
#    0.000    1.333    2.667    3.200    1.867    0.533 
#    9.600    2.000    0.000    0.000    0.000    0.000 
#    0.000    0.000    0.000    0.000    0.000    0.000 
#
# Total GULP energy -83586.361924 kJ/mol
# GULP energy per Si atom -5572.424128 kJ/mol
# Density = 2.114425 g / cm^3
# Si number density = 21.192485 Si / 1000 Ang^3
#
#
#
# Elastic Constant Matrix: (Units=GPa)
#
#
# Indices 1 2 3 4 5 6 
#
# 1 90.1477 17.6979 -4.0801 -0.1954 6.1251 -7.3165
# 2 17.6979 97.4935 16.7104 5.4701 7.0179 -1.6877
# 3 -4.0801 16.7104 60.9137 8.2154 0.7574 8.1529
# 4 -0.1954 5.4701 8.2154 25.8722 -10.1312 6.8609
# 5 6.1251 7.0179 0.7574 -10.1312 30.3753 1.7428
# 6 -7.3165 -1.6877 8.1529 6.8609 1.7428 30.8216
#
#
#
# Elastic Compliance Matrix: (Units=1/GPa)
#
#
# Indices 1 2 3 4 5 6 
#
# 1 0.011968 -0.002042 0.001233 -0.001710 -0.002711 0.002937
# 2 -0.002042 0.011623 -0.003088 -0.003336 -0.003419 0.001904
# 3 0.001233 -0.003088 0.018495 -0.004793 -0.001387 -0.003623
# 4 -0.001710 -0.003336 -0.004793 0.051486 0.019088 -0.011861
# 5 -0.002711 -0.003419 -0.001387 0.019088 0.041063 -0.007035
# 6 0.002937 0.001904 -0.003623 -0.011861 -0.007035 0.037243
#
#
# Mechanical properties :
#
#
# Convention : Reuss Voigt Hill
#
# Bulk Modulus (GPa) = 29.16031 34.35681 31.75856
# Shear Modulus (GPa) = 26.16393 31.96225 29.06309
#
# Velocity S-wave (km/s) = 3.51748 3.88775 3.70724
# Velocity P-wave (km/s) = 5.50332 6.03323 5.77435
#
# Compressibility (1/GPa) = 0.03429318
#
# Stress axis : x y z
#
# Youngs Moduli (GPa) = 83.55277 86.03424 54.06873
#
# Poissons Ratio (x) = 0.17568 -0.06667
# Poissons Ratio (y) = 0.17062 0.16696
# Poissons Ratio (z) = -0.10303 0.26566
#
# Static dielectric constant tensor:
#      x y z
#    x 1.813860 -0.069300 0.003560 
#    y -0.069300 1.808380 -0.009370 
#    z 0.003560 -0.009370 1.764930 
# 
# From -- ./inp_files/383597.got.cif
#   From: 2010.05.17/outbox.cif.g08.bks.cpg/sg2_192_cif.got.tgz:383597.got - 2010.06.03 11:33:40.
