data_PCOD9111918
_publ_section_title
;
Structure prediction by ZEFSAII (Michael W. Deem and Ramdas Pophale) SiO2 
 PCOD9111918
Probable space group: P -1
;
_chemical_formula_sum "Si O2"
_cell_formula_units_Z 16
_cell_length_a 7.374528
_cell_length_b 7.479931
_cell_length_c 12.710204
_cell_angle_alpha 99.796267
_cell_angle_beta 87.671370
_cell_angle_gamma 58.925327
_cell_volume 584.845758
_symmetry_space_group_name_H-M "P -1"
_symmetry_group_IT_number 2
_symmetry_cell_setting 'triclinic'
loop_
_space_group_symop_operation_xyz
x,y,z
-x,-y,-z
loop_
_atom_site_type_symbol
_atom_site_label
_atom_site_fract_x
_atom_site_fract_y
_atom_site_fract_z
Si Si1 0.003728 0.271478 0.030554
Si Si2 0.114522 0.825841 0.762989
Si Si3 0.294567 0.498646 0.451716
Si Si4 0.245590 0.838596 0.340204
Si Si5 0.458314 0.189980 0.219998
Si Si6 0.659937 0.445396 0.892681
Si Si7 0.742001 0.776044 0.150914
Si Si8 0.292753 0.342779 0.645307
O O1 0.887540 0.289510 0.923780
O O2 0.234482 0.157887 0.962952
O O3 0.990872 0.151231 0.118666
O O4 0.864533 0.520821 0.093315
O O5 0.289715 0.890108 0.779961
O O6 0.244755 0.573236 0.710694
O O7 0.950606 0.949938 0.685265
O O8 0.500000 0.500000 0.500000
O O9 0.173295 0.727667 0.418101
O O10 0.351810 0.330680 0.339096
O O11 0.208714 0.413425 0.537011
O O12 0.348594 0.674655 0.221790
O O13 0.451581 0.829696 0.384010
O O14 0.365933 0.343674 0.137757
O O15 0.486849 0.960119 0.188408
O O16 0.500000 0.500000 0.000000
O O17 0.805420 0.736547 0.271794
#
# Coordination Sequence:
#
# PCOD9111918 Si02
#       8
#     2   2   2   2   2   2   2   2
#     4  10  22  40  55  84 124 162 189 242 284 354
#     4  11  20  37  64  87 116 152 201 238 294 338
#     4   9  18  39  63  86 117 146 194 255 293 334
#     4  10  21  34  62  94 110 149 204 248 282 348
#     4  11  21  36  60  91 114 154 196 245 290 350
#     4  11  19  35  59  84 121 152 196 247 287 329
#     4  10  23  39  55  85 122 159 194 232 296 352
#     4  10  20  44  58  84 125 152 190 250 293 343
#
# _framework density 27.35764
#
# number of rings (size 3 to 8) (size 9 to 14) (size 15 to 20)
#    0.000    1.750    5.000    1.500    1.750    2.500 
#    6.750    0.000    0.000    6.750    0.000    0.000 
#    0.000    0.000    0.000    0.000    0.000    0.000 
#
# Total GULP energy -89164.898691 kJ/mol
# GULP energy per Si atom -5572.806168 kJ/mol
# Density = 2.729537 g / cm^3
# Si number density = 27.357640 Si / 1000 Ang^3
#
#
#
# Elastic Constant Matrix: (Units=GPa)
#
#
# Indices 1 2 3 4 5 6 
#
# 1 40.9670 -6.5762 22.7959 -16.2222 10.5022 -13.1295
# 2 -6.5762 86.4863 14.9673 -29.7833 0.9455 -14.3234
# 3 22.7959 14.9673 212.2229 -43.7732 -28.7319 2.1908
# 4 -16.2222 -29.7833 -43.7732 50.3435 2.8378 3.3906
# 5 10.5022 0.9455 -28.7319 2.8378 42.9811 -19.9453
# 6 -13.1295 -14.3234 2.1908 3.3906 -19.9453 27.2305
#
#
#
# Elastic Compliance Matrix: (Units=1/GPa)
#
#
# Indices 1 2 3 4 5 6 
#
# 1 0.044427 0.014645 -0.002399 0.019333 -0.002379 0.025168
# 2 0.014645 0.021368 0.000689 0.016413 0.004313 0.019361
# 3 -0.002399 0.000689 0.006710 0.004989 0.005787 0.002283
# 4 0.019333 0.016413 0.004989 0.039036 0.002368 0.014427
# 5 -0.002379 0.004313 0.005787 0.002368 0.041860 0.031022
# 6 0.025168 0.019361 0.002283 0.014427 0.031022 0.079785
#
#
# Mechanical properties :
#
#
# Convention : Reuss Voigt Hill
#
# Bulk Modulus (GPa) = 10.16507 44.67225 27.41866
# Shear Modulus (GPa) = 20.82389 44.67697 32.75043
#
# Velocity S-wave (km/s) = 2.76193 4.04551 3.46370
# Velocity P-wave (km/s) = 3.72756 6.17948 5.10297
#
# Compressibility (1/GPa) = 0.09837611
#
# Stress axis : x y z
#
# Youngs Moduli (GPa) = 22.50865 46.79824 149.03048
#
# Poissons Ratio (x) = -0.68537 0.35757
# Poissons Ratio (y) = -0.32964 -0.10272
# Poissons Ratio (z) = 0.05401 -0.03226
#
# Static dielectric constant tensor:
#      x y z
#    x 0.539490 -0.608170 0.186620 
#    y -0.608170 2.041880 0.125820 
#    z 0.186620 0.125820 2.087550 
# 
# From -- ./inp_files/220806.got.cif
#   From: 2010.05.17/outbox.cif.g08.bks.cpg/sg2_111_cif.got.tgz:220806.got - 2010.06.03 11:33:40.
