data_PCOD9111706
_publ_section_title
;
Structure prediction by ZEFSAII (Michael W. Deem and Ramdas Pophale) SiO2 
 PCOD9111706
Probable space group: P -1
;
_chemical_formula_sum "Si O2"
_cell_formula_units_Z 16
_cell_length_a 18.337056
_cell_length_b 8.640096
_cell_length_c 11.413654
_cell_angle_alpha 123.606702
_cell_angle_beta 27.866441
_cell_angle_gamma 129.207405
_cell_volume 654.863010
_symmetry_space_group_name_H-M "P -1"
_symmetry_group_IT_number 2
_symmetry_cell_setting 'triclinic'
loop_
_space_group_symop_operation_xyz
x,y,z
-x,-y,-z
loop_
_atom_site_type_symbol
_atom_site_label
_atom_site_fract_x
_atom_site_fract_y
_atom_site_fract_z
Si Si1 0.009321 0.291940 0.450140
Si Si2 0.735437 0.906795 0.064937
Si Si3 0.096036 0.879909 0.875308
Si Si4 0.704167 0.284029 0.135940
Si Si5 0.214803 0.412403 0.653820
Si Si6 0.078581 0.516502 0.657089
Si Si7 0.366793 0.810547 0.050638
Si Si8 0.518952 0.484299 0.106608
O O1 0.812759 0.164095 0.690740
O O2 0.000000 0.500000 0.500000
O O3 0.105354 0.164736 0.199526
O O4 0.109818 0.363854 0.460277
O O5 0.582858 0.710226 0.159656
O O6 0.746009 0.988208 0.216390
O O7 0.737638 0.092585 0.059467
O O8 0.946729 0.744130 0.118270
O O9 0.146026 0.753687 0.650144
O O10 0.000000 0.000000 0.000000
O O11 0.679546 0.417001 0.332458
O O12 0.586920 0.223201 0.163607
O O13 0.878359 0.440351 0.902039
O O14 0.133779 0.498797 0.702270
O O15 0.347596 0.355552 0.364663
O O16 0.358698 0.622800 0.063999
O O17 0.500000 0.000000 0.000000
O O18 0.500000 0.500000 0.000000
#
# Coordination Sequence:
#
# PCOD9111706 Si02
#       8
#     2   2   2   2   2   2   2   2
#     4  11  23  41  70  98 137 182 227 289 349 401
#     4  12  23  44  69 104 135 180 238 284 344 424
#     4  11  23  42  71 105 136 174 239 289 341 422
#     4  10  22  44  70 101 137 180 234 291 348 423
#     4  11  23  45  71 100 141 190 224 288 363 407
#     4  10  20  43  68  98 142 176 225 289 348 417
#     4  11  26  45  66  98 141 183 234 295 346 416
#     4  12  28  47  67 100 146 188 234 290 352 420
#
# _framework density 24.432590000000001
#
# number of rings (size 3 to 8) (size 9 to 14) (size 15 to 20)
#    0.000    1.000    3.750    3.000    5.250    3.000 
#    0.000    0.000    0.000    0.000    0.000    0.000 
#    0.000    0.000    0.000    0.000    0.000    0.000 
#
# Total GULP energy -89285.564855 kJ/mol
# GULP energy per Si atom -5580.347803 kJ/mol
# Density = 2.437698 g / cm^3
# Si number density = 24.432590 Si / 1000 Ang^3
#
#
#
# Elastic Constant Matrix: (Units=GPa)
#
#
# Indices 1 2 3 4 5 6 
#
# 1 151.4144 39.5400 5.8129 8.7102 3.4008 23.5127
# 2 39.5400 88.1762 -8.2840 16.4809 12.8122 26.3846
# 3 5.8129 -8.2840 69.5465 -0.5082 8.2736 4.8902
# 4 8.7102 16.4809 -0.5082 26.9302 1.9094 -2.4598
# 5 3.4008 12.8122 8.2736 1.9094 23.0087 11.9745
# 6 23.5127 26.3846 4.8902 -2.4598 11.9745 53.1517
#
#
#
# Elastic Compliance Matrix: (Units=1/GPa)
#
#
# Indices 1 2 3 4 5 6 
#
# 1 0.007823 -0.003015 -0.001122 -0.001089 0.002278 -0.002424
# 2 -0.003015 0.017909 0.003555 -0.010098 -0.006368 -0.006916
# 3 -0.001122 0.003555 0.015778 -0.001152 -0.006738 -0.001256
# 4 -0.001089 -0.010098 -0.001152 0.044496 -0.001677 0.008037
# 5 0.002278 -0.006368 -0.006738 -0.001677 0.054183 -0.009511
# 6 -0.002424 -0.006916 -0.001256 0.008037 -0.009511 0.025950
#
#
# Mechanical properties :
#
#
# Convention : Reuss Voigt Hill
#
# Bulk Modulus (GPa) = 24.78528 42.58610 33.68569
# Shear Modulus (GPa) = 27.66235 38.75599 33.20917
#
# Velocity S-wave (km/s) = 3.36845 3.98709 3.69075
# Velocity P-wave (km/s) = 5.02942 6.21801 5.65503
#
# Compressibility (1/GPa) = 0.04034653
#
# Stress axis : x y z
#
# Youngs Moduli (GPa) = 127.83163 55.83708 63.38098
#
# Poissons Ratio (x) = 0.16837 0.07108
# Poissons Ratio (y) = 0.38546 -0.22534
# Poissons Ratio (z) = 0.14337 -0.19852
#
# Static dielectric constant tensor:
#      x y z
#    x 1.980670 -0.014970 0.015050 
#    y -0.014970 1.969960 -0.009370 
#    z 0.015050 -0.009370 2.050400 
# 
# From -- ./inp_files/462400.got.cif
#   From: 2010.05.17/outbox.cif.g08.bks.cpg/sg2_232_cif.got.tgz:462400.got - 2010.06.03 11:33:40.
