data_PCOD9111810
_publ_section_title
;
Structure prediction by ZEFSAII (Michael W. Deem and Ramdas Pophale) SiO2 
 PCOD9111810
Probable space group: P -1
;
_chemical_formula_sum "Si O2"
_cell_formula_units_Z 16
_cell_length_a 9.895138
_cell_length_b 7.524838
_cell_length_c 9.534547
_cell_angle_alpha 88.220109
_cell_angle_beta 121.244171
_cell_angle_gamma 89.815084
_cell_volume 606.521802
_symmetry_space_group_name_H-M "P -1"
_symmetry_group_IT_number 2
_symmetry_cell_setting 'triclinic'
loop_
_space_group_symop_operation_xyz
x,y,z
-x,-y,-z
loop_
_atom_site_type_symbol
_atom_site_label
_atom_site_fract_x
_atom_site_fract_y
_atom_site_fract_z
Si Si1 0.922883 0.937018 0.795755
Si Si2 0.574397 0.066349 0.234187
Si Si3 0.719144 0.683350 0.241287
Si Si4 0.021780 0.203571 0.445036
Si Si5 0.259620 0.227471 0.073326
Si Si6 0.761165 0.212312 0.101912
Si Si7 0.582743 0.431759 0.769346
Si Si8 0.629364 0.157536 0.561326
O O1 0.869704 0.822786 0.634593
O O2 0.895427 0.826565 0.924560
O O3 0.803068 0.102202 0.715939
O O4 0.889186 0.055717 0.132973
O O5 0.386585 0.063318 0.150374
O O6 0.605652 0.159850 0.101102
O O7 0.647014 0.169721 0.402534
O O8 0.655716 0.875683 0.262159
O O9 0.892678 0.676307 0.401377
O O10 0.582194 0.560819 0.232313
O O11 0.740622 0.694449 0.085247
O O12 0.865542 0.287783 0.285324
O O13 0.000000 0.000000 0.500000
O O14 0.345882 0.374775 0.211181
O O15 0.709869 0.329588 0.941696
O O16 0.570775 0.321587 0.621462
O O17 0.500000 0.000000 0.500000
#
# Coordination Sequence:
#
# PCOD9111810 Si02
#       8
#     2   2   2   2   2   2   2   2
#     4  10  22  44  69 100 137 179 230 285 342 409
#     4  12  22  43  71 104 132 176 234 292 342 401
#     4  12  22  43  74 102 138 178 237 290 336 413
#     4  10  20  43  71 101 137 170 226 291 343 402
#     4  12  27  42  70 103 143 188 233 276 348 414
#     4  10  24  44  69 100 142 175 233 286 354 403
#     4  12  27  45  67 103 146 185 229 286 342 421
#     4  12  22  42  71 104 134 171 234 293 341 403
#
# _framework density 26.379923999999999
#
# number of rings (size 3 to 8) (size 9 to 14) (size 15 to 20)
#    0.750    0.000    6.250    0.750    1.750    1.500 
#    4.500    0.625    0.000    0.000    0.000    0.000 
#    0.000    0.000    0.000    0.000    0.000    0.000 
#
# Total GULP energy -89425.784319 kJ/mol
# GULP energy per Si atom -5589.111520 kJ/mol
# Density = 2.631988 g / cm^3
# Si number density = 26.379924 Si / 1000 Ang^3
#
#
#
# Elastic Constant Matrix: (Units=GPa)
#
#
# Indices 1 2 3 4 5 6 
#
# 1 126.7315 16.4503 42.1475 -2.0457 -8.0520 5.7330
# 2 16.4503 62.8146 27.5503 8.6018 -14.8198 -13.8533
# 3 42.1475 27.5503 166.2106 19.8721 -10.4292 -7.3503
# 4 -2.0457 8.6018 19.8721 31.9036 -8.1128 -0.8377
# 5 -8.0520 -14.8198 -10.4292 -8.1128 65.1974 -3.4857
# 6 5.7330 -13.8533 -7.3503 -0.8377 -3.4857 15.4106
#
#
#
# Elastic Compliance Matrix: (Units=1/GPa)
#
#
# Indices 1 2 3 4 5 6 
#
# 1 0.009594 -0.003542 -0.002547 0.002931 -0.000082 -0.007827
# 2 -0.003542 0.024570 -0.001285 -0.003969 0.005724 0.023870
# 3 -0.002547 -0.001285 0.007555 -0.004381 0.000228 0.003210
# 4 0.002931 -0.003969 -0.004381 0.035991 0.003018 -0.004108
# 5 -0.000082 0.005724 0.000228 0.003018 0.017545 0.009417
# 6 -0.007827 0.023870 0.003210 -0.004108 0.009417 0.092698
#
#
# Mechanical properties :
#
#
# Convention : Reuss Voigt Hill
#
# Bulk Modulus (GPa) = 37.07832 58.67254 47.87543
# Shear Modulus (GPa) = 23.61931 40.47621 32.04776
#
# Velocity S-wave (km/s) = 2.99549 3.92134 3.48926
# Velocity P-wave (km/s) = 5.10392 6.54157 5.86695
#
# Compressibility (1/GPa) = 0.02696994
#
# Stress axis : x y z
#
# Youngs Moduli (GPa) = 104.23330 40.70083 132.35497
#
# Poissons Ratio (x) = 0.14417 0.33715
# Poissons Ratio (y) = 0.36920 0.17008
# Poissons Ratio (z) = 0.26552 0.05230
#
# Static dielectric constant tensor:
#      x y z
#    x 2.062400 0.002460 0.013730 
#    y 0.002460 2.151810 0.053880 
#    z 0.013730 0.053880 2.153320 
# 
# From -- ./inp_files/208973.got.cif
#   From: 2010.05.17/outbox.cif.g08.bks.cpg/sg2_105_cif.got.tgz:208973.got - 2010.06.03 11:33:40.
