data_PCOD9111212
_publ_section_title
;
Structure prediction by ZEFSAII (Michael W. Deem and Ramdas Pophale) SiO2 
 PCOD9111212
Probable space group: P -1
;
_chemical_formula_sum "Si O2"
_cell_formula_units_Z 15
_cell_length_a 15.848214
_cell_length_b 7.241290
_cell_length_c 7.389787
_cell_angle_alpha 100.194147
_cell_angle_beta 65.959871
_cell_angle_gamma 133.642876
_cell_volume 553.466714
_symmetry_space_group_name_H-M "P -1"
_symmetry_group_IT_number 2
_symmetry_cell_setting 'triclinic'
loop_
_space_group_symop_operation_xyz
x,y,z
-x,-y,-z
loop_
_atom_site_type_symbol
_atom_site_label
_atom_site_fract_x
_atom_site_fract_y
_atom_site_fract_z
Si Si1 0.578919 0.242249 0.104858
Si Si2 0.705847 0.649589 0.661824
Si Si3 0.848712 0.629466 0.831175
Si Si4 0.521822 0.744645 0.448481
Si Si5 0.102374 0.828214 0.515949
Si Si6 0.808407 0.260260 0.261549
Si Si7 0.500000 0.500000 0.000000
Si Si8 0.958431 0.185331 0.857563
O O1 0.525825 0.185617 0.341693
O O2 0.564250 0.429377 0.063815
O O3 0.726874 0.391125 0.006162
O O4 0.500000 0.000000 0.000000
O O5 0.782307 0.603818 0.697852
O O6 0.570615 0.382030 0.665712
O O7 0.801970 0.865985 0.469101
O O8 0.646387 0.746197 0.835918
O O9 0.964967 0.655005 0.698345
O O10 0.912838 0.911925 0.890096
O O11 0.500000 0.500000 0.500000
O O12 0.661461 0.004718 0.316767
O O13 0.170111 0.753119 0.544947
O O14 0.079448 0.822463 0.320548
O O15 0.890796 0.563820 0.211439
O O16 0.883821 0.216382 0.064016
#
# Coordination Sequence:
#
# PCOD9111212 Si02
#       8
#     2   2   2   2   2   2   1   2
#     4  11  25  45  70 108 140 187 245 290 363 441
#     4  10  21  39  72  98 129 192 233 281 367 424
#     4  10  24  46  68  94 140 184 227 290 357 424
#     4  12  22  43  73 103 143 183 237 299 359 432
#     4  11  22  43  70  96 139 179 230 291 348 422
#     4  11  24  41  69 107 131 181 240 288 351 429
#     4  10  20  42  70  92 144 184 222 298 348 428
#     4  10  23  43  65 103 137 178 238 279 354 429
#
# _framework density 27.101901000000002
#
# number of rings (size 3 to 8) (size 9 to 14) (size 15 to 20)
#    0.000    1.333    2.667    2.800    5.600    0.533 
#    9.600    4.000    0.000    0.000    0.000    0.000 
#    0.000    0.000    0.000    0.000    0.000    0.000 
#
# Total GULP energy -83761.347694 kJ/mol
# GULP energy per Si atom -5584.089846 kJ/mol
# Density = 2.704022 g / cm^3
# Si number density = 27.101901 Si / 1000 Ang^3
#
#
#
# Elastic Constant Matrix: (Units=GPa)
#
#
# Indices 1 2 3 4 5 6 
#
# 1 88.0691 36.5501 11.2925 -11.0969 -4.0922 32.4356
# 2 36.5501 189.3995 36.0441 -52.0424 -8.2690 33.5965
# 3 11.2925 36.0441 103.7207 -43.8219 -2.6517 14.0640
# 4 -11.0969 -52.0424 -43.8219 41.7862 11.7576 -14.8553
# 5 -4.0922 -8.2690 -2.6517 11.7576 23.5616 -6.9110
# 6 32.4356 33.5965 14.0640 -14.8553 -6.9110 52.2101
#
#
#
# Elastic Compliance Matrix: (Units=1/GPa)
#
#
# Indices 1 2 3 4 5 6 
#
# 1 0.015119 -0.001871 -0.000827 -0.002386 0.000553 -0.008572
# 2 -0.001871 0.009456 0.003836 0.016020 -0.005180 -0.002083
# 3 -0.000827 0.003836 0.020376 0.028788 -0.011081 -0.000719
# 4 -0.002386 0.016020 0.028788 0.083597 -0.032414 0.002914
# 5 0.000553 -0.005180 -0.011081 -0.032414 0.056904 0.004285
# 6 -0.008572 -0.002083 -0.000719 0.002914 0.004285 0.027409
#
#
# Mechanical properties :
#
#
# Convention : Reuss Voigt Hill
#
# Bulk Modulus (GPa) = 21.17475 60.99585 41.08530
# Shear Modulus (GPa) = 22.09177 43.33177 32.71177
#
# Velocity S-wave (km/s) = 2.85816 4.00290 3.47795
# Velocity P-wave (km/s) = 4.32690 6.62716 5.59648
#
# Compressibility (1/GPa) = 0.04722607
#
# Stress axis : x y z
#
# Youngs Moduli (GPa) = 66.14033 105.75004 49.07851
#
# Poissons Ratio (x) = 0.19788 0.04061
# Poissons Ratio (y) = 0.12376 -0.18827
# Poissons Ratio (z) = 0.05473 -0.40567
#
# Static dielectric constant tensor:
#      x y z
#    x 2.105200 -0.006670 0.059350 
#    y -0.006670 2.193440 0.035750 
#    z 0.059350 0.035750 2.189750 
# 
# From -- ./inp_files/329152.got.cif
#   From: 2010.05.17/outbox.cif.g08.bks.cpg/sg2_165_cif.got.tgz:329152.got - 2010.06.03 11:33:40.
