data_PCOD9111967
_publ_section_title
;
Structure prediction by ZEFSAII (Michael W. Deem and Ramdas Pophale) SiO2 
 PCOD9111967
Probable space group: P -1
;
_chemical_formula_sum "Si O2"
_cell_formula_units_Z 16
_cell_length_a 16.473937
_cell_length_b 9.208527
_cell_length_c 11.779585
_cell_angle_alpha 80.114849
_cell_angle_beta 139.821794
_cell_angle_gamma 128.129258
_cell_volume 731.377858
_symmetry_space_group_name_H-M "P -1"
_symmetry_group_IT_number 2
_symmetry_cell_setting 'triclinic'
loop_
_space_group_symop_operation_xyz
x,y,z
-x,-y,-z
loop_
_atom_site_type_symbol
_atom_site_label
_atom_site_fract_x
_atom_site_fract_y
_atom_site_fract_z
Si Si1 0.446949 0.776070 0.552947
Si Si2 0.587723 0.590136 0.359960
Si Si3 0.781743 0.867092 0.294892
Si Si4 0.781229 0.696841 0.104899
Si Si5 0.885066 0.308402 0.690776
Si Si6 0.909780 0.999308 0.796841
Si Si7 0.059870 0.713262 0.496305
Si Si8 0.793808 0.311526 0.876778
O O1 0.445642 0.612462 0.624610
O O2 0.285440 0.734519 0.448204
O O3 0.355254 0.702703 0.336618
O O4 0.658007 0.044188 0.756816
O O5 0.695946 0.721593 0.338146
O O6 0.702489 0.754177 0.568167
O O7 0.384286 0.489597 0.136467
O O8 0.696609 0.736613 0.101378
O O9 0.805475 0.063450 0.310904
O O10 0.000000 0.000000 0.500000
O O11 0.865517 0.634711 0.272409
O O12 0.956265 0.909667 0.183792
O O13 0.840764 0.220605 0.527536
O O14 0.895399 0.159945 0.783923
O O15 0.104020 0.571603 0.907579
O O16 0.000000 0.000000 0.000000
O O17 0.000000 0.500000 0.500000
O O18 0.000000 0.500000 0.000000
#
# Coordination Sequence:
#
# PCOD9111967 Si02
#       8
#     2   2   2   2   2   2   2   2
#     4  10  23  36  66  97 124 174 214 273 324 387
#     4  12  23  41  68 100 132 170 230 270 332 397
#     4  10  20  44  65  90 133 173 219 278 323 394
#     4  10  24  42  66  95 131 176 224 274 327 393
#     4  10  21  40  61  93 132 165 216 268 330 393
#     4  11  24  43  67  97 137 180 214 275 340 393
#     4  10  22  41  66  91 127 176 215 273 337 388
#     4   9  20  42  61  90 133 165 220 264 318 389
#
# _framework density 21.876515999999999
#
# number of rings (size 3 to 8) (size 9 to 14) (size 15 to 20)
#    0.000    1.750    3.750    1.125    3.500    8.500 
#    0.000    0.625    0.000    0.000    0.000    0.000 
#    0.000    0.000    0.000    0.000    0.000    0.000 
#
# Total GULP energy -89185.349577 kJ/mol
# GULP energy per Si atom -5574.084349 kJ/mol
# Density = 2.182672 g / cm^3
# Si number density = 21.876516 Si / 1000 Ang^3
#
#
#
# Elastic Constant Matrix: (Units=GPa)
#
#
# Indices 1 2 3 4 5 6 
#
# 1 55.5913 14.0495 18.5411 5.9783 -15.8375 -12.0194
# 2 14.0495 149.9638 38.7093 0.7399 -5.5122 -10.4986
# 3 18.5411 38.7093 137.5216 20.6660 -8.1365 -8.7167
# 4 5.9783 0.7399 20.6660 33.4035 3.0055 -0.6152
# 5 -15.8375 -5.5122 -8.1365 3.0055 27.8839 4.5771
# 6 -12.0194 -10.4986 -8.7167 -0.6152 4.5771 11.8786
#
#
#
# Elastic Compliance Matrix: (Units=1/GPa)
#
#
# Indices 1 2 3 4 5 6 
#
# 1 0.026942 -0.000372 -0.000688 -0.005075 0.012042 0.021525
# 2 -0.000372 0.007543 -0.001953 0.001222 -0.000245 0.005015
# 3 -0.000688 -0.001953 0.009067 -0.005559 0.001944 0.003194
# 4 -0.005075 0.001222 -0.005559 0.034864 -0.007453 -0.003456
# 5 0.012042 -0.000245 0.001944 -0.007453 0.044718 -0.004222
# 6 0.021525 0.005015 0.003194 -0.003456 -0.004222 0.114190
#
#
# Mechanical properties :
#
#
# Convention : Reuss Voigt Hill
#
# Bulk Modulus (GPa) = 26.64856 53.96405 40.30630
# Shear Modulus (GPa) = 19.54188 32.75165 26.14676
#
# Velocity S-wave (km/s) = 2.99202 3.87345 3.46091
# Velocity P-wave (km/s) = 4.91366 6.68775 5.86814
#
# Compressibility (1/GPa) = 0.03752548
#
# Stress axis : x y z
#
# Youngs Moduli (GPa) = 37.11627 132.56600 110.28909
#
# Poissons Ratio (x) = 0.04929 0.07592
# Poissons Ratio (y) = 0.01380 0.21545
# Poissons Ratio (z) = 0.02555 0.25897
#
# Static dielectric constant tensor:
#      x y z
#    x 1.863160 0.099170 -0.108130 
#    y 0.099170 1.883600 0.028330 
#    z -0.108130 0.028330 1.880160 
# 
# From -- ./inp_files/462159.got.cif
#   From: 2010.05.17/outbox.cif.g08.bks.cpg/sg2_232_cif.got.tgz:462159.got - 2010.06.03 11:33:40.
