data_PCOD9111063
_publ_section_title
;
Structure prediction by ZEFSAII (Michael W. Deem and Ramdas Pophale) SiO2 
 PCOD9111063
Probable space group: P -1
;
_chemical_formula_sum "Si O2"
_cell_formula_units_Z 14
_cell_length_a 19.071362
_cell_length_b 9.677825
_cell_length_c 5.149198
_cell_angle_alpha 111.885419
_cell_angle_beta 59.034896
_cell_angle_gamma 137.742988
_cell_volume 547.956173
_symmetry_space_group_name_H-M "P -1"
_symmetry_group_IT_number 2
_symmetry_cell_setting 'triclinic'
loop_
_space_group_symop_operation_xyz
x,y,z
-x,-y,-z
loop_
_atom_site_type_symbol
_atom_site_label
_atom_site_fract_x
_atom_site_fract_y
_atom_site_fract_z
Si Si1 0.777064 0.952478 0.887897
Si Si2 0.827267 0.334609 0.833230
Si Si3 0.290911 0.425744 0.573483
Si Si4 0.137510 0.444942 0.593191
Si Si5 0.562936 0.020880 0.140525
Si Si6 0.903373 0.871197 0.881065
Si Si7 0.465868 0.307747 0.789718
O O1 0.741217 0.774236 0.634780
O O2 0.862803 0.980407 0.937112
O O3 0.660423 0.845472 0.190513
O O4 0.826065 0.158590 0.792520
O O5 0.894347 0.511223 0.049468
O O6 0.695579 0.215867 0.021762
O O7 0.861130 0.429529 0.547728
O O8 0.255397 0.507821 0.489521
O O9 0.207243 0.335730 0.910455
O O10 0.422482 0.594911 0.515364
O O11 0.069751 0.216738 0.454321
O O12 0.500000 0.000000 0.500000
O O13 0.548907 0.827303 0.046048
O O14 0.500000 0.000000 0.000000
O O15 0.000000 0.000000 0.000000
O O16 0.500000 0.500000 0.000000
#
# Coordination Sequence:
#
# PCOD9111063 Si02
#       7
#     2   2   2   2   2   2   2
#     4   9  23  39  66  99 140 172 219 277 339 404
#     4  11  22  41  64 100 140 173 218 279 342 398
#     4  10  20  42  68  96 134 178 227 272 333 405
#     4  11  23  42  70  97 135 177 226 278 333 409
#     4  11  22  37  59  94 136 181 219 258 320 401
#     4  11  25  46  71  96 129 180 235 284 335 401
#     4   9  19  40  60  99 133 175 214 269 329 396
#
# _framework density 25.549489000000001
#
# number of rings (size 3 to 8) (size 9 to 14) (size 15 to 20)
#    0.000    1.714    1.429    2.571    2.000    2.857 
#    7.714    1.429    0.000    0.000    0.000    0.000 
#    0.000    0.000    0.000    0.000    0.000    0.000 
#
# Total GULP energy -78347.150760 kJ/mol
# GULP energy per Si atom -5596.225054 kJ/mol
# Density = 2.549134 g / cm^3
# Si number density = 25.549489 Si / 1000 Ang^3
#
#
#
# Elastic Constant Matrix: (Units=GPa)
#
#
# Indices 1 2 3 4 5 6 
#
# 1 190.8978 70.8689 53.7035 -11.2391 17.2000 -15.1495
# 2 70.8689 120.9692 15.4890 9.9002 2.5589 -19.8338
# 3 53.7035 15.4890 82.4442 -9.6501 19.5303 5.9397
# 4 -11.2391 9.9002 -9.6501 40.6433 11.1499 -7.5982
# 5 17.2000 2.5589 19.5303 11.1499 27.1035 -9.4582
# 6 -15.1495 -19.8338 5.9397 -7.5982 -9.4582 43.6193
#
#
#
# Elastic Compliance Matrix: (Units=1/GPa)
#
#
# Indices 1 2 3 4 5 6 
#
# 1 0.008601 -0.004632 -0.003489 0.003921 -0.003687 0.001240
# 2 -0.004632 0.012381 -0.002118 -0.005926 0.007441 0.004890
# 3 -0.003489 -0.002118 0.020667 0.008105 -0.018457 -0.007579
# 4 0.003921 -0.005926 0.008105 0.035028 -0.022611 -0.001238
# 5 -0.003687 0.007441 -0.018457 -0.022611 0.066395 0.015074
# 6 0.001240 0.004890 -0.007579 -0.001238 0.015074 0.029665
#
#
# Mechanical properties :
#
#
# Convention : Reuss Voigt Hill
#
# Bulk Modulus (GPa) = 47.23330 74.93711 61.08520
# Shear Modulus (GPa) = 24.96613 39.22321 32.09467
#
# Velocity S-wave (km/s) = 3.12936 3.92240 3.54810
# Velocity P-wave (km/s) = 5.61999 7.06452 6.38325
#
# Compressibility (1/GPa) = 0.02117150
#
# Stress axis : x y z
#
# Youngs Moduli (GPa) = 116.26584 80.77161 48.38591
#
# Poissons Ratio (x) = 0.37411 0.16883
# Poissons Ratio (y) = 0.53851 0.10246
# Poissons Ratio (z) = 0.40569 0.17104
#
# Static dielectric constant tensor:
#      x y z
#    x 2.024000 -0.002150 -0.072470 
#    y -0.002150 2.109170 0.033800 
#    z -0.072470 0.033800 2.071370 
# 
# From -- ./inp_files/105323.got.cif
#   From: 2010.05.17/outbox.cif.g08.bks.cpg/sg2_53_cif.got.tgz:105323.got - 2010.06.03 11:33:40.
