data_PCOD9111198
_publ_section_title
;
Structure prediction by ZEFSAII (Michael W. Deem and Ramdas Pophale) SiO2 
 PCOD9111198
Probable space group: P -1
;
_chemical_formula_sum "Si O2"
_cell_formula_units_Z 15
_cell_length_a 11.560539
_cell_length_b 25.787834
_cell_length_c 9.518862
_cell_angle_alpha 27.976883
_cell_angle_beta 39.711978
_cell_angle_gamma 28.124366
_cell_volume 626.939838
_symmetry_space_group_name_H-M "P -1"
_symmetry_group_IT_number 2
_symmetry_cell_setting 'triclinic'
loop_
_space_group_symop_operation_xyz
x,y,z
-x,-y,-z
loop_
_atom_site_type_symbol
_atom_site_label
_atom_site_fract_x
_atom_site_fract_y
_atom_site_fract_z
Si Si1 0.913819 0.235058 0.992650
Si Si2 0.388244 0.945062 0.322816
Si Si3 0.249311 0.823611 0.211026
Si Si4 0.112313 0.674785 0.513059
Si Si5 0.485460 0.636083 0.719038
Si Si6 0.000000 0.500000 0.000000
Si Si7 0.542141 0.881828 0.636868
Si Si8 0.847115 0.632294 0.531121
O O1 0.875393 0.271968 0.776049
O O2 0.024258 0.305643 0.783154
O O3 0.677743 0.298216 0.146313
O O4 0.117210 0.057075 0.249001
O O5 0.382872 0.965147 0.446304
O O6 0.594459 0.770847 0.515053
O O7 0.500000 0.000000 0.000000
O O8 0.341922 0.763047 0.427450
O O9 0.203786 0.721986 0.429703
O O10 0.454009 0.808369 0.972564
O O11 0.000000 0.000000 0.000000
O O12 0.215101 0.509473 0.802826
O O13 0.823177 0.762049 0.604724
O O14 0.748053 0.586750 0.618410
O O15 0.500000 0.500000 0.000000
O O16 0.010566 0.518023 0.776792
O O17 0.500000 0.000000 0.500000
#
# Coordination Sequence:
#
# PCOD9111198 Si02
#       8
#     2   2   2   2   2   1   2   2
#     4  10  24  43  75  98 140 182 239 303 349 430
#     4  10  20  42  70 107 133 181 244 294 356 426
#     4  12  28  43  70 109 150 190 241 300 368 433
#     4  11  24  44  69 105 137 188 243 290 367 430
#     4  12  29  49  67 108 148 195 240 298 371 441
#     4  10  20  46  70  98 142 186 236 306 352 432
#     4  12  24  42  68 104 148 186 233 305 368 427
#     4  10  23  42  74  98 140 183 245 287 360 431
#
# _framework density 23.925740000000001
#
# number of rings (size 3 to 8) (size 9 to 14) (size 15 to 20)
#    0.000    1.067    5.333    1.600    7.467    3.200 
#    0.000    4.000    0.000    0.000    0.000    0.000 
#    0.000    0.000    0.000    0.000    0.000    0.000 
#
# Total GULP energy -83597.063543 kJ/mol
# GULP energy per Si atom -5573.137570 kJ/mol
# Density = 2.387128 g / cm^3
# Si number density = 23.925740 Si / 1000 Ang^3
#
#
#
# Elastic Constant Matrix: (Units=GPa)
#
#
# Indices 1 2 3 4 5 6 
#
# 1 107.2772 -1.2839 69.1479 12.6245 -35.5609 -8.6978
# 2 -1.2839 74.0820 30.9044 20.2067 4.6382 -8.4506
# 3 69.1479 30.9044 149.7055 21.7735 8.1752 -10.3438
# 4 12.6245 20.2067 21.7735 42.5165 -2.1856 -5.5941
# 5 -35.5609 4.6382 8.1752 -2.1856 43.7359 6.0813
# 6 -8.6978 -8.4506 -10.3438 -5.5941 6.0813 18.7781
#
#
#
# Elastic Compliance Matrix: (Units=1/GPa)
#
#
# Indices 1 2 3 4 5 6 
#
# 1 0.027104 0.005490 -0.014797 -0.002041 0.024344 -0.001618
# 2 0.005490 0.017972 -0.005044 -0.006801 0.002462 0.005029
# 3 -0.014797 -0.005044 0.015892 -0.001592 -0.015109 0.004049
# 4 -0.002041 -0.006801 -0.001592 0.028657 0.000296 0.003559
# 5 0.024344 0.002462 -0.015109 0.000296 0.046765 -0.010996
# 6 -0.001618 0.005029 0.004049 0.003559 -0.010996 0.061619
#
#
# Mechanical properties :
#
#
# Convention : Reuss Voigt Hill
#
# Bulk Modulus (GPa) = 30.99095 58.73350 44.86222
# Shear Modulus (GPa) = 21.05567 36.49251 28.77409
#
# Velocity S-wave (km/s) = 2.96977 3.90967 3.47167
# Velocity P-wave (km/s) = 4.97398 6.70688 5.90435
#
# Compressibility (1/GPa) = 0.03226749
#
# Stress axis : x y z
#
# Youngs Moduli (GPa) = 36.89545 55.64090 62.92518
#
# Poissons Ratio (x) = -0.30550 0.93108
# Poissons Ratio (y) = -0.20257 0.31739
# Poissons Ratio (z) = 0.54593 0.28065
#
# Static dielectric constant tensor:
#      x y z
#    x 1.980150 -0.013450 -0.021230 
#    y -0.013450 1.927180 -0.022720 
#    z -0.021230 -0.022720 1.842050 
# 
# From -- ./inp_files/257244.got.cif
#   From: 2010.05.17/outbox.cif.g08.bks.cpg/sg2_129_cif.got.tgz:257244.got - 2010.06.03 11:33:40.
