data_PCOD9111746
_publ_section_title
;
Structure prediction by ZEFSAII (Michael W. Deem and Ramdas Pophale) SiO2 
 PCOD9111746
Probable space group: P -1
;
_chemical_formula_sum "Si O2"
_cell_formula_units_Z 13
_cell_length_a 9.530745
_cell_length_b 8.634159
_cell_length_c 9.421355
_cell_angle_alpha 106.287550
_cell_angle_beta 115.466382
_cell_angle_gamma 48.040449
_cell_volume 520.469728
_symmetry_space_group_name_H-M "P -1"
_symmetry_group_IT_number 2
_symmetry_cell_setting 'triclinic'
loop_
_space_group_symop_operation_xyz
x,y,z
-x,-y,-z
loop_
_atom_site_type_symbol
_atom_site_label
_atom_site_fract_x
_atom_site_fract_y
_atom_site_fract_z
Si Si1 0.000000 0.000000 0.000000
Si Si2 0.589364 0.196974 0.010215
Si Si3 0.633279 0.424171 0.317492
Si Si4 0.172897 0.377180 0.218210
Si Si5 0.770084 0.768649 0.117275
Si Si6 0.049041 0.180666 0.315852
Si Si7 0.593100 0.199354 0.486469
O O1 0.240346 0.882827 0.051186
O O2 0.012702 0.033385 0.185598
O O3 0.550400 0.381013 0.134528
O O4 0.674244 0.004517 0.106758
O O5 0.387187 0.245030 0.875388
O O6 0.673489 0.269481 0.420991
O O7 0.474657 0.652278 0.369454
O O8 0.846497 0.360137 0.353796
O O9 0.078925 0.279159 0.221023
O O10 0.384800 0.268977 0.353266
O O11 0.998728 0.623120 0.231750
O O12 0.209340 0.326883 0.054709
O O13 0.242387 0.040361 0.462556
#
# Coordination Sequence:
#
# PCOD9111746 Si02
#       7
#     1   2   2   2   2   2   2
#     4  10  22  38  66  96 126 160 218 266 324 378
#     4  10  20  43  69  96 126 171 216 276 325 381
#     4  10  24  43  65  98 126 176 216 266 331 387
#     4  11  23  43  63  96 130 175 219 266 319 390
#     4  10  22  40  69  93 129 172 222 264 322 391
#     4  11  24  43  65  98 134 171 214 276 327 381
#     4  11  24  44  67  94 134 175 218 263 328 397
#
# _framework density 24.977436000000001
#
# number of rings (size 3 to 8) (size 9 to 14) (size 15 to 20)
#    0.000    1.538    3.077    0.923    0.000    9.231 
#    0.000    3.077    0.000    0.000    0.000    0.000 
#    0.000    0.000    0.000    0.000    0.000    0.000 
#
# Total GULP energy -72532.121267 kJ/mol
# GULP energy per Si atom -5579.393944 kJ/mol
# Density = 2.492059 g / cm^3
# Si number density = 24.977436 Si / 1000 Ang^3
#
#
#
# Elastic Constant Matrix: (Units=GPa)
#
#
# Indices 1 2 3 4 5 6 
#
# 1 120.3328 15.8403 18.6479 6.0974 -14.9968 -49.7234
# 2 15.8403 68.9249 8.5772 -19.7704 -3.5468 1.6089
# 3 18.6479 8.5772 53.0920 -17.4405 -1.7343 9.9838
# 4 6.0974 -19.7704 -17.4405 32.3520 -14.2805 25.6713
# 5 -14.9968 -3.5468 -1.7343 -14.2805 32.0228 13.4843
# 6 -49.7234 1.6089 9.9838 25.6713 13.4843 -26.0291
#
#
#
# Elastic Compliance Matrix: (Units=1/GPa)
#
#
# Indices 1 2 3 4 5 6 
#
# 1 0.007201 0.000425 0.000277 0.005663 0.007671 -0.004064
# 2 0.000425 0.016112 -0.002024 0.005162 0.001873 0.005469
# 3 0.000277 -0.002024 0.018242 0.001946 -0.001410 0.007531
# 4 0.005663 0.005162 0.001946 0.023554 0.006697 0.016948
# 5 0.007671 0.001873 -0.001410 0.006697 0.034074 0.009177
# 6 -0.004064 0.005469 0.007531 0.016948 0.009177 -0.005959
#
#
# Mechanical properties :
#
#
# Convention : Reuss Voigt Hill
#
# Bulk Modulus (GPa) = 25.69970 36.49785 31.09877
# Shear Modulus (GPa) = 45.93959 20.95476 33.44717
#
# Velocity S-wave (km/s) = 4.29329 2.89960 3.66334
# Velocity P-wave (km/s) = 5.90661 5.08471 5.51100
#
# Compressibility (1/GPa) = 0.03891097
#
# Stress axis : x y z
#
# Youngs Moduli (GPa) = 138.86841 62.06529 54.81897
#
# Poissons Ratio (x) = -0.02635 -0.01520
# Poissons Ratio (y) = -0.05896 0.11094
# Poissons Ratio (z) = -0.03850 0.12561
#
# Static dielectric constant tensor:
#      x y z
#    x 1.946080 0.038100 0.048390 
#    y 0.038100 2.005040 0.000910 
#    z 0.048390 0.000910 1.990640 
# 
# From -- ./inp_files/159317.got.cif
#   From: 2010.05.17/outbox.cif.g08.bks.cpg/sg2_80_cif.got.tgz:159317.got - 2010.06.03 11:33:40.
