data_PCOD9111375
_publ_section_title
;
Structure prediction by ZEFSAII (Michael W. Deem and Ramdas Pophale) SiO2 
 PCOD9111375
Probable space group: P -1
;
_chemical_formula_sum "Si O2"
_cell_formula_units_Z 15
_cell_length_a 9.127558
_cell_length_b 8.296453
_cell_length_c 10.903986
_cell_angle_alpha 119.194160
_cell_angle_beta 53.752167
_cell_angle_gamma 96.832734
_cell_volume 564.238260
_symmetry_space_group_name_H-M "P -1"
_symmetry_group_IT_number 2
_symmetry_cell_setting 'triclinic'
loop_
_space_group_symop_operation_xyz
x,y,z
-x,-y,-z
loop_
_atom_site_type_symbol
_atom_site_label
_atom_site_fract_x
_atom_site_fract_y
_atom_site_fract_z
Si Si1 0.390356 0.812271 0.570774
Si Si2 0.740879 0.887288 0.450422
Si Si3 0.518655 0.305853 0.079666
Si Si4 0.000000 0.000000 0.500000
Si Si5 0.083722 0.679307 0.048786
Si Si6 0.879289 0.427747 0.637571
Si Si7 0.958261 0.294910 0.202639
Si Si8 0.648901 0.966281 0.079394
O O1 0.614825 0.734236 0.444483
O O2 0.235637 0.695395 0.626896
O O3 0.360288 0.924855 0.501643
O O4 0.349667 0.970500 0.758001
O O5 0.944328 0.826934 0.261018
O O6 0.797673 0.934857 0.573844
O O7 0.337230 0.475722 0.246217
O O8 0.555473 0.150234 0.113315
O O9 0.712958 0.367108 0.007580
O O10 0.464599 0.193019 0.948856
O O11 0.905823 0.205998 0.560555
O O12 0.000000 0.500000 0.000000
O O13 0.082633 0.749744 0.934487
O O14 0.963117 0.517600 0.748141
O O15 0.000000 0.500000 0.500000
O O16 0.135972 0.131981 0.102252
#
# Coordination Sequence:
#
# PCOD9111375 Si02
#       8
#     2   2   2   1   2   2   2   2
#     4  11  22  43  73 112 149 198 252 310 383 461
#     4  11  27  43  72 110 149 200 248 315 387 447
#     4  10  24  42  73 112 145 199 254 309 380 464
#     4  12  28  52  72 104 158 200 252 326 390 444
#     4  12  25  45  67 106 149 194 251 315 374 451
#     4  11  27  50  76 113 150 201 259 320 383 466
#     4  11  22  46  77 108 151 201 257 308 377 462
#     4  10  20  42  75 112 148 195 251 313 375 457
#
# _framework density 26.584515
#
# number of rings (size 3 to 8) (size 9 to 14) (size 15 to 20)
#    0.000    1.067    2.667    2.800    3.733    4.267 
#    0.000    4.000    0.000    0.000    0.000    0.000 
#    0.000    0.000    0.000    0.000    0.000    0.000 
#
# Total GULP energy -83726.597331 kJ/mol
# GULP energy per Si atom -5581.773155 kJ/mol
# Density = 2.652401 g / cm^3
# Si number density = 26.584515 Si / 1000 Ang^3
#
#
#
# Elastic Constant Matrix: (Units=GPa)
#
#
# Indices 1 2 3 4 5 6 
#
# 1 199.5902 50.1212 34.7816 -0.0023 -52.2307 38.2421
# 2 50.1212 134.7892 37.4863 15.0489 -27.7129 12.7037
# 3 34.7816 37.4863 90.9829 -4.8542 -37.1264 8.1602
# 4 -0.0023 15.0489 -4.8542 39.1704 6.4567 -8.9270
# 5 -52.2307 -27.7129 -37.1264 6.4567 54.0496 -2.3793
# 6 38.2421 12.7037 8.1602 -8.9270 -2.3793 50.4789
#
#
#
# Elastic Compliance Matrix: (Units=1/GPa)
#
#
# Indices 1 2 3 4 5 6 
#
# 1 0.008489 -0.000816 0.000996 -0.002422 0.008476 -0.006415
# 2 -0.000816 0.009833 -0.002598 -0.005092 0.002980 -0.002197
# 3 0.000996 -0.002598 0.016233 0.000788 0.010595 -0.002086
# 4 -0.002422 -0.005092 0.000788 0.030691 -0.007722 0.008052
# 5 0.008476 0.002980 0.010595 -0.007722 0.036044 -0.008551
# 6 -0.006415 -0.002197 -0.002086 0.008052 -0.008551 0.026582
#
#
# Mechanical properties :
#
#
# Convention : Reuss Voigt Hill
#
# Bulk Modulus (GPa) = 33.64833 74.46004 54.05419
# Shear Modulus (GPa) = 35.05964 48.93800 41.99882
#
# Velocity S-wave (km/s) = 3.63547 4.29516 3.97901
# Velocity P-wave (km/s) = 5.50516 7.25724 6.44105
#
# Compressibility (1/GPa) = 0.02971915
#
# Stress axis : x y z
#
# Youngs Moduli (GPa) = 117.80198 101.69672 61.60197
#
# Poissons Ratio (x) = 0.08296 -0.06134
# Poissons Ratio (y) = 0.09610 0.16004
# Poissons Ratio (z) = -0.11730 0.26421
#
# Static dielectric constant tensor:
#      x y z
#    x 2.854030 -0.039640 0.556010 
#    y -0.039640 2.031070 -0.141610 
#    z 0.556010 -0.141610 2.524570 
# 
# From -- ./inp_files/383086.got.cif
#   From: 2010.05.17/outbox.cif.g08.bks.cpg/sg2_192_cif.got.tgz:383086.got - 2010.06.03 11:33:40.
