data_PCOD9111429
_publ_section_title
;
Structure prediction by ZEFSAII (Michael W. Deem and Ramdas Pophale) SiO2 
 PCOD9111429
Probable space group: P -1
;
_chemical_formula_sum "Si O2"
_cell_formula_units_Z 16
_cell_length_a 8.269395
_cell_length_b 6.149420
_cell_length_c 19.463484
_cell_angle_alpha 119.229525
_cell_angle_beta 82.751085
_cell_angle_gamma 119.534869
_cell_volume 742.895529
_symmetry_space_group_name_H-M "P -1"
_symmetry_group_IT_number 2
_symmetry_cell_setting 'triclinic'
loop_
_space_group_symop_operation_xyz
x,y,z
-x,-y,-z
loop_
_atom_site_type_symbol
_atom_site_label
_atom_site_fract_x
_atom_site_fract_y
_atom_site_fract_z
Si Si1 0.317919 0.889931 0.087389
Si Si2 0.704809 0.431493 0.093886
Si Si3 0.033257 0.407230 0.767301
Si Si4 0.174293 0.285709 0.208675
Si Si5 0.742956 0.779210 0.658795
Si Si6 0.502670 0.762486 0.182154
Si Si7 0.323523 0.616589 0.670009
Si Si8 0.904626 0.679156 0.496429
O O1 0.361792 0.763932 0.132975
O O2 0.523390 0.151289 0.093384
O O3 0.184802 0.017201 0.135321
O O4 0.245115 0.670161 0.994465
O O5 0.869290 0.562241 0.160771
O O6 0.630924 0.654514 0.122006
O O7 0.177591 0.411943 0.703453
O O8 0.989270 0.665292 0.803081
O O9 0.837673 0.121573 0.717039
O O10 0.166697 0.294784 0.292834
O O11 0.376330 0.542312 0.213466
O O12 0.520356 0.621639 0.657321
O O13 0.796041 0.716290 0.572347
O O14 0.623339 0.069276 0.257742
O O15 0.227145 0.532821 0.588543
O O16 0.000000 0.500000 0.500000
O O17 0.000000 0.000000 0.500000
#
# Coordination Sequence:
#
# PCOD9111429 Si02
#       8
#     2   2   2   2   2   2   2   2
#     4  10  20  43  63 102 144 185 247 297 366 432
#     4  10  23  36  69 102 140 193 237 305 362 433
#     4  12  24  43  70 103 142 189 244 293 368 431
#     4  11  23  42  70  98 143 191 237 308 355 442
#     4  12  26  49  72 106 147 186 245 298 365 444
#     4  11  21  43  69 100 139 190 247 294 366 437
#     4  12  24  48  75 105 141 196 235 300 372 439
#     4  12  29  51  79 117 152 192 246 310 374 452
#
# _framework density 21.537348000000001
#
# number of rings (size 3 to 8) (size 9 to 14) (size 15 to 20)
#    0.000    0.750    5.000    2.250    3.500    1.500 
#    0.000    4.375    0.000    0.000    0.000    0.000 
#    0.000    0.000    0.000    0.000    0.000    0.000 
#
# Total GULP energy -89353.254909 kJ/mol
# GULP energy per Si atom -5584.578432 kJ/mol
# Density = 2.148833 g / cm^3
# Si number density = 21.537348 Si / 1000 Ang^3
#
#
#
# Elastic Constant Matrix: (Units=GPa)
#
#
# Indices 1 2 3 4 5 6 
#
# 1 114.8502 12.1121 33.0389 -10.8457 -0.1575 -15.2836
# 2 12.1121 33.7982 -11.0462 -36.9596 10.0188 -6.9158
# 3 33.0389 -11.0462 112.2090 -52.3979 42.7907 -8.3490
# 4 -10.8457 -36.9596 -52.3979 4.8880 24.4351 -7.1531
# 5 -0.1575 10.0188 42.7907 24.4351 -3.3043 0.9762
# 6 -15.2836 -6.9158 -8.3490 -7.1531 0.9762 34.4929
#
#
#
# Elastic Compliance Matrix: (Units=1/GPa)
#
#
# Indices 1 2 3 4 5 6 
#
# 1 0.010130 -0.000214 -0.001694 0.003107 0.001277 0.004644
# 2 -0.000214 0.024322 -0.005524 0.002979 0.025231 0.003348
# 3 -0.001694 -0.005524 0.005001 -0.006118 0.002260 -0.001981
# 4 0.003107 0.002979 -0.006118 0.013698 0.031663 0.002438
# 5 0.001277 0.025231 0.002260 0.031663 0.040634 0.011588
# 6 0.004644 0.003348 -0.001981 0.002438 0.011588 0.031419
#
#
# Mechanical properties :
#
#
# Convention : Reuss Voigt Hill
#
# Bulk Modulus (GPa) = 40.67229 36.56300 38.61765
# Shear Modulus (GPa) = 33.72345 22.33215 28.02780
#
# Velocity S-wave (km/s) = 3.96133 3.22359 3.61135
# Velocity P-wave (km/s) = 6.31256 5.55597 5.94631
#
# Compressibility (1/GPa) = 0.02458676
#
# Stress axis : x y z
#
# Youngs Moduli (GPa) = 98.71539 41.11542 199.97002
#
# Poissons Ratio (x) = 0.00881 0.33880
# Poissons Ratio (y) = 0.02116 1.10470
# Poissons Ratio (z) = 0.16725 0.22714
#
# Static dielectric constant tensor:
#      x y z
#    x 1.772040 -0.002130 -0.025520 
#    y -0.002130 1.878740 0.005970 
#    z -0.025520 0.005970 1.716010 
# 
# From -- ./inp_files/53223.got.cif
#   From: 2010.05.17/outbox.cif.g08.bks.cpg/sg2_27_cif.got.tgz:53223.got - 2010.06.03 11:33:40.
