data_PCOD9111957
_publ_section_title
;
Structure prediction by ZEFSAII (Michael W. Deem and Ramdas Pophale) SiO2 
 PCOD9111957
Probable space group: P -1
;
_chemical_formula_sum "Si O2"
_cell_formula_units_Z 15
_cell_length_a 9.396286
_cell_length_b 11.182578
_cell_length_c 8.411837
_cell_angle_alpha 137.227544
_cell_angle_beta 106.626787
_cell_angle_gamma 73.103317
_cell_volume 570.700722
_symmetry_space_group_name_H-M "P -1"
_symmetry_group_IT_number 2
_symmetry_cell_setting 'triclinic'
loop_
_space_group_symop_operation_xyz
x,y,z
-x,-y,-z
loop_
_atom_site_type_symbol
_atom_site_label
_atom_site_fract_x
_atom_site_fract_y
_atom_site_fract_z
Si Si1 0.770084 0.587471 0.345729
Si Si2 0.424996 0.867578 0.226133
Si Si3 0.837479 0.931012 0.872372
Si Si4 0.114791 0.244894 0.749936
Si Si5 0.000000 0.500000 0.500000
Si Si6 0.151616 0.556040 0.290861
Si Si7 0.563734 0.333642 0.651705
Si Si8 0.667881 0.962617 0.186791
O O1 0.858520 0.719794 0.619856
O O2 0.774619 0.682096 0.271947
O O3 0.604726 0.577962 0.332906
O O4 0.897683 0.427417 0.245653
O O5 0.403712 0.712755 0.195795
O O6 0.545927 0.837363 0.090368
O O7 0.500000 0.000000 0.500000
O O8 0.272292 0.964462 0.192871
O O9 0.742880 0.941084 0.016534
O O10 0.000000 0.000000 0.000000
O O11 0.195455 0.064840 0.670012
O O12 0.955746 0.271771 0.640148
O O13 0.103955 0.382376 0.023734
O O14 0.130697 0.553516 0.467040
O O15 0.315582 0.561101 0.283991
O O16 0.579142 0.154868 0.376391
#
# Coordination Sequence:
#
# PCOD9111957 Si02
#       8
#     2   2   2   2   1   2   2   2
#     4  11  22  46  67  93 140 180 224 288 342 409
#     4  10  20  44  64  95 138 179 212 279 345 405
#     4  12  26  39  66 107 140 177 230 284 348 403
#     4  10  22  44  68  92 140 185 223 275 354 407
#     4  10  24  44  68  90 142 172 216 286 350 400
#     4  10  24  43  67 100 132 184 229 282 339 419
#     4  11  23  42  73  99 131 179 238 276 341 416
#     4  11  22  41  67 100 137 181 215 292 342 403
#
# _framework density 26.283480000000001
#
# number of rings (size 3 to 8) (size 9 to 14) (size 15 to 20)
#    0.000    1.333    4.000    2.000    5.600    1.600 
#    0.000    0.000    0.000    0.000    0.000    0.000 
#    0.000    0.000    0.000    0.000    0.000    0.000 
#
# Total GULP energy -83735.961890 kJ/mol
# GULP energy per Si atom -5582.397459 kJ/mol
# Density = 2.622366 g / cm^3
# Si number density = 26.283480 Si / 1000 Ang^3
#
#
#
# Elastic Constant Matrix: (Units=GPa)
#
#
# Indices 1 2 3 4 5 6 
#
# 1 242.1506 81.0534 65.4716 -28.2271 -15.9507 8.1970
# 2 81.0534 94.3147 16.3386 -31.3428 12.2692 -0.3333
# 3 65.4716 16.3386 62.2959 -21.3314 -18.4513 31.0750
# 4 -28.2271 -31.3428 -21.3314 39.2546 2.9013 -3.2663
# 5 -15.9507 12.2692 -18.4513 2.9013 40.6976 -21.6369
# 6 8.1970 -0.3333 31.0750 -3.2663 -21.6369 56.0289
#
#
#
# Elastic Compliance Matrix: (Units=1/GPa)
#
#
# Indices 1 2 3 4 5 6 
#
# 1 0.009800 -0.009219 -0.011998 -0.006656 0.005279 0.006816
# 2 -0.009219 0.024488 0.009811 0.018510 -0.011818 -0.007432
# 3 -0.011998 0.009811 0.043960 0.021351 -0.000740 -0.021609
# 4 -0.006656 0.018510 0.021351 0.046723 -0.007690 -0.011004
# 5 0.005279 -0.011818 -0.000740 -0.007690 0.037685 0.013673
# 6 0.006816 -0.007432 -0.021609 -0.011004 0.013673 0.033430
#
#
# Mechanical properties :
#
#
# Convention : Reuss Voigt Hill
#
# Bulk Modulus (GPa) = 18.03858 80.49871 49.26865
# Shear Modulus (GPa) = 21.06367 42.92272 31.99320
#
# Velocity S-wave (km/s) = 2.83398 4.04551 3.49268
# Velocity P-wave (km/s) = 4.19363 7.24673 5.92037
#
# Compressibility (1/GPa) = 0.05543674
#
# Stress axis : x y z
#
# Youngs Moduli (GPa) = 102.03692 40.83650 22.74814
#
# Poissons Ratio (x) = 0.37645 0.27293
# Poissons Ratio (y) = 0.94063 -0.22318
# Poissons Ratio (z) = 1.22424 -0.40064
#
# Static dielectric constant tensor:
#      x y z
#    x 3.004170 -1.410090 -0.105470 
#    y -1.410090 4.295490 0.309380 
#    z -0.105470 0.309380 2.153800 
# 
# From -- ./inp_files/173037.got.cif
#   From: 2010.05.17/outbox.cif.g08.bks.cpg/sg2_87_cif.got.tgz:173037.got - 2010.06.03 11:33:40.
