data_PCOD9111301
_publ_section_title
;
Structure prediction by ZEFSAII (Michael W. Deem and Ramdas Pophale) SiO2 
 PCOD9111301
Probable space group: P -1
;
_chemical_formula_sum "Si O2"
_cell_formula_units_Z 14
_cell_length_a 29.073761
_cell_length_b 18.588320
_cell_length_c 13.424304
_cell_angle_alpha 16.656872
_cell_angle_beta 155.846298
_cell_angle_gamma 162.432421
_cell_volume 627.636776
_symmetry_space_group_name_H-M "P -1"
_symmetry_group_IT_number 2
_symmetry_cell_setting 'triclinic'
loop_
_space_group_symop_operation_xyz
x,y,z
-x,-y,-z
loop_
_atom_site_type_symbol
_atom_site_label
_atom_site_fract_x
_atom_site_fract_y
_atom_site_fract_z
Si Si1 0.137790 0.847431 0.088448
Si Si2 0.556268 0.804076 0.389524
Si Si3 0.812893 0.324233 0.081059
Si Si4 0.764381 0.831591 0.359476
Si Si5 0.408700 0.748226 0.560712
Si Si6 0.899159 0.629307 0.630384
Si Si7 0.380127 0.103652 0.379743
O O1 0.978995 0.479201 0.236165
O O2 0.235254 0.846309 0.363202
O O3 0.224761 0.054591 0.883750
O O4 0.099384 0.064518 0.767665
O O5 0.408393 0.399180 0.636745
O O6 0.631245 0.942058 0.464118
O O7 0.681471 0.945882 0.363785
O O8 0.500000 0.000000 0.000000
O O9 0.786670 0.563675 0.756398
O O10 0.827896 0.415804 0.874414
O O11 0.918824 0.160360 0.283962
O O12 0.238766 0.610338 0.403211
O O13 0.491377 0.876775 0.444711
O O14 0.500000 0.000000 0.500000
O O15 0.407908 0.445569 0.973815
#
# Coordination Sequence:
#
# PCOD9111301 Si02
#       7
#     2   2   2   2   2   2   2
#     4   8  14  26  44  68  96 126 162 205 243 282
#     4  10  17  26  45  75 102 131 169 200 239 298
#     4   8  14  24  43  71  99 129 165 196 238 298
#     4   8  13  23  41  65  96 126 160 205 243 281
#     4  10  19  32  52  76 100 128 164 206 250 291
#     4   8  14  27  45  67  94 126 162 203 245 284
#     4  10  19  31  49  74 103 129 162 207 247 287
#
# _framework density 22.305895
#
# number of rings (size 3 to 8) (size 9 to 14) (size 15 to 20)
#    0.000    3.143    0.000    6.000    0.000    0.571 
#    0.000    0.000    0.000   11.143    0.000   32.000 
#    0.000    0.000    0.000    0.000    0.000    0.000 
#
# Total GULP energy -77962.596661 kJ/mol
# GULP energy per Si atom -5568.756904 kJ/mol
# Density = 2.225513 g / cm^3
# Si number density = 22.305895 Si / 1000 Ang^3
#
#
#
# Elastic Constant Matrix: (Units=GPa)
#
#
# Indices 1 2 3 4 5 6 
#
# 1 20.3219 14.0669 31.6663 -15.9888 32.9088 27.1860
# 2 14.0669 162.0101 66.1462 -4.2092 27.4456 30.6613
# 3 31.6663 66.1462 15.1564 13.6727 -45.9928 -3.1879
# 4 -15.9888 -4.2092 13.6727 39.4186 16.1869 -2.0531
# 5 32.9088 27.4456 -45.9928 16.1869 -26.5655 -33.5129
# 6 27.1860 30.6613 -3.1879 -2.0531 -33.5129 26.6170
#
#
#
# Elastic Compliance Matrix: (Units=1/GPa)
#
#
# Indices 1 2 3 4 5 6 
#
# 1 0.025942 -0.007710 0.010228 0.001578 0.010797 -0.002673
# 2 -0.007710 0.007891 -0.005335 -0.001774 0.003580 0.002517
# 3 0.010228 -0.005335 0.024641 -0.000500 -0.013157 -0.017954
# 4 0.001578 -0.001774 -0.000500 0.024377 0.005024 0.008576
# 5 0.010797 0.003580 -0.013157 0.005024 0.010000 -0.003749
# 6 -0.002673 0.002517 -0.017954 0.008576 -0.003749 0.031191
#
#
# Mechanical properties :
#
#
# Convention : Reuss Voigt Hill
#
# Bulk Modulus (GPa) = 18.92541 46.80526 32.86533
# Shear Modulus (GPa) = 33.94673 13.60128 23.77401
#
# Velocity S-wave (km/s) = 3.90535 2.47201 3.26823
# Velocity P-wave (km/s) = 5.37016 5.40155 5.38588
#
# Compressibility (1/GPa) = 0.05283902
#
# Stress axis : x y z
#
# Youngs Moduli (GPa) = 38.54793 126.72735 40.58305
#
# Poissons Ratio (x) = 0.97713 -0.41508
# Poissons Ratio (y) = 0.29722 0.21650
# Poissons Ratio (z) = -0.39426 0.67605
#
# Static dielectric constant tensor:
#      x y z
#    x 1.920000 0.040850 -0.002520 
#    y 0.040850 1.941880 -0.023380 
#    z -0.002520 -0.023380 1.863180 
# 
# From -- ./inp_files/477712.got.cif
#   From: 2010.05.17/outbox.cif.g08.bks.cpg/sg2_239_cif.got.tgz:477712.got - 2010.06.03 11:33:40.
