data_PCOD9111548
_publ_section_title
;
Structure prediction by ZEFSAII (Michael W. Deem and Ramdas Pophale) SiO2 
 PCOD9111548
Probable space group: P -1
;
_chemical_formula_sum "Si O2"
_cell_formula_units_Z 10
_cell_length_a 10.559454
_cell_length_b 12.984471
_cell_length_c 7.688852
_cell_angle_alpha 49.148272
_cell_angle_beta 36.789525
_cell_angle_gamma 49.020084
_cell_volume 456.838556
_symmetry_space_group_name_H-M "P -1"
_symmetry_group_IT_number 2
_symmetry_cell_setting 'triclinic'
loop_
_space_group_symop_operation_xyz
x,y,z
-x,-y,-z
loop_
_atom_site_type_symbol
_atom_site_label
_atom_site_fract_x
_atom_site_fract_y
_atom_site_fract_z
Si Si1 0.876934 0.886665 0.708989
Si Si2 0.631474 0.799980 0.368889
Si Si3 0.093286 0.132908 0.704151
Si Si4 0.957607 0.403866 0.000686
Si Si5 0.687880 0.374124 0.021797
O O1 0.054118 0.738100 0.732232
O O2 0.829660 0.884631 0.560115
O O3 0.671878 0.888709 0.059337
O O4 0.000000 0.000000 0.500000
O O5 0.710492 0.864789 0.381475
O O6 0.819243 0.649231 0.298581
O O7 0.410937 0.755176 0.672309
O O8 0.902521 0.284396 0.774579
O O9 0.000000 0.000000 0.000000
O O10 0.763915 0.445244 0.028987
O O11 0.000000 0.500000 0.000000
O O12 0.500000 0.500000 0.000000
#
# Coordination Sequence:
#
# PCOD9111548 Si02
#       5
#     2   2   2   2   2
#     4  10  20  43  66  90 130 178 212 268 328 395
#     4   9  23  40  63  95 132 167 226 265 330 386
#     4  11  22  44  67  92 135 176 216 270 336 392
#     4   9  22  41  64  91 136 174 219 263 336 389
#     4  11  25  41  66 101 134 167 226 279 324 392
#
# _framework density 21.889568000000001
#
# number of rings (size 3 to 8) (size 9 to 14) (size 15 to 20)
#    1.200    0.800    2.000    0.000    5.600    3.200 
#    3.600    2.000    0.000    0.000    0.000    0.000 
#    0.000    0.000    0.000    0.000    0.000    0.000 
#
# Total GULP energy -55753.780419 kJ/mol
# GULP energy per Si atom -5575.378042 kJ/mol
# Density = 2.183975 g / cm^3
# Si number density = 21.889568 Si / 1000 Ang^3
#
#
#
# Elastic Constant Matrix: (Units=GPa)
#
#
# Indices 1 2 3 4 5 6 
#
# 1 191.9181 66.2298 45.4129 7.7537 11.0799 36.7250
# 2 66.2298 96.6073 28.0569 -15.9209 -0.1835 8.5853
# 3 45.4129 28.0569 95.6451 9.3416 3.4006 14.8396
# 4 7.7537 -15.9209 9.3416 36.6324 7.3523 4.2065
# 5 11.0799 -0.1835 3.4006 7.3523 41.6150 -6.3120
# 6 36.7250 8.5853 14.8396 4.2065 -6.3120 37.9298
#
#
#
# Elastic Compliance Matrix: (Units=1/GPa)
#
#
# Indices 1 2 3 4 5 6 
#
# 1 0.009141 -0.005731 -0.001157 -0.002691 -0.002996 -0.007301
# 2 -0.005731 0.016518 -0.003362 0.008860 0.000649 0.002251
# 3 -0.001157 -0.003362 0.012834 -0.004081 -0.000454 -0.002763
# 4 -0.002691 0.008860 -0.004081 0.034109 -0.005312 -0.002470
# 5 -0.002996 0.000649 -0.000454 -0.005312 0.027022 0.008018
# 6 -0.007301 0.002251 -0.002763 -0.002470 0.008018 0.035613
#
#
# Mechanical properties :
#
#
# Convention : Reuss Voigt Hill
#
# Bulk Modulus (GPa) = 55.57643 73.72994 64.65318
# Shear Modulus (GPa) = 30.91488 39.53351 35.22419
#
# Velocity S-wave (km/s) = 3.76215 4.25437 4.01581
# Velocity P-wave (km/s) = 6.65705 7.60846 7.14860
#
# Compressibility (1/GPa) = 0.01799324
#
# Stress axis : x y z
#
# Youngs Moduli (GPa) = 109.40015 60.54078 77.91643
#
# Poissons Ratio (x) = 0.34695 0.09014
# Poissons Ratio (y) = 0.62695 0.26196
# Poissons Ratio (z) = 0.12657 0.20354
#
# Static dielectric constant tensor:
#      x y z
#    x 1.800090 -0.043690 0.010910 
#    y -0.043690 1.848080 -0.000410 
#    z 0.010910 -0.000410 1.820080 
# 
# From -- ./inp_files/50047.got.cif
#   From: 2010.05.17/outbox.cif.g08.bks.cpg/sg2_26_cif.got.tgz:50047.got - 2010.06.03 11:33:40.
