data_PCOD9111391
_publ_section_title
;
Structure prediction by ZEFSAII (Michael W. Deem and Ramdas Pophale) SiO2 
 PCOD9111391
Probable space group: P -1
;
_chemical_formula_sum "Si O2"
_cell_formula_units_Z 14
_cell_length_a 8.745582
_cell_length_b 13.480362
_cell_length_c 7.826875
_cell_angle_alpha 36.081268
_cell_angle_beta 92.784270
_cell_angle_gamma 105.095885
_cell_volume 502.958809
_symmetry_space_group_name_H-M "P -1"
_symmetry_group_IT_number 2
_symmetry_cell_setting 'triclinic'
loop_
_space_group_symop_operation_xyz
x,y,z
-x,-y,-z
loop_
_atom_site_type_symbol
_atom_site_label
_atom_site_fract_x
_atom_site_fract_y
_atom_site_fract_z
Si Si1 0.602509 0.508151 0.666089
Si Si2 0.695882 0.208688 0.261587
Si Si3 0.783034 0.299878 0.642926
Si Si4 0.169370 0.038063 0.594528
Si Si5 0.945609 0.801961 0.360900
Si Si6 0.481556 0.194656 0.595388
Si Si7 0.006043 0.332440 0.946798
O O1 0.500000 0.500000 0.500000
O O2 0.792443 0.652587 0.461656
O O3 0.533971 0.608738 0.665833
O O4 0.605446 0.315076 0.992960
O O5 0.597952 0.181089 0.468717
O O6 0.722543 0.025296 0.451030
O O7 0.888153 0.344333 0.076635
O O8 0.587689 0.192013 0.771824
O O9 0.879669 0.320975 0.796558
O O10 0.892068 0.239373 0.600822
O O11 0.823705 0.506809 0.294242
O O12 0.111689 0.194306 0.450148
O O13 0.296498 0.057454 0.736094
O O14 0.993811 0.868415 0.799110
O O15 0.000000 0.000000 0.000000
#
# Coordination Sequence:
#
# PCOD9111391 Si02
#       7
#     2   2   2   2   2   2   2
#     4  11  24  40  63  89 115 153 203 243 291 350
#     4  10  20  43  60  83 122 159 193 241 295 348
#     4  11  21  38  60  92 117 155 198 244 294 346
#     4   9  21  38  60  84 118 160 193 240 295 340
#     4  11  20  38  60  89 119 152 192 249 295 340
#     4  11  24  36  64  89 118 154 201 240 294 352
#     4   9  20  37  63  78 124 154 196 238 298 335
#
# _framework density 27.835283
#
# number of rings (size 3 to 8) (size 9 to 14) (size 15 to 20)
#    0.857    0.857    2.857    1.714    2.000    2.286 
#    0.000    0.714    0.000    0.000    0.000    0.000 
#    0.000    0.000    0.000    0.000    0.000    0.000 
#
# Total GULP energy -77989.398048 kJ/mol
# GULP energy per Si atom -5570.671289 kJ/mol
# Density = 2.777193 g / cm^3
# Si number density = 27.835283 Si / 1000 Ang^3
#
#
#
# Elastic Constant Matrix: (Units=GPa)
#
#
# Indices 1 2 3 4 5 6 
#
# 1 135.0234 58.4802 11.9853 -3.9116 -4.1365 -15.1602
# 2 58.4802 142.1860 14.9872 -3.1636 -9.9211 -30.6300
# 3 11.9853 14.9872 64.6929 -6.0025 -4.1578 1.6523
# 4 -3.9116 -3.1636 -6.0025 40.2838 3.2374 -4.3071
# 5 -4.1365 -9.9211 -4.1578 3.2374 40.6369 -15.5292
# 6 -15.1602 -30.6300 1.6523 -4.3071 -15.5292 80.3114
#
#
#
# Elastic Compliance Matrix: (Units=1/GPa)
#
#
# Indices 1 2 3 4 5 6 
#
# 1 0.009076 -0.003536 -0.000819 0.000520 0.000099 0.000429
# 2 -0.003536 0.009668 -0.001440 0.000336 0.003238 0.003694
# 3 -0.000819 -0.001440 0.016204 0.002078 0.000760 -0.000779
# 4 0.000520 0.000336 0.002078 0.025446 -0.001175 0.001321
# 5 0.000099 0.003238 0.000760 -0.001175 0.028106 0.006610
# 6 0.000429 0.003694 -0.000779 0.001321 0.006610 0.015306
#
#
# Mechanical properties :
#
#
# Convention : Reuss Voigt Hill
#
# Bulk Modulus (GPa) = 42.80802 56.97863 49.89333
# Shear Modulus (GPa) = 40.59009 49.34305 44.96657
#
# Velocity S-wave (km/s) = 3.82281 4.21489 4.02363
# Velocity P-wave (km/s) = 5.90742 6.64841 6.28884
#
# Compressibility (1/GPa) = 0.02336011
#
# Stress axis : x y z
#
# Youngs Moduli (GPa) = 110.17480 103.43179 61.71169
#
# Poissons Ratio (x) = 0.36573 0.05053
# Poissons Ratio (y) = 0.38957 0.08885
# Poissons Ratio (z) = 0.09020 0.14892
#
# Static dielectric constant tensor:
#      x y z
#    x 2.149620 0.017670 0.171000 
#    y 0.017670 2.239550 0.088550 
#    z 0.171000 0.088550 2.528290 
# 
# From -- ./inp_files/205239.got.cif
#   From: 2010.05.17/outbox.cif.g08.bks.cpg/sg2_103_cif.got.tgz:205239.got - 2010.06.03 11:33:40.
