data_PCOD9111259
_publ_section_title
;
Structure prediction by ZEFSAII (Michael W. Deem and Ramdas Pophale) SiO2 
 PCOD9111259
Probable space group: P -1
;
_chemical_formula_sum "Si O2"
_cell_formula_units_Z 15
_cell_length_a 11.915991
_cell_length_b 11.893033
_cell_length_c 9.575817
_cell_angle_alpha 46.894903
_cell_angle_beta 139.928902
_cell_angle_gamma 123.830534
_cell_volume 636.156192
_symmetry_space_group_name_H-M "P -1"
_symmetry_group_IT_number 2
_symmetry_cell_setting 'triclinic'
loop_
_space_group_symop_operation_xyz
x,y,z
-x,-y,-z
loop_
_atom_site_type_symbol
_atom_site_label
_atom_site_fract_x
_atom_site_fract_y
_atom_site_fract_z
Si Si1 0.641151 0.436390 0.846509
Si Si2 0.521718 0.850129 0.244661
Si Si3 0.626499 0.460667 0.281774
Si Si4 0.434141 0.020931 0.264576
Si Si5 0.000000 0.500000 0.000000
Si Si6 0.099051 0.168131 0.426227
Si Si7 0.249173 0.749874 0.635299
Si Si8 0.854359 0.769831 0.265203
O O1 0.546482 0.299111 0.782014
O O2 0.489793 0.530604 0.696567
O O3 0.749163 0.381251 0.132206
O O4 0.793148 0.514129 0.828948
O O5 0.725985 0.846429 0.484206
O O6 0.415996 0.879536 0.260728
O O7 0.500000 0.000000 0.000000
O O8 0.704824 0.308408 0.426066
O O9 0.783393 0.594132 0.318404
O O10 0.500000 0.500000 0.000000
O O11 0.593815 0.134132 0.261619
O O12 0.500000 0.000000 0.500000
O O13 0.263322 0.114905 0.023722
O O14 0.977887 0.305158 0.152736
O O15 0.173702 0.211354 0.613622
O O16 0.000000 0.000000 0.500000
O O17 0.057428 0.805893 0.399977
#
# Coordination Sequence:
#
# PCOD9111259 Si02
#       8
#     2   2   2   2   1   2   2   2
#     4  11  22  44  72 109 155 197 266 334 391 470
#     4  12  21  46  79 102 149 221 257 320 419 471
#     4  10  20  42  71 101 144 202 247 317 395 464
#     4  12  27  46  69 112 154 202 271 328 396 483
#     4  12  28  44  70 122 158 192 276 336 376 494
#     4  12  25  46  77 112 160 204 261 339 400 470
#     4  11  22  44  75 104 154 202 253 329 400 471
#     4  12  22  45  76 106 144 212 266 312 413 474
#
# _framework density 23.579115000000002
#
# number of rings (size 3 to 8) (size 9 to 14) (size 15 to 20)
#    0.000    0.533    8.000    2.000    0.000    2.133 
#    2.400    0.000    0.000    0.000    0.000    0.000 
#    0.000    0.000    0.000    0.000    0.000    0.000 
#
# Total GULP energy -83588.008997 kJ/mol
# GULP energy per Si atom -5572.533933 kJ/mol
# Density = 2.352545 g / cm^3
# Si number density = 23.579115 Si / 1000 Ang^3
#
#
#
# Elastic Constant Matrix: (Units=GPa)
#
#
# Indices 1 2 3 4 5 6 
#
# 1 100.4266 13.9349 29.6274 -0.2718 19.8828 -13.3280
# 2 13.9349 106.8420 10.3290 -0.1219 -2.0145 -14.0779
# 3 29.6274 10.3290 110.6075 -6.0530 23.6782 -9.3714
# 4 -0.2718 -0.1219 -6.0530 36.7369 -7.8424 4.0037
# 5 19.8828 -2.0145 23.6782 -7.8424 45.1014 10.9519
# 6 -13.3280 -14.0779 -9.3714 4.0037 10.9519 40.9624
#
#
#
# Elastic Compliance Matrix: (Units=1/GPa)
#
#
# Indices 1 2 3 4 5 6 
#
# 1 0.012510 -0.000903 -0.001563 -0.002112 -0.006393 0.005318
# 2 -0.000903 0.009921 -0.000529 -0.000305 0.000354 0.002930
# 3 -0.001563 -0.000529 0.011083 0.000169 -0.005954 0.003421
# 4 -0.002112 -0.000305 0.000169 0.029397 0.007295 -0.005577
# 5 -0.006393 0.000354 -0.005954 0.007295 0.032490 -0.012720
# 6 0.005318 0.002930 0.003421 -0.005577 -0.012720 0.031879
#
#
# Mechanical properties :
#
#
# Convention : Reuss Voigt Hill
#
# Bulk Modulus (GPa) = 36.33148 47.29541 41.81344
# Shear Modulus (GPa) = 35.10179 42.15912 38.63045
#
# Velocity S-wave (km/s) = 3.86253 4.23305 4.05202
# Velocity P-wave (km/s) = 5.94424 6.63274 6.29791
#
# Compressibility (1/GPa) = 0.02752434
#
# Stress axis : x y z
#
# Youngs Moduli (GPa) = 79.93751 100.79763 90.23033
#
# Poissons Ratio (x) = 0.09099 0.14102
# Poissons Ratio (y) = 0.07216 0.04773
# Poissons Ratio (z) = 0.12493 0.05332
#
# Static dielectric constant tensor:
#      x y z
#    x 0.000120 0.646100 -0.065280 
#    y 0.646100 1.790400 -0.080540 
#    z -0.065280 -0.080540 1.906580 
# 
# From -- ./inp_files/261874.got.cif
#   From: 2010.05.17/outbox.cif.g08.bks.cpg/sg2_131_cif.got.tgz:261874.got - 2010.06.03 11:33:40.
