data_PCOD9111766
_publ_section_title
;
Structure prediction by ZEFSAII (Michael W. Deem and Ramdas Pophale) SiO2 
 PCOD9111766
Probable space group: P -1
;
_chemical_formula_sum "Si O2"
_cell_formula_units_Z 16
_cell_length_a 8.900963
_cell_length_b 26.245738
_cell_length_c 25.779675
_cell_angle_alpha 169.077536
_cell_angle_beta 39.347200
_cell_angle_gamma 141.581219
_cell_volume 708.693717
_symmetry_space_group_name_H-M "P -1"
_symmetry_group_IT_number 2
_symmetry_cell_setting 'triclinic'
loop_
_space_group_symop_operation_xyz
x,y,z
-x,-y,-z
loop_
_atom_site_type_symbol
_atom_site_label
_atom_site_fract_x
_atom_site_fract_y
_atom_site_fract_z
Si Si1 0.686520 0.733719 0.653575
Si Si2 0.446870 0.870606 0.660863
Si Si3 0.186875 0.618980 0.374027
Si Si4 0.302624 0.146893 0.807379
Si Si5 0.270237 0.957887 0.946698
Si Si6 0.757458 0.664096 0.762737
Si Si7 0.019519 0.039637 0.670682
Si Si8 0.289988 0.573383 0.092637
O O1 0.500000 0.500000 0.500000
O O2 0.526379 0.869126 0.792298
O O3 0.904391 0.621969 0.458709
O O4 0.784210 0.953092 0.891607
O O5 0.319335 0.732329 0.504851
O O6 0.364494 0.645531 0.502564
O O7 0.734188 0.935409 0.642977
O O8 0.354492 0.142596 0.974198
O O9 0.290732 0.837494 0.519809
O O10 0.227382 0.323052 0.050511
O O11 0.566418 0.295664 0.865368
O O12 0.115937 0.142167 0.804719
O O13 0.044370 0.723989 0.756614
O O14 0.281071 0.211948 0.159082
O O15 0.162545 0.801771 0.380200
O O16 0.096856 0.289352 0.859074
O O17 0.500000 0.500000 0.000000
#
# Coordination Sequence:
#
# PCOD9111766 Si02
#       8
#     2   2   2   2   2   2   2   2
#     4  11  25  42  68  95 137 174 227 281 339 389
#     4  12  26  45  66 100 143 177 217 285 337 397
#     4  12  26  44  65 100 142 178 219 279 348 394
#     4  11  24  43  71  99 133 177 226 272 336 403
#     4  10  25  43  67  96 125 184 230 279 329 402
#     4  11  25  45  68  93 135 180 231 273 338 390
#     4  11  23  42  72 103 131 176 225 273 330 400
#     4  10  20  43  70 101 135 170 220 280 329 393
#
# _framework density 22.576749
#
# number of rings (size 3 to 8) (size 9 to 14) (size 15 to 20)
#    0.000    1.000    1.250    6.000    7.000    1.000 
#    0.000    3.750    0.000    0.000    0.000    0.000 
#    0.000    0.000    0.000    0.000    0.000    0.000 
#
# Total GULP energy -89664.756156 kJ/mol
# GULP energy per Si atom -5604.047260 kJ/mol
# Density = 2.252536 g / cm^3
# Si number density = 22.576749 Si / 1000 Ang^3
#
#
#
# Elastic Constant Matrix: (Units=GPa)
#
#
# Indices 1 2 3 4 5 6 
#
# 1 96.9873 37.1208 10.6536 -7.1657 -4.3726 10.2360
# 2 37.1208 137.3449 25.7235 7.8251 -6.1188 26.2591
# 3 10.6536 25.7235 82.2199 -5.8330 7.3168 9.2075
# 4 -7.1657 7.8251 -5.8330 57.7406 -10.3374 -0.5012
# 5 -4.3726 -6.1188 7.3168 -10.3374 9.7603 4.4189
# 6 10.2360 26.2591 9.2075 -0.5012 4.4189 26.0022
#
#
#
# Elastic Compliance Matrix: (Units=1/GPa)
#
#
# Indices 1 2 3 4 5 6 
#
# 1 0.012430 -0.002054 -0.001215 0.003615 0.010910 -0.004173
# 2 -0.002054 0.011338 -0.003197 0.000354 0.014367 -0.011945
# 3 -0.001215 -0.003197 0.014454 -0.000904 -0.014836 0.001093
# 4 0.003615 0.000354 -0.000904 0.022847 0.029445 -0.006024
# 5 0.010910 0.014367 -0.014836 0.029445 0.178250 -0.043275
# 6 -0.004173 -0.011945 0.001093 -0.006024 -0.043275 0.059015
#
#
# Mechanical properties :
#
#
# Convention : Reuss Voigt Hill
#
# Bulk Modulus (GPa) = 39.54147 51.50531 45.52339
# Shear Modulus (GPa) = 15.63986 34.90425 25.27205
#
# Velocity S-wave (km/s) = 2.63485 3.93622 3.34935
# Velocity P-wave (km/s) = 5.17773 6.59707 5.93002
#
# Compressibility (1/GPa) = 0.02528991
#
# Stress axis : x y z
#
# Youngs Moduli (GPa) = 80.45321 88.19543 69.18516
#
# Poissons Ratio (x) = 0.18115 0.08406
# Poissons Ratio (y) = 0.16525 0.22119
# Poissons Ratio (z) = 0.09775 0.28197
#
# Static dielectric constant tensor:
#      x y z
#    x 1.825580 -0.032900 0.021220 
#    y -0.032900 1.831660 0.006040 
#    z 0.021220 0.006040 1.837840 
# 
# From -- ./inp_files/617710.got.cif
#   From: 2010.05.17/outbox.cif.g08.bks.cpg/sg2_309_cif.got.tgz:617710.got - 2010.06.03 11:33:40.
