data_PCOD9111483
_publ_section_title
;
Structure prediction by ZEFSAII (Michael W. Deem and Ramdas Pophale) SiO2 
 PCOD9111483
Probable space group: P -1
;
_chemical_formula_sum "Si O2"
_cell_formula_units_Z 16
_cell_length_a 21.687125
_cell_length_b 8.436895
_cell_length_c 12.227238
_cell_angle_alpha 119.297972
_cell_angle_beta 35.415482
_cell_angle_gamma 146.177283
_cell_volume 586.899853
_symmetry_space_group_name_H-M "P -1"
_symmetry_group_IT_number 2
_symmetry_cell_setting 'triclinic'
loop_
_space_group_symop_operation_xyz
x,y,z
-x,-y,-z
loop_
_atom_site_type_symbol
_atom_site_label
_atom_site_fract_x
_atom_site_fract_y
_atom_site_fract_z
Si Si1 0.725096 0.375830 0.261509
Si Si2 0.936126 0.754743 0.631913
Si Si3 0.526933 0.366708 0.130580
Si Si4 0.276610 0.036669 0.840599
Si Si5 0.870214 0.651088 0.353403
Si Si6 0.892316 0.543432 0.869431
Si Si7 0.302959 0.073607 0.149123
Si Si8 0.301683 0.979151 0.539066
O O1 0.788529 0.606575 0.341693
O O2 0.500000 0.000000 0.500000
O O3 0.810033 0.292057 0.121272
O O4 0.789545 0.529688 0.101225
O O5 0.928825 0.670147 0.738297
O O6 0.712981 0.520065 0.861523
O O7 0.097063 0.155795 0.537016
O O8 0.069868 0.810983 0.386350
O O9 0.573294 0.649215 0.181758
O O10 0.337151 0.060594 0.220584
O O11 0.476032 0.230817 0.280525
O O12 0.346758 0.133302 0.645296
O O13 0.088539 0.896255 0.081827
O O14 0.746860 0.300216 0.456102
O O15 0.105712 0.787079 0.697952
O O16 0.717169 0.130804 0.967453
O O17 0.500000 0.500000 0.000000
#
# Coordination Sequence:
#
# PCOD9111483 Si02
#       8
#     2   2   2   2   2   2   2   2
#     4  11  23  37  70 104 143 184 232 293 352 427
#     4  11  28  47  71 109 139 185 246 288 353 424
#     4  11  26  46  71 104 146 185 237 298 349 425
#     4  10  20  43  65 101 144 188 229 283 365 411
#     4  10  22  43  67 102 141 182 233 288 362 415
#     4  12  25  48  71 105 147 185 240 296 351 419
#     4  12  29  50  75 101 142 196 237 294 354 420
#     4  11  21  43  74 100 142 192 225 297 361 418
#
# _framework density 27.261890999999999
#
# number of rings (size 3 to 8) (size 9 to 14) (size 15 to 20)
#    0.000    1.000    3.750    2.250    8.750    1.500 
#    0.000    0.000    0.000    0.000    0.000    0.000 
#    0.000    0.000    0.000    0.000    0.000    0.000 
#
# Total GULP energy -89416.674957 kJ/mol
# GULP energy per Si atom -5588.542185 kJ/mol
# Density = 2.719984 g / cm^3
# Si number density = 27.261891 Si / 1000 Ang^3
#
#
#
# Elastic Constant Matrix: (Units=GPa)
#
#
# Indices 1 2 3 4 5 6 
#
# 1 89.6319 6.6735 15.5208 2.3823 5.6587 9.1061
# 2 6.6735 68.7601 -3.9093 0.8669 -7.3346 18.0446
# 3 15.5208 -3.9093 127.9253 0.7699 4.3336 -5.6088
# 4 2.3823 0.8669 0.7699 25.0516 -5.7383 10.0551
# 5 5.6587 -7.3346 4.3336 -5.7383 41.1101 -7.8922
# 6 9.1061 18.0446 -5.6088 10.0551 -7.8922 41.0164
#
#
#
# Elastic Compliance Matrix: (Units=1/GPa)
#
#
# Indices 1 2 3 4 5 6 
#
# 1 0.011914 -0.000724 -0.001515 -0.000423 -0.002217 -0.002857
# 2 -0.000724 0.016781 0.000183 0.002974 0.002043 -0.007533
# 3 -0.001515 0.000183 0.008091 -0.000804 -0.000441 0.001474
# 4 -0.000423 0.002974 -0.000804 0.045633 0.004819 -0.011584
# 5 -0.002217 0.002043 -0.000441 0.004819 0.026371 0.003426
# 6 -0.002857 -0.007533 0.001474 -0.011584 0.003426 0.032029
#
#
# Mechanical properties :
#
#
# Convention : Reuss Voigt Hill
#
# Bulk Modulus (GPa) = 30.60464 35.87636 33.24050
# Shear Modulus (GPa) = 32.08751 39.30444 35.69598
#
# Velocity S-wave (km/s) = 3.43448 3.80114 3.62245
# Velocity P-wave (km/s) = 5.19404 5.69678 5.45121
#
# Compressibility (1/GPa) = 0.03267479
#
# Stress axis : x y z
#
# Youngs Moduli (GPa) = 83.93169 59.59010 123.59538
#
# Poissons Ratio (x) = 0.04314 0.18728
# Poissons Ratio (y) = 0.06076 -0.02265
# Poissons Ratio (z) = 0.12718 -0.01092
#
# Static dielectric constant tensor:
#      x y z
#    x 2.330730 -0.154850 -0.049370 
#    y -0.154850 2.478930 0.032490 
#    z -0.049370 0.032490 2.146240 
# 
# From -- ./inp_files/221879.got.cif
#   From: 2010.05.17/outbox.cif.g08.bks.cpg/sg2_111_cif.got.tgz:221879.got - 2010.06.03 11:33:40.
