data_PCOD9111001
_publ_section_title
;
Structure prediction by ZEFSAII (Michael W. Deem and Ramdas Pophale) SiO2 
 PCOD9111001
Probable space group: P -1
;
_chemical_formula_sum "Si O2"
_cell_formula_units_Z 14
_cell_length_a 7.521949
_cell_length_b 9.416360
_cell_length_c 11.635190
_cell_angle_alpha 88.062263
_cell_angle_beta 54.603929
_cell_angle_gamma 90.278822
_cell_volume 671.103759
_symmetry_space_group_name_H-M "P -1"
_symmetry_group_IT_number 2
_symmetry_cell_setting 'triclinic'
loop_
_space_group_symop_operation_xyz
x,y,z
-x,-y,-z
loop_
_atom_site_type_symbol
_atom_site_label
_atom_site_fract_x
_atom_site_fract_y
_atom_site_fract_z
Si Si1 0.691360 0.501167 0.658755
Si Si2 0.230215 0.841261 0.965419
Si Si3 0.686175 0.341523 0.284219
Si Si4 0.435097 0.852000 0.468525
Si Si5 0.546315 0.350753 0.925542
Si Si6 0.722046 0.838744 0.132577
Si Si7 0.954729 0.327134 0.384292
O O1 0.441538 0.526973 0.720593
O O2 0.711084 0.392086 0.758998
O O3 0.815353 0.438987 0.506184
O O4 0.803988 0.647959 0.659214
O O5 0.279128 0.767937 0.827376
O O6 0.295543 0.006592 0.923883
O O7 0.356233 0.758301 0.018381
O O8 0.970264 0.827123 0.081169
O O9 0.532970 0.269978 0.443451
O O10 0.912939 0.367147 0.266243
O O11 0.564486 0.831270 0.303043
O O12 0.173695 0.823823 0.546674
O O13 0.500000 0.000000 0.500000
O O14 0.344870 0.276476 0.935399
O O15 0.500000 0.500000 0.000000
#
# Coordination Sequence:
#
# PCOD9111001 Si02
#       7
#     2   2   2   2   2   2   2
#     4  11  21  40  60  93 128 161 208 261 320 368
#     4  11  25  42  67  93 129 170 213 258 321 374
#     4  10  21  38  65  92 122 163 207 264 311 371
#     4  10  20  42  68  88 121 164 215 259 315 369
#     4  12  25  40  64  94 131 170 210 254 315 387
#     4  11  24  46  65  93 130 169 211 268 312 376
#     4   9  22  37  63  88 126 158 207 265 309 370
#
# _framework density 20.861155
#
# number of rings (size 3 to 8) (size 9 to 14) (size 15 to 20)
#    0.857    0.571    4.286    0.857    2.000    4.000 
#    0.000    0.714    0.000    0.000    0.000    0.000 
#    0.000    0.000    0.000    0.000    0.000    0.000 
#
# Total GULP energy -78064.804286 kJ/mol
# GULP energy per Si atom -5576.057449 kJ/mol
# Density = 2.081367 g / cm^3
# Si number density = 20.861155 Si / 1000 Ang^3
#
#
#
# Elastic Constant Matrix: (Units=GPa)
#
#
# Indices 1 2 3 4 5 6 
#
# 1 50.5895 27.7174 35.9503 -6.5376 18.5474 10.6079
# 2 27.7174 74.5080 18.5571 2.6888 17.4818 13.6064
# 3 35.9503 18.5571 90.9455 -4.8817 17.3578 1.4065
# 4 -6.5376 2.6888 -4.8817 29.7851 2.3726 6.3660
# 5 18.5474 17.4818 17.3578 2.3726 25.8736 2.8001
# 6 10.6079 13.6064 1.4065 6.3660 2.8001 37.8110
#
#
#
# Elastic Compliance Matrix: (Units=1/GPa)
#
#
# Indices 1 2 3 4 5 6 
#
# 1 0.041114 -0.007284 -0.010695 0.011266 -0.017422 -0.009122
# 2 -0.007284 0.018407 0.000402 -0.001838 -0.006908 -0.003774
# 3 -0.010695 0.000402 0.015755 -0.000069 -0.003443 0.002537
# 4 0.011266 -0.001838 -0.000069 0.038731 -0.009439 -0.008319
# 5 -0.017422 -0.006908 -0.003443 -0.009439 0.058466 0.004761
# 6 -0.009122 -0.003774 0.002537 -0.008319 0.004761 0.031319
#
#
# Mechanical properties :
#
#
# Convention : Reuss Voigt Hill
#
# Bulk Modulus (GPa) = 24.92383 42.27696 33.60040
# Shear Modulus (GPa) = 19.81605 27.61516 23.71561
#
# Velocity S-wave (km/s) = 3.08539 3.64230 3.37535
# Velocity P-wave (km/s) = 4.96652 6.16428 5.59753
#
# Compressibility (1/GPa) = 0.04012224
#
# Stress axis : x y z
#
# Youngs Moduli (GPa) = 24.32270 54.32585 63.47021
#
# Poissons Ratio (x) = 0.39570 0.67881
# Poissons Ratio (y) = 0.17716 -0.02548
# Poissons Ratio (z) = 0.26013 -0.02181
#
# Static dielectric constant tensor:
#      x y z
#    x 1.777940 0.040900 -0.006300 
#    y 0.040900 1.745430 -0.028730 
#    z -0.006300 -0.028730 1.758170 
# 
# From -- ./inp_files/376038.got.cif
#   From: 2010.05.17/outbox.cif.g08.bks.cpg/sg2_189_cif.got.tgz:376038.got - 2010.06.03 11:33:40.
