data_PCOD9111365
_publ_section_title
;
Structure prediction by ZEFSAII (Michael W. Deem and Ramdas Pophale) SiO2 
 PCOD9111365
Probable space group: P -1
;
_chemical_formula_sum "Si O2"
_cell_formula_units_Z 15
_cell_length_a 12.516826
_cell_length_b 11.501083
_cell_length_c 13.326635
_cell_angle_alpha 98.403905
_cell_angle_beta 146.739473
_cell_angle_gamma 106.590948
_cell_volume 686.671416
_symmetry_space_group_name_H-M "P -1"
_symmetry_group_IT_number 2
_symmetry_cell_setting 'triclinic'
loop_
_space_group_symop_operation_xyz
x,y,z
-x,-y,-z
loop_
_atom_site_type_symbol
_atom_site_label
_atom_site_fract_x
_atom_site_fract_y
_atom_site_fract_z
Si Si1 0.363567 0.997811 0.988753
Si Si2 0.501749 0.476474 0.878172
Si Si3 0.344781 0.729520 0.590730
Si Si4 0.087668 0.146119 0.016238
Si Si5 0.500000 0.500000 0.500000
Si Si6 0.116408 0.389227 0.382493
Si Si7 0.146297 0.857684 0.359705
Si Si8 0.848007 0.913972 0.477426
O O1 0.189815 0.818554 0.889731
O O2 0.106224 0.972788 0.755159
O O3 0.500000 0.000000 0.000000
O O4 0.626166 0.181986 0.275360
O O5 0.260700 0.433990 0.612402
O O6 0.411069 0.299441 0.765041
O O7 0.500000 0.500000 0.000000
O O8 0.819536 0.662501 0.110239
O O9 0.637684 0.784932 0.820064
O O10 0.090984 0.517603 0.362045
O O11 0.334773 0.823975 0.509575
O O12 0.207251 0.305458 0.197963
O O13 0.860769 0.089171 0.748779
O O14 0.000000 0.000000 0.000000
O O15 0.331468 0.436814 0.471039
O O16 0.231990 0.999191 0.522685
O O17 0.000000 0.000000 0.500000
#
# Coordination Sequence:
#
# PCOD9111365 Si02
#       8
#     2   2   2   2   1   2   2   2
#     4  11  23  39  63  98 138 177 227 281 335 411
#     4  11  22  40  67  95 133 180 223 274 339 406
#     4  11  24  43  66  97 135 175 228 277 343 408
#     4  11  24  45  71  94 134 177 224 289 345 401
#     4  10  20  42  74  92 124 178 232 274 342 402
#     4  10  23  44  66  98 133 182 229 278 347 400
#     4  12  24  43  65  99 134 175 225 276 340 412
#     4  11  22  38  64  94 133 179 221 270 338 403
#
# _framework density 21.844508999999999
#
# number of rings (size 3 to 8) (size 9 to 14) (size 15 to 20)
#    0.000    1.067    5.333    1.600    3.733    3.200 
#    0.000    2.667    0.000    0.000    0.000    0.000 
#    0.000    0.000    0.000    0.000    0.000    0.000 
#
# Total GULP energy -83503.920294 kJ/mol
# GULP energy per Si atom -5566.928020 kJ/mol
# Density = 2.179479 g / cm^3
# Si number density = 21.844509 Si / 1000 Ang^3
#
#
#
# Elastic Constant Matrix: (Units=GPa)
#
#
# Indices 1 2 3 4 5 6 
#
# 1 71.6222 32.2881 23.4815 -0.8400 -27.5457 11.3596
# 2 32.2881 138.4795 33.8434 4.7330 -16.6920 -3.0644
# 3 23.4815 33.8434 63.9838 -3.8363 -20.2696 -3.3298
# 4 -0.8400 4.7330 -3.8363 44.7092 3.3098 4.6244
# 5 -27.5457 -16.6920 -20.2696 3.3098 39.2790 0.9506
# 6 11.3596 -3.0644 -3.3298 4.6244 0.9506 36.0437
#
#
#
# Elastic Compliance Matrix: (Units=1/GPa)
#
#
# Indices 1 2 3 4 5 6 
#
# 1 0.022731 -0.003196 -0.002843 0.000376 0.013280 -0.008097
# 2 -0.003196 0.008908 -0.003618 -0.001464 -0.000239 0.001625
# 3 -0.002843 -0.003618 0.021051 0.001381 0.007163 0.002167
# 4 0.000376 -0.001464 0.001381 0.023074 -0.001516 -0.003036
# 5 0.013280 -0.000239 0.007163 -0.001516 0.038600 -0.004367
# 6 -0.008097 0.001625 0.002167 -0.003036 -0.004367 0.031139
#
#
# Mechanical properties :
#
#
# Convention : Reuss Voigt Hill
#
# Bulk Modulus (GPa) = 29.96258 50.36794 40.16526
# Shear Modulus (GPa) = 28.41849 36.30457 32.36153
#
# Velocity S-wave (km/s) = 3.61077 4.08113 3.85314
# Velocity P-wave (km/s) = 5.57940 6.73164 6.18242
#
# Compressibility (1/GPa) = 0.03337496
#
# Stress axis : x y z
#
# Youngs Moduli (GPa) = 43.99225 112.26043 47.50458
#
# Poissons Ratio (x) = 0.35884 0.13507
# Poissons Ratio (y) = 0.14062 0.17185
# Poissons Ratio (z) = 0.12509 0.40610
#
# Static dielectric constant tensor:
#      x y z
#    x 1.776650 -0.008400 0.007970 
#    y -0.008400 1.845410 -0.025810 
#    z 0.007970 -0.025810 1.805620 
# 
# From -- ./inp_files/425839.got.cif
#   From: 2010.05.17/outbox.cif.g08.bks.cpg/sg2_213_cif.got.tgz:425839.got - 2010.06.03 11:33:40.
