data_PCOD9111993
_publ_section_title
;
Structure prediction by ZEFSAII (Michael W. Deem and Ramdas Pophale) SiO2 
 PCOD9111993
Probable space group: P -1
;
_chemical_formula_sum "Si O2"
_cell_formula_units_Z 16
_cell_length_a 11.317589
_cell_length_b 9.281089
_cell_length_c 9.584736
_cell_angle_alpha 103.531281
_cell_angle_beta 41.608732
_cell_angle_gamma 96.517151
_cell_volume 647.032570
_symmetry_space_group_name_H-M "P -1"
_symmetry_group_IT_number 2
_symmetry_cell_setting 'triclinic'
loop_
_space_group_symop_operation_xyz
x,y,z
-x,-y,-z
loop_
_atom_site_type_symbol
_atom_site_label
_atom_site_fract_x
_atom_site_fract_y
_atom_site_fract_z
Si Si1 0.871974 0.887970 0.395991
Si Si2 0.520116 0.848430 0.843845
Si Si3 0.190759 0.059430 0.109552
Si Si4 0.631993 0.358933 0.310339
Si Si5 0.069208 0.575827 0.133637
Si Si6 0.300924 0.950392 0.682828
Si Si7 0.645608 0.360795 0.861116
Si Si8 0.961345 0.367252 0.396895
O O1 0.720980 0.883204 0.644453
O O2 0.926139 0.716585 0.273014
O O3 0.798540 0.986424 0.352607
O O4 0.056163 0.956041 0.281108
O O5 0.466177 0.734003 0.743008
O O6 0.467024 0.766258 0.010848
O O7 0.385345 0.994011 0.971790
O O8 0.109650 0.227616 0.244406
O O9 0.203347 0.024507 0.923564
O O10 0.500000 0.500000 0.500000
O O11 0.684220 0.227405 0.345662
O O12 0.805941 0.428328 0.111714
O O13 0.212191 0.610275 0.136644
O O14 0.978029 0.437667 0.245740
O O15 0.500000 0.000000 0.500000
O O16 0.767766 0.325802 0.609120
O O17 0.500000 0.500000 0.000000
O O18 0.000000 0.500000 0.500000
#
# Coordination Sequence:
#
# PCOD9111993 Si02
#       8
#     2   2   2   2   2   2   2   2
#     4  12  21  43  70  95 142 175 225 275 333 406
#     4  10  22  42  67  97 131 176 221 281 335 394
#     4  11  23  44  68 100 134 177 230 275 331 411
#     4  10  21  40  63  95 139 175 219 275 327 403
#     4  10  22  41  65  93 134 175 218 280 335 395
#     4  11  22  42  66 100 138 182 220 268 334 402
#     4  10  20  44  66  91 131 168 222 282 338 396
#     4  10  24  45  69  94 132 180 221 291 341 393
#
# _framework density 24.728276000000001
#
# number of rings (size 3 to 8) (size 9 to 14) (size 15 to 20)
#    0.000    1.500    6.250    1.125    1.750    0.500 
#   11.250    1.875    0.000    0.000    0.000    0.000 
#    0.000    0.000    0.000    0.000    0.000    0.000 
#
# Total GULP energy -89591.189434 kJ/mol
# GULP energy per Si atom -5599.449340 kJ/mol
# Density = 2.467199 g / cm^3
# Si number density = 24.728276 Si / 1000 Ang^3
#
#
#
# Elastic Constant Matrix: (Units=GPa)
#
#
# Indices 1 2 3 4 5 6 
#
# 1 68.6533 51.2002 43.8469 -6.9731 -3.3136 -7.2669
# 2 51.2002 211.1845 114.5581 9.0590 5.4406 -34.5456
# 3 43.8469 114.5581 239.6245 -3.2564 -7.3090 -11.9254
# 4 -6.9731 9.0590 -3.2564 74.6594 -3.4787 -3.5436
# 5 -3.3136 5.4406 -7.3090 -3.4787 28.8726 1.6096
# 6 -7.2669 -34.5456 -11.9254 -3.5436 1.6096 43.2420
#
#
#
# Elastic Compliance Matrix: (Units=1/GPa)
#
#
# Indices 1 2 3 4 5 6 
#
# 1 0.018803 -0.004020 -0.001418 0.002298 0.002854 -0.000361
# 2 -0.004020 0.008413 -0.003149 -0.001442 -0.003306 0.005182
# 3 -0.001418 -0.003149 0.005952 0.000551 0.002067 -0.001144
# 4 0.002298 -0.001442 0.000551 0.013937 0.002330 0.000442
# 5 0.002854 -0.003306 0.002067 0.002330 0.036543 -0.002761
# 6 -0.000361 0.005182 -0.001144 0.000442 -0.002761 0.027028
#
#
# Mechanical properties :
#
#
# Convention : Reuss Voigt Hill
#
# Bulk Modulus (GPa) = 62.52973 104.29696 83.41334
# Shear Modulus (GPa) = 37.54272 50.01194 43.77733
#
# Velocity S-wave (km/s) = 3.90065 4.50206 4.21210
# Velocity P-wave (km/s) = 6.75488 8.32427 7.58030
#
# Compressibility (1/GPa) = 0.01599239
#
# Stress axis : x y z
#
# Youngs Moduli (GPa) = 53.18287 118.86896 168.02098
#
# Poissons Ratio (x) = 0.47791 0.23829
# Poissons Ratio (y) = 0.21382 0.52905
# Poissons Ratio (z) = 0.07543 0.37429
#
# Static dielectric constant tensor:
#      x y z
#    x 2.327850 0.031040 0.044870 
#    y 0.031040 1.936770 -0.009140 
#    z 0.044870 -0.009140 1.936650 
# 
# From -- ./inp_files/447595.got.cif
#   From: 2010.05.17/outbox.cif.g08.bks.cpg/sg2_224_cif.got.tgz:447595.got - 2010.06.03 11:33:40.
