data_PCOD9111117
_publ_section_title
;
Structure prediction by ZEFSAII (Michael W. Deem and Ramdas Pophale) SiO2 
 PCOD9111117
Probable space group: P -1
;
_chemical_formula_sum "Si O2"
_cell_formula_units_Z 15
_cell_length_a 13.181268
_cell_length_b 11.614411
_cell_length_c 5.333538
_cell_angle_alpha 100.853341
_cell_angle_beta 67.940606
_cell_angle_gamma 54.058321
_cell_volume 513.796909
_symmetry_space_group_name_H-M "P -1"
_symmetry_group_IT_number 2
_symmetry_cell_setting 'triclinic'
loop_
_space_group_symop_operation_xyz
x,y,z
-x,-y,-z
loop_
_atom_site_type_symbol
_atom_site_label
_atom_site_fract_x
_atom_site_fract_y
_atom_site_fract_z
Si Si1 0.626525 0.990976 0.742305
Si Si2 0.977839 0.745121 0.916283
Si Si3 0.500000 0.500000 0.500000
Si Si4 0.887456 0.157653 0.851182
Si Si5 0.280079 0.596115 0.285635
Si Si6 0.649406 0.697877 0.134630
Si Si7 0.176059 0.370746 0.556289
Si Si8 0.695404 0.111030 0.162903
O O1 0.790521 0.792063 0.487609
O O2 0.523104 0.110531 0.647268
O O3 0.659803 0.080185 0.911664
O O4 0.500000 0.000000 0.000000
O O5 0.100796 0.699741 0.569876
O O6 0.022485 0.572431 0.807684
O O7 0.043201 0.773585 0.096265
O O8 0.799481 0.921453 0.101831
O O9 0.375431 0.563433 0.420442
O O10 0.450743 0.686114 0.583132
O O11 0.726068 0.311314 0.907862
O O12 0.836132 0.099775 0.071893
O O13 0.000000 0.000000 0.500000
O O14 0.357493 0.423000 0.029275
O O15 0.714709 0.657884 0.336889
O O16 0.764220 0.665389 0.801014
#
# Coordination Sequence:
#
# PCOD9111117 Si02
#       8
#     2   2   1   2   2   2   2   2
#     4  10  23  45  71 102 144 192 244 311 368 429
#     4  11  23  44  70  99 145 191 236 300 366 443
#     4  12  24  42  66 106 140 190 234 298 360 452
#     4  12  23  42  70 103 143 191 231 302 371 443
#     4  11  22  42  68  99 148 185 236 291 372 436
#     4  10  20  42  69 104 136 191 236 299 365 438
#     4  10  22  41  75  98 139 189 250 293 369 431
#     4  12  25  43  70 106 147 187 251 297 369 449
#
# _framework density 29.194416
#
# number of rings (size 3 to 8) (size 9 to 14) (size 15 to 20)
#    0.000    1.067    5.333    1.600    0.000    1.067 
#    4.800    6.667    0.000    5.600    0.000    0.000 
#    0.000    0.000    0.000    0.000    0.000    0.000 
#
# Total GULP energy -83684.663077 kJ/mol
# GULP energy per Si atom -5578.977538 kJ/mol
# Density = 2.912797 g / cm^3
# Si number density = 29.194416 Si / 1000 Ang^3
#
#
#
# Elastic Constant Matrix: (Units=GPa)
#
#
# Indices 1 2 3 4 5 6 
#
# 1 119.3730 57.3510 72.2420 12.3180 34.7502 -15.7976
# 2 57.3510 223.3958 57.7240 41.0944 13.6805 -3.5457
# 3 72.2420 57.7240 151.9090 38.5760 26.0168 -9.1526
# 4 12.3180 41.0944 38.5760 72.6596 0.8872 22.3387
# 5 34.7502 13.6805 26.0168 0.8872 52.5288 5.9108
# 6 -15.7976 -3.5457 -9.1526 22.3387 5.9108 51.6757
#
#
#
# Elastic Compliance Matrix: (Units=1/GPa)
#
#
# Indices 1 2 3 4 5 6 
#
# 1 0.015093 -0.002074 -0.004773 -0.000162 -0.007591 0.004565
# 2 -0.002074 0.005660 -0.000358 -0.002957 0.000017 0.000967
# 3 -0.004773 -0.000358 0.011114 -0.005877 -0.002527 0.003314
# 4 -0.000162 -0.002957 -0.005877 0.022014 0.004693 -0.011346
# 5 -0.007591 0.000017 -0.002527 0.004693 0.026103 -0.007782
# 6 0.004565 0.000967 0.003314 -0.011346 -0.007782 0.027195
#
#
# Mechanical properties :
#
#
# Convention : Reuss Voigt Hill
#
# Bulk Modulus (GPa) = 57.28746 96.59020 76.93883
# Shear Modulus (GPa) = 39.24426 55.86354 47.55390
#
# Velocity S-wave (km/s) = 3.67036 4.37910 4.04030
# Velocity P-wave (km/s) = 6.13412 7.66327 6.94093
#
# Compressibility (1/GPa) = 0.01745583
#
# Stress axis : x y z
#
# Youngs Moduli (GPa) = 66.25640 176.69138 89.97916
#
# Poissons Ratio (x) = 0.36649 0.42948
# Poissons Ratio (y) = 0.13743 0.03220
# Poissons Ratio (z) = 0.31625 0.06324
#
# Static dielectric constant tensor:
#      x y z
#    x 2.423990 0.201810 -0.337060 
#    y 0.201810 2.336820 -0.256950 
#    z -0.337060 -0.256950 2.391720 
# 
# From -- ./inp_files/97361.got.cif
#   From: 2010.05.17/outbox.cif.g08.bks.cpg/sg2_49_cif.got.tgz:97361.got - 2010.06.03 11:33:40.
