data_PCOD9111042
_publ_section_title
;
Structure prediction by ZEFSAII (Michael W. Deem and Ramdas Pophale) SiO2 
 PCOD9111042
Probable space group: P -1
;
_chemical_formula_sum "Si O2"
_cell_formula_units_Z 13
_cell_length_a 8.170587
_cell_length_b 7.649099
_cell_length_c 11.377831
_cell_angle_alpha 100.334926
_cell_angle_beta 68.225250
_cell_angle_gamma 55.856756
_cell_volume 471.940657
_symmetry_space_group_name_H-M "P -1"
_symmetry_group_IT_number 2
_symmetry_cell_setting 'triclinic'
loop_
_space_group_symop_operation_xyz
x,y,z
-x,-y,-z
loop_
_atom_site_type_symbol
_atom_site_label
_atom_site_fract_x
_atom_site_fract_y
_atom_site_fract_z
Si Si1 0.950754 0.173928 0.638922
Si Si2 0.548521 0.610594 0.234632
Si Si3 0.817287 0.716781 0.881262
Si Si4 0.855869 0.188865 0.245428
Si Si5 0.588499 0.104345 0.165973
Si Si6 0.656973 0.885898 0.561018
Si Si7 0.000000 0.500000 0.000000
O O1 0.065938 0.277186 0.571429
O O2 0.661258 0.372939 0.757400
O O3 0.092799 0.986087 0.687082
O O4 0.000000 0.000000 0.500000
O O5 0.632590 0.483192 0.326856
O O6 0.782621 0.481978 0.077880
O O7 0.416890 0.889730 0.317697
O O8 0.595873 0.788462 0.880644
O O9 0.916902 0.831035 0.816825
O O10 0.016803 0.444258 0.840893
O O11 0.757926 0.814600 0.048816
O O12 0.778345 0.126995 0.144075
O O13 0.426648 0.207494 0.338686
O O14 0.500000 0.000000 0.500000
#
# Coordination Sequence:
#
# PCOD9111042 Si02
#       7
#     2   2   2   2   2   2   1
#     4  10  22  40  67  93 135 181 222 273 335 405
#     4  10  23  43  68  98 134 178 223 283 345 396
#     4  10  22  40  68  94 136 172 222 289 337 404
#     4  11  23  43  66 103 133 176 230 286 339 401
#     4  11  22  42  68  96 133 180 229 271 346 403
#     4  11  21  42  68  94 137 184 221 272 337 409
#     4  10  20  42  68  94 134 174 214 286 348 398
#
# _framework density 27.545835
#
# number of rings (size 3 to 8) (size 9 to 14) (size 15 to 20)
#    0.000    1.538    3.077    2.308    2.154    2.462 
#    8.308    2.308    0.000    0.000    0.000    0.000 
#    0.000    0.000    0.000    0.000    0.000    0.000 
#
# Total GULP energy -72442.495652 kJ/mol
# GULP energy per Si atom -5572.499666 kJ/mol
# Density = 2.748314 g / cm^3
# Si number density = 27.545835 Si / 1000 Ang^3
#
#
#
# Elastic Constant Matrix: (Units=GPa)
#
#
# Indices 1 2 3 4 5 6 
#
# 1 190.3868 55.5464 64.6859 -6.5197 -28.6806 -29.4130
# 2 55.5464 109.0050 28.1258 -16.6942 -10.5937 -27.6168
# 3 64.6859 28.1258 98.4812 -16.7304 -28.5004 -6.3493
# 4 -6.5197 -16.6942 -16.7304 38.4762 -0.3643 1.3629
# 5 -28.6806 -10.5937 -28.5004 -0.3643 63.6464 -0.2633
# 6 -29.4130 -27.6168 -6.3493 1.3629 -0.2633 61.9188
#
#
#
# Elastic Compliance Matrix: (Units=1/GPa)
#
#
# Indices 1 2 3 4 5 6 
#
# 1 0.007904 -0.002494 -0.004258 -0.001662 0.001240 0.002248
# 2 -0.002494 0.012445 -0.000675 0.004542 0.000689 0.004200
# 3 -0.004258 -0.000675 0.015506 0.005805 0.004942 -0.000840
# 4 -0.001662 0.004542 0.005805 0.030188 0.002784 0.001179
# 5 0.001240 0.000689 0.004942 0.002784 0.018620 0.001421
# 6 0.002248 0.004200 -0.000840 0.001179 0.001421 0.018985
#
#
# Mechanical properties :
#
#
# Convention : Reuss Voigt Hill
#
# Bulk Modulus (GPa) = 47.61359 77.17657 62.39508
# Shear Modulus (GPa) = 39.84039 49.44261 44.64150
#
# Velocity S-wave (km/s) = 3.80719 4.24125 4.03007
# Velocity P-wave (km/s) = 6.05384 7.21544 6.66002
#
# Compressibility (1/GPa) = 0.02100241
#
# Stress axis : x y z
#
# Youngs Moduli (GPa) = 126.52283 80.35194 64.49162
#
# Poissons Ratio (x) = 0.20036 0.27460
# Poissons Ratio (y) = 0.31549 0.04351
# Poissons Ratio (z) = 0.53873 0.05421
#
# Static dielectric constant tensor:
#      x y z
#    x 2.363600 0.140590 -0.116930 
#    y 0.140590 2.383060 -0.005080 
#    z -0.116930 -0.005080 2.309270 
# 
# From -- ./inp_files/172632.got.cif
#   From: 2010.05.17/outbox.cif.g08.bks.cpg/sg2_87_cif.got.tgz:172632.got - 2010.06.03 11:33:40.
