data_PCOD9111580
_publ_section_title
;
Structure prediction by ZEFSAII (Michael W. Deem and Ramdas Pophale) SiO2 
 PCOD9111580
Probable space group: P -1
;
_chemical_formula_sum "Si O2"
_cell_formula_units_Z 14
_cell_length_a 8.014851
_cell_length_b 23.267990
_cell_length_c 14.538543
_cell_angle_alpha 21.265878
_cell_angle_beta 138.795476
_cell_angle_gamma 140.181554
_cell_volume 621.847996
_symmetry_space_group_name_H-M "P -1"
_symmetry_group_IT_number 2
_symmetry_cell_setting 'triclinic'
loop_
_space_group_symop_operation_xyz
x,y,z
-x,-y,-z
loop_
_atom_site_type_symbol
_atom_site_label
_atom_site_fract_x
_atom_site_fract_y
_atom_site_fract_z
Si Si1 0.166709 0.449532 0.511983
Si Si2 0.764994 0.275139 0.010413
Si Si3 0.434119 0.972655 0.221361
Si Si4 0.995669 0.939506 0.964425
Si Si5 0.622446 0.515612 0.250286
Si Si6 0.653817 0.658604 0.767615
Si Si7 0.626199 0.855682 0.790498
O O1 0.099396 0.254224 0.756513
O O2 0.343394 0.500396 0.601686
O O3 0.886092 0.482456 0.369537
O O4 0.261376 0.563277 0.293802
O O5 0.558677 0.231404 0.072451
O O6 0.049274 0.293090 0.144604
O O7 0.675147 0.124421 0.126312
O O8 0.522733 0.807460 0.503894
O O9 0.297679 0.003304 0.023936
O O10 0.192617 0.967524 0.200388
O O11 0.920854 0.933483 0.835487
O O12 0.381859 0.396832 0.271824
O O13 0.625694 0.705369 0.947927
O O14 0.500000 0.500000 0.000000
O O15 0.500000 0.000000 0.500000
#
# Coordination Sequence:
#
# PCOD9111580 Si02
#       7
#     2   2   2   2   2   2   2
#     4  10  20  43  66  95 122 170 221 261 321 381
#     4  11  24  41  68  94 131 170 219 263 317 385
#     4  10  21  37  60  98 121 165 219 257 311 376
#     4   9  19  39  65  87 127 167 210 262 316 378
#     4  10  22  39  69  89 131 170 210 267 319 378
#     4  12  23  40  66  97 132 171 213 264 324 384
#     4  10  24  42  64  96 134 166 211 270 329 373
#
# _framework density 22.513541
#
# number of rings (size 3 to 8) (size 9 to 14) (size 15 to 20)
#    0.000    1.714    2.857    0.429    4.000    6.857 
#    2.571    0.714    0.000    0.000    0.000    0.000 
#    0.000    0.000    0.000    0.000    0.000    0.000 
#
# Total GULP energy -78204.061818 kJ/mol
# GULP energy per Si atom -5586.004416 kJ/mol
# Density = 2.246230 g / cm^3
# Si number density = 22.513541 Si / 1000 Ang^3
#
#
#
# Elastic Constant Matrix: (Units=GPa)
#
#
# Indices 1 2 3 4 5 6 
#
# 1 43.5732 21.1149 21.4405 6.4911 11.1101 -3.7412
# 2 21.1149 212.7017 54.8687 22.3430 27.5495 4.1711
# 3 21.4405 54.8687 133.9543 12.7382 42.7015 -6.7171
# 4 6.4911 22.3430 12.7382 30.9434 -6.4430 12.2468
# 5 11.1101 27.5495 42.7015 -6.4430 42.2819 -0.8503
# 6 -3.7412 4.1711 -6.7171 12.2468 -0.8503 25.2684
#
#
#
# Elastic Compliance Matrix: (Units=1/GPa)
#
#
# Indices 1 2 3 4 5 6 
#
# 1 0.027777 -0.000752 -0.000090 -0.010517 -0.008138 0.009036
# 2 -0.000752 0.005939 -0.000507 -0.005199 -0.003929 0.001161
# 3 -0.000090 -0.000507 0.014469 -0.012670 -0.015998 0.009519
# 4 -0.010517 -0.005199 -0.012670 0.062513 0.027801 -0.033430
# 5 -0.008138 -0.003929 -0.015998 0.027801 0.048407 -0.016654
# 6 0.009036 0.001161 0.009519 -0.033430 -0.016654 0.058894
#
#
# Mechanical properties :
#
#
# Convention : Reuss Voigt Hill
#
# Bulk Modulus (GPa) = 21.98496 65.00860 43.49678
# Shear Modulus (GPa) = 21.19896 39.21909 30.20902
#
# Velocity S-wave (km/s) = 3.07189 4.17828 3.66705
# Velocity P-wave (km/s) = 4.72953 7.22602 6.10671
#
# Compressibility (1/GPa) = 0.04548564
#
# Stress axis : x y z
#
# Youngs Moduli (GPa) = 36.00153 168.37210 69.11133
#
# Poissons Ratio (x) = 0.12669 0.00623
# Poissons Ratio (y) = 0.02709 0.03506
# Poissons Ratio (z) = 0.00324 0.08541
#
# Static dielectric constant tensor:
#      x y z
#    x 1.865910 -0.040200 -0.008850 
#    y -0.040200 1.928970 0.028260 
#    z -0.008850 0.028260 1.854140 
# 
# From -- ./inp_files/212500.got.cif
#   From: 2010.05.17/outbox.cif.g08.bks.cpg/sg2_107_cif.got.tgz:212500.got - 2010.06.03 11:33:40.
