data_PCOD9111801
_publ_section_title
;
Structure prediction by ZEFSAII (Michael W. Deem and Ramdas Pophale) SiO2 
 PCOD9111801
Probable space group: P -1
;
_chemical_formula_sum "Si O2"
_cell_formula_units_Z 16
_cell_length_a 21.082676
_cell_length_b 5.889022
_cell_length_c 8.095476
_cell_angle_alpha 87.425314
_cell_angle_beta 52.327374
_cell_angle_gamma 59.347149
_cell_volume 629.729125
_symmetry_space_group_name_H-M "P -1"
_symmetry_group_IT_number 2
_symmetry_cell_setting 'triclinic'
loop_
_space_group_symop_operation_xyz
x,y,z
-x,-y,-z
loop_
_atom_site_type_symbol
_atom_site_label
_atom_site_fract_x
_atom_site_fract_y
_atom_site_fract_z
Si Si1 0.519972 0.119901 0.696799
Si Si2 0.749967 0.681938 0.754731
Si Si3 0.163674 0.922091 0.996291
Si Si4 0.096600 0.434746 0.263614
Si Si5 0.658670 0.752787 0.222199
Si Si6 0.984837 0.945445 0.211074
Si Si7 0.210796 0.971849 0.552699
Si Si8 0.404501 0.398530 0.171747
O O1 0.432103 0.253594 0.695452
O O2 0.621695 0.963173 0.430936
O O3 0.537819 0.851769 0.776620
O O4 0.478622 0.346191 0.906112
O O5 0.852881 0.464737 0.701442
O O6 0.679202 0.621279 0.781979
O O7 0.787868 0.795052 0.555334
O O8 0.680223 0.862047 0.019913
O O9 0.246800 0.576059 0.877239
O O10 0.175768 0.020497 0.795492
O O11 0.048863 0.028990 0.198965
O O12 0.173241 0.096705 0.114437
O O13 0.054515 0.609585 0.155304
O O14 0.000000 0.500000 0.500000
O O15 0.868961 0.064244 0.409276
O O16 0.000000 0.000000 0.000000
O O17 0.328818 0.703212 0.366199
#
# Coordination Sequence:
#
# PCOD9111801 Si02
#       8
#     2   2   2   2   2   2   2   2
#     4   9  20  40  73  95 128 176 222 276 334 395
#     4  11  25  39  67  98 131 175 217 273 327 387
#     4  11  25  43  69  94 138 179 218 269 329 400
#     4  12  26  43  64 101 139 170 224 272 322 394
#     4  10  20  43  70  99 131 174 221 275 338 386
#     4  10  24  43  67  99 132 178 216 262 329 393
#     4  11  24  42  67  99 134 173 222 268 330 401
#     4  10  22  43  70  96 134 175 218 276 337 392
#
# _framework density 25.407751999999999
#
# number of rings (size 3 to 8) (size 9 to 14) (size 15 to 20)
#    0.000    1.500    3.750    0.000    5.250    5.500 
#    0.000    6.250    2.750    0.000    0.000    0.000 
#    0.000    0.000    0.000    0.000    0.000    0.000 
#
# Total GULP energy -89195.477674 kJ/mol
# GULP energy per Si atom -5574.717355 kJ/mol
# Density = 2.534992 g / cm^3
# Si number density = 25.407752 Si / 1000 Ang^3
#
#
#
# Elastic Constant Matrix: (Units=GPa)
#
#
# Indices 1 2 3 4 5 6 
#
# 1 106.4671 21.9865 38.0200 -0.8187 -16.0169 -4.6180
# 2 21.9865 54.4175 37.6814 -8.4845 -1.9259 -20.9401
# 3 38.0200 37.6814 152.4751 -1.3962 -11.2111 0.2306
# 4 -0.8187 -8.4845 -1.3962 38.9368 -1.1725 -4.6552
# 5 -16.0169 -1.9259 -11.2111 -1.1725 37.5433 0.1451
# 6 -4.6180 -20.9401 0.2306 -4.6552 0.1451 34.3807
#
#
#
# Elastic Compliance Matrix: (Units=1/GPa)
#
#
# Indices 1 2 3 4 5 6 
#
# 1 0.011317 -0.003742 -0.001597 -0.000611 0.004144 -0.000849
# 2 -0.003742 0.035574 -0.007942 0.010031 -0.001917 0.022584
# 3 -0.001597 -0.007942 0.009024 -0.002038 0.001563 -0.005395
# 4 -0.000611 0.010031 -0.002038 0.028989 0.000512 0.009964
# 5 0.004144 -0.001917 0.001563 0.000512 0.028791 -0.000674
# 6 -0.000849 0.022584 -0.005395 0.009964 -0.000674 0.044115
#
#
# Mechanical properties :
#
#
# Convention : Reuss Voigt Hill
#
# Bulk Modulus (GPa) = 34.06700 56.52615 45.29657
# Shear Modulus (GPa) = 25.75250 36.55029 31.15139
#
# Velocity S-wave (km/s) = 3.18711 3.79694 3.50531
# Velocity P-wave (km/s) = 5.19430 6.44346 5.85231
#
# Compressibility (1/GPa) = 0.02935392
#
# Stress axis : x y z
#
# Youngs Moduli (GPa) = 88.35888 28.11046 110.81949
#
# Poissons Ratio (x) = 0.10519 0.17697
# Poissons Ratio (y) = 0.33065 0.88009
# Poissons Ratio (z) = 0.14110 0.22324
#
# Static dielectric constant tensor:
#      x y z
#    x 1.989370 0.020050 0.025170 
#    y 0.020050 2.005910 0.046250 
#    z 0.025170 0.046250 1.984810 
# 
# From -- ./inp_files/351022.got.cif
#   From: 2010.05.17/outbox.cif.g08.bks.cpg/sg2_176_cif.got.tgz:351022.got - 2010.06.03 11:33:40.
