data_PCOD9111151
_publ_section_title
;
Structure prediction by ZEFSAII (Michael W. Deem and Ramdas Pophale) SiO2 
 PCOD9111151
Probable space group: P -1
;
_chemical_formula_sum "Si O2"
_cell_formula_units_Z 15
_cell_length_a 20.911526
_cell_length_b 4.973181
_cell_length_c 6.506152
_cell_angle_alpha 98.576384
_cell_angle_beta 112.644135
_cell_angle_gamma 88.279189
_cell_volume 617.200248
_symmetry_space_group_name_H-M "P -1"
_symmetry_group_IT_number 2
_symmetry_cell_setting 'triclinic'
loop_
_space_group_symop_operation_xyz
x,y,z
-x,-y,-z
loop_
_atom_site_type_symbol
_atom_site_label
_atom_site_fract_x
_atom_site_fract_y
_atom_site_fract_z
Si Si1 0.852562 0.116340 0.970628
Si Si2 0.500000 0.500000 0.000000
Si Si3 0.390847 0.946988 0.796917
Si Si4 0.727201 0.158962 0.090130
Si Si5 0.461178 0.251562 0.577663
Si Si6 0.331382 0.543506 0.331518
Si Si7 0.925114 0.608610 0.962401
Si Si8 0.201223 0.581630 0.414797
O O1 0.885285 0.421452 0.062283
O O2 0.815726 0.143374 0.703994
O O3 0.916436 0.920054 0.038831
O O4 0.792579 0.034053 0.044427
O O5 0.562666 0.269075 0.058001
O O6 0.494324 0.485750 0.264148
O O7 0.327643 0.026753 0.872083
O O8 0.359344 0.789511 0.542010
O O9 0.437961 0.197788 0.793101
O O10 0.763189 0.359709 0.321786
O O11 0.685771 0.328258 0.891508
O O12 0.388991 0.319596 0.393709
O O13 0.500000 0.000000 0.500000
O O14 0.259088 0.441568 0.331469
O O15 0.873508 0.565524 0.698173
O O16 0.000000 0.500000 0.000000
#
# Coordination Sequence:
#
# PCOD9111151 Si02
#       8
#     2   1   2   2   2   2   2   2
#     4   9  21  41  64 100 130 178 225 274 337 404
#     4  10  24  46  60  92 134 158 226 274 346 412
#     4  10  23  41  64  94 123 173 218 276 346 399
#     4  10  20  44  66  95 126 177 224 287 331 406
#     4  11  25  43  68  96 130 178 221 285 352 419
#     4   9  21  42  63  93 131 164 226 276 339 399
#     4  10  20  42  69  96 142 181 218 275 342 408
#     4   8  20  39  63  94 132 172 223 276 336 392
#
# _framework density 24.303293
#
# number of rings (size 3 to 8) (size 9 to 14) (size 15 to 20)
#    0.800    1.600    0.000    0.800    3.733    4.267 
#   12.000    1.333    0.000    0.000    0.000    0.000 
#    0.000    0.000    0.000    0.000    0.000    0.000 
#
# Total GULP energy -83593.528051 kJ/mol
# GULP energy per Si atom -5572.901870 kJ/mol
# Density = 2.424798 g / cm^3
# Si number density = 24.303293 Si / 1000 Ang^3
#
#
#
# Elastic Constant Matrix: (Units=GPa)
#
#
# Indices 1 2 3 4 5 6 
#
# 1 135.0256 34.2533 28.8643 -12.8762 7.0724 -32.5928
# 2 34.2533 95.7227 -5.5388 -6.0444 -5.2457 -23.4084
# 3 28.8643 -5.5388 68.3192 8.0671 2.3776 -4.1554
# 4 -12.8762 -6.0444 8.0671 26.5460 -4.5598 9.7908
# 5 7.0724 -5.2457 2.3776 -4.5598 25.3576 3.8810
# 6 -32.5928 -23.4084 -4.1554 9.7908 3.8810 40.4710
#
#
#
# Elastic Compliance Matrix: (Units=1/GPa)
#
#
# Indices 1 2 3 4 5 6 
#
# 1 0.011189 -0.002679 -0.004803 0.003242 -0.003642 0.006533
# 2 -0.002679 0.012992 0.002545 -0.000804 0.002194 0.005603
# 3 -0.004803 0.002545 0.017967 -0.008034 -0.001498 0.001536
# 4 0.003242 -0.000804 -0.008034 0.047279 0.009878 -0.011064
# 5 -0.003642 0.002194 -0.001498 0.009878 0.044113 -0.008437
# 6 0.006533 0.005603 0.001536 -0.011064 -0.008437 0.036855
#
#
# Mechanical properties :
#
#
# Convention : Reuss Voigt Hill
#
# Bulk Modulus (GPa) = 30.98565 46.02501 38.50533
# Shear Modulus (GPa) = 26.17406 34.57416 30.37411
#
# Velocity S-wave (km/s) = 3.28529 3.77585 3.53908
# Velocity P-wave (km/s) = 5.21230 6.16346 5.70773
#
# Compressibility (1/GPa) = 0.03227300
#
# Stress axis : x y z
#
# Youngs Moduli (GPa) = 89.37069 76.96869 55.65751
#
# Poissons Ratio (x) = 0.20620 0.26734
# Poissons Ratio (y) = 0.23943 -0.14162
# Poissons Ratio (z) = 0.42927 -0.19585
#
# Static dielectric constant tensor:
#      x y z
#    x 2.178230 0.300400 0.066570 
#    y 0.300400 2.261270 0.244460 
#    z 0.066570 0.244460 2.280240 
# 
# From -- ./inp_files/121780.got.cif
#   From: 2010.05.17/outbox.cif.g08.bks.cpg/sg2_61_cif.got.tgz:121780.got - 2010.06.03 11:33:40.
