data_PCOD9111267
_publ_section_title
;
Structure prediction by ZEFSAII (Michael W. Deem and Ramdas Pophale) SiO2 
 PCOD9111267
Probable space group: P -1
;
_chemical_formula_sum "Si O2"
_cell_formula_units_Z 14
_cell_length_a 11.678748
_cell_length_b 8.635773
_cell_length_c 10.663825
_cell_angle_alpha 79.704635
_cell_angle_beta 137.525915
_cell_angle_gamma 80.459589
_cell_volume 638.870267
_symmetry_space_group_name_H-M "P -1"
_symmetry_group_IT_number 2
_symmetry_cell_setting 'triclinic'
loop_
_space_group_symop_operation_xyz
x,y,z
-x,-y,-z
loop_
_atom_site_type_symbol
_atom_site_label
_atom_site_fract_x
_atom_site_fract_y
_atom_site_fract_z
Si Si1 0.409512 0.513160 0.286649
Si Si2 0.977261 0.692830 0.930488
Si Si3 0.295022 0.162696 0.809804
Si Si4 0.608172 0.858590 0.717815
Si Si5 0.042413 0.877184 0.427835
Si Si6 0.753267 0.910906 0.492060
Si Si7 0.631142 0.510624 0.214628
O O1 0.500000 0.500000 0.500000
O O2 0.406353 0.324921 0.284293
O O3 0.522672 0.548158 0.257032
O O4 0.191049 0.665604 0.093212
O O5 0.828816 0.814731 0.898132
O O6 0.850528 0.760004 0.693699
O O7 0.000000 0.500000 0.000000
O O8 0.207105 0.175805 0.598310
O O9 0.310906 0.341531 0.808818
O O10 0.148011 0.122275 0.778304
O O11 0.500000 0.000000 0.000000
O O12 0.500000 0.000000 0.500000
O O13 0.472544 0.964954 0.705866
O O14 0.188615 0.677320 0.601387
O O15 0.150119 0.961009 0.419255
O O16 0.000000 0.000000 0.500000
O O17 0.500000 0.500000 0.000000
#
# Coordination Sequence:
#
# PCOD9111267 Si02
#       7
#     2   2   2   2   2   2   2
#     4  11  25  43  67 102 140 177 234 285 346 417
#     4   9  21  39  66  94 132 180 222 279 345 410
#     4  11  26  42  66 103 138 179 239 288 349 424
#     4   9  19  41  66  92 130 180 224 276 351 408
#     4  10  22  44  68  98 136 179 232 286 356 412
#     4  10  20  42  71  94 135 183 226 292 350 418
#     4  12  26  45  72 101 141 186 232 292 355 414
#
# _framework density 21.913684
#
# number of rings (size 3 to 8) (size 9 to 14) (size 15 to 20)
#    0.000    1.714    1.429    2.143   12.000    0.000 
#    2.571    2.857    0.000    0.000    0.000    0.000 
#    0.000    0.000    0.000    0.000    0.000    0.000 
#
# Total GULP energy -78042.399638 kJ/mol
# GULP energy per Si atom -5574.457117 kJ/mol
# Density = 2.186381 g / cm^3
# Si number density = 21.913684 Si / 1000 Ang^3
#
#
#
# Elastic Constant Matrix: (Units=GPa)
#
#
# Indices 1 2 3 4 5 6 
#
# 1 84.0242 7.5675 34.5147 4.3132 26.1810 -12.1920
# 2 7.5675 84.6952 23.5382 -10.2400 6.7993 14.6823
# 3 34.5147 23.5382 109.8653 -10.8375 26.5615 -7.5487
# 4 4.3132 -10.2400 -10.8375 41.7226 -6.1910 -3.1282
# 5 26.1810 6.7993 26.5615 -6.1910 50.5066 -1.9520
# 6 -12.1920 14.6823 -7.5487 -3.1282 -1.9520 30.8822
#
#
#
# Elastic Compliance Matrix: (Units=1/GPa)
#
#
# Indices 1 2 3 4 5 6 
#
# 1 0.016470 -0.001437 -0.003156 -0.003476 -0.006893 0.005626
# 2 -0.001437 0.014402 -0.003038 0.002360 0.000387 -0.007893
# 3 -0.003156 -0.003038 0.012147 0.002390 -0.003928 0.003161
# 4 -0.003476 0.002360 0.002390 0.026113 0.003465 0.000954
# 5 -0.006893 0.000387 -0.003928 0.003465 0.025738 -0.001888
# 6 0.005626 -0.007893 0.003161 0.000954 -0.001888 0.039105
#
#
# Mechanical properties :
#
#
# Convention : Reuss Voigt Hill
#
# Bulk Modulus (GPa) = 36.02537 45.53617 40.78077
# Shear Modulus (GPa) = 31.54827 38.81990 35.18409
#
# Velocity S-wave (km/s) = 3.79840 4.21347 4.01131
# Velocity P-wave (km/s) = 5.97599 6.67054 6.33279
#
# Compressibility (1/GPa) = 0.02775822
#
# Stress axis : x y z
#
# Youngs Moduli (GPa) = 60.71795 69.43421 82.32512
#
# Poissons Ratio (x) = 0.09975 0.25983
# Poissons Ratio (y) = 0.08723 0.25006
# Poissons Ratio (z) = 0.19163 0.21091
#
# Static dielectric constant tensor:
#      x y z
#    x 2.059780 0.038830 0.066930 
#    y 0.038830 1.765740 0.066980 
#    z 0.066930 0.066980 1.614740 
# 
# From -- ./inp_files/416973.got.cif
#   From: 2010.05.17/outbox.cif.g08.bks.cpg/sg2_209_cif.got.tgz:416973.got - 2010.06.03 11:33:40.
