data_PCOD9111490
_publ_section_title
;
Structure prediction by ZEFSAII (Michael W. Deem and Ramdas Pophale) SiO2 
 PCOD9111490
Probable space group: P -1
;
_chemical_formula_sum "Si O2"
_cell_formula_units_Z 16
_cell_length_a 19.597183
_cell_length_b 17.194717
_cell_length_c 10.271107
_cell_angle_alpha 148.692090
_cell_angle_beta 148.355442
_cell_angle_gamma 23.353235
_cell_volume 674.238099
_symmetry_space_group_name_H-M "P -1"
_symmetry_group_IT_number 2
_symmetry_cell_setting 'triclinic'
loop_
_space_group_symop_operation_xyz
x,y,z
-x,-y,-z
loop_
_atom_site_type_symbol
_atom_site_label
_atom_site_fract_x
_atom_site_fract_y
_atom_site_fract_z
Si Si1 0.705637 0.554446 0.871236
Si Si2 0.208065 0.844471 0.568616
Si Si3 0.695922 0.106132 0.930427
Si Si4 0.428535 0.273936 0.389102
Si Si5 0.361864 0.006981 0.994402
Si Si6 0.220695 0.829486 0.109768
Si Si7 0.894485 0.680828 0.740442
Si Si8 0.301881 0.433839 0.695994
O O1 0.717379 0.371906 0.671264
O O2 0.649498 0.603486 0.698003
O O3 0.555976 0.778147 0.016165
O O4 0.903883 0.460061 0.082844
O O5 0.300214 0.815457 0.813029
O O6 0.244662 0.954090 0.688285
O O7 0.000000 0.000000 0.500000
O O8 0.737467 0.187651 0.000082
O O9 0.494271 0.209191 0.727331
O O10 0.837849 0.854581 0.795644
O O11 0.639453 0.156934 0.585317
O O12 0.312041 0.422751 0.538463
O O13 0.399676 0.117542 0.122774
O O14 0.245937 0.165632 0.151606
O O15 0.288562 0.617338 0.973385
O O16 0.000000 0.000000 0.000000
O O17 0.850911 0.542959 0.449588
#
# Coordination Sequence:
#
# PCOD9111490 Si02
#       8
#     2   2   2   2   2   2   2   2
#     4  12  22  41  65  95 134 166 209 261 317 372
#     4  11  21  41  63  94 127 164 212 249 317 380
#     4  10  20  43  65  86 127 168 208 259 316 376
#     4  10  23  43  64  92 126 166 213 259 316 377
#     4  10  23  40  62  95 128 165 209 259 310 375
#     4  11  24  42  64  96 125 162 217 264 309 377
#     4  10  23  42  64  97 126 169 209 257 320 381
#     4  10  21  42  68  87 122 174 209 257 321 368
#
# _framework density 23.730488999999999
#
# number of rings (size 3 to 8) (size 9 to 14) (size 15 to 20)
#    0.000    1.500    2.500    4.125    1.750    4.000 
#   11.250    0.625    0.000    0.000    0.000    0.000 
#    0.000    0.000    0.000    0.000    0.000    0.000 
#
# Total GULP energy -89356.219973 kJ/mol
# GULP energy per Si atom -5584.763748 kJ/mol
# Density = 2.367648 g / cm^3
# Si number density = 23.730489 Si / 1000 Ang^3
#
#
#
# Elastic Constant Matrix: (Units=GPa)
#
#
# Indices 1 2 3 4 5 6 
#
# 1 -6.3521 22.5162 56.1282 17.7947 -4.2045 21.1601
# 2 22.5162 115.2464 32.5978 -15.6781 20.3146 -13.8873
# 3 56.1282 32.5978 89.7086 -10.6219 56.9260 -1.3557
# 4 17.7947 -15.6781 -10.6219 42.3225 8.2912 -0.1863
# 5 -4.2045 20.3146 56.9260 8.2912 41.6433 6.2185
# 6 21.1601 -13.8873 -1.3557 -0.1863 6.2185 28.7329
#
#
#
# Elastic Compliance Matrix: (Units=1/GPa)
#
#
# Indices 1 2 3 4 5 6 
#
# 1 0.000805 0.001322 0.011968 0.006900 -0.019009 0.004770
# 2 0.001322 0.010251 -0.005541 0.001490 0.001916 0.003314
# 3 0.011968 -0.005541 0.008264 -0.004059 -0.005080 -0.010028
# 4 0.006900 0.001490 -0.004059 0.019785 0.002315 -0.004925
# 5 -0.019009 0.001916 -0.005080 0.002315 0.026298 0.009009
# 6 0.004770 0.003314 -0.010028 -0.004925 0.009009 0.030438
#
#
# Mechanical properties :
#
#
# Convention : Reuss Voigt Hill
#
# Bulk Modulus (GPa) = 28.72177 46.78749 37.75463
# Shear Modulus (GPa) = 54.37774 28.36377 41.37076
#
# Velocity S-wave (km/s) = 4.79213 3.46098 4.17988
# Velocity P-wave (km/s) = 6.53826 5.97747 6.26415
#
# Compressibility (1/GPa) = 0.03481679
#
# Stress axis : x y z
#
# Youngs Moduli (GPa) = 1242.26382 97.55607 121.00263
#
# Poissons Ratio (x) = -0.12895 -1.44812
# Poissons Ratio (y) = -1.64198 0.67047
# Poissons Ratio (z) = -14.86702 0.54055
#
# Static dielectric constant tensor:
#      x y z
#    x 1.928610 -0.021830 0.027420 
#    y -0.021830 1.889720 0.006380 
#    z 0.027420 0.006380 1.985970 
# 
# From -- ./inp_files/472516.got.cif
#   From: 2010.05.17/outbox.cif.g08.bks.cpg/sg2_237_cif.got.tgz:472516.got - 2010.06.03 11:33:40.
