data_PCOD9111115
_publ_section_title
;
Structure prediction by ZEFSAII (Michael W. Deem and Ramdas Pophale) SiO2 
 PCOD9111115
Probable space group: P -1
;
_chemical_formula_sum "Si O2"
_cell_formula_units_Z 16
_cell_length_a 12.112272
_cell_length_b 8.708776
_cell_length_c 14.316867
_cell_angle_alpha 100.459385
_cell_angle_beta 50.728423
_cell_angle_gamma 132.738389
_cell_volume 772.652935
_symmetry_space_group_name_H-M "P -1"
_symmetry_group_IT_number 2
_symmetry_cell_setting 'triclinic'
loop_
_space_group_symop_operation_xyz
x,y,z
-x,-y,-z
loop_
_atom_site_type_symbol
_atom_site_label
_atom_site_fract_x
_atom_site_fract_y
_atom_site_fract_z
Si Si1 0.171366 0.575584 0.988733
Si Si2 0.604308 0.373935 0.748287
Si Si3 0.577677 0.082720 0.862640
Si Si4 0.800247 0.266581 0.524400
Si Si5 0.746579 0.675752 0.360297
Si Si6 0.790255 0.748194 0.122697
Si Si7 0.971414 0.541060 0.281986
Si Si8 0.964682 0.077118 0.435640
O O1 0.207764 0.424113 0.937133
O O2 0.396135 0.842315 0.879533
O O3 0.073795 0.535996 0.138433
O O4 0.000000 0.500000 0.000000
O O5 0.577507 0.260769 0.847472
O O6 0.622618 0.243860 0.650778
O O7 0.410443 0.322238 0.816971
O O8 0.815403 0.650916 0.668367
O O9 0.821840 0.226093 0.746415
O O10 0.500000 0.000000 0.000000
O O11 0.000000 0.500000 0.500000
O O12 0.848360 0.329821 0.396420
O O13 0.791522 0.077647 0.534254
O O14 0.500000 0.500000 0.500000
O O15 0.780412 0.734160 0.238927
O O16 0.824797 0.563998 0.330091
O O17 0.889489 0.906307 0.372745
O O18 0.000000 0.000000 0.000000
O O19 0.000000 0.000000 0.500000
#
# Coordination Sequence:
#
# PCOD9111115 Si02
#       8
#     2   2   2   2   2   2   2   2
#     4  11  24  47  70 100 142 197 232 281 364 426
#     4  11  24  46  72 105 144 181 239 299 355 427
#     4  10  23  41  73 101 134 187 240 290 349 417
#     4  10  20  42  69 103 135 171 228 296 352 414
#     4  12  27  47  69 106 146 188 241 296 360 426
#     4  12  28  47  68 106 152 190 237 294 356 433
#     4  11  22  45  73 101 138 181 243 290 347 426
#     4  11  24  43  74 106 139 186 235 299 362 421
#
# _framework density 20.707874
#
# number of rings (size 3 to 8) (size 9 to 14) (size 15 to 20)
#    0.000    1.000    3.750    3.750    5.250    1.000 
#    2.250    4.375    0.000    0.000    0.000    0.000 
#    0.000    0.000    0.000    0.000    0.000    0.000 
#
# Total GULP energy -89387.917061 kJ/mol
# GULP energy per Si atom -5586.744816 kJ/mol
# Density = 2.066074 g / cm^3
# Si number density = 20.707874 Si / 1000 Ang^3
#
#
#
# Elastic Constant Matrix: (Units=GPa)
#
#
# Indices 1 2 3 4 5 6 
#
# 1 188.6370 66.8384 86.2820 -3.2249 -8.0713 -21.5624
# 2 66.8384 120.2294 61.3251 -2.0080 0.2447 -15.7424
# 3 86.2820 61.3251 136.3221 8.0358 7.7115 -11.4456
# 4 -3.2249 -2.0080 8.0358 35.7470 -5.0549 -1.8597
# 5 -8.0713 0.2447 7.7115 -5.0549 54.9991 -0.3029
# 6 -21.5624 -15.7424 -11.4456 -1.8597 -0.3029 39.7620
#
#
#
# Elastic Compliance Matrix: (Units=1/GPa)
#
#
# Indices 1 2 3 4 5 6 
#
# 1 0.008506 -0.002074 -0.004472 0.002088 0.002091 0.002618
# 2 -0.002074 0.011813 -0.003901 0.001532 0.000345 0.002504
# 3 -0.004472 -0.003901 0.012244 -0.003791 -0.002708 -0.000643
# 4 0.002088 0.001532 -0.003791 0.029714 0.003574 0.002065
# 5 0.002091 0.000345 -0.002708 0.003574 0.019200 0.000804
# 6 0.002618 0.002504 -0.000643 0.002065 0.000804 0.027478
#
#
# Mechanical properties :
#
#
# Convention : Reuss Voigt Hill
#
# Bulk Modulus (GPa) = 85.70451 97.11995 91.41223
# Shear Modulus (GPa) = 37.38642 41.48450 39.43546
#
# Velocity S-wave (km/s) = 4.25363 4.48070 4.36864
# Velocity P-wave (km/s) = 8.09949 8.58899 8.34783
#
# Compressibility (1/GPa) = 0.01166800
#
# Stress axis : x y z
#
# Youngs Moduli (GPa) = 117.56259 84.65283 81.67508
#
# Poissons Ratio (x) = 0.17559 0.36527
# Poissons Ratio (y) = 0.24385 0.31861
# Poissons Ratio (z) = 0.52577 0.33022
#
# Static dielectric constant tensor:
#      x y z
#    x 1.726200 0.037790 0.014900 
#    y 0.037790 1.732120 -0.006410 
#    z 0.014900 -0.006410 1.767190 
# 
# From -- ./inp_files/515761.got.cif
#   From: 2010.05.17/outbox.cif.g08.bks.cpg/sg2_258_cif.got.tgz:515761.got - 2010.06.03 11:33:40.
