data_PCOD9111905
_publ_section_title
;
Structure prediction by ZEFSAII (Michael W. Deem and Ramdas Pophale) SiO2 
 PCOD9111905
Probable space group: P -1
;
_chemical_formula_sum "Si O2"
_cell_formula_units_Z 15
_cell_length_a 8.046819
_cell_length_b 9.424870
_cell_length_c 11.494665
_cell_angle_alpha 67.434678
_cell_angle_beta 126.706705
_cell_angle_gamma 117.773350
_cell_volume 611.539142
_symmetry_space_group_name_H-M "P -1"
_symmetry_group_IT_number 2
_symmetry_cell_setting 'triclinic'
loop_
_space_group_symop_operation_xyz
x,y,z
-x,-y,-z
loop_
_atom_site_type_symbol
_atom_site_label
_atom_site_fract_x
_atom_site_fract_y
_atom_site_fract_z
Si Si1 0.758857 0.057120 0.564091
Si Si2 0.272208 0.483943 0.726855
Si Si3 0.338862 0.811281 0.743147
Si Si4 0.898720 0.760266 0.691169
Si Si5 0.927324 0.643647 0.980932
Si Si6 0.500000 0.500000 0.000000
Si Si7 0.232218 0.545146 0.430007
Si Si8 0.729940 0.140073 0.769428
O O1 0.786674 0.191295 0.433512
O O2 0.854493 0.101559 0.719079
O O3 0.500000 0.000000 0.500000
O O4 0.835445 0.917665 0.584254
O O5 0.398795 0.644207 0.813410
O O6 0.393777 0.375257 0.873412
O O7 0.320395 0.519059 0.601229
O O8 0.016855 0.452816 0.651808
O O9 0.158206 0.798950 0.767884
O O10 0.540565 0.975129 0.776616
O O11 0.839458 0.722308 0.812115
O O12 0.785426 0.604371 0.614112
O O13 0.745858 0.564697 0.023140
O O14 0.000000 0.500000 0.000000
O O15 0.118789 0.779079 0.085541
O O16 0.351456 0.715220 0.363587
#
# Coordination Sequence:
#
# PCOD9111905 Si02
#       8
#     2   2   2   2   2   1   2   2
#     4  10  23  43  66 101 144 180 232 297 355 424
#     4  10  21  42  71 107 139 189 235 294 355 432
#     4  10  22  42  72  98 145 183 231 292 365 421
#     4  11  24  44  71 104 140 188 238 294 356 426
#     4  12  26  49  69 105 146 182 242 305 352 430
#     4  12  26  44  74 106 142 188 234 298 372 410
#     4  10  20  43  75 101 140 188 241 293 348 423
#     4  11  22  44  71 102 142 187 232 295 359 425
#
# _framework density 24.528275000000001
#
# number of rings (size 3 to 8) (size 9 to 14) (size 15 to 20)
#    0.000    1.333    4.000    1.200    3.733    1.067 
#    7.200    3.333    0.000    0.000    0.000    0.000 
#    0.000    0.000    0.000    0.000    0.000    0.000 
#
# Total GULP energy -83744.052107 kJ/mol
# GULP energy per Si atom -5582.936807 kJ/mol
# Density = 2.447245 g / cm^3
# Si number density = 24.528275 Si / 1000 Ang^3
#
#
#
# Elastic Constant Matrix: (Units=GPa)
#
#
# Indices 1 2 3 4 5 6 
#
# 1 82.4822 55.1940 15.8972 5.2959 -7.5822 14.0877
# 2 55.1940 165.6368 31.0678 15.2568 -8.9749 2.4401
# 3 15.8972 31.0678 149.9788 21.8845 -24.3442 8.9932
# 4 5.2959 15.2568 21.8845 47.7021 1.4603 -0.5935
# 5 -7.5822 -8.9749 -24.3442 1.4603 37.8845 -6.1515
# 6 14.0877 2.4401 8.9932 -0.5935 -6.1515 38.8674
#
#
#
# Elastic Compliance Matrix: (Units=1/GPa)
#
#
# Indices 1 2 3 4 5 6 
#
# 1 0.016846 -0.005432 -0.000120 -0.000181 0.001111 -0.005564
# 2 -0.005432 0.008169 -0.000886 -0.001601 0.000622 0.001735
# 3 -0.000120 -0.000886 0.008285 -0.003672 0.005057 -0.001074
# 4 -0.000181 -0.001601 -0.003672 0.023299 -0.003542 0.000811
# 5 0.001111 0.000622 0.005057 -0.003542 0.030670 0.003188
# 6 -0.005564 0.001735 -0.001074 0.000811 0.003188 0.028402
#
#
# Mechanical properties :
#
#
# Convention : Reuss Voigt Hill
#
# Bulk Modulus (GPa) = 48.96159 66.93509 57.94834
# Shear Modulus (GPa) = 36.94008 44.62006 40.78007
#
# Velocity S-wave (km/s) = 3.88496 4.26975 4.08189
# Velocity P-wave (km/s) = 6.33470 7.18720 6.77438
#
# Compressibility (1/GPa) = 0.02042417
#
# Stress axis : x y z
#
# Youngs Moduli (GPa) = 59.36127 122.41129 120.70079
#
# Poissons Ratio (x) = 0.66495 0.01448
# Poissons Ratio (y) = 0.32246 0.10693
# Poissons Ratio (z) = 0.00712 0.10844
#
# Static dielectric constant tensor:
#      x y z
#    x 1.910860 0.012230 0.037970 
#    y 0.012230 2.107630 -0.103670 
#    z 0.037970 -0.103670 2.299640 
# 
# From -- ./inp_files/378455.got.cif
#   From: 2010.05.17/outbox.cif.g08.bks.cpg/sg2_190_cif.got.tgz:378455.got - 2010.06.03 11:33:40.
