data_PCOD9111492
_publ_section_title
;
Structure prediction by ZEFSAII (Michael W. Deem and Ramdas Pophale) SiO2 
 PCOD9111492
Probable space group: P -1
;
_chemical_formula_sum "Si O2"
_cell_formula_units_Z 14
_cell_length_a 21.775428
_cell_length_b 9.513666
_cell_length_c 9.338018
_cell_angle_alpha 136.361174
_cell_angle_beta 147.497731
_cell_angle_gamma 33.620025
_cell_volume 574.045882
_symmetry_space_group_name_H-M "P -1"
_symmetry_group_IT_number 2
_symmetry_cell_setting 'triclinic'
loop_
_space_group_symop_operation_xyz
x,y,z
-x,-y,-z
loop_
_atom_site_type_symbol
_atom_site_label
_atom_site_fract_x
_atom_site_fract_y
_atom_site_fract_z
Si Si1 0.087799 0.333353 0.835009
Si Si2 0.897711 0.218852 0.237068
Si Si3 0.200700 0.973184 0.313979
Si Si4 0.391901 0.725858 0.751386
Si Si5 0.302289 0.621120 0.793006
Si Si6 0.772118 0.715977 0.199259
Si Si7 0.779470 0.756120 0.680155
O O1 0.158042 0.398701 0.900613
O O2 0.036091 0.190899 0.539872
O O3 0.940818 0.561787 0.789077
O O4 0.201685 0.194027 0.083482
O O5 0.831932 0.193272 0.231830
O O6 0.782513 0.506372 0.162264
O O7 0.909794 0.043897 0.004990
O O8 0.309640 0.735232 0.455318
O O9 0.141063 0.206509 0.478862
O O10 0.285244 0.012389 0.387278
O O11 0.320224 0.719899 0.751942
O O12 0.368998 0.996929 0.893605
O O13 0.555746 0.494894 0.920379
O O14 0.289379 0.392936 0.566397
#
# Coordination Sequence:
#
# PCOD9111492 Si02
#       7
#     2   2   2   2   2   2   2
#     4  10  21  40  62  88 129 158 204 249 300 362
#     4  11  23  39  65  91 124 166 199 250 303 359
#     4  10  23  39  60  97 118 162 208 238 311 359
#     4   9  22  41  63  91 122 157 204 258 302 360
#     4  10  20  43  65  87 126 157 203 257 304 360
#     4  10  22  42  59  92 126 158 201 256 295 367
#     4  10  22  40  63  91 123 165 201 250 302 361
#
# _framework density 24.388293999999998
#
# number of rings (size 3 to 8) (size 9 to 14) (size 15 to 20)
#    0.857    1.143    2.857    0.429    4.000    4.000 
#    5.143    0.714    0.000    0.000    0.000    0.000 
#    0.000    0.000    0.000    0.000    0.000    0.000 
#
# Total GULP energy -78107.070066 kJ/mol
# GULP energy per Si atom -5579.076433 kJ/mol
# Density = 2.433279 g / cm^3
# Si number density = 24.388294 Si / 1000 Ang^3
#
#
#
# Elastic Constant Matrix: (Units=GPa)
#
#
# Indices 1 2 3 4 5 6 
#
# 1 103.7756 10.2881 40.3894 -7.9587 -27.6508 31.0134
# 2 10.2881 58.4686 13.0654 -8.7188 -6.1742 22.6054
# 3 40.3894 13.0654 111.2190 4.0318 -42.3136 16.7602
# 4 -7.9587 -8.7188 4.0318 41.9799 5.2888 -5.9021
# 5 -27.6508 -6.1742 -42.3136 5.2888 31.8074 -10.6575
# 6 31.0134 22.6054 16.7602 -5.9021 -10.6575 29.9272
#
#
#
# Elastic Compliance Matrix: (Units=1/GPa)
#
#
# Indices 1 2 3 4 5 6 
#
# 1 0.017209 0.005164 -0.000902 0.000807 0.008595 -0.018010
# 2 0.005164 0.026275 -0.002246 0.003537 -0.002015 -0.023960
# 3 -0.000902 -0.002246 0.019652 -0.005820 0.025776 -0.000343
# 4 0.000807 0.003537 -0.005820 0.026761 -0.010355 0.001342
# 5 0.008595 -0.002015 0.025776 -0.010355 0.075551 0.003042
# 6 -0.018010 -0.023960 -0.000343 0.001342 0.003042 0.071717
#
#
# Mechanical properties :
#
#
# Convention : Reuss Voigt Hill
#
# Bulk Modulus (GPa) = 14.88774 44.54990 29.71882
# Shear Modulus (GPa) = 19.56790 34.72425 27.14608
#
# Velocity S-wave (km/s) = 2.83565 3.77743 3.33990
# Velocity P-wave (km/s) = 4.10352 6.10998 5.20436
#
# Compressibility (1/GPa) = 0.06716935
#
# Stress axis : x y z
#
# Youngs Moduli (GPa) = 58.10796 38.05935 50.88595
#
# Poissons Ratio (x) = -0.19655 0.04588
# Poissons Ratio (y) = -0.30009 0.11429
# Poissons Ratio (z) = 0.05239 0.08548
#
# Static dielectric constant tensor:
#      x y z
#    x 1.894340 0.057700 -0.020530 
#    y 0.057700 2.085950 0.024300 
#    z -0.020530 0.024300 1.929210 
# 
# From -- ./inp_files/343059.got.cif
#   From: 2010.05.17/outbox.cif.g08.bks.cpg/sg2_172_cif.got.tgz:343059.got - 2010.06.03 11:33:40.
