data_PCOD9111606
_publ_section_title
;
Structure prediction by ZEFSAII (Michael W. Deem and Ramdas Pophale) SiO2 
 PCOD9111606
Probable space group: P -1
;
_chemical_formula_sum "Si O2"
_cell_formula_units_Z 16
_cell_length_a 10.259562
_cell_length_b 14.866585
_cell_length_c 11.124055
_cell_angle_alpha 75.647290
_cell_angle_beta 121.536189
_cell_angle_gamma 56.881182
_cell_volume 804.405540
_symmetry_space_group_name_H-M "P -1"
_symmetry_group_IT_number 2
_symmetry_cell_setting 'triclinic'
loop_
_space_group_symop_operation_xyz
x,y,z
-x,-y,-z
loop_
_atom_site_type_symbol
_atom_site_label
_atom_site_fract_x
_atom_site_fract_y
_atom_site_fract_z
Si Si1 0.683870 0.286040 0.058262
Si Si2 0.438408 0.599093 0.764831
Si Si3 0.989394 0.869931 0.297006
Si Si4 0.223091 0.950607 0.320672
Si Si5 0.634775 0.015827 0.859862
Si Si6 0.684804 0.664718 0.793537
Si Si7 0.515772 0.866357 0.873669
Si Si8 0.284439 0.325889 0.744803
O O1 0.639121 0.321865 0.167474
O O2 0.608383 0.422932 0.921300
O O3 0.480225 0.312556 0.889640
O O4 0.991745 0.110200 0.238557
O O5 0.184430 0.709305 0.521271
O O6 0.591441 0.605263 0.771091
O O7 0.130920 0.888799 0.298678
O O8 0.767077 0.013067 0.238806
O O9 0.838570 0.896996 0.106663
O O10 0.228820 0.003285 0.181631
O O11 0.524184 0.798171 0.567387
O O12 0.428024 0.193435 0.755231
O O13 0.515995 0.972862 0.794848
O O14 0.580987 0.767365 0.828514
O O15 0.000000 0.500000 0.000000
O O16 0.726688 0.735986 0.123709
O O17 0.000000 0.500000 0.500000
#
# Coordination Sequence:
#
# PCOD9111606 Si02
#       8
#     2   2   2   2   2   2   2   2
#     4  11  22  41  67  97 125 164 223 260 320 379
#     4  10  23  41  67  93 125 166 217 273 308 381
#     4  10  20  43  67  89 126 170 216 257 319 383
#     4  11  23  43  66  92 129 169 208 271 323 379
#     4  11  25  40  64  97 131 167 215 259 327 386
#     4  11  25  44  63  92 130 167 214 266 330 379
#     4  11  23  43  65  92 129 171 217 259 316 389
#     4  11  24  41  68  95 132 170 213 265 316 381
#
# _framework density 19.890464999999999
#
# number of rings (size 3 to 8) (size 9 to 14) (size 15 to 20)
#    0.000    1.250    3.750    2.625    7.000    2.500 
#    2.250    0.625    0.000    0.000    0.000    0.000 
#    0.000    0.000    0.000    0.000    0.000    0.000 
#
# Total GULP energy -89240.408366 kJ/mol
# GULP energy per Si atom -5577.525523 kJ/mol
# Density = 1.984519 g / cm^3
# Si number density = 19.890465 Si / 1000 Ang^3
#
#
#
# Elastic Constant Matrix: (Units=GPa)
#
#
# Indices 1 2 3 4 5 6 
#
# 1 66.3878 28.4185 10.9138 -1.2739 -5.4703 13.5990
# 2 28.4185 42.2588 11.1204 -4.4085 0.4243 19.4706
# 3 10.9138 11.1204 122.6985 -14.0939 -5.3241 3.6885
# 4 -1.2739 -4.4085 -14.0939 12.5793 3.8595 -8.6423
# 5 -5.4703 0.4243 -5.3241 3.8595 23.9495 -2.0325
# 6 13.5990 19.4706 3.6885 -8.6423 -2.0325 19.6155
#
#
#
# Elastic Compliance Matrix: (Units=1/GPa)
#
#
# Indices 1 2 3 4 5 6 
#
# 1 0.022441 -0.012895 -0.001543 -0.010200 0.006118 -0.006328
# 2 -0.012895 0.059560 -0.005826 -0.027599 -0.006099 -0.061876
# 3 -0.001543 -0.005826 0.010562 0.018539 0.000219 0.013057
# 4 -0.010200 -0.027599 0.018539 0.164217 -0.015551 0.101721
# 5 0.006118 -0.006099 0.000219 -0.015551 0.045786 -0.000336
# 6 -0.006328 -0.061876 0.013057 0.101721 -0.000336 0.159113
#
#
# Mechanical properties :
#
#
# Convention : Reuss Voigt Hill
#
# Bulk Modulus (GPa) = 19.21810 36.91672 28.06741
# Shear Modulus (GPa) = 9.62364 23.28836 16.45600
#
# Velocity S-wave (km/s) = 2.20200 3.42545 2.87946
# Velocity P-wave (km/s) = 4.01846 5.85195 5.01963
#
# Compressibility (1/GPa) = 0.05203427
#
# Stress axis : x y z
#
# Youngs Moduli (GPa) = 44.56037 16.78975 94.68040
#
# Poissons Ratio (x) = 0.21651 0.14613
# Poissons Ratio (y) = 0.57462 0.55159
# Poissons Ratio (z) = 0.06877 0.09781
#
# Static dielectric constant tensor:
#      x y z
#    x 1.711330 0.006910 0.004770 
#    y 0.006910 1.689400 0.012020 
#    z 0.004770 0.012020 1.768590 
# 
# From -- ./inp_files/398980.got.cif
#   From: 2010.05.17/outbox.cif.g08.bks.cpg/sg2_200_cif.got.tgz:398980.got - 2010.06.03 11:33:40.
