data_PCOD9111381
_publ_section_title
;
Structure prediction by ZEFSAII (Michael W. Deem and Ramdas Pophale) SiO2 
 PCOD9111381
Probable space group: P -1
;
_chemical_formula_sum "Si O2"
_cell_formula_units_Z 16
_cell_length_a 5.964941
_cell_length_b 18.425625
_cell_length_c 20.817468
_cell_angle_alpha 19.244587
_cell_angle_beta 109.427439
_cell_angle_gamma 106.986346
_cell_volume 709.426568
_symmetry_space_group_name_H-M "P -1"
_symmetry_group_IT_number 2
_symmetry_cell_setting 'triclinic'
loop_
_space_group_symop_operation_xyz
x,y,z
-x,-y,-z
loop_
_atom_site_type_symbol
_atom_site_label
_atom_site_fract_x
_atom_site_fract_y
_atom_site_fract_z
Si Si1 0.230904 0.119850 0.893131
Si Si2 0.121053 0.974392 0.634940
Si Si3 0.478637 0.403396 0.007100
Si Si4 0.202023 0.274242 0.981874
Si Si5 0.710592 0.820723 0.649109
Si Si6 0.107484 0.103671 0.755702
Si Si7 0.150712 0.344910 0.428244
Si Si8 0.487992 0.679708 0.139850
O O1 0.302059 0.278493 0.824778
O O2 0.130095 0.206681 0.742342
O O3 0.500000 0.000000 0.000000
O O4 0.000000 0.000000 0.000000
O O5 0.905343 0.826682 0.719293
O O6 0.162034 0.120059 0.453958
O O7 0.082334 0.133118 0.558698
O O8 0.359152 0.820682 0.793997
O O9 0.231227 0.352437 0.992577
O O10 0.594375 0.593235 0.819706
O O11 0.500000 0.500000 0.000000
O O12 0.442836 0.299174 0.945081
O O13 0.030083 0.451302 0.779475
O O14 0.128783 0.024968 0.174222
O O15 0.500000 0.000000 0.500000
O O16 0.153651 0.274872 0.561027
O O17 0.297431 0.889924 0.953427
O O18 0.394372 0.443682 0.345609
#
# Coordination Sequence:
#
# PCOD9111381 Si02
#       8
#     2   2   2   2   2   2   2   2
#     4  10  20  42  76 107 146 190 235 291 357 427
#     4  11  25  42  65  90 131 173 223 281 350 408
#     4  12  25  41  66  93 125 177 229 277 351 414
#     4  11  24  42  64  93 136 175 226 291 345 419
#     4  11  23  43  64  92 126 164 221 289 342 411
#     4  10  23  42  69 100 135 183 228 278 355 419
#     4  11  25  41  65  99 132 180 229 289 344 421
#     4  10  22  44  69  96 141 178 228 280 353 414
#
# _framework density 22.553426999999999
#
# number of rings (size 3 to 8) (size 9 to 14) (size 15 to 20)
#    0.000    1.250    2.500    2.625    3.500    4.500 
#    0.000    0.625    0.000    0.000    0.000    0.000 
#    0.000    0.000    0.000    0.000    0.000    0.000 
#
# Total GULP energy -89261.002182 kJ/mol
# GULP energy per Si atom -5578.812636 kJ/mol
# Density = 2.250209 g / cm^3
# Si number density = 22.553427 Si / 1000 Ang^3
#
#
#
# Elastic Constant Matrix: (Units=GPa)
#
#
# Indices 1 2 3 4 5 6 
#
# 1 49.1478 18.8240 -1.4525 4.5569 -14.5979 3.0050
# 2 18.8240 126.3397 2.6993 14.0795 -9.2025 7.2472
# 3 -1.4525 2.6993 49.4016 9.7515 -6.7905 8.7131
# 4 4.5569 14.0795 9.7515 32.8365 -3.1608 -6.7391
# 5 -14.5979 -9.2025 -6.7905 -3.1608 27.9243 -6.9912
# 6 3.0050 7.2472 8.7131 -6.7391 -6.9912 34.0095
#
#
#
# Elastic Compliance Matrix: (Units=1/GPa)
#
#
# Indices 1 2 3 4 5 6 
#
# 1 0.025513 -0.002675 0.003138 -0.002135 0.012913 -0.000257
# 2 -0.002675 0.008955 0.000796 -0.004172 0.000630 -0.002573
# 3 0.003138 0.000796 0.024031 -0.008956 0.004887 -0.007374
# 4 -0.002135 -0.004172 -0.008956 0.037766 0.002450 0.011359
# 5 0.012913 0.000630 0.004887 0.002450 0.046096 0.007434
# 6 -0.000257 -0.002573 -0.007374 0.011359 0.007434 0.035643
#
#
# Mechanical properties :
#
#
# Convention : Reuss Voigt Hill
#
# Bulk Modulus (GPa) = 16.38876 29.44785 22.91830
# Shear Modulus (GPa) = 25.53292 32.60861 29.07076
#
# Velocity S-wave (km/s) = 3.36833 3.80654 3.59412
# Velocity P-wave (km/s) = 4.73392 5.69254 5.23521
#
# Compressibility (1/GPa) = 0.06101744
#
# Stress axis : x y z
#
# Youngs Moduli (GPa) = 39.19537 111.66697 41.61260
#
# Poissons Ratio (x) = 0.29872 -0.13058
# Poissons Ratio (y) = 0.10485 -0.03313
# Poissons Ratio (z) = -0.12300 -0.08889
#
# Static dielectric constant tensor:
#      x y z
#    x 1.969350 0.034240 -0.040460 
#    y 0.034240 1.861430 0.014780 
#    z -0.040460 0.014780 1.774950 
# 
# From -- ./inp_files/56806.got.cif
#   From: 2010.05.17/outbox.cif.g08.bks.cpg/sg2_29_cif.got.tgz:56806.got - 2010.06.03 11:33:40.
