data_PCOD9111624
_publ_section_title
;
Structure prediction by ZEFSAII (Michael W. Deem and Ramdas Pophale) SiO2 
 PCOD9111624
Probable space group: P -1
;
_chemical_formula_sum "Si O2"
_cell_formula_units_Z 16
_cell_length_a 9.651692
_cell_length_b 14.019351
_cell_length_c 15.173281
_cell_angle_alpha 119.118166
_cell_angle_beta 144.924176
_cell_angle_gamma 40.886087
_cell_volume 723.077855
_symmetry_space_group_name_H-M "P -1"
_symmetry_group_IT_number 2
_symmetry_cell_setting 'triclinic'
loop_
_space_group_symop_operation_xyz
x,y,z
-x,-y,-z
loop_
_atom_site_type_symbol
_atom_site_label
_atom_site_fract_x
_atom_site_fract_y
_atom_site_fract_z
Si Si1 0.022745 0.717442 0.651423
Si Si2 0.077535 0.884782 0.063718
Si Si3 0.485123 0.074486 0.115566
Si Si4 0.700234 0.530522 0.172094
Si Si5 0.571071 0.045547 0.660388
Si Si6 0.875864 0.861364 0.370610
Si Si7 0.502282 0.679070 0.755025
Si Si8 0.856177 0.443753 0.691341
O O1 0.134468 0.581764 0.707959
O O2 0.346704 0.674252 0.759034
O O3 0.778994 0.776601 0.467873
O O4 0.762516 0.882626 0.641216
O O5 0.409090 0.711121 0.127478
O O6 0.161662 0.943281 0.210614
O O7 0.805520 0.888537 0.959994
O O8 0.000000 0.000000 0.000000
O O9 0.403258 0.227967 0.131428
O O10 0.822385 0.956631 0.301486
O O11 0.500000 0.000000 0.000000
O O12 0.999107 0.498991 0.261417
O O13 0.500000 0.500000 0.000000
O O14 0.444353 0.036094 0.682606
O O15 0.207820 0.776935 0.567346
O O16 0.884782 0.738843 0.274473
O O17 0.792306 0.509640 0.785690
O O18 0.500000 0.500000 0.500000
#
# Coordination Sequence:
#
# PCOD9111624 Si02
#       8
#     2   2   2   2   2   2   2   2
#     4  10  24  42  68  98 132 175 229 282 330 414
#     4  12  23  42  68  93 135 178 224 273 339 410
#     4  12  25  41  64 102 138 177 229 281 353 413
#     4  12  25  42  68 103 132 179 230 279 346 409
#     4  10  20  43  67  93 132 175 227 277 334 393
#     4  10  21  43  69  94 128 185 224 283 336 417
#     4  10  23  44  66  97 136 176 229 282 348 407
#     4  10  22  44  67  98 134 177 227 279 349 410
#
# _framework density 22.127631999999998
#
# number of rings (size 3 to 8) (size 9 to 14) (size 15 to 20)
#    0.000    1.250    2.500    2.625    1.750    2.500 
#   11.250    1.875    0.000    0.000    0.000    0.000 
#    0.000    0.000    0.000    0.000    0.000    0.000 
#
# Total GULP energy -89131.287954 kJ/mol
# GULP energy per Si atom -5570.705497 kJ/mol
# Density = 2.207727 g / cm^3
# Si number density = 22.127632 Si / 1000 Ang^3
#
#
#
# Elastic Constant Matrix: (Units=GPa)
#
#
# Indices 1 2 3 4 5 6 
#
# 1 128.8671 48.4031 20.4908 -11.9913 9.9226 5.1109
# 2 48.4031 120.9629 10.5265 0.7608 -4.2766 6.8163
# 3 20.4908 10.5265 36.3966 2.1286 6.0335 12.3102
# 4 -11.9913 0.7608 2.1286 34.6636 9.7392 -1.1489
# 5 9.9226 -4.2766 6.0335 9.7392 30.6138 5.6957
# 6 5.1109 6.8163 12.3102 -1.1489 5.6957 39.8316
#
#
#
# Elastic Compliance Matrix: (Units=1/GPa)
#
#
# Indices 1 2 3 4 5 6 
#
# 1 0.011066 -0.004318 -0.005042 0.005804 -0.005380 0.001814
# 2 -0.004318 0.010302 -0.000482 -0.002925 0.004189 -0.001743
# 3 -0.005042 -0.000482 0.034299 -0.003519 -0.002279 -0.009647
# 4 0.005804 -0.002925 -0.003519 0.035040 -0.013446 0.003777
# 5 -0.005380 0.004189 -0.002279 -0.013446 0.040751 -0.005537
# 6 0.001814 -0.001743 -0.009647 0.003777 -0.005537 0.029053
#
#
# Mechanical properties :
#
#
# Convention : Reuss Voigt Hill
#
# Bulk Modulus (GPa) = 27.79159 49.45194 38.62176
# Shear Modulus (GPa) = 26.01586 34.80888 30.41237
#
# Velocity S-wave (km/s) = 3.43259 3.97053 3.71132
# Velocity P-wave (km/s) = 5.31951 6.58917 5.98809
#
# Compressibility (1/GPa) = 0.03598211
#
# Stress axis : x y z
#
# Youngs Moduli (GPa) = 90.36630 97.07249 29.15495
#
# Poissons Ratio (x) = 0.41918 0.14701
# Poissons Ratio (y) = 0.39022 0.01405
# Poissons Ratio (z) = 0.45565 0.04679
#
# Static dielectric constant tensor:
#      x y z
#    x 1.776530 -0.051870 -0.086390 
#    y -0.051870 1.791710 0.001200 
#    z -0.086390 0.001200 2.174770 
# 
# From -- ./inp_files/500612.got.cif
#   From: 2010.05.17/outbox.cif.g08.bks.cpg/sg2_251_cif.got.tgz:500612.got - 2010.06.03 11:33:40.
