data_PCOD9111193
_publ_section_title
;
Structure prediction by ZEFSAII (Michael W. Deem and Ramdas Pophale) SiO2 
 PCOD9111193
Probable space group: P -1
;
_chemical_formula_sum "Si O2"
_cell_formula_units_Z 12
_cell_length_a 9.618134
_cell_length_b 11.583526
_cell_length_c 15.626266
_cell_angle_alpha 152.203084
_cell_angle_beta 140.128464
_cell_angle_gamma 47.950775
_cell_volume 520.222785
_symmetry_space_group_name_H-M "P -1"
_symmetry_group_IT_number 2
_symmetry_cell_setting 'triclinic'
loop_
_space_group_symop_operation_xyz
x,y,z
-x,-y,-z
loop_
_atom_site_type_symbol
_atom_site_label
_atom_site_fract_x
_atom_site_fract_y
_atom_site_fract_z
Si Si1 0.157273 0.256428 0.833965
Si Si2 0.324512 0.434428 0.445128
Si Si3 0.995483 0.868354 0.001930
Si Si4 0.571802 0.318063 0.838653
Si Si5 0.680603 0.097852 0.475822
Si Si6 0.250329 0.929773 0.825754
O O1 0.895624 0.275045 0.708820
O O2 0.248728 0.073021 0.683462
O O3 0.168649 0.114291 0.835682
O O4 0.320878 0.500052 0.064656
O O5 0.500000 0.500000 0.500000
O O6 0.126455 0.377275 0.248997
O O7 0.462529 0.241025 0.440276
O O8 0.241297 0.648833 0.606444
O O9 0.219597 0.814781 0.114724
O O10 0.862226 0.024166 0.107774
O O11 0.000000 0.000000 0.000000
O O12 0.384469 0.097070 0.605095
O O13 0.500000 0.500000 0.000000
O O14 0.500000 0.000000 0.000000
#
# Coordination Sequence:
#
# PCOD9111193 Si02
#       6
#     2   2   2   2   2   2
#     4  10  22  41  71 102 145 188 245 292 362 438
#     4  12  22  44  77 102 143 189 241 300 358 433
#     4  12  26  48  72 107 148 189 245 305 365 431
#     4  10  23  42  71 104 143 194 236 297 370 427
#     4  10  20  42  70 105 142 194 234 298 366 428
#     4  12  27  45  75 111 140 196 248 295 370 439
#
# _framework density 23.067039999999999
#
# number of rings (size 3 to 8) (size 9 to 14) (size 15 to 20)
#    0.000    1.000    5.000    1.000    7.000    1.333 
#    0.000    2.500    0.000    0.000    0.000    0.000 
#    0.000    0.000    0.000    0.000    0.000    0.000 
#
# Total GULP energy -66909.151215 kJ/mol
# GULP energy per Si atom -5575.762601 kJ/mol
# Density = 2.301454 g / cm^3
# Si number density = 23.067040 Si / 1000 Ang^3
#
#
#
# Elastic Constant Matrix: (Units=GPa)
#
#
# Indices 1 2 3 4 5 6 
#
# 1 153.0001 43.7634 38.2727 15.8087 -16.7903 -5.2004
# 2 43.7634 88.1291 5.6198 7.5347 -3.4347 3.0442
# 3 38.2727 5.6198 73.5809 8.0622 4.7096 -8.6469
# 4 15.8087 7.5347 8.0622 29.4685 -2.5761 2.2811
# 5 -16.7903 -3.4347 4.7096 -2.5761 42.5976 11.2486
# 6 -5.2004 3.0442 -8.6469 2.2811 11.2486 40.9898
#
#
#
# Elastic Compliance Matrix: (Units=1/GPa)
#
#
# Indices 1 2 3 4 5 6 
#
# 1 0.009535 -0.004062 -0.004683 -0.002421 0.003912 -0.000415
# 2 -0.004062 0.013440 0.001160 -0.001533 -0.000459 -0.001058
# 3 -0.004683 0.001160 0.017146 -0.003264 -0.005034 0.004500
# 4 -0.002421 -0.001533 -0.003264 0.037015 0.002478 -0.003622
# 5 0.003912 -0.000459 -0.005034 0.002478 0.027884 -0.008321
# 6 -0.000415 -0.001058 0.004500 -0.003622 -0.008321 0.027857
#
#
# Mechanical properties :
#
#
# Convention : Reuss Voigt Hill
#
# Bulk Modulus (GPa) = 40.08121 54.44687 47.26404
# Shear Modulus (GPa) = 31.97649 37.74813 34.86231
#
# Velocity S-wave (km/s) = 3.72727 4.04970 3.89182
# Velocity P-wave (km/s) = 5.99475 6.74698 6.38196
#
# Compressibility (1/GPa) = 0.02494935
#
# Stress axis : x y z
#
# Youngs Moduli (GPa) = 104.88051 74.40475 58.32148
#
# Poissons Ratio (x) = 0.30226 0.27312
# Poissons Ratio (y) = 0.42606 -0.06763
# Poissons Ratio (z) = 0.49116 -0.08628
#
# Static dielectric constant tensor:
#      x y z
#    x 1.821130 0.054740 0.060680 
#    y 0.054740 1.882340 0.033900 
#    z 0.060680 0.033900 1.898790 
# 
# From -- ./inp_files/174252.got.cif
#   From: 2010.05.17/outbox.cif.g08.bks.cpg/sg2_88_cif.got.tgz:174252.got - 2010.06.03 11:33:40.
