data_PCOD9111362
_publ_section_title
;
Structure prediction by ZEFSAII (Michael W. Deem and Ramdas Pophale) SiO2 
 PCOD9111362
Probable space group: P -1
;
_chemical_formula_sum "Si O2"
_cell_formula_units_Z 14
_cell_length_a 6.940335
_cell_length_b 16.532809
_cell_length_c 5.453259
_cell_angle_alpha 105.741641
_cell_angle_beta 64.741356
_cell_angle_gamma 92.843015
_cell_volume 543.099608
_symmetry_space_group_name_H-M "P -1"
_symmetry_group_IT_number 2
_symmetry_cell_setting 'triclinic'
loop_
_space_group_symop_operation_xyz
x,y,z
-x,-y,-z
loop_
_atom_site_type_symbol
_atom_site_label
_atom_site_fract_x
_atom_site_fract_y
_atom_site_fract_z
Si Si1 0.430542 0.201615 0.699627
Si Si2 0.256989 0.335667 0.277418
Si Si3 0.638347 0.487126 0.665394
Si Si4 0.346513 0.042423 0.904272
Si Si5 0.100319 0.934676 0.591398
Si Si6 0.695697 0.304533 0.321113
Si Si7 0.012540 0.228053 0.685623
O O1 0.439668 0.127644 0.830952
O O2 0.635030 0.226607 0.457699
O O3 0.238633 0.181131 0.606284
O O4 0.331512 0.288175 0.949844
O O5 0.210634 0.435443 0.352698
O O6 0.474469 0.323252 0.308349
O O7 0.078654 0.287640 0.477711
O O8 0.500000 0.500000 0.500000
O O9 0.729314 0.390438 0.518497
O O10 0.500000 0.500000 0.000000
O O11 0.290425 0.973389 0.671918
O O12 0.103682 0.074584 0.132549
O O13 0.500000 0.000000 0.000000
O O14 0.132813 0.846398 0.363300
O O15 0.000000 0.000000 0.500000
O O16 0.886479 0.280476 0.010547
#
# Coordination Sequence:
#
# PCOD9111362 Si02
#       7
#     2   2   2   2   2   2   2
#     4  11  22  47  71 105 149 197 253 325 392 465
#     4  10  22  43  72 103 154 200 250 322 387 464
#     4  10  20  42  74 112 155 201 262 324 391 476
#     4  11  26  49  76 108 147 206 265 327 399 480
#     4  11  24  50  72 106 152 197 260 334 389 461
#     4  10  24  43  74 108 146 205 256 312 400 476
#     4  11  24  46  72 107 151 199 258 328 389 470
#
# _framework density 25.777964000000001
#
# number of rings (size 3 to 8) (size 9 to 14) (size 15 to 20)
#    0.000    1.429    4.286    0.000    0.000    3.429 
#    5.143    1.429    0.000    0.000    0.000    0.000 
#    0.000    0.000    0.000    0.000    0.000    0.000 
#
# Total GULP energy -78385.812750 kJ/mol
# GULP energy per Si atom -5598.986625 kJ/mol
# Density = 2.571929 g / cm^3
# Si number density = 25.777964 Si / 1000 Ang^3
#
#
#
# Elastic Constant Matrix: (Units=GPa)
#
#
# Indices 1 2 3 4 5 6 
#
# 1 129.4188 40.4429 2.9975 -4.8070 15.5588 9.7297
# 2 40.4429 123.2108 12.9728 -4.7394 6.5987 25.3995
# 3 2.9975 12.9728 123.3414 11.0132 -8.8045 19.5626
# 4 -4.8070 -4.7394 11.0132 50.2284 8.3756 2.8958
# 5 15.5588 6.5987 -8.8045 8.3756 50.3693 -9.0226
# 6 9.7297 25.3995 19.5626 2.8958 -9.0226 58.4947
#
#
#
# Elastic Compliance Matrix: (Units=1/GPa)
#
#
# Indices 1 2 3 4 5 6 
#
# 1 0.008973 -0.002568 -0.000120 0.001157 -0.002797 -0.000826
# 2 -0.002568 0.009982 -0.000578 0.001314 -0.001554 -0.004019
# 3 -0.000120 -0.000578 0.008847 -0.002137 0.001596 -0.002335
# 4 0.001157 0.001314 -0.002137 0.021522 -0.004814 -0.001856
# 5 -0.002797 -0.001554 0.001596 -0.004814 0.022781 0.004358
# 6 -0.000826 -0.004019 -0.002335 -0.001856 0.004358 0.020523
#
#
# Mechanical properties :
#
#
# Convention : Reuss Voigt Hill
#
# Bulk Modulus (GPa) = 47.01631 54.31083 50.66357
# Shear Modulus (GPa) = 47.05824 53.12233 50.09028
#
# Velocity S-wave (km/s) = 4.27725 4.54449 4.41289
# Velocity P-wave (km/s) = 6.53236 6.97502 6.75732
#
# Compressibility (1/GPa) = 0.02126922
#
# Stress axis : x y z
#
# Youngs Moduli (GPa) = 111.43938 100.17774 113.03878
#
# Poissons Ratio (x) = 0.25729 0.01355
# Poissons Ratio (y) = 0.28621 0.06538
# Poissons Ratio (z) = 0.01336 0.05794
#
# Static dielectric constant tensor:
#      x y z
#    x 2.645840 -0.012610 -0.126230 
#    y -0.012610 2.006300 0.008220 
#    z -0.126230 0.008220 2.132990 
# 
# From -- ./inp_files/9472.got.cif
#   From: 2010.05.17/outbox.cif.g08.bks.cpg/sg2_5_cif.got.tgz:9472.got - 2010.06.03 11:33:40.
