data_PCOD9111397
_publ_section_title
;
Structure prediction by ZEFSAII (Michael W. Deem and Ramdas Pophale) SiO2 
 PCOD9111397
Probable space group: P -1
;
_chemical_formula_sum "Si O2"
_cell_formula_units_Z 16
_cell_length_a 10.686327
_cell_length_b 15.095270
_cell_length_c 11.531561
_cell_angle_alpha 30.069317
_cell_angle_beta 127.921320
_cell_angle_gamma 139.838140
_cell_volume 594.784066
_symmetry_space_group_name_H-M "P -1"
_symmetry_group_IT_number 2
_symmetry_cell_setting 'triclinic'
loop_
_space_group_symop_operation_xyz
x,y,z
-x,-y,-z
loop_
_atom_site_type_symbol
_atom_site_label
_atom_site_fract_x
_atom_site_fract_y
_atom_site_fract_z
Si Si1 0.696043 0.579378 0.667990
Si Si2 0.402720 0.807475 0.314498
Si Si3 0.400395 0.192963 0.798015
Si Si4 0.223690 0.125825 0.437544
Si Si5 0.011944 0.594374 0.696839
Si Si6 0.417361 0.750561 0.769382
Si Si7 0.172781 0.064400 0.202665
Si Si8 0.844672 0.556932 0.229868
O O1 0.487018 0.383643 0.724409
O O2 0.749326 0.792991 0.382128
O O3 0.693338 0.634830 0.736131
O O4 0.844922 0.530160 0.764670
O O5 0.435800 0.749346 0.271204
O O6 0.618193 0.912504 0.378805
O O7 0.235779 0.603611 0.525052
O O8 0.357182 0.983018 0.074485
O O9 0.208991 0.094517 0.328324
O O10 0.000000 0.000000 0.500000
O O11 0.207230 0.665834 0.798294
O O12 0.995006 0.430299 0.776929
O O13 0.060641 0.806956 0.412321
O O14 0.610692 0.803024 0.879063
O O15 0.345407 0.586851 0.802908
O O16 0.500000 0.000000 0.500000
O O17 0.093461 0.206104 0.968547
#
# Coordination Sequence:
#
# PCOD9111397 Si02
#       8
#     2   2   2   2   2   2   2   2
#     4  10  20  43  61  86 120 157 208 251 306 354
#     4  10  21  42  62  88 117 156 217 244 301 362
#     4   9  22  43  65  80 114 168 205 262 287 350
#     4  11  21  35  62  92 124 160 192 250 313 367
#     4   9  20  36  58  87 125 150 197 250 296 362
#     4   8  17  33  53  80 123 161 184 235 290 368
#     4  11  19  38  57  90 132 160 193 237 310 379
#     4  10  21  36  61  85 121 163 195 244 303 366
#
# _framework density 26.900518000000002
#
# number of rings (size 3 to 8) (size 9 to 14) (size 15 to 20)
#    0.750    1.500    2.500    0.375    0.000    1.000 
#   13.500    2.500    0.000    0.000    0.000    0.000 
#    0.000    0.000    0.000    0.000    0.000    0.000 
#
# Total GULP energy -89370.721023 kJ/mol
# GULP energy per Si atom -5585.670064 kJ/mol
# Density = 2.683929 g / cm^3
# Si number density = 26.900518 Si / 1000 Ang^3
#
#
#
# Elastic Constant Matrix: (Units=GPa)
#
#
# Indices 1 2 3 4 5 6 
#
# 1 89.0474 5.8655 31.8637 25.7765 25.0100 15.3339
# 2 5.8655 75.5796 9.4378 5.0176 1.0787 -4.7247
# 3 31.8637 9.4378 145.8769 1.1070 12.4062 -10.9031
# 4 25.7765 5.0176 1.1070 33.4506 -14.8114 2.8700
# 5 25.0100 1.0787 12.4062 -14.8114 44.6842 0.9324
# 6 15.3339 -4.7247 -10.9031 2.8700 0.9324 33.3155
#
#
#
# Elastic Compliance Matrix: (Units=1/GPa)
#
#
# Indices 1 2 3 4 5 6 
#
# 1 0.037072 0.000200 -0.006116 -0.041548 -0.032524 -0.014547
# 2 0.000200 0.013627 -0.000653 -0.002898 -0.001260 0.001912
# 3 -0.006116 -0.000653 0.008321 0.005355 0.002802 0.004906
# 4 -0.041548 -0.002898 0.005355 0.082864 0.049055 0.011953
# 5 -0.032524 -0.001260 0.002802 0.049055 0.055889 0.009918
# 6 -0.014547 0.001912 0.004906 0.011953 0.009918 0.037281
#
#
# Mechanical properties :
#
#
# Convention : Reuss Voigt Hill
#
# Bulk Modulus (GPa) = 21.79563 44.98198 33.38881
# Shear Modulus (GPa) = 18.97625 39.84585 29.41105
#
# Velocity S-wave (km/s) = 2.65886 3.85285 3.31014
# Velocity P-wave (km/s) = 4.18879 6.04570 5.20079
#
# Compressibility (1/GPa) = 0.04588075
#
# Stress axis : x y z
#
# Youngs Moduli (GPa) = 26.97443 73.38336 120.17580
#
# Poissons Ratio (x) = -0.01467 0.73505
# Poissons Ratio (y) = -0.00539 0.07850
# Poissons Ratio (z) = 0.16499 0.04794
#
# Static dielectric constant tensor:
#      x y z
#    x 2.126520 0.070240 -0.017850 
#    y 0.070240 2.112830 -0.006540 
#    z -0.017850 -0.006540 2.206940 
# 
# From -- ./inp_files/430821.got.cif
#   From: 2010.05.17/outbox.cif.g08.bks.cpg/sg2_216_cif.got.tgz:430821.got - 2010.06.03 11:33:40.
