data_PCOD9111421
_publ_section_title
;
Structure prediction by ZEFSAII (Michael W. Deem and Ramdas Pophale) SiO2 
 PCOD9111421
Probable space group: P -1
;
_chemical_formula_sum "Si O2"
_cell_formula_units_Z 14
_cell_length_a 12.022319
_cell_length_b 8.365782
_cell_length_c 8.674306
_cell_angle_alpha 130.929294
_cell_angle_beta 107.107054
_cell_angle_gamma 55.218247
_cell_volume 536.900206
_symmetry_space_group_name_H-M "P -1"
_symmetry_group_IT_number 2
_symmetry_cell_setting 'triclinic'
loop_
_space_group_symop_operation_xyz
x,y,z
-x,-y,-z
loop_
_atom_site_type_symbol
_atom_site_label
_atom_site_fract_x
_atom_site_fract_y
_atom_site_fract_z
Si Si1 0.825804 0.552939 0.894029
Si Si2 0.773108 0.537863 0.219685
Si Si3 0.441485 0.496811 0.718852
Si Si4 0.105069 0.073632 0.714507
Si Si5 0.555381 0.681293 0.691271
Si Si6 0.994971 0.845105 0.757233
Si Si7 0.275614 0.955077 0.409734
O O1 0.694319 0.618940 0.784779
O O2 0.966363 0.313009 0.744555
O O3 0.808424 0.487957 0.022149
O O4 0.841074 0.790472 0.067415
O O5 0.685235 0.425999 0.173782
O O6 0.695115 0.832115 0.396303
O O7 0.910217 0.428905 0.309406
O O8 0.451921 0.744483 0.834925
O O9 0.424709 0.300207 0.470546
O O10 0.589019 0.305901 0.731263
O O11 0.209445 0.930753 0.528642
O O12 0.071410 0.898423 0.685610
O O13 0.500000 0.500000 0.500000
O O14 0.843084 0.943221 0.700525
O O15 0.000000 0.000000 0.000000
#
# Coordination Sequence:
#
# PCOD9111421 Si02
#       7
#     2   2   2   2   2   2   2
#     4  10  20  43  62  96 126 166 212 265 309 384
#     4  11  24  41  66  95 129 166 210 263 322 368
#     4   9  22  40  64  91 125 168 213 250 321 373
#     4  10  23  38  68  88 130 167 212 257 325 363
#     4   8  21  37  64  89 123 166 213 251 313 372
#     4  12  25  41  63 101 127 163 215 266 319 373
#     4  11  24  43  65  92 130 170 212 258 318 383
#
# _framework density 26.075610000000001
#
# number of rings (size 3 to 8) (size 9 to 14) (size 15 to 20)
#    0.857    0.857    1.429    2.143    6.000    1.714 
#    0.000    2.857    0.000    0.000    0.000    0.000 
#    0.000    0.000    0.000    0.000    0.000    0.000 
#
# Total GULP energy -77957.854661 kJ/mol
# GULP energy per Si atom -5568.418190 kJ/mol
# Density = 2.601626 g / cm^3
# Si number density = 26.075610 Si / 1000 Ang^3
#
#
#
# Elastic Constant Matrix: (Units=GPa)
#
#
# Indices 1 2 3 4 5 6 
#
# 1 98.9690 24.8751 25.0345 -21.0165 -2.7376 -28.7483
# 2 24.8751 105.9089 42.5001 -16.0452 7.6175 -35.4953
# 3 25.0345 42.5001 76.3151 -13.4246 8.6412 -18.0335
# 4 -21.0165 -16.0452 -13.4246 36.9853 -11.8583 12.7082
# 5 -2.7376 7.6175 8.6412 -11.8583 38.6104 -9.6386
# 6 -28.7483 -35.4953 -18.0335 12.7082 -9.6386 32.0937
#
#
#
# Elastic Compliance Matrix: (Units=1/GPa)
#
#
# Indices 1 2 3 4 5 6 
#
# 1 0.016272 0.003231 -0.003034 0.006310 0.007151 0.016094
# 2 0.003231 0.017746 -0.006493 0.001685 0.003506 0.019259
# 3 -0.003034 -0.006493 0.018010 0.001517 -0.002804 -0.001221
# 4 0.006310 0.001685 0.001517 0.036157 0.010157 -0.002899
# 5 0.007151 0.003506 -0.002804 0.010157 0.033115 0.014631
# 6 0.016094 0.019259 -0.001221 -0.002899 0.014631 0.071732
#
#
# Mechanical properties :
#
#
# Convention : Reuss Voigt Hill
#
# Bulk Modulus (GPa) = 25.35626 51.77915 38.56770
# Shear Modulus (GPa) = 22.85512 34.12343 28.48927
#
# Velocity S-wave (km/s) = 2.96378 3.62143 3.30898
# Velocity P-wave (km/s) = 4.63219 6.11447 5.42420
#
# Compressibility (1/GPa) = 0.03943800
#
# Stress axis : x y z
#
# Youngs Moduli (GPa) = 61.45461 56.34943 55.52366
#
# Poissons Ratio (x) = -0.18207 0.16846
# Poissons Ratio (y) = -0.19857 0.36049
# Poissons Ratio (z) = 0.18646 0.36585
#
# Static dielectric constant tensor:
#      x y z
#    x 1.701170 0.186690 0.371770 
#    y 0.186690 1.943880 -0.027220 
#    z 0.371770 -0.027220 1.662530 
# 
# From -- ./inp_files/245533.got.cif
#   From: 2010.05.17/outbox.cif.g08.bks.cpg/sg2_123_cif.got.tgz:245533.got - 2010.06.03 11:33:40.
