data_PCOD9111948
_publ_section_title
;
Structure prediction by ZEFSAII (Michael W. Deem and Ramdas Pophale) SiO2 
 PCOD9111948
Probable space group: P -1
;
_chemical_formula_sum "Si O2"
_cell_formula_units_Z 15
_cell_length_a 12.779632
_cell_length_b 10.652015
_cell_length_c 10.438089
_cell_angle_alpha 122.419877
_cell_angle_beta 33.700057
_cell_angle_gamma 110.197681
_cell_volume 649.931199
_symmetry_space_group_name_H-M "P -1"
_symmetry_group_IT_number 2
_symmetry_cell_setting 'triclinic'
loop_
_space_group_symop_operation_xyz
x,y,z
-x,-y,-z
loop_
_atom_site_type_symbol
_atom_site_label
_atom_site_fract_x
_atom_site_fract_y
_atom_site_fract_z
Si Si1 0.000000 0.000000 0.000000
Si Si2 0.045518 0.254718 0.287664
Si Si3 0.259404 0.506682 0.116672
Si Si4 0.734118 0.901283 0.383873
Si Si5 0.396619 0.494510 0.394908
Si Si6 0.576300 0.249211 0.283508
Si Si7 0.046494 0.979942 0.294926
Si Si8 0.962161 0.554165 0.922704
O O1 0.226291 0.005922 0.729840
O O2 0.013941 0.841945 0.820660
O O3 0.859475 0.364659 0.600396
O O4 0.200957 0.352068 0.140714
O O5 0.119980 0.125222 0.246484
O O6 0.168751 0.529637 0.077049
O O7 0.481112 0.505691 0.859371
O O8 0.530450 0.880317 0.628731
O O9 0.854837 0.966006 0.405727
O O10 0.851963 0.728317 0.144055
O O11 0.467944 0.340813 0.322347
O O12 0.427080 0.630443 0.532701
O O13 0.167674 0.523941 0.625999
O O14 0.793454 0.169337 0.983946
O O15 0.000000 0.000000 0.500000
O O16 0.000000 0.500000 0.000000
#
# Coordination Sequence:
#
# PCOD9111948 Si02
#       8
#     1   2   2   2   2   2   2   2
#     4  10  20  44  64  88 126 172 204 252 320 382
#     4  10  23  43  67  91 130 170 208 263 320 372
#     4  11  23  44  65  95 130 163 213 268 312 375
#     4  11  22  40  63  91 122 168 212 256 317 373
#     4  11  21  35  64  96 124 165 209 261 317 373
#     4  11  21  37  61  94 127 163 214 261 310 378
#     4  11  25  41  62  92 129 168 211 261 319 377
#     4  12  21  37  67  94 126 162 212 261 312 370
#
# _framework density 23.079366
#
# number of rings (size 3 to 8) (size 9 to 14) (size 15 to 20)
#    0.000    1.067    5.333    1.600    1.867    0.533 
#    2.400    7.333    0.000    0.000    0.000    0.000 
#    0.000    0.000    0.000    0.000    0.000    0.000 
#
# Total GULP energy -83599.509672 kJ/mol
# GULP energy per Si atom -5573.300645 kJ/mol
# Density = 2.302684 g / cm^3
# Si number density = 23.079366 Si / 1000 Ang^3
#
#
#
# Elastic Constant Matrix: (Units=GPa)
#
#
# Indices 1 2 3 4 5 6 
#
# 1 31.4685 3.2357 14.0891 5.9044 8.4345 -0.1602
# 2 3.2357 91.4141 34.2875 -10.3720 12.2814 -6.0739
# 3 14.0891 34.2875 117.0978 -20.4490 22.5457 1.5698
# 4 5.9044 -10.3720 -20.4490 36.7552 12.6285 0.3191
# 5 8.4345 12.2814 22.5457 12.6285 33.7646 -1.1369
# 6 -0.1602 -6.0739 1.5698 0.3191 -1.1369 29.8750
#
#
#
# Elastic Compliance Matrix: (Units=1/GPa)
#
#
# Indices 1 2 3 4 5 6 
#
# 1 0.036305 0.000205 -0.005277 -0.007791 -0.002689 0.000494
# 2 0.000205 0.013034 -0.002290 0.003948 -0.004654 0.002552
# 3 -0.005277 -0.002290 0.014369 0.012382 -0.012137 -0.001843
# 4 -0.007791 0.003948 0.012382 0.044927 -0.024605 -0.001306
# 5 -0.002689 -0.004654 -0.012137 -0.024605 0.049349 0.001818
# 6 0.000494 0.002552 -0.001843 -0.001306 0.001818 0.034174
#
#
# Mechanical properties :
#
#
# Convention : Reuss Voigt Hill
#
# Bulk Modulus (GPa) = 20.41572 38.13388 29.27480
# Shear Modulus (GPa) = 22.40045 32.63682 27.51863
#
# Velocity S-wave (km/s) = 3.11880 3.76455 3.45679
# Velocity P-wave (km/s) = 4.67272 5.95437 5.35205
#
# Compressibility (1/GPa) = 0.04898186
#
# Stress axis : x y z
#
# Youngs Moduli (GPa) = 27.54465 76.72515 69.59414
#
# Poissons Ratio (x) = -0.01569 0.36728
# Poissons Ratio (y) = -0.00563 0.15935
# Poissons Ratio (z) = 0.14537 0.17568
#
# Static dielectric constant tensor:
#      x y z
#    x 1.916980 -0.047210 -0.007710 
#    y -0.047210 1.836790 -0.024800 
#    z -0.007710 -0.024800 1.838180 
# 
# From -- ./inp_files/451716.got.cif
#   From: 2010.05.17/outbox.cif.g08.bks.cpg/sg2_226_cif.got.tgz:451716.got - 2010.06.03 11:33:40.
