data_PCOD9111814
_publ_section_title
;
Structure prediction by ZEFSAII (Michael W. Deem and Ramdas Pophale) SiO2 
 PCOD9111814
Probable space group: P -1
;
_chemical_formula_sum "Si O2"
_cell_formula_units_Z 14
_cell_length_a 9.761791
_cell_length_b 20.954233
_cell_length_c 5.494705
_cell_angle_alpha 68.143718
_cell_angle_beta 138.907178
_cell_angle_gamma 129.345105
_cell_volume 558.858110
_symmetry_space_group_name_H-M "P -1"
_symmetry_group_IT_number 2
_symmetry_cell_setting 'triclinic'
loop_
_space_group_symop_operation_xyz
x,y,z
-x,-y,-z
loop_
_atom_site_type_symbol
_atom_site_label
_atom_site_fract_x
_atom_site_fract_y
_atom_site_fract_z
Si Si1 0.611069 0.707395 0.522938
Si Si2 0.153706 0.012073 0.439951
Si Si3 0.030390 0.165754 0.566888
Si Si4 0.505802 0.806695 0.526135
Si Si5 0.047365 0.722763 0.393909
Si Si6 0.718817 0.476044 0.718610
Si Si7 0.160832 0.461487 0.711069
O O1 0.808280 0.792168 0.519744
O O2 0.419869 0.725127 0.365266
O O3 0.459229 0.620909 0.294672
O O4 0.786408 0.698949 0.954490
O O5 0.398110 0.108130 0.610286
O O6 0.000000 0.000000 0.500000
O O7 0.178832 0.934222 0.586211
O O8 0.000000 0.000000 0.000000
O O9 0.932181 0.222350 0.428395
O O10 0.244965 0.177382 0.024797
O O11 0.289203 0.783370 0.460935
O O12 0.009335 0.634015 0.480930
O O13 0.653574 0.485589 0.341325
O O14 0.738961 0.533626 0.885546
O O15 0.000000 0.500000 0.000000
O O16 0.000000 0.500000 0.500000
#
# Coordination Sequence:
#
# PCOD9111814 Si02
#       7
#     2   2   2   2   2   2   2
#     4  11  24  42  67  99 137 176 227 292 339 408
#     4  10  20  43  71 102 136 183 228 274 342 409
#     4  10  24  42  68  99 140 175 227 286 341 406
#     4  10  22  43  71  95 136 186 224 276 346 412
#     4  11  26  42  67 103 134 178 234 284 344 407
#     4  10  23  40  67  92 128 176 227 275 338 402
#     4  10  23  43  64  94 131 176 228 278 336 406
#
# _framework density 25.051083999999999
#
# number of rings (size 3 to 8) (size 9 to 14) (size 15 to 20)
#    0.000    1.714    1.429    1.714   10.000    2.857 
#    0.000    0.714    0.000    0.000    0.000    0.000 
#    0.000    0.000    0.000    0.000    0.000    0.000 
#
# Total GULP energy -78223.919289 kJ/mol
# GULP energy per Si atom -5587.422806 kJ/mol
# Density = 2.499407 g / cm^3
# Si number density = 25.051084 Si / 1000 Ang^3
#
#
#
# Elastic Constant Matrix: (Units=GPa)
#
#
# Indices 1 2 3 4 5 6 
#
# 1 135.3981 14.0962 5.5304 -2.3334 -13.0247 -10.3830
# 2 14.0962 145.5468 21.1119 -2.0172 7.3311 -6.2085
# 3 5.5304 21.1119 78.7982 -4.4639 -8.8008 -10.0640
# 4 -2.3334 -2.0172 -4.4639 34.3655 1.3693 0.0932
# 5 -13.0247 7.3311 -8.8008 1.3693 36.5049 0.3217
# 6 -10.3830 -6.2085 -10.0640 0.0932 0.3217 51.3440
#
#
#
# Elastic Compliance Matrix: (Units=1/GPa)
#
#
# Indices 1 2 3 4 5 6 
#
# 1 0.007881 -0.000879 0.000235 0.000390 0.003017 0.001514
# 2 -0.000879 0.007398 -0.002129 0.000190 -0.002322 0.000314
# 3 0.000235 -0.002129 0.014083 0.001561 0.003826 0.002524
# 4 0.000390 0.000190 0.001561 0.029363 -0.000627 0.000358
# 5 0.003017 -0.002322 0.003826 -0.000627 0.029874 0.000893
# 6 0.001514 0.000314 0.002524 0.000358 0.000893 0.020309
#
#
# Mechanical properties :
#
#
# Convention : Reuss Voigt Hill
#
# Bulk Modulus (GPa) = 41.99185 49.02445 45.50815
# Shear Modulus (GPa) = 40.85232 45.70985 43.28108
#
# Velocity S-wave (km/s) = 4.04265 4.27624 4.16109
# Velocity P-wave (km/s) = 6.21205 6.63279 6.42587
#
# Compressibility (1/GPa) = 0.02381414
#
# Stress axis : x y z
#
# Youngs Moduli (GPa) = 126.89394 135.17921 71.00984
#
# Poissons Ratio (x) = 0.11886 -0.01668
# Poissons Ratio (y) = 0.11158 0.15117
# Poissons Ratio (z) = -0.02980 0.28778
#
# Static dielectric constant tensor:
#      x y z
#    x 1.873510 -0.020840 0.083870 
#    y -0.020840 1.973750 -0.096300 
#    z 0.083870 -0.096300 2.094120 
# 
# From -- ./inp_files/39125.got.cif
#   From: 2010.05.17/outbox.cif.g08.bks.cpg/sg2_20_cif.got.tgz:39125.got - 2010.06.03 11:33:40.
