data_PCOD9111553
_publ_section_title
;
Structure prediction by ZEFSAII (Michael W. Deem and Ramdas Pophale) SiO2 
 PCOD9111553
Probable space group: P -1
;
_chemical_formula_sum "Si O2"
_cell_formula_units_Z 14
_cell_length_a 9.447451
_cell_length_b 23.487896
_cell_length_c 13.685005
_cell_angle_alpha 31.321339
_cell_angle_beta 129.036495
_cell_angle_gamma 150.280585
_cell_volume 704.702591
_symmetry_space_group_name_H-M "P -1"
_symmetry_group_IT_number 2
_symmetry_cell_setting 'triclinic'
loop_
_space_group_symop_operation_xyz
x,y,z
-x,-y,-z
loop_
_atom_site_type_symbol
_atom_site_label
_atom_site_fract_x
_atom_site_fract_y
_atom_site_fract_z
Si Si1 0.143056 0.233427 0.496000
Si Si2 0.730029 0.403899 0.598428
Si Si3 0.096013 0.055966 0.571655
Si Si4 0.060746 0.445459 0.193084
Si Si5 0.773490 0.842528 0.933938
Si Si6 0.645397 0.003535 0.964755
Si Si7 0.744699 0.260678 0.521403
O O1 0.479586 0.363320 0.498869
O O2 0.123344 0.188602 0.439034
O O3 0.068968 0.322916 0.344699
O O4 0.895998 0.025756 0.742190
O O5 0.000000 0.500000 0.500000
O O6 0.927548 0.553797 0.552206
O O7 0.550553 0.202617 0.839833
O O8 0.445413 0.176963 0.558870
O O9 0.000000 0.000000 0.500000
O O10 0.849585 0.873736 0.804301
O O11 0.798386 0.322957 0.342793
O O12 0.412687 0.645989 0.090114
O O13 0.000000 0.500000 0.000000
O O14 0.005632 0.868275 0.044668
O O15 0.664506 0.094817 0.748534
O O16 0.500000 0.000000 0.000000
#
# Coordination Sequence:
#
# PCOD9111553 Si02
#       7
#     2   2   2   2   2   2   2
#     4   9  22  42  69  88 133 176 207 278 332 371
#     4  11  19  38  68 103 131 157 218 278 330 387
#     4  10  20  43  66  91 128 176 226 261 314 393
#     4  12  27  45  62  94 139 179 223 265 323 392
#     4   9  21  41  65  90 132 170 210 270 332 377
#     4  11  19  37  67 100 129 163 209 279 335 377
#     4  12  24  40  67 102 128 170 221 273 324 391
#
# _framework density 19.866537999999998
#
# number of rings (size 3 to 8) (size 9 to 14) (size 15 to 20)
#    0.857    0.571    4.286    1.714    0.000    4.000 
#    2.571    4.286    0.000    0.000    0.000    0.000 
#    0.000    0.000    0.000    0.000    0.000    0.000 
#
# Total GULP energy -78076.402804 kJ/mol
# GULP energy per Si atom -5576.885915 kJ/mol
# Density = 1.982132 g / cm^3
# Si number density = 19.866538 Si / 1000 Ang^3
#
#
#
# Elastic Constant Matrix: (Units=GPa)
#
#
# Indices 1 2 3 4 5 6 
#
# 1 42.3450 -4.2630 23.3996 2.0432 8.8521 6.9714
# 2 -4.2630 40.0589 2.2877 -9.7551 6.9583 -0.7123
# 3 23.3996 2.2877 84.0795 7.7866 -0.7408 8.4534
# 4 2.0432 -9.7551 7.7866 28.3963 -1.2831 -5.1198
# 5 8.8521 6.9583 -0.7408 -1.2831 38.9654 2.0839
# 6 6.9714 -0.7123 8.4534 -5.1198 2.0839 27.1294
#
#
#
# Elastic Compliance Matrix: (Units=1/GPa)
#
#
# Indices 1 2 3 4 5 6 
#
# 1 0.031216 0.005287 -0.008520 0.000740 -0.007934 -0.004479
# 2 0.005287 0.029592 -0.003674 0.011072 -0.006359 0.003141
# 3 -0.008520 -0.003674 0.015285 -0.005415 0.002913 -0.003916
# 4 0.000740 0.011072 -0.005415 0.042164 -0.001387 0.009851
# 5 -0.007934 -0.006359 0.002913 -0.001387 0.028692 -0.001502
# 6 -0.004479 0.003141 -0.003916 0.009851 -0.001502 0.041288
#
#
# Mechanical properties :
#
#
# Convention : Reuss Voigt Hill
#
# Bulk Modulus (GPa) = 16.05616 23.25910 19.65763
# Shear Modulus (GPa) = 22.44059 28.56884 25.50471
#
# Velocity S-wave (km/s) = 3.36455 3.79626 3.58691
# Velocity P-wave (km/s) = 4.81593 5.56314 5.20297
#
# Compressibility (1/GPa) = 0.06228141
#
# Stress axis : x y z
#
# Youngs Moduli (GPa) = 32.03499 33.79250 65.42234
#
# Poissons Ratio (x) = -0.17867 0.55737
# Poissons Ratio (y) = -0.16938 0.24035
# Poissons Ratio (z) = 0.27292 0.12415
#
# Static dielectric constant tensor:
#      x y z
#    x 1.680230 -0.039900 -0.010460 
#    y -0.039900 1.720900 -0.011180 
#    z -0.010460 -0.011180 1.689560 
# 
# From -- ./inp_files/508592.got.cif
#   From: 2010.05.17/outbox.cif.g08.bks.cpg/sg2_255_cif.got.tgz:508592.got - 2010.06.03 11:33:40.
