data_PCOD9111717
_publ_section_title
;
Structure prediction by ZEFSAII (Michael W. Deem and Ramdas Pophale) SiO2 
 PCOD9111717
Probable space group: P -1
;
_chemical_formula_sum "Si O2"
_cell_formula_units_Z 14
_cell_length_a 7.692456
_cell_length_b 9.029509
_cell_length_c 20.637543
_cell_angle_alpha 150.013262
_cell_angle_beta 121.178563
_cell_angle_gamma 67.520971
_cell_volume 605.601260
_symmetry_space_group_name_H-M "P -1"
_symmetry_group_IT_number 2
_symmetry_cell_setting 'triclinic'
loop_
_space_group_symop_operation_xyz
x,y,z
-x,-y,-z
loop_
_atom_site_type_symbol
_atom_site_label
_atom_site_fract_x
_atom_site_fract_y
_atom_site_fract_z
Si Si1 0.454306 0.416155 0.783312
Si Si2 0.605980 0.514559 0.704024
Si Si3 0.144911 0.237224 0.937317
Si Si4 0.943845 0.641593 0.241776
Si Si5 0.878347 0.077476 0.942176
Si Si6 0.433199 0.224028 0.431176
Si Si7 0.023008 0.849442 0.653225
O O1 0.503833 0.481311 0.742089
O O2 0.226281 0.460804 0.776032
O O3 0.461843 0.068245 0.669347
O O4 0.636462 0.612166 0.933620
O O5 0.477157 0.333108 0.554513
O O6 0.826077 0.396034 0.707978
O O7 0.666140 0.855781 0.820098
O O8 0.016044 0.036460 0.891707
O O9 0.177018 0.023323 0.801786
O O10 0.000000 0.500000 0.000000
O O11 0.872630 0.426121 0.084888
O O12 0.947924 0.973180 0.341264
O O13 0.000000 0.000000 0.000000
O O14 0.500000 0.500000 0.500000
O O15 0.191837 0.109501 0.339186
O O16 0.000000 0.500000 0.500000
#
# Coordination Sequence:
#
# PCOD9111717 Si02
#       7
#     2   2   2   2   2   2   2
#     4  12  25  44  75 103 135 199 243 290 369 422
#     4  11  24  47  72 100 151 185 238 310 349 432
#     4  12  21  46  77  94 147 191 233 302 356 420
#     4  11  24  45  71 105 142 185 251 290 357 434
#     4  10  20  43  69 101 138 185 233 296 356 411
#     4  12  25  46  71 103 148 194 236 293 374 425
#     4  12  26  46  69 110 149 186 244 302 357 428
#
# _framework density 23.117522000000001
#
# number of rings (size 3 to 8) (size 9 to 14) (size 15 to 20)
#    0.000    0.571    7.143    2.143    0.000    2.857 
#    7.714    0.000    0.000    0.000    0.000    0.000 
#    0.000    0.000    0.000    0.000    0.000    0.000 
#
# Total GULP energy -78277.646123 kJ/mol
# GULP energy per Si atom -5591.260437 kJ/mol
# Density = 2.306491 g / cm^3
# Si number density = 23.117522 Si / 1000 Ang^3
#
#
#
# Elastic Constant Matrix: (Units=GPa)
#
#
# Indices 1 2 3 4 5 6 
#
# 1 108.3974 25.1791 -7.5812 -8.6256 15.1961 21.8353
# 2 25.1791 79.0113 40.2397 0.0977 5.9891 23.7426
# 3 -7.5812 40.2397 126.1264 -4.9139 3.0822 2.9615
# 4 -8.6256 0.0977 -4.9139 45.8201 3.2362 -0.4850
# 5 15.1961 5.9891 3.0822 3.2362 28.9333 9.9807
# 6 21.8353 23.7426 2.9615 -0.4850 9.9807 20.7696
#
#
#
# Elastic Compliance Matrix: (Units=1/GPa)
#
#
# Indices 1 2 3 4 5 6 
#
# 1 0.012346 -0.001610 0.001667 0.002633 -0.003260 -0.009749
# 2 -0.001610 0.025573 -0.007802 -0.001996 0.006880 -0.029781
# 3 0.001667 -0.007802 0.010492 0.001747 -0.003049 0.007177
# 4 0.002633 -0.001996 0.001747 0.022840 -0.004364 0.001894
# 5 -0.003260 0.006880 -0.003049 -0.004364 0.044447 -0.025462
# 6 -0.009749 -0.029781 0.007177 0.001894 -0.025462 0.103697
#
#
# Mechanical properties :
#
#
# Convention : Reuss Voigt Hill
#
# Bulk Modulus (GPa) = 30.37607 47.69005 39.03306
# Shear Modulus (GPa) = 20.33675 36.15110 28.24392
#
# Velocity S-wave (km/s) = 2.96921 3.95878 3.49915
# Velocity P-wave (km/s) = 4.99233 6.44748 5.76599
#
# Compressibility (1/GPa) = 0.03292065
#
# Stress axis : x y z
#
# Youngs Moduli (GPa) = 80.99614 39.10321 95.30983
#
# Poissons Ratio (x) = 0.06296 -0.15888
# Poissons Ratio (y) = 0.13042 0.74364
# Poissons Ratio (z) = -0.13502 0.30510
#
# Static dielectric constant tensor:
#      x y z
#    x 1.883210 -0.055290 -0.002890 
#    y -0.055290 1.933670 0.039170 
#    z -0.002890 0.039170 2.004610 
# 
# From -- ./inp_files/182259.got.cif
#   From: 2010.05.17/outbox.cif.g08.bks.cpg/sg2_92_cif.got.tgz:182259.got - 2010.06.03 11:33:40.
