data_PCOD9111954
_publ_section_title
;
Structure prediction by ZEFSAII (Michael W. Deem and Ramdas Pophale) SiO2 
 PCOD9111954
Probable space group: P -1
;
_chemical_formula_sum "Si O2"
_cell_formula_units_Z 15
_cell_length_a 13.354708
_cell_length_b 11.893826
_cell_length_c 9.480640
_cell_angle_alpha 119.269873
_cell_angle_beta 101.690561
_cell_angle_gamma 127.787601
_cell_volume 711.196692
_symmetry_space_group_name_H-M "P -1"
_symmetry_group_IT_number 2
_symmetry_cell_setting 'triclinic'
loop_
_space_group_symop_operation_xyz
x,y,z
-x,-y,-z
loop_
_atom_site_type_symbol
_atom_site_label
_atom_site_fract_x
_atom_site_fract_y
_atom_site_fract_z
Si Si1 0.629328 0.459002 0.474678
Si Si2 0.326634 0.245373 0.045771
Si Si3 0.752078 0.358923 0.935010
Si Si4 0.479978 0.669042 0.310488
Si Si5 0.201371 0.841566 0.666790
Si Si6 0.000000 0.000000 0.000000
Si Si7 0.758405 0.357748 0.265555
Si Si8 0.188473 0.829507 0.337718
O O1 0.476884 0.374567 0.289469
O O2 0.559052 0.358649 0.551101
O O3 0.667538 0.368614 0.344821
O O4 0.818878 0.736418 0.716127
O O5 0.404185 0.449990 0.109802
O O6 0.136524 0.085604 0.967910
O O7 0.291976 0.076693 0.849892
O O8 0.627816 0.331057 0.801323
O O9 0.740945 0.204052 0.771753
O O10 0.705998 0.310747 0.057714
O O11 0.969399 0.621353 0.135177
O O12 0.695815 0.919909 0.499831
O O13 0.277645 0.820827 0.789160
O O14 0.224116 0.816317 0.498086
O O15 0.980604 0.615505 0.491409
#
# Coordination Sequence:
#
# PCOD9111954 Si02
#       8
#     2   2   2   2   2   1   2   2
#     4  11  24  42  68 101 128 174 223 266 332 385
#     4  11  25  42  68 100 130 177 222 267 334 388
#     4  10  23  43  68  96 127 176 219 265 339 377
#     4  11  24  41  64  96 132 173 212 270 329 396
#     4  10  22  44  69  97 133 173 221 276 327 384
#     4  10  20  44  64  92 136 162 216 276 308 396
#     4  10  22  43  71  99 127 173 225 278 323 385
#     4  10  23  44  64  97 133 170 219 270 325 400
#
# _framework density 21.091211000000001
#
# number of rings (size 3 to 8) (size 9 to 14) (size 15 to 20)
#    0.000    1.600    1.333    2.800    3.733    6.400 
#    0.000    1.333    0.000    0.000    0.000    0.000 
#    0.000    0.000    0.000    0.000    0.000    0.000 
#
# Total GULP energy -83630.075282 kJ/mol
# GULP energy per Si atom -5575.338352 kJ/mol
# Density = 2.104321 g / cm^3
# Si number density = 21.091211 Si / 1000 Ang^3
#
#
#
# Elastic Constant Matrix: (Units=GPa)
#
#
# Indices 1 2 3 4 5 6 
#
# 1 54.2384 20.4080 7.4142 2.9923 -17.5223 -0.8031
# 2 20.4080 68.4224 28.7867 19.5224 5.4678 8.9361
# 3 7.4142 28.7867 79.7584 14.7928 -7.1289 3.8169
# 4 2.9923 19.5224 14.7928 40.8804 0.9370 -6.9391
# 5 -17.5223 5.4678 -7.1289 0.9370 35.0244 -2.7140
# 6 -0.8031 8.9361 3.8169 -6.9391 -2.7140 13.9334
#
#
#
# Elastic Compliance Matrix: (Units=1/GPa)
#
#
# Indices 1 2 3 4 5 6 
#
# 1 0.030408 -0.016290 0.002513 0.007424 0.019542 0.019016
# 2 -0.016290 0.032765 -0.007167 -0.016848 -0.016724 -0.031637
# 3 0.002513 -0.007167 0.015872 -0.002600 0.005692 0.000208
# 4 0.007424 -0.016848 -0.002600 0.038239 0.007304 0.032411
# 5 0.019542 -0.016724 0.005692 0.007304 0.043641 0.022431
# 6 0.019016 -0.031637 0.000208 0.032411 0.022431 0.113610
#
#
# Mechanical properties :
#
#
# Convention : Reuss Voigt Hill
#
# Bulk Modulus (GPa) = 26.91427 35.07078 30.99253
# Shear Modulus (GPa) = 15.20634 27.68833 21.44734
#
# Velocity S-wave (km/s) = 2.68802 3.62718 3.19232
# Velocity P-wave (km/s) = 4.73524 5.84860 5.32112
#
# Compressibility (1/GPa) = 0.03715502
#
# Stress axis : x y z
#
# Youngs Moduli (GPa) = 32.88559 30.52065 63.00324
#
# Poissons Ratio (x) = 0.49719 -0.15830
# Poissons Ratio (y) = 0.53572 0.45157
# Poissons Ratio (z) = -0.08263 0.21875
#
# Static dielectric constant tensor:
#      x y z
#    x 1.736690 0.004680 -0.016290 
#    y 0.004680 1.721950 0.033460 
#    z -0.016290 0.033460 1.761120 
# 
# From -- ./inp_files/308127.got.cif
#   From: 2010.05.17/outbox.cif.g08.bks.cpg/sg2_155_cif.got.tgz:308127.got - 2010.06.03 11:33:40.
