data_PCOD9111057
_publ_section_title
;
Structure prediction by ZEFSAII (Michael W. Deem and Ramdas Pophale) SiO2 
 PCOD9111057
Probable space group: P -1
;
_chemical_formula_sum "Si O2"
_cell_formula_units_Z 15
_cell_length_a 9.714782
_cell_length_b 16.520544
_cell_length_c 7.393503
_cell_angle_alpha 124.614598
_cell_angle_beta 48.796929
_cell_angle_gamma 135.937895
_cell_volume 610.619576
_symmetry_space_group_name_H-M "P -1"
_symmetry_group_IT_number 2
_symmetry_cell_setting 'triclinic'
loop_
_space_group_symop_operation_xyz
x,y,z
-x,-y,-z
loop_
_atom_site_type_symbol
_atom_site_label
_atom_site_fract_x
_atom_site_fract_y
_atom_site_fract_z
Si Si1 0.702966 0.683248 0.340915
Si Si2 0.437375 0.092090 0.892167
Si Si3 0.872269 0.285677 0.940905
Si Si4 0.720937 0.354854 0.459378
Si Si5 0.000000 0.500000 0.000000
Si Si6 0.376654 0.555736 0.016219
Si Si7 0.757813 0.159473 0.364243
Si Si8 0.780654 0.768763 0.784747
O O1 0.538294 0.717826 0.457338
O O2 0.704748 0.696951 0.571845
O O3 0.963509 0.745021 0.156386
O O4 0.604949 0.553954 0.177153
O O5 0.631888 0.174984 0.969971
O O6 0.568363 0.125124 0.631185
O O7 0.326465 0.953367 0.834970
O O8 0.263796 0.128586 0.075365
O O9 0.992564 0.375273 0.785269
O O10 0.852917 0.388333 0.195698
O O11 0.753447 0.450046 0.697408
O O12 0.787726 0.270505 0.376121
O O13 0.758031 0.443467 0.034563
O O14 0.613544 0.677885 0.964424
O O15 0.972743 0.183187 0.310633
#
# Coordination Sequence:
#
# PCOD9111057 Si02
#       8
#     2   2   2   2   1   2   2   2
#     4  11  25  42  65  99 138 180 218 278 340 409
#     4  11  22  48  69 101 132 181 237 278 330 412
#     4  11  23  42  70  98 141 175 227 272 344 401
#     4  12  25  46  63 103 140 179 218 289 333 405
#     4  10  20  42  68  96 126 188 210 274 324 406
#     4  11  24  41  69  98 139 175 230 269 346 404
#     4  11  26  42  76  96 134 181 233 286 337 385
#     4  12  22  46  70 101 133 178 230 282 330 417
#
# _framework density 24.565213
#
# number of rings (size 3 to 8) (size 9 to 14) (size 15 to 20)
#    0.000    0.800    5.333    1.200    3.733    3.733 
#    2.400    0.667    0.000    0.000    0.000    0.000 
#    0.000    0.000    0.000    0.000    0.000    0.000 
#
# Total GULP energy -83663.099518 kJ/mol
# GULP energy per Si atom -5577.539968 kJ/mol
# Density = 2.450930 g / cm^3
# Si number density = 24.565213 Si / 1000 Ang^3
#
#
#
# Elastic Constant Matrix: (Units=GPa)
#
#
# Indices 1 2 3 4 5 6 
#
# 1 139.2406 21.9579 45.1426 8.3186 -35.4263 14.5409
# 2 21.9579 64.7267 30.5521 19.3561 0.6321 6.9164
# 3 45.1426 30.5521 152.9205 14.4327 -12.2476 -0.6143
# 4 8.3186 19.3561 14.4327 37.1810 -2.0731 5.0130
# 5 -35.4263 0.6321 -12.2476 -2.0731 48.9443 1.2514
# 6 14.5409 6.9164 -0.6143 5.0130 1.2514 33.5910
#
#
#
# Elastic Compliance Matrix: (Units=1/GPa)
#
#
# Indices 1 2 3 4 5 6 
#
# 1 0.010519 -0.002366 -0.002137 0.000717 0.007254 -0.004483
# 2 -0.002366 0.020475 -0.002794 -0.008971 -0.003010 -0.001792
# 3 -0.002137 -0.002794 0.007893 -0.001358 0.000360 0.001834
# 4 0.000717 -0.008971 -0.001358 0.032489 0.001758 -0.003402
# 5 0.007254 -0.003010 0.000360 0.001758 0.025981 -0.003744
# 6 -0.004483 -0.001792 0.001834 -0.003402 -0.003744 0.032760
#
#
# Mechanical properties :
#
#
# Convention : Reuss Voigt Hill
#
# Bulk Modulus (GPa) = 41.16474 61.35477 51.25976
# Shear Modulus (GPa) = 32.72089 41.22562 36.97326
#
# Velocity S-wave (km/s) = 3.65362 4.10104 3.88378
# Velocity P-wave (km/s) = 5.88152 6.88878 6.40498
#
# Compressibility (1/GPa) = 0.02429263
#
# Stress axis : x y z
#
# Youngs Moduli (GPa) = 95.06854 48.84119 126.69760
#
# Poissons Ratio (x) = 0.11555 0.27077
# Poissons Ratio (y) = 0.22491 0.35397
# Poissons Ratio (z) = 0.20317 0.13645
#
# Static dielectric constant tensor:
#      x y z
#    x 2.399750 -0.450020 0.367030 
#    y -0.450020 2.467740 -0.390070 
#    z 0.367030 -0.390070 2.338930 
# 
# From -- ./inp_files/213455.got.cif
#   From: 2010.05.17/outbox.cif.g08.bks.cpg/sg2_107_cif.got.tgz:213455.got - 2010.06.03 11:33:40.
