data_PCOD9111881
_publ_section_title
;
Structure prediction by ZEFSAII (Michael W. Deem and Ramdas Pophale) SiO2 
 PCOD9111881
Probable space group: P -1
;
_chemical_formula_sum "Si O2"
_cell_formula_units_Z 14
_cell_length_a 17.236446
_cell_length_b 10.424167
_cell_length_c 10.494285
_cell_angle_alpha 79.049387
_cell_angle_beta 56.597495
_cell_angle_gamma 31.898270
_cell_volume 646.712043
_symmetry_space_group_name_H-M "P -1"
_symmetry_group_IT_number 2
_symmetry_cell_setting 'triclinic'
loop_
_space_group_symop_operation_xyz
x,y,z
-x,-y,-z
loop_
_atom_site_type_symbol
_atom_site_label
_atom_site_fract_x
_atom_site_fract_y
_atom_site_fract_z
Si Si1 0.064648 0.123714 0.256522
Si Si2 0.082974 0.616275 0.225834
Si Si3 0.584609 0.846485 0.590900
Si Si4 0.830709 0.212741 0.994876
Si Si5 0.668940 0.173320 0.683566
Si Si6 0.849778 0.701720 0.973056
Si Si7 0.738621 0.802587 0.681283
O O1 0.806688 0.476287 0.456715
O O2 0.217355 0.900144 0.284857
O O3 0.132198 0.178213 0.126511
O O4 0.085697 0.985784 0.157842
O O5 0.265144 0.327413 0.214738
O O6 0.164394 0.644183 0.083411
O O7 0.071606 0.512376 0.154418
O O8 0.851176 0.939005 0.449394
O O9 0.644385 0.898496 0.609092
O O10 0.500000 0.000000 0.500000
O O11 0.394526 0.016756 0.808502
O O12 0.581624 0.475781 0.198821
O O13 0.000000 0.000000 0.000000
O O14 0.643339 0.055668 0.776271
O O15 0.000000 0.500000 0.000000
O O16 0.000000 0.500000 0.500000
#
# Coordination Sequence:
#
# PCOD9111881 Si02
#       7
#     2   2   2   2   2   2   2
#     4  12  25  48  65 105 144 179 239 288 348 426
#     4  11  24  46  74 102 137 184 240 282 356 419
#     4  12  25  41  72 109 146 179 228 300 354 413
#     4  12  30  46  67 102 143 190 236 287 353 424
#     4  11  24  46  75  97 140 183 232 298 346 418
#     4  12  25  40  72 107 140 184 231 291 356 409
#     4  10  20  43  73 107 133 175 238 291 347 409
#
# _framework density 21.647964999999999
#
# number of rings (size 3 to 8) (size 9 to 14) (size 15 to 20)
#    0.000    0.571    5.714    3.000    4.000    3.429 
#    0.000    0.000    0.000    0.000    0.000    0.000 
#    0.000    0.000    0.000    0.000    0.000    0.000 
#
# Total GULP energy -78212.572985 kJ/mol
# GULP energy per Si atom -5586.612356 kJ/mol
# Density = 2.159869 g / cm^3
# Si number density = 21.647965 Si / 1000 Ang^3
#
#
#
# Elastic Constant Matrix: (Units=GPa)
#
#
# Indices 1 2 3 4 5 6 
#
# 1 104.1995 30.2982 14.9931 -13.1408 17.7644 -26.3543
# 2 30.2982 68.2784 19.7261 -5.5172 -1.2835 -39.7984
# 3 14.9931 19.7261 89.6375 3.0702 -19.3329 -24.6061
# 4 -13.1408 -5.5172 3.0702 35.4980 -11.5935 -3.4866
# 5 17.7644 -1.2835 -19.3329 -11.5935 49.4641 -4.9629
# 6 -26.3543 -39.7984 -24.6061 -3.4866 -4.9629 53.1025
#
#
#
# Elastic Compliance Matrix: (Units=1/GPa)
#
#
# Indices 1 2 3 4 5 6 
#
# 1 0.012636 -0.003280 -0.001620 0.003214 -0.004214 0.002879
# 2 -0.003280 0.029276 0.001264 0.007473 0.006389 0.021986
# 3 -0.001620 0.001264 0.014887 0.001558 0.007586 0.007853
# 4 0.003214 0.007473 0.001558 0.034341 0.008801 0.010995
# 5 -0.004214 0.006389 0.007586 0.008801 0.027866 0.009394
# 6 0.002879 0.021986 0.007853 0.010995 0.009394 0.041977
#
#
# Mechanical properties :
#
#
# Convention : Reuss Voigt Hill
#
# Bulk Modulus (GPa) = 20.19183 43.57224 31.88204
# Shear Modulus (GPa) = 27.06115 40.75280 33.90697
#
# Velocity S-wave (km/s) = 3.53945 4.34351 3.96193
# Velocity P-wave (km/s) = 5.10404 6.73247 5.97400
#
# Compressibility (1/GPa) = 0.04952498
#
# Stress axis : x y z
#
# Youngs Moduli (GPa) = 79.13932 34.15763 67.17065
#
# Poissons Ratio (x) = 0.11205 0.10884
# Poissons Ratio (y) = 0.25961 -0.08487
# Poissons Ratio (z) = 0.12823 -0.04316
#
# Static dielectric constant tensor:
#      x y z
#    x 1.823510 -0.026250 -0.009620 
#    y -0.026250 1.842250 0.002530 
#    z -0.009620 0.002530 1.873490 
# 
# From -- ./inp_files/332033.got.cif
#   From: 2010.05.17/outbox.cif.g08.bks.cpg/sg2_167_cif.got.tgz:332033.got - 2010.06.03 11:33:40.
