data_PCOD9111758
_publ_section_title
;
Structure prediction by ZEFSAII (Michael W. Deem and Ramdas Pophale) SiO2 
 PCOD9111758
Probable space group: P -1
;
_chemical_formula_sum "Si O2"
_cell_formula_units_Z 15
_cell_length_a 11.415321
_cell_length_b 5.379520
_cell_length_c 12.309111
_cell_angle_alpha 103.699639
_cell_angle_beta 128.730337
_cell_angle_gamma 79.882952
_cell_volume 572.516337
_symmetry_space_group_name_H-M "P -1"
_symmetry_group_IT_number 2
_symmetry_cell_setting 'triclinic'
loop_
_space_group_symop_operation_xyz
x,y,z
-x,-y,-z
loop_
_atom_site_type_symbol
_atom_site_label
_atom_site_fract_x
_atom_site_fract_y
_atom_site_fract_z
Si Si1 0.779942 0.991095 0.908983
Si Si2 0.029565 0.635677 0.821725
Si Si3 0.170651 0.284030 0.689245
Si Si4 0.089178 0.063362 0.411872
Si Si5 0.000000 0.500000 0.000000
Si Si6 0.621955 0.807932 0.601709
Si Si7 0.641466 0.351340 0.419963
Si Si8 0.470383 0.983596 0.854631
O O1 0.873340 0.738744 0.973459
O O2 0.734304 0.964093 0.755830
O O3 0.628085 0.026783 0.892554
O O4 0.881828 0.237901 0.011368
O O5 0.137481 0.497111 0.782654
O O6 0.951085 0.845228 0.721942
O O7 0.931937 0.466411 0.826522
O O8 0.120895 0.301328 0.536354
O O9 0.343709 0.199812 0.778781
O O10 0.064000 0.061010 0.647653
O O11 0.228281 0.856855 0.488400
O O12 0.682342 0.623658 0.521659
O O13 0.522124 0.668236 0.619844
O O14 0.500000 0.000000 0.500000
O O15 0.602575 0.272063 0.265477
O O16 0.500000 0.000000 0.000000
#
# Coordination Sequence:
#
# PCOD9111758 Si02
#       8
#     2   2   2   2   1   2   2   2
#     4  11  27  44  68 102 137 186 235 285 361 417
#     4  12  25  43  68 103 139 186 239 293 356 420
#     4  10  23  42  70 105 140 178 238 295 352 421
#     4  10  22  43  71 103 140 187 232 292 356 423
#     4  12  28  46  64 100 142 186 238 298 346 420
#     4  10  23  42  66  96 134 182 230 280 337 416
#     4   9  22  40  65  98 134 181 230 278 339 414
#     4  10  20  43  69  98 138 179 225 293 353 415
#
# _framework density 26.200123000000001
#
# number of rings (size 3 to 8) (size 9 to 14) (size 15 to 20)
#    0.000    1.600    0.000    3.200    5.600    4.800 
#    0.000   12.000    0.000    0.000    0.000    0.000 
#    0.000    0.000    0.000    0.000    0.000    0.000 
#
# Total GULP energy -83693.563955 kJ/mol
# GULP energy per Si atom -5579.570930 kJ/mol
# Density = 2.614049 g / cm^3
# Si number density = 26.200123 Si / 1000 Ang^3
#
#
#
# Elastic Constant Matrix: (Units=GPa)
#
#
# Indices 1 2 3 4 5 6 
#
# 1 165.0572 26.1292 33.9023 2.9098 -11.9145 -45.6418
# 2 26.1292 111.9764 59.1366 12.6912 -6.3435 -44.0792
# 3 33.9023 59.1366 204.4469 17.2438 -32.2927 -10.1452
# 4 2.9098 12.6912 17.2438 46.3887 -2.2603 -5.4366
# 5 -11.9145 -6.3435 -32.2927 -2.2603 61.0235 3.6898
# 6 -45.6418 -44.0792 -10.1452 -5.4366 3.6898 46.4515
#
#
#
# Elastic Compliance Matrix: (Units=1/GPa)
#
#
# Indices 1 2 3 4 5 6 
#
# 1 0.009266 0.003605 -0.001959 0.000604 0.000436 0.012134
# 2 0.003605 0.018848 -0.005157 -0.001155 -0.001334 0.020273
# 3 -0.001959 -0.005157 0.007049 -0.001605 0.003098 -0.005713
# 4 0.000604 -0.001155 -0.001605 0.022637 -0.000122 0.001806
# 5 0.000436 -0.001334 0.003098 -0.000122 0.018066 -0.001611
# 6 0.012134 0.020273 -0.005713 0.001806 -0.001611 0.051780
#
#
# Mechanical properties :
#
#
# Convention : Reuss Voigt Hill
#
# Bulk Modulus (GPa) = 35.53490 79.97964 57.75727
# Shear Modulus (GPa) = 34.71032 54.92689 44.81860
#
# Velocity S-wave (km/s) = 3.64375 4.58365 4.14046
# Velocity P-wave (km/s) = 5.59418 7.65545 6.70450
#
# Compressibility (1/GPa) = 0.02814135
#
# Stress axis : x y z
#
# Youngs Moduli (GPa) = 107.91660 53.05497 141.86362
#
# Poissons Ratio (x) = -0.19128 0.27798
# Poissons Ratio (y) = -0.38908 0.73161
# Poissons Ratio (z) = 0.21146 0.27361
#
# Static dielectric constant tensor:
#      x y z
#    x 1.914230 -0.237900 0.000150 
#    y -0.237900 1.837410 0.068790 
#    z 0.000150 0.068790 2.111050 
# 
# From -- ./inp_files/83046.got.cif
#   From: 2010.05.17/outbox.cif.g08.bks.cpg/sg2_42_cif.got.tgz:83046.got - 2010.06.03 11:33:40.
