data_PCOD9111891
_publ_section_title
;
Structure prediction by ZEFSAII (Michael W. Deem and Ramdas Pophale) SiO2 
 PCOD9111891
Probable space group: P -1
;
_chemical_formula_sum "Si O2"
_cell_formula_units_Z 12
_cell_length_a 9.794397
_cell_length_b 8.071288
_cell_length_c 10.653769
_cell_angle_alpha 88.301849
_cell_angle_beta 133.415847
_cell_angle_gamma 66.257854
_cell_volume 497.016393
_symmetry_space_group_name_H-M "P -1"
_symmetry_group_IT_number 2
_symmetry_cell_setting 'triclinic'
loop_
_space_group_symop_operation_xyz
x,y,z
-x,-y,-z
loop_
_atom_site_type_symbol
_atom_site_label
_atom_site_fract_x
_atom_site_fract_y
_atom_site_fract_z
Si Si1 0.362812 0.669466 0.698344
Si Si2 0.087259 0.417048 0.194869
Si Si3 0.966911 0.182961 0.276311
Si Si4 0.769318 0.308894 0.660490
Si Si5 0.504164 0.925927 0.690964
Si Si6 0.699985 0.184237 0.885439
O O1 0.188039 0.754007 0.700845
O O2 0.512086 0.762548 0.792555
O O3 0.504281 0.424171 0.787723
O O4 0.766689 0.921070 0.514765
O O5 0.342119 0.209533 0.329252
O O6 0.095989 0.588558 0.261627
O O7 0.930300 0.369701 0.169421
O O8 0.000000 0.500000 0.000000
O O9 0.601576 0.050373 0.800846
O O10 0.874100 0.098097 0.116366
O O11 0.500000 0.500000 0.500000
O O12 0.773055 0.240124 0.522466
O O13 0.804004 0.197241 0.818189
#
# Coordination Sequence:
#
# PCOD9111891 Si02
#       6
#     2   2   2   2   2   2
#     4  11  25  48  73 104 156 185 237 305 362 424
#     4  12  24  46  76 106 141 195 244 296 362 434
#     4  12  26  45  74 112 144 190 241 305 360 423
#     4  10  20  43  74 100 135 192 237 286 354 425
#     4  12  27  46  74 108 148 190 242 299 361 435
#     4  11  25  47  77 106 142 197 246 289 359 436
#
# _framework density 24.144072000000001
#
# number of rings (size 3 to 8) (size 9 to 14) (size 15 to 20)
#    0.000    0.667    5.000    3.500    2.333    5.333 
#    0.000    1.667    0.000    0.000    0.000    0.000 
#    0.000    0.000    0.000    0.000    0.000    0.000 
#
# Total GULP energy -67060.654848 kJ/mol
# GULP energy per Si atom -5588.387904 kJ/mol
# Density = 2.408912 g / cm^3
# Si number density = 24.144072 Si / 1000 Ang^3
#
#
#
# Elastic Constant Matrix: (Units=GPa)
#
#
# Indices 1 2 3 4 5 6 
#
# 1 208.2388 90.9108 27.0725 24.3915 5.9975 -12.4973
# 2 90.9108 146.6406 41.5408 32.2343 17.3442 8.7584
# 3 27.0725 41.5408 119.7043 11.7404 -6.9375 -8.5438
# 4 24.3915 32.2343 11.7404 49.3317 11.3781 9.7888
# 5 5.9975 17.3442 -6.9375 11.3781 31.2400 16.9445
# 6 -12.4973 8.7584 -8.5438 9.7888 16.9445 71.0361
#
#
#
# Elastic Compliance Matrix: (Units=1/GPa)
#
#
# Indices 1 2 3 4 5 6 
#
# 1 0.006842 -0.004208 0.000183 -0.001149 0.000517 0.001780
# 2 -0.004208 0.011683 -0.003084 -0.003581 -0.004529 -0.000978
# 3 0.000183 -0.003084 0.009818 -0.001490 0.003933 0.000860
# 4 -0.001149 -0.003581 -0.001490 0.025373 -0.006317 -0.001929
# 5 0.000517 -0.004529 0.003933 -0.006317 0.041946 -0.008013
# 6 0.001780 -0.000978 0.000860 -0.001929 -0.008013 0.016792
#
#
# Mechanical properties :
#
#
# Convention : Reuss Voigt Hill
#
# Bulk Modulus (GPa) = 70.79819 88.18131 79.48975
# Shear Modulus (GPa) = 38.05717 51.32554 44.69136
#
# Velocity S-wave (km/s) = 3.97451 4.61564 4.30703
# Velocity P-wave (km/s) = 7.10276 8.06274 7.59793
#
# Compressibility (1/GPa) = 0.01412466
#
# Stress axis : x y z
#
# Youngs Moduli (GPa) = 146.15123 85.59321 101.85144
#
# Poissons Ratio (x) = 0.36022 -0.01860
# Poissons Ratio (y) = 0.61507 0.31408
# Poissons Ratio (z) = -0.02670 0.26394
#
# Static dielectric constant tensor:
#      x y z
#    x 1.916380 0.192810 0.007430 
#    y 0.192810 2.320040 -0.045070 
#    z 0.007430 -0.045070 2.067810 
# 
# From -- ./inp_files/387381.got.cif
#   From: 2010.05.17/outbox.cif.g08.bks.cpg/sg2_194_cif.got.tgz:387381.got - 2010.06.03 11:33:40.
