data_PCOD9111281
_publ_section_title
;
Structure prediction by ZEFSAII (Michael W. Deem and Ramdas Pophale) SiO2 
 PCOD9111281
Probable space group: P -1
;
_chemical_formula_sum "Si O2"
_cell_formula_units_Z 13
_cell_length_a 6.682154
_cell_length_b 5.014346
_cell_length_c 22.529865
_cell_angle_alpha 67.859572
_cell_angle_beta 48.620623
_cell_angle_gamma 76.864029
_cell_volume 524.411118
_symmetry_space_group_name_H-M "P -1"
_symmetry_group_IT_number 2
_symmetry_cell_setting 'triclinic'
loop_
_space_group_symop_operation_xyz
x,y,z
-x,-y,-z
loop_
_atom_site_type_symbol
_atom_site_label
_atom_site_fract_x
_atom_site_fract_y
_atom_site_fract_z
Si Si1 0.835973 0.436174 0.721548
Si Si2 0.979026 0.469130 0.198092
Si Si3 0.690178 0.884065 0.129437
Si Si4 0.192017 0.508674 0.405979
Si Si5 0.000000 0.500000 0.000000
Si Si6 0.499625 0.093205 0.309232
Si Si7 0.557025 0.695452 0.042172
O O1 0.627373 0.170056 0.797011
O O2 0.956830 0.424216 0.632963
O O3 0.639458 0.708873 0.730354
O O4 0.033717 0.482437 0.732640
O O5 0.831289 0.705908 0.167934
O O6 0.811427 0.176159 0.242273
O O7 0.294521 0.513557 0.122683
O O8 0.736757 0.744630 0.065055
O O9 0.807531 0.202811 0.080843
O O10 0.352773 0.220884 0.385565
O O11 0.000000 0.500000 0.500000
O O12 0.407929 0.768203 0.347329
O O13 0.205639 0.459638 0.023097
O O14 0.500000 0.000000 0.000000
#
# Coordination Sequence:
#
# PCOD9111281 Si02
#       7
#     2   2   2   2   1   2   2
#     4   8  21  39  63  93 133 178 224 283 346 415
#     4  10  20  46  63  92 136 183 229 294 342 415
#     4  10  22  43  62  93 134 169 238 280 345 417
#     4  10  20  42  71  99 139 178 223 289 352 410
#     4  12  24  40  66  96 126 184 226 292 354 404
#     4   9  21  41  66  99 135 179 230 281 344 424
#     4  11  24  43  61  93 135 172 233 296 345 411
#
# _framework density 24.789712999999999
#
# number of rings (size 3 to 8) (size 9 to 14) (size 15 to 20)
#    0.923    1.231    1.538    0.923    0.000    4.308 
#    8.308    1.538    0.000    0.000    0.000    0.000 
#    0.000    0.000    0.000    0.000    0.000    0.000 
#
# Total GULP energy -72547.858241 kJ/mol
# GULP energy per Si atom -5580.604480 kJ/mol
# Density = 2.473329 g / cm^3
# Si number density = 24.789713 Si / 1000 Ang^3
#
#
#
# Elastic Constant Matrix: (Units=GPa)
#
#
# Indices 1 2 3 4 5 6 
#
# 1 171.0947 36.8167 60.3608 5.0162 5.0203 6.5778
# 2 36.8167 82.2569 26.9201 2.8584 10.5284 18.6665
# 3 60.3608 26.9201 101.7290 7.2801 12.7214 16.0595
# 4 5.0162 2.8584 7.2801 37.8352 8.0961 1.5440
# 5 5.0203 10.5284 12.7214 8.0961 32.6597 9.0127
# 6 6.5778 18.6665 16.0595 1.5440 9.0127 41.0922
#
#
#
# Elastic Compliance Matrix: (Units=1/GPa)
#
#
# Indices 1 2 3 4 5 6 
#
# 1 0.007831 -0.002525 -0.004296 -0.000286 0.000977 0.001369
# 2 -0.002525 0.015297 -0.001386 0.000214 -0.002552 -0.005451
# 3 -0.004296 -0.001386 0.013737 -0.001185 -0.003027 -0.003343
# 4 -0.000286 0.000214 -0.001185 0.028092 -0.006759 0.000838
# 5 0.000977 -0.002552 -0.003027 -0.006759 0.035629 -0.005374
# 6 0.001369 -0.005451 -0.003343 0.000838 -0.005374 0.029047
#
#
# Mechanical properties :
#
#
# Convention : Reuss Voigt Hill
#
# Bulk Modulus (GPa) = 48.89513 67.03065 57.96289
# Shear Modulus (GPa) = 32.70929 37.71627 35.21278
#
# Velocity S-wave (km/s) = 3.63639 3.90481 3.77299
# Velocity P-wave (km/s) = 6.11538 6.88683 6.51254
#
# Compressibility (1/GPa) = 0.02045193
#
# Stress axis : x y z
#
# Youngs Moduli (GPa) = 127.70302 65.37339 72.79695
#
# Poissons Ratio (x) = 0.16504 0.31274
# Poissons Ratio (y) = 0.32240 0.10086
# Poissons Ratio (z) = 0.54861 0.09058
#
# Static dielectric constant tensor:
#      x y z
#    x 2.042960 -0.038330 0.044620 
#    y -0.038330 2.193390 0.129490 
#    z 0.044620 0.129490 1.956680 
# 
# From -- ./inp_files/614586.got.cif
#   From: 2010.05.17/outbox.cif.g08.bks.cpg/sg2_308_cif.got.tgz:614586.got - 2010.06.03 11:33:40.
