data_PCOD9111124
_publ_section_title
;
Structure prediction by ZEFSAII (Michael W. Deem and Ramdas Pophale) SiO2 
 PCOD9111124
Probable space group: P -1
;
_chemical_formula_sum "Si O2"
_cell_formula_units_Z 16
_cell_length_a 6.301085
_cell_length_b 12.012534
_cell_length_c 25.018795
_cell_angle_alpha 31.142748
_cell_angle_beta 51.930518
_cell_angle_gamma 51.394672
_cell_volume 749.198786
_symmetry_space_group_name_H-M "P -1"
_symmetry_group_IT_number 2
_symmetry_cell_setting 'triclinic'
loop_
_space_group_symop_operation_xyz
x,y,z
-x,-y,-z
loop_
_atom_site_type_symbol
_atom_site_label
_atom_site_fract_x
_atom_site_fract_y
_atom_site_fract_z
Si Si1 0.820007 0.003068 0.443955
Si Si2 0.910435 0.075939 0.283480
Si Si3 0.225262 0.491721 0.726679
Si Si4 0.610127 0.567809 0.801960
Si Si5 0.755046 0.550637 0.907236
Si Si6 0.162357 0.339490 0.586895
Si Si7 0.742097 0.399441 0.434720
Si Si8 0.324814 0.247954 0.921995
O O1 0.952656 0.954374 0.384100
O O2 0.821436 0.254854 0.351806
O O3 0.500000 0.000000 0.500000
O O4 0.011624 0.815105 0.527583
O O5 0.591526 0.216711 0.280036
O O6 0.102089 0.253127 0.174727
O O7 0.924504 0.892917 0.310886
O O8 0.370762 0.469681 0.655850
O O9 0.350444 0.343430 0.818788
O O10 0.914217 0.471475 0.771365
O O11 0.646648 0.620433 0.836142
O O12 0.450688 0.378727 0.893684
O O13 0.996443 0.325408 0.953792
O O14 0.500000 0.500000 0.000000
O O15 0.487724 0.312789 0.534071
O O16 0.136765 0.450912 0.603472
O O17 0.000000 0.500000 0.500000
O O18 0.500000 0.000000 0.000000
#
# Coordination Sequence:
#
# PCOD9111124 Si02
#       8
#     2   2   2   2   2   2   2   2
#     4  12  21  38  69  99 129 174 219 270 325 407
#     4  11  21  40  66  94 130 180 221 274 330 398
#     4  11  22  40  64 101 128 170 226 272 332 406
#     4  10  20  42  69  90 131 164 222 278 340 392
#     4  10  23  43  70  97 128 171 237 284 342 410
#     4  11  24  42  61  89 144 185 220 268 335 410
#     4  11  25  39  64  97 139 180 224 268 336 405
#     4  10  23  43  70  96 134 172 218 291 356 394
#
# _framework density 21.356148000000001
#
# number of rings (size 3 to 8) (size 9 to 14) (size 15 to 20)
#    0.000    1.250    5.000    2.625    0.000    4.000 
#    0.000    7.500    0.000    0.000    0.000    0.000 
#    0.000    0.000    0.000    0.000    0.000    0.000 
#
# Total GULP energy -89288.510749 kJ/mol
# GULP energy per Si atom -5580.531922 kJ/mol
# Density = 2.130754 g / cm^3
# Si number density = 21.356148 Si / 1000 Ang^3
#
#
#
# Elastic Constant Matrix: (Units=GPa)
#
#
# Indices 1 2 3 4 5 6 
#
# 1 99.8600 35.4378 40.3891 -13.5273 1.2607 3.5756
# 2 35.4378 79.2674 52.7773 -14.8594 1.2961 16.3442
# 3 40.3891 52.7773 92.4909 -5.7073 1.7567 2.7258
# 4 -13.5273 -14.8594 -5.7073 37.4425 -5.8953 -4.7882
# 5 1.2607 1.2961 1.7567 -5.8953 23.0662 -0.2976
# 6 3.5756 16.3442 2.7258 -4.7882 -0.2976 38.9258
#
#
#
# Elastic Compliance Matrix: (Units=1/GPa)
#
#
# Indices 1 2 3 4 5 6 
#
# 1 0.012976 -0.002710 -0.003953 0.003178 0.000564 0.000618
# 2 -0.002710 0.025070 -0.012510 0.006140 0.001150 -0.008637
# 3 -0.003953 -0.012510 0.019393 -0.003150 -0.001313 0.003860
# 4 0.003178 0.006140 -0.003150 0.031185 0.007708 0.001246
# 5 0.000564 0.001150 -0.001313 0.007708 0.045339 0.000852
# 6 0.000618 -0.008637 0.003860 0.001246 0.000852 0.029149
#
#
# Mechanical properties :
#
#
# Convention : Reuss Voigt Hill
#
# Bulk Modulus (GPa) = 52.37648 58.75854 55.56751
# Shear Modulus (GPa) = 24.05906 29.42118 26.74012
#
# Velocity S-wave (km/s) = 3.36007 3.71569 3.54235
# Velocity P-wave (km/s) = 6.29539 6.78099 6.54270
#
# Compressibility (1/GPa) = 0.01909254
#
# Stress axis : x y z
#
# Youngs Moduli (GPa) = 77.06736 39.88878 51.56429
#
# Poissons Ratio (x) = 0.10811 0.20381
# Poissons Ratio (y) = 0.20888 0.64508
# Poissons Ratio (z) = 0.30461 0.49902
#
# Static dielectric constant tensor:
#      x y z
#    x 2.058860 -0.141730 -0.205930 
#    y -0.141730 1.895140 0.123130 
#    z -0.205930 0.123130 1.925800 
# 
# From -- ./inp_files/90324.got.cif
#   From: 2010.05.17/outbox.cif.g08.bks.cpg/sg2_46_cif.got.tgz:90324.got - 2010.06.03 11:33:40.
