data_PCOD9111975
_publ_section_title
;
Structure prediction by ZEFSAII (Michael W. Deem and Ramdas Pophale) SiO2 
 PCOD9111975
Probable space group: P -1
;
_chemical_formula_sum "Si O2"
_cell_formula_units_Z 14
_cell_length_a 14.383425
_cell_length_b 8.850773
_cell_length_c 20.442650
_cell_angle_alpha 146.916644
_cell_angle_beta 25.555309
_cell_angle_gamma 135.021439
_cell_volume 599.647100
_symmetry_space_group_name_H-M "P -1"
_symmetry_group_IT_number 2
_symmetry_cell_setting 'triclinic'
loop_
_space_group_symop_operation_xyz
x,y,z
-x,-y,-z
loop_
_atom_site_type_symbol
_atom_site_label
_atom_site_fract_x
_atom_site_fract_y
_atom_site_fract_z
Si Si1 0.692808 0.855744 0.411418
Si Si2 0.052621 0.223151 0.167244
Si Si3 0.500408 0.311671 0.867587
Si Si4 0.278477 0.716318 0.056736
Si Si5 0.221091 0.246891 0.823135
Si Si6 0.936588 0.763230 0.683756
Si Si7 0.837912 0.750346 0.419808
O O1 0.752497 0.679502 0.243119
O O2 0.727163 0.700172 0.402483
O O3 0.447280 0.034184 0.623162
O O4 0.856882 0.076841 0.389328
O O5 0.098094 0.297809 0.240502
O O6 0.868662 0.480800 0.349241
O O7 0.271620 0.200884 0.976962
O O8 0.965697 0.934383 0.116604
O O9 0.697977 0.042835 0.641896
O O10 0.500000 0.500000 0.000000
O O11 0.483617 0.519051 0.890873
O O12 0.086064 0.785501 0.258637
O O13 0.198651 0.515606 0.980753
O O14 0.268355 0.009582 0.132803
O O15 0.000000 0.500000 0.500000
#
# Coordination Sequence:
#
# PCOD9111975 Si02
#       7
#     2   2   2   2   2   2   2
#     4   9  20  40  68  93 126 175 204 265 319 381
#     4  10  25  42  63  99 129 171 207 276 309 378
#     4  11  25  43  65  95 133 172 217 254 328 387
#     4  10  23  43  70  91 127 178 204 271 320 376
#     4  10  20  44  65  95 132 162 226 253 322 385
#     4  10  23  42  66  95 129 163 221 267 317 376
#     4  10  22  42  63  97 127 169 213 254 332 365
#
# _framework density 23.347066000000002
#
# number of rings (size 3 to 8) (size 9 to 14) (size 15 to 20)
#    0.000    2.000    1.429    0.000    6.000    9.143 
#   12.857    1.429    0.000    0.000    0.000    0.000 
#    0.000    0.000    0.000    0.000    0.000    0.000 
#
# Total GULP energy -78347.889788 kJ/mol
# GULP energy per Si atom -5596.277842 kJ/mol
# Density = 2.329393 g / cm^3
# Si number density = 23.347066 Si / 1000 Ang^3
#
#
#
# Elastic Constant Matrix: (Units=GPa)
#
#
# Indices 1 2 3 4 5 6 
#
# 1 121.8108 33.8810 42.8422 26.3006 3.6049 -23.1509
# 2 33.8810 79.6182 42.5775 13.4642 -1.6847 -15.1175
# 3 42.8422 42.5775 160.3227 23.3163 8.0312 -7.8695
# 4 26.3006 13.4642 23.3163 35.0871 2.6643 -12.6766
# 5 3.6049 -1.6847 8.0312 2.6643 41.4116 4.4736
# 6 -23.1509 -15.1175 -7.8695 -12.6766 4.4736 43.7478
#
#
#
# Elastic Compliance Matrix: (Units=1/GPa)
#
#
# Indices 1 2 3 4 5 6 
#
# 1 0.011183 -0.002531 -0.001347 -0.005234 -0.000842 0.003370
# 2 -0.002531 0.016270 -0.003401 -0.001007 0.001255 0.003251
# 3 -0.001347 -0.003401 0.007988 -0.003372 -0.001212 -0.001305
# 4 -0.005234 -0.001007 -0.003372 0.037922 -0.002180 0.007487
# 5 -0.000842 0.001255 -0.001212 -0.002180 0.025017 -0.003420
# 6 0.003370 0.003251 -0.001305 0.007487 -0.003420 0.028050
#
#
# Mechanical properties :
#
#
# Convention : Reuss Voigt Hill
#
# Bulk Modulus (GPa) = 47.88964 66.70592 57.29778
# Shear Modulus (GPa) = 33.79530 40.21270 37.00400
#
# Velocity S-wave (km/s) = 3.80875 4.15467 3.98547
# Velocity P-wave (km/s) = 6.31654 7.18669 6.76562
#
# Compressibility (1/GPa) = 0.02088134
#
# Stress axis : x y z
#
# Youngs Moduli (GPa) = 89.42182 61.46251 125.18885
#
# Poissons Ratio (x) = 0.15556 0.16867
# Poissons Ratio (y) = 0.22633 0.42583
# Poissons Ratio (z) = 0.12048 0.20906
#
# Static dielectric constant tensor:
#      x y z
#    x 1.904830 -0.009880 -0.043930 
#    y -0.009880 1.917660 -0.029430 
#    z -0.043930 -0.029430 1.864090 
# 
# From -- ./inp_files/597466.got.cif
#   From: 2010.05.17/outbox.cif.g08.bks.cpg/sg2_299_cif.got.tgz:597466.got - 2010.06.03 11:33:40.
