data_PCOD9111623
_publ_section_title
;
Structure prediction by ZEFSAII (Michael W. Deem and Ramdas Pophale) SiO2 
 PCOD9111623
Probable space group: P -1
;
_chemical_formula_sum "Si O2"
_cell_formula_units_Z 16
_cell_length_a 7.790401
_cell_length_b 14.643243
_cell_length_c 14.709610
_cell_angle_alpha 29.470414
_cell_angle_beta 50.957798
_cell_angle_gamma 47.712893
_cell_volume 606.222171
_symmetry_space_group_name_H-M "P -1"
_symmetry_group_IT_number 2
_symmetry_cell_setting 'triclinic'
loop_
_space_group_symop_operation_xyz
x,y,z
-x,-y,-z
loop_
_atom_site_type_symbol
_atom_site_label
_atom_site_fract_x
_atom_site_fract_y
_atom_site_fract_z
Si Si1 0.198310 0.749582 0.703094
Si Si2 0.365961 0.288604 0.601339
Si Si3 0.772098 0.438562 0.341533
Si Si4 0.443035 0.032405 0.325861
Si Si5 0.983247 0.849251 0.344110
Si Si6 0.046610 0.235244 0.050660
Si Si7 0.416164 0.621898 0.036064
Si Si8 0.889351 0.321352 0.749206
O O1 0.175079 0.667976 0.682047
O O2 0.249673 0.954867 0.502808
O O3 0.434994 0.597191 0.798311
O O4 0.994144 0.756417 0.834721
O O5 0.535757 0.399204 0.485464
O O6 0.509119 0.082048 0.687952
O O7 0.227156 0.445688 0.433511
O O8 0.149738 0.273029 0.744762
O O9 0.951512 0.330869 0.452372
O O10 0.773604 0.656469 0.133514
O O11 0.703487 0.946268 0.356423
O O12 0.405297 0.261232 0.146666
O O13 0.073544 0.787089 0.265734
O O14 0.095138 0.012192 0.197965
O O15 0.791912 0.351919 0.988800
O O16 0.278878 0.728415 0.080085
#
# Coordination Sequence:
#
# PCOD9111623 Si02
#       8
#     2   2   2   2   2   2   2   2
#     4  11  23  44  65  94 125 168 217 267 311 367
#     4   9  20  38  66  91 121 169 203 255 314 369
#     4  11  23  42  63  92 131 173 206 254 322 381
#     4   9  20  39  66  92 123 163 215 261 313 364
#     4  10  24  41  61  96 131 166 209 257 316 381
#     4  11  26  41  65  94 130 167 215 261 315 376
#     4  11  22  41  69  97 124 163 217 266 311 374
#     4  10  20  43  67  93 129 162 210 265 312 373
#
# _framework density 26.392962000000001
#
# number of rings (size 3 to 8) (size 9 to 14) (size 15 to 20)
#    0.000    1.750    2.500    1.500    3.500   10.500 
#    0.000    0.625    0.000    0.000    0.000    0.000 
#    0.000    0.000    0.000    0.000    0.000    0.000 
#
# Total GULP energy -89634.491933 kJ/mol
# GULP energy per Si atom -5602.155746 kJ/mol
# Density = 2.633289 g / cm^3
# Si number density = 26.392962 Si / 1000 Ang^3
#
#
#
# Elastic Constant Matrix: (Units=GPa)
#
#
# Indices 1 2 3 4 5 6 
#
# 1 78.5035 19.7158 13.0022 9.9056 -8.8636 10.1920
# 2 19.7158 84.3287 17.4328 -0.7491 8.3042 17.7802
# 3 13.0022 17.4328 107.9584 -8.8181 -24.3920 10.7497
# 4 9.9056 -0.7491 -8.8181 29.5049 11.0415 3.5571
# 5 -8.8636 8.3042 -24.3920 11.0415 41.2979 1.5667
# 6 10.1920 17.7802 10.7497 3.5571 1.5667 42.9679
#
#
#
# Elastic Compliance Matrix: (Units=1/GPa)
#
#
# Indices 1 2 3 4 5 6 
#
# 1 0.015603 -0.003895 -0.000350 -0.007490 0.005989 -0.001600
# 2 -0.003895 0.014934 -0.002562 0.003805 -0.006191 -0.004704
# 3 -0.000350 -0.002562 0.011622 0.001130 0.007082 -0.002116
# 4 -0.007490 0.003805 0.001130 0.042012 -0.012820 -0.003091
# 5 0.005989 -0.006191 0.007082 -0.012820 0.034386 -0.000823
# 6 -0.001600 -0.004704 -0.002116 -0.003091 -0.000823 0.026415
#
#
# Mechanical properties :
#
#
# Convention : Reuss Voigt Hill
#
# Bulk Modulus (GPa) = 35.03048 41.23249 38.13148
# Shear Modulus (GPa) = 29.74416 37.46346 33.60381
#
# Velocity S-wave (km/s) = 3.36068 3.77164 3.57208
# Velocity P-wave (km/s) = 5.32545 5.88418 5.61177
#
# Compressibility (1/GPa) = 0.02854657
#
# Stress axis : x y z
#
# Youngs Moduli (GPa) = 64.08878 66.96225 86.04450
#
# Poissons Ratio (x) = 0.26079 0.03009
# Poissons Ratio (y) = 0.24960 0.22044
# Poissons Ratio (z) = 0.02241 0.17155
#
# Static dielectric constant tensor:
#      x y z
#    x 2.128290 -0.013350 0.006750 
#    y -0.013350 2.031770 0.018960 
#    z 0.006750 0.018960 2.036420 
# 
# From -- ./inp_files/504884.got.cif
#   From: 2010.05.17/outbox.cif.g08.bks.cpg/sg2_253_cif.got.tgz:504884.got - 2010.06.03 11:33:40.
