data_PCOD9111616
_publ_section_title
;
Structure prediction by ZEFSAII (Michael W. Deem and Ramdas Pophale) SiO2 
 PCOD9111616
Probable space group: P -1
;
_chemical_formula_sum "Si O2"
_cell_formula_units_Z 16
_cell_length_a 10.020714
_cell_length_b 8.243812
_cell_length_c 8.401708
_cell_angle_alpha 103.239773
_cell_angle_beta 86.239914
_cell_angle_gamma 110.100187
_cell_volume 634.393216
_symmetry_space_group_name_H-M "P -1"
_symmetry_group_IT_number 2
_symmetry_cell_setting 'triclinic'
loop_
_space_group_symop_operation_xyz
x,y,z
-x,-y,-z
loop_
_atom_site_type_symbol
_atom_site_label
_atom_site_fract_x
_atom_site_fract_y
_atom_site_fract_z
Si Si1 0.550932 0.642742 0.670806
Si Si2 0.279626 0.740446 0.371799
Si Si3 0.708118 0.536276 0.156964
Si Si4 0.895683 0.846272 0.079236
Si Si5 0.910553 0.091593 0.422025
Si Si6 0.150662 0.714097 0.069530
Si Si7 0.187682 0.391373 0.480445
Si Si8 0.573034 0.015331 0.826080
O O1 0.500000 0.500000 0.500000
O O2 0.457952 0.548576 0.808190
O O3 0.720296 0.692413 0.658111
O O4 0.522614 0.827302 0.702142
O O5 0.226458 0.893630 0.477410
O O6 0.164354 0.636106 0.224245
O O7 0.257491 0.597914 0.477948
O O8 0.419713 0.832406 0.272948
O O9 0.745871 0.685377 0.050327
O O10 0.781463 0.624222 0.338385
O O11 0.776567 0.384642 0.077845
O O12 0.996743 0.724888 0.066310
O O13 0.868508 0.972231 0.245252
O O14 0.000000 0.000000 0.000000
O O15 0.023085 0.289680 0.432628
O O16 0.000000 0.000000 0.500000
O O17 0.259848 0.915236 0.123085
O O18 0.500000 0.000000 0.000000
#
# Coordination Sequence:
#
# PCOD9111616 Si02
#       8
#     2   2   2   2   2   2   2   2
#     4  10  21  40  64  93 126 168 207 261 318 375
#     4  10  23  38  68  97 118 168 214 262 310 383
#     4  11  23  42  63  91 130 169 203 267 323 375
#     4  12  27  40  62  95 126 166 213 266 321 381
#     4  12  21  43  65  91 125 170 214 265 320 376
#     4  10  22  43  63  88 129 164 207 257 323 374
#     4  11  23  40  67  94 128 163 219 262 316 379
#     4  10  20  43  67  91 128 171 210 256 324 378
#
# _framework density 25.220948
#
# number of rings (size 3 to 8) (size 9 to 14) (size 15 to 20)
#    0.750    0.500    3.750    2.250    5.250    0.000 
#    2.250    3.750    0.000    0.000    0.000    0.000 
#    0.000    0.000    0.000    0.000    0.000    0.000 
#
# Total GULP energy -89153.540895 kJ/mol
# GULP energy per Si atom -5572.096306 kJ/mol
# Density = 2.516354 g / cm^3
# Si number density = 25.220948 Si / 1000 Ang^3
#
#
#
# Elastic Constant Matrix: (Units=GPa)
#
#
# Indices 1 2 3 4 5 6 
#
# 1 48.8439 6.9272 19.5191 -0.1033 -20.5054 17.4921
# 2 6.9272 149.6587 47.2714 -13.8873 -8.6951 21.5834
# 3 19.5191 47.2714 113.0120 4.4885 -40.2016 1.9043
# 4 -0.1033 -13.8873 4.4885 48.8791 4.0216 -7.0046
# 5 -20.5054 -8.6951 -40.2016 4.0216 30.5760 0.5371
# 6 17.4921 21.5834 1.9043 -7.0046 0.5371 32.6513
#
#
#
# Elastic Compliance Matrix: (Units=1/GPa)
#
#
# Indices 1 2 3 4 5 6 
#
# 1 0.044446 0.001336 0.007106 -0.007477 0.040995 -0.027387
# 2 0.001336 0.009213 -0.005494 0.002610 -0.003948 -0.005861
# 3 0.007106 -0.005494 0.022030 -0.006790 0.033122 -0.003462
# 4 -0.007477 0.002610 -0.006790 0.024340 -0.016544 0.008170
# 5 0.040995 -0.003948 0.033122 -0.016544 0.105267 -0.026565
# 6 -0.027387 -0.005861 -0.003462 0.008170 -0.026565 0.051564
#
#
# Mechanical properties :
#
#
# Convention : Reuss Voigt Hill
#
# Bulk Modulus (GPa) = 12.25700 50.99443 31.62572
# Shear Modulus (GPa) = 17.97529 38.27441 28.12485
#
# Velocity S-wave (km/s) = 2.67256 3.89982 3.34299
# Velocity P-wave (km/s) = 3.79392 6.36719 5.24094
#
# Compressibility (1/GPa) = 0.08158603
#
# Stress axis : x y z
#
# Youngs Moduli (GPa) = 22.49896 108.53848 45.39324
#
# Poissons Ratio (x) = -0.14499 -0.32257
# Poissons Ratio (y) = -0.03006 0.24938
# Poissons Ratio (z) = -0.15988 0.59628
#
# Static dielectric constant tensor:
#      x y z
#    x 2.123750 -0.106910 -0.057300 
#    y -0.106910 2.172000 0.129990 
#    z -0.057300 0.129990 2.134250 
# 
# From -- ./inp_files/240289.got.cif
#   From: 2010.05.17/outbox.cif.g08.bks.cpg/sg2_121_cif.got.tgz:240289.got - 2010.06.03 11:33:40.
