data_PCOD9111695
_publ_section_title
;
Structure prediction by ZEFSAII (Michael W. Deem and Ramdas Pophale) SiO2 
 PCOD9111695
Probable space group: P -1
;
_chemical_formula_sum "Si O2"
_cell_formula_units_Z 16
_cell_length_a 13.438739
_cell_length_b 8.952728
_cell_length_c 10.162965
_cell_angle_alpha 72.554743
_cell_angle_beta 59.695797
_cell_angle_gamma 116.742102
_cell_volume 688.322285
_symmetry_space_group_name_H-M "P -1"
_symmetry_group_IT_number 2
_symmetry_cell_setting 'triclinic'
loop_
_space_group_symop_operation_xyz
x,y,z
-x,-y,-z
loop_
_atom_site_type_symbol
_atom_site_label
_atom_site_fract_x
_atom_site_fract_y
_atom_site_fract_z
Si Si1 0.382089 0.732669 0.401940
Si Si2 0.563619 0.444200 0.356224
Si Si3 0.005989 0.309111 0.643014
Si Si4 0.489978 0.179894 0.974186
Si Si5 0.630637 0.935318 0.641346
Si Si6 0.024466 0.666743 0.840215
Si Si7 0.930700 0.907096 0.926227
Si Si8 0.169450 0.558898 0.214783
O O1 0.385103 0.652574 0.561116
O O2 0.188248 0.539861 0.525144
O O3 0.491464 0.752512 0.208996
O O4 0.458483 0.982079 0.306924
O O5 0.500000 0.500000 0.500000
O O6 0.447712 0.263725 0.360341
O O7 0.731722 0.682447 0.119467
O O8 0.026664 0.353854 0.462621
O O9 0.854456 0.276552 0.793988
O O10 0.974396 0.101009 0.759681
O O11 0.672109 0.385620 0.863211
O O12 0.367118 0.113673 0.191564
O O13 0.500000 0.000000 0.000000
O O14 0.807416 0.169036 0.401986
O O15 0.023328 0.838920 0.849161
O O16 0.864911 0.502159 0.895935
O O17 0.000000 0.500000 0.000000
O O18 0.000000 0.000000 0.000000
#
# Coordination Sequence:
#
# PCOD9111695 Si02
#       8
#     2   2   2   2   2   2   2   2
#     4  10  20  43  68  97 132 179 224 282 335 402
#     4  12  26  43  65  99 138 178 222 281 350 403
#     4  10  21  40  71  97 129 175 223 283 325 403
#     4   9  21  38  68  98 134 169 219 284 336 400
#     4  11  23  43  66 101 130 174 231 276 337 405
#     4  12  25  42  69  98 133 180 231 279 329 406
#     4  12  24  42  67  94 138 175 224 277 342 398
#     4  10  21  42  68  98 128 173 233 263 340 403
#
# _framework density 23.244924999999999
#
# number of rings (size 3 to 8) (size 9 to 14) (size 15 to 20)
#    0.000    1.250    2.500    3.375    1.750    4.500 
#    0.000    0.625    0.000    0.000    0.000    0.000 
#    0.000    0.000    0.000    0.000    0.000    0.000 
#
# Total GULP energy -89197.970360 kJ/mol
# GULP energy per Si atom -5574.873147 kJ/mol
# Density = 2.319202 g / cm^3
# Si number density = 23.244925 Si / 1000 Ang^3
#
#
#
# Elastic Constant Matrix: (Units=GPa)
#
#
# Indices 1 2 3 4 5 6 
#
# 1 40.3138 20.4767 20.1697 5.1630 15.6662 -11.6520
# 2 20.4767 113.3792 58.8414 8.7832 14.9142 -9.2970
# 3 20.1697 58.8414 113.2150 8.6079 -0.7997 -4.6603
# 4 5.1630 8.7832 8.6079 40.9657 1.6943 -1.7562
# 5 15.6662 14.9142 -0.7997 1.6943 39.4237 -5.3214
# 6 -11.6520 -9.2970 -4.6603 -1.7562 -5.3214 36.7317
#
#
#
# Elastic Compliance Matrix: (Units=1/GPa)
#
#
# Indices 1 2 3 4 5 6 
#
# 1 0.035681 -0.001155 -0.005328 -0.002247 -0.012618 0.008415
# 2 -0.001155 0.013214 -0.006552 -0.001065 -0.004431 0.001454
# 3 -0.005328 -0.006552 0.013251 -0.000949 0.004768 -0.001022
# 4 -0.002247 -0.001065 -0.000949 0.025118 0.000215 0.000129
# 5 -0.012618 -0.004431 0.004768 0.000215 0.032163 0.000151
# 6 0.008415 0.001454 -0.001022 0.000129 0.000151 0.030160
#
#
# Mechanical properties :
#
#
# Convention : Reuss Voigt Hill
#
# Bulk Modulus (GPa) = 27.72011 51.76483 39.74247
# Shear Modulus (GPa) = 26.64054 34.58558 30.61306
#
# Velocity S-wave (km/s) = 3.38905 3.86149 3.63296
# Velocity P-wave (km/s) = 5.22162 6.49608 5.89340
#
# Compressibility (1/GPa) = 0.03607490
#
# Stress axis : x y z
#
# Youngs Moduli (GPa) = 28.02593 75.67988 75.46509
#
# Poissons Ratio (x) = 0.08741 0.40210
# Poissons Ratio (y) = 0.03237 0.49446
# Poissons Ratio (z) = 0.14933 0.49587
#
# Static dielectric constant tensor:
#      x y z
#    x 1.552930 0.527060 0.108800 
#    y 0.527060 1.327910 -0.269000 
#    z 0.108800 -0.269000 1.857430 
# 
# From -- ./inp_files/298183.got.cif
#   From: 2010.05.17/outbox.cif.g08.bks.cpg/sg2_150_cif.got.tgz:298183.got - 2010.06.03 11:33:40.
