data_PCOD9111524
_publ_section_title
;
Structure prediction by ZEFSAII (Michael W. Deem and Ramdas Pophale) SiO2 
 PCOD9111524
Probable space group: P -1
;
_chemical_formula_sum "Si O2"
_cell_formula_units_Z 16
_cell_length_a 15.337131
_cell_length_b 12.275337
_cell_length_c 8.258523
_cell_angle_alpha 101.032491
_cell_angle_beta 65.801304
_cell_angle_gamma 153.532211
_cell_volume 570.094833
_symmetry_space_group_name_H-M "P -1"
_symmetry_group_IT_number 2
_symmetry_cell_setting 'triclinic'
loop_
_space_group_symop_operation_xyz
x,y,z
-x,-y,-z
loop_
_atom_site_type_symbol
_atom_site_label
_atom_site_fract_x
_atom_site_fract_y
_atom_site_fract_z
Si Si1 0.279209 0.422858 0.954562
Si Si2 0.175308 0.481982 0.296548
Si Si3 0.718979 0.803011 0.255948
Si Si4 0.858420 0.962450 0.554357
Si Si5 0.121410 0.841288 0.155047
Si Si6 0.576670 0.881183 0.309083
Si Si7 0.412025 0.748875 0.710871
Si Si8 0.164436 0.650217 0.077309
O O1 0.349099 0.371989 0.853706
O O2 0.415442 0.640846 0.782061
O O3 0.320290 0.534697 0.116626
O O4 0.991359 0.118763 0.084906
O O5 0.982453 0.206901 0.458302
O O6 0.366124 0.725642 0.345676
O O7 0.105235 0.496376 0.217416
O O8 0.541773 0.715949 0.339536
O O9 0.731478 0.791646 0.434919
O O10 0.796361 0.955022 0.772726
O O11 0.000000 0.000000 0.500000
O O12 0.841612 0.540582 0.264000
O O13 0.190645 0.798998 0.178220
O O14 0.228268 0.930695 0.920986
O O15 0.603867 0.964865 0.488318
O O16 0.380566 0.819650 0.872868
O O17 0.000000 0.500000 0.000000
#
# Coordination Sequence:
#
# PCOD9111524 Si02
#       8
#     2   2   2   2   2   2   2   2
#     4   9  19  41  67  88 137 177 229 273 327 401
#     4  10  23  42  67 105 133 175 229 279 334 406
#     4  10  22  38  66  99 127 188 222 269 341 404
#     4  11  24  43  69  99 140 178 222 278 337 401
#     4  11  23  44  68  96 138 180 227 272 345 397
#     4  12  25  39  68 104 136 176 227 276 343 404
#     4  10  20  43  65  98 134 173 225 285 332 401
#     4   9  22  44  75  96 131 185 225 281 340 399
#
# _framework density 28.065505000000002
#
# number of rings (size 3 to 8) (size 9 to 14) (size 15 to 20)
#    0.000    1.750    2.500    0.750    5.250    4.500 
#    0.000    0.000    0.000    0.000    0.000    0.000 
#    0.000    0.000    0.000    0.000    0.000    0.000 
#
# Total GULP energy -89311.343433 kJ/mol
# GULP energy per Si atom -5581.958965 kJ/mol
# Density = 2.800163 g / cm^3
# Si number density = 28.065505 Si / 1000 Ang^3
#
#
#
# Elastic Constant Matrix: (Units=GPa)
#
#
# Indices 1 2 3 4 5 6 
#
# 1 151.9876 44.9681 13.4614 8.4216 9.1140 -7.9505
# 2 44.9681 98.6531 24.3882 9.6218 -2.9637 -16.5257
# 3 13.4614 24.3882 163.2124 -6.4847 -4.0420 -4.3796
# 4 8.4216 9.6218 -6.4847 31.5454 -8.8248 -14.0977
# 5 9.1140 -2.9637 -4.0420 -8.8248 49.1897 11.5864
# 6 -7.9505 -16.5257 -4.3796 -14.0977 11.5864 49.0129
#
#
#
# Elastic Compliance Matrix: (Units=1/GPa)
#
#
# Indices 1 2 3 4 5 6 
#
# 1 0.007818 -0.003386 -0.000249 -0.001612 -0.001988 0.000110
# 2 -0.003386 0.012779 -0.001621 -0.001922 0.000210 0.003012
# 3 -0.000249 -0.001621 0.006515 0.002336 0.000790 0.000480
# 4 -0.001612 -0.001922 0.002336 0.038764 0.005155 0.009230
# 5 -0.001988 0.000210 0.000790 0.005155 0.022655 -0.004054
# 6 0.000110 0.003012 0.000480 0.009230 -0.004054 0.025092
#
#
# Mechanical properties :
#
#
# Convention : Reuss Voigt Hill
#
# Bulk Modulus (GPa) = 60.24001 64.38760 62.31381
# Shear Modulus (GPa) = 38.56002 48.01864 43.28933
#
# Velocity S-wave (km/s) = 3.71068 4.14085 3.93165
# Velocity P-wave (km/s) = 6.31423 6.77155 6.54688
#
# Compressibility (1/GPa) = 0.01660026
#
# Stress axis : x y z
#
# Youngs Moduli (GPa) = 127.91568 78.25449 153.49317
#
# Poissons Ratio (x) = 0.26495 0.03825
# Poissons Ratio (y) = 0.43310 0.24875
# Poissons Ratio (z) = 0.03188 0.12682
#
# Static dielectric constant tensor:
#      x y z
#    x 2.238390 0.110470 -0.049300 
#    y 0.110470 2.364870 -0.099510 
#    z -0.049300 -0.099510 2.317930 
# 
# From -- ./inp_files/307494.got.cif
#   From: 2010.05.17/outbox.cif.g08.bks.cpg/sg2_154_cif.got.tgz:307494.got - 2010.06.03 11:33:40.
