data_PCOD9111352
_publ_section_title
;
Structure prediction by ZEFSAII (Michael W. Deem and Ramdas Pophale) SiO2 
 PCOD9111352
Probable space group: P -1
;
_chemical_formula_sum "Si O2"
_cell_formula_units_Z 16
_cell_length_a 9.194458
_cell_length_b 16.698728
_cell_length_c 6.464275
_cell_angle_alpha 91.505715
_cell_angle_beta 131.663839
_cell_angle_gamma 93.749749
_cell_volume 736.619785
_symmetry_space_group_name_H-M "P -1"
_symmetry_group_IT_number 2
_symmetry_cell_setting 'triclinic'
loop_
_space_group_symop_operation_xyz
x,y,z
-x,-y,-z
loop_
_atom_site_type_symbol
_atom_site_label
_atom_site_fract_x
_atom_site_fract_y
_atom_site_fract_z
Si Si1 0.920129 0.751108 0.220402
Si Si2 0.419161 0.249747 0.368043
Si Si3 0.729064 0.357067 0.422773
Si Si4 0.411147 0.484432 0.661557
Si Si5 0.421949 0.308362 0.788465
Si Si6 0.183693 0.960923 0.082840
Si Si7 0.531309 0.087349 0.295939
Si Si8 0.901687 0.084408 0.402230
O O1 0.750288 0.720850 0.219788
O O2 0.086322 0.691501 0.379441
O O3 0.000626 0.842633 0.361848
O O4 0.807063 0.745494 0.896149
O O5 0.564722 0.325118 0.433283
O O6 0.446126 0.240896 0.635891
O O7 0.480566 0.176958 0.284099
O O8 0.752283 0.453484 0.477055
O O9 0.622549 0.331769 0.103703
O O10 0.500000 0.500000 0.500000
O O11 0.365792 0.388724 0.626256
O O12 0.500000 0.500000 0.000000
O O13 0.323311 0.929221 0.381339
O O14 0.329974 0.030390 0.115931
O O15 0.094014 0.893972 0.833384
O O16 0.000000 0.000000 0.000000
O O17 0.671477 0.074735 0.237959
O O18 0.000000 0.000000 0.500000
#
# Coordination Sequence:
#
# PCOD9111352 Si02
#       8
#     2   2   2   2   2   2   2   2
#     4  11  26  41  63 102 131 172 229 281 335 413
#     4  11  23  41  65  93 132 172 221 274 335 408
#     4  10  22  44  66  97 134 175 228 272 344 405
#     4  10  20  42  74 103 141 188 236 288 354 427
#     4  10  24  41  68  97 136 177 219 283 343 407
#     4  11  25  42  62  94 123 164 226 276 337 410
#     4  11  25  41  64  92 125 174 216 279 345 401
#     4  12  24  43  66  88 132 173 220 278 341 405
#
# _framework density 21.720841
#
# number of rings (size 3 to 8) (size 9 to 14) (size 15 to 20)
#    0.000    1.250    3.750    1.125    3.500    1.500 
#    0.000    0.625    0.000    0.000    0.000    0.000 
#    0.000    0.000    0.000    0.000    0.000    0.000 
#
# Total GULP energy -89075.576555 kJ/mol
# GULP energy per Si atom -5567.223535 kJ/mol
# Density = 2.167140 g / cm^3
# Si number density = 21.720841 Si / 1000 Ang^3
#
#
#
# Elastic Constant Matrix: (Units=GPa)
#
#
# Indices 1 2 3 4 5 6 
#
# 1 78.2420 28.9718 38.1276 1.1438 4.9364 -15.8040
# 2 28.9718 95.8382 9.8536 -18.9550 13.2120 -24.3138
# 3 38.1276 9.8536 83.5226 -7.0248 3.2899 -26.0511
# 4 1.1438 -18.9550 -7.0248 23.4579 -12.6894 4.2989
# 5 4.9364 13.2120 3.2899 -12.6894 38.4081 -5.1658
# 6 -15.8040 -24.3138 -26.0511 4.2989 -5.1658 40.7650
#
#
#
# Elastic Compliance Matrix: (Units=1/GPa)
#
#
# Indices 1 2 3 4 5 6 
#
# 1 0.020289 -0.007444 -0.009860 -0.011317 -0.003223 -0.002090
# 2 -0.007444 0.017338 0.005529 0.014625 0.000632 0.009527
# 3 -0.009860 0.005529 0.020213 0.010272 0.002593 0.011638
# 4 -0.011317 0.014625 0.010272 0.066946 0.018493 0.006183
# 5 -0.003223 0.000632 0.002593 0.018493 0.032518 0.002955
# 6 -0.002090 0.009527 0.011638 0.006183 0.002955 0.036562
#
#
# Mechanical properties :
#
#
# Convention : Reuss Voigt Hill
#
# Bulk Modulus (GPa) = 29.16287 45.72320 37.44304
# Shear Modulus (GPa) = 21.84865 32.56951 27.20908
#
# Velocity S-wave (km/s) = 3.17501 3.87649 3.54315
# Velocity P-wave (km/s) = 5.18616 6.41344 5.83218
#
# Compressibility (1/GPa) = 0.03429018
#
# Stress axis : x y z
#
# Youngs Moduli (GPa) = 49.28829 57.67569 49.47192
#
# Poissons Ratio (x) = 0.42933 0.48782
# Poissons Ratio (y) = 0.36690 -0.27354
# Poissons Ratio (z) = 0.48601 -0.31890
#
# Static dielectric constant tensor:
#      x y z
#    x 1.792860 0.053900 -0.077620 
#    y 0.053900 1.757390 -0.002690 
#    z -0.077620 -0.002690 1.868860 
# 
# From -- ./inp_files/48456.got.cif
#   From: 2010.05.17/outbox.cif.g08.bks.cpg/sg2_25_cif.got.tgz:48456.got - 2010.06.03 11:33:40.
