data_PCOD9111670
_publ_section_title
;
Structure prediction by ZEFSAII (Michael W. Deem and Ramdas Pophale) SiO2 
 PCOD9111670
Probable space group: P -1
;
_chemical_formula_sum "Si O2"
_cell_formula_units_Z 15
_cell_length_a 13.791451
_cell_length_b 11.307266
_cell_length_c 8.946343
_cell_angle_alpha 94.444352
_cell_angle_beta 84.615654
_cell_angle_gamma 31.060137
_cell_volume 681.934400
_symmetry_space_group_name_H-M "P -1"
_symmetry_group_IT_number 2
_symmetry_cell_setting 'triclinic'
loop_
_space_group_symop_operation_xyz
x,y,z
-x,-y,-z
loop_
_atom_site_type_symbol
_atom_site_label
_atom_site_fract_x
_atom_site_fract_y
_atom_site_fract_z
Si Si1 0.490150 0.133011 0.920208
Si Si2 0.049036 0.668305 0.440013
Si Si3 0.379493 0.146269 0.381871
Si Si4 0.653820 0.192342 0.472185
Si Si5 0.924043 0.344188 0.914440
Si Si6 0.000000 0.000000 0.000000
Si Si7 0.641231 0.068735 0.173405
Si Si8 0.783218 0.304845 0.370830
O O1 0.611273 0.976686 0.739599
O O2 0.262122 0.402741 0.950236
O O3 0.500000 0.000000 0.000000
O O4 0.572583 0.147674 0.019566
O O5 0.161010 0.432063 0.456157
O O6 0.121452 0.610914 0.252239
O O7 0.118188 0.698968 0.542917
O O8 0.812763 0.928879 0.481194
O O9 0.500000 0.000000 0.500000
O O10 0.510064 0.109111 0.276712
O O11 0.752950 0.216662 0.463459
O O12 0.442902 0.415368 0.603907
O O13 0.617915 0.204871 0.301215
O O14 0.125435 0.205189 0.889750
O O15 0.966714 0.168021 0.949340
O O16 0.904355 0.147941 0.189727
#
# Coordination Sequence:
#
# PCOD9111670 Si02
#       8
#     2   2   2   2   2   1   2   2
#     4  10  21  41  69  93 130 180 217 277 339 390
#     4  11  21  43  69  89 134 181 220 258 351 410
#     4  11  24  42  69  97 130 173 227 292 331 384
#     4  10  21  39  71  94 126 181 223 255 334 424
#     4  11  23  43  67 102 132 178 222 270 339 407
#     4  12  26  40  68 104 140 166 226 288 324 384
#     4  10  20  43  68  91 131 175 218 267 337 410
#     4  11  22  41  66  96 134 174 219 274 325 395
#
# _framework density 21.99625
#
# number of rings (size 3 to 8) (size 9 to 14) (size 15 to 20)
#    0.000    1.333    6.667    0.400    1.867    2.133 
#    0.000    8.000    2.933    0.000    0.000    0.000 
#    0.000    0.000    0.000    0.000    0.000    0.000 
#
# Total GULP energy -83501.078685 kJ/mol
# GULP energy per Si atom -5566.738579 kJ/mol
# Density = 2.194619 g / cm^3
# Si number density = 21.996250 Si / 1000 Ang^3
#
#
#
# Elastic Constant Matrix: (Units=GPa)
#
#
# Indices 1 2 3 4 5 6 
#
# 1 44.0235 13.6533 14.7985 2.7276 4.8793 -7.9857
# 2 13.6533 125.4308 15.3048 17.1092 -10.6342 -7.7924
# 3 14.7985 15.3048 62.0525 7.7962 10.1016 -12.4721
# 4 2.7276 17.1092 7.7962 35.1438 11.7017 -0.0435
# 5 4.8793 -10.6342 10.1016 11.7017 18.9505 -6.7583
# 6 -7.9857 -7.7924 -12.4721 -0.0435 -6.7583 25.4458
#
#
#
# Elastic Compliance Matrix: (Units=1/GPa)
#
#
# Indices 1 2 3 4 5 6 
#
# 1 0.026240 -0.003053 -0.004030 0.002554 -0.006625 0.003570
# 2 -0.003053 0.012014 -0.002514 -0.010999 0.017877 0.006218
# 3 -0.004030 -0.002514 0.020290 0.000155 -0.009348 0.005428
# 4 0.002554 -0.010999 0.000155 0.047120 -0.040725 -0.013227
# 5 -0.006625 0.017877 -0.009348 -0.040725 0.104044 0.026377
# 6 0.003570 0.006218 0.005428 -0.013227 0.026377 0.051967
#
#
# Mechanical properties :
#
#
# Convention : Reuss Voigt Hill
#
# Bulk Modulus (GPa) = 25.41215 35.44664 30.42940
# Shear Modulus (GPa) = 17.00770 28.42471 22.71621
#
# Velocity S-wave (km/s) = 2.78368 3.59869 3.21710
# Velocity P-wave (km/s) = 4.68080 5.78077 5.25962
#
# Compressibility (1/GPa) = 0.03935125
#
# Stress axis : x y z
#
# Youngs Moduli (GPa) = 38.10950 83.23824 49.28620
#
# Poissons Ratio (x) = 0.25412 0.19861
# Poissons Ratio (y) = 0.11634 0.12388
# Poissons Ratio (z) = 0.15357 0.20922
#
# Static dielectric constant tensor:
#      x y z
#    x 1.827900 -0.000300 0.034200 
#    y -0.000300 1.834180 0.002540 
#    z 0.034200 0.002540 1.832370 
# 
# From -- ./inp_files/307722.got.cif
#   From: 2010.05.17/outbox.cif.g08.bks.cpg/sg2_154_cif.got.tgz:307722.got - 2010.06.03 11:33:40.
