data_PCOD9111564
_publ_section_title
;
Structure prediction by ZEFSAII (Michael W. Deem and Ramdas Pophale) SiO2 
 PCOD9111564
Probable space group: P -1
;
_chemical_formula_sum "Si O2"
_cell_formula_units_Z 16
_cell_length_a 12.281136
_cell_length_b 15.914290
_cell_length_c 8.897660
_cell_angle_alpha 112.187398
_cell_angle_beta 80.927149
_cell_angle_gamma 149.567041
_cell_volume 761.571592
_symmetry_space_group_name_H-M "P -1"
_symmetry_group_IT_number 2
_symmetry_cell_setting 'triclinic'
loop_
_space_group_symop_operation_xyz
x,y,z
-x,-y,-z
loop_
_atom_site_type_symbol
_atom_site_label
_atom_site_fract_x
_atom_site_fract_y
_atom_site_fract_z
Si Si1 0.308477 0.109413 0.859162
Si Si2 0.584868 0.026621 0.837138
Si Si3 0.474470 0.642756 0.565197
Si Si4 0.189610 0.271386 0.388815
Si Si5 0.308647 0.322520 0.039907
Si Si6 0.756984 0.353938 0.518445
Si Si7 0.181753 0.965344 0.102014
Si Si8 0.757269 0.326764 0.848391
O O1 0.321315 0.223480 0.978452
O O2 0.568103 0.268164 0.877159
O O3 0.227015 0.986940 0.930638
O O4 0.086540 0.939592 0.682473
O O5 0.414312 0.835910 0.661178
O O6 0.804984 0.122006 0.882262
O O7 0.634122 0.146350 0.803931
O O8 0.500000 0.000000 0.000000
O O9 0.278666 0.434251 0.533918
O O10 0.675909 0.712143 0.541205
O O11 0.338437 0.611333 0.458185
O O12 0.615942 0.819513 0.748339
O O13 0.274467 0.327504 0.229084
O O14 0.500000 0.500000 0.000000
O O15 0.064533 0.169020 0.914194
O O16 0.786028 0.351531 0.682976
O O17 0.000000 0.500000 0.500000
O O18 0.000000 0.500000 0.000000
#
# Coordination Sequence:
#
# PCOD9111564 Si02
#       8
#     2   2   2   2   2   2   2   2
#     4  11  22  42  68  94 133 172 227 271 335 404
#     4  11  23  45  71  98 133 178 225 278 348 400
#     4  10  21  41  67  95 127 175 224 269 337 398
#     4  10  21  41  68  92 131 177 220 269 339 406
#     4  11  23  37  63  98 133 171 224 274 327 396
#     4  11  27  45  69  96 138 177 227 285 339 410
#     4  10  20  43  66  93 131 176 223 269 328 410
#     4  12  28  44  68 101 135 177 234 284 341 407
#
# _framework density 21.009187000000001
#
# number of rings (size 3 to 8) (size 9 to 14) (size 15 to 20)
#    0.000    1.250    3.750    1.875    7.000    1.000 
#    0.000    5.000    0.000    0.000    0.000    0.000 
#    0.000    0.000    0.000    0.000    0.000    0.000 
#
# Total GULP energy -89069.425864 kJ/mol
# GULP energy per Si atom -5566.839116 kJ/mol
# Density = 2.096137 g / cm^3
# Si number density = 21.009187 Si / 1000 Ang^3
#
#
#
# Elastic Constant Matrix: (Units=GPa)
#
#
# Indices 1 2 3 4 5 6 
#
# 1 164.8759 46.7478 56.9224 -4.6183 20.6193 1.9185
# 2 46.7478 72.0297 27.9420 -3.8955 12.2462 21.9398
# 3 56.9224 27.9420 64.0608 3.7242 16.6948 11.4878
# 4 -4.6183 -3.8955 3.7242 34.6172 -4.2451 3.9359
# 5 20.6193 12.2462 16.6948 -4.2451 28.2497 3.0025
# 6 1.9185 21.9398 11.4878 3.9359 3.0025 37.6793
#
#
#
# Elastic Compliance Matrix: (Units=1/GPa)
#
#
# Indices 1 2 3 4 5 6 
#
# 1 0.010131 -0.004810 -0.007450 0.000940 -0.001250 0.004557
# 2 -0.004810 0.022413 -0.002799 0.003212 -0.002786 -0.012066
# 3 -0.007450 -0.002799 0.027122 -0.004833 -0.009573 -0.004992
# 4 0.000940 0.003212 -0.004833 0.031090 0.005892 -0.004162
# 5 -0.001250 -0.002786 -0.009573 0.005892 0.044010 0.000482
# 6 0.004557 -0.012066 -0.004992 -0.004162 0.000482 0.035252
#
#
# Mechanical properties :
#
#
# Convention : Reuss Voigt Hill
#
# Bulk Modulus (GPa) = 33.84382 62.68785 48.26584
# Shear Modulus (GPa) = 23.81126 31.39950 27.60538
#
# Velocity S-wave (km/s) = 3.37021 3.87015 3.62880
# Velocity P-wave (km/s) = 5.59361 7.06214 6.37033
#
# Compressibility (1/GPa) = 0.02954749
#
# Stress axis : x y z
#
# Youngs Moduli (GPa) = 98.71142 44.61663 36.87029
#
# Poissons Ratio (x) = 0.21459 0.27469
# Poissons Ratio (y) = 0.47476 0.10322
# Poissons Ratio (z) = 0.73541 0.12490
#
# Static dielectric constant tensor:
#      x y z
#    x 0.183750 -0.546710 -0.425500 
#    y -0.546710 1.576830 -0.197040 
#    z -0.425500 -0.197040 1.704100 
# 
# From -- ./inp_files/273720.got.cif
#   From: 2010.05.17/outbox.cif.g08.bks.cpg/sg2_137_cif.got.tgz:273720.got - 2010.06.03 11:33:40.
