data_PCOD9111614
_publ_section_title
;
Structure prediction by ZEFSAII (Michael W. Deem and Ramdas Pophale) SiO2 
 PCOD9111614
Probable space group: P -1
;
_chemical_formula_sum "Si O2"
_cell_formula_units_Z 14
_cell_length_a 9.983360
_cell_length_b 8.112679
_cell_length_c 12.746788
_cell_angle_alpha 79.520443
_cell_angle_beta 103.594826
_cell_angle_gamma 45.443411
_cell_volume 618.926994
_symmetry_space_group_name_H-M "P -1"
_symmetry_group_IT_number 2
_symmetry_cell_setting 'triclinic'
loop_
_space_group_symop_operation_xyz
x,y,z
-x,-y,-z
loop_
_atom_site_type_symbol
_atom_site_label
_atom_site_fract_x
_atom_site_fract_y
_atom_site_fract_z
Si Si1 0.805702 0.948204 0.390025
Si Si2 0.123149 0.547253 0.059587
Si Si3 0.056640 0.622196 0.280563
Si Si4 0.109407 0.072147 0.211146
Si Si5 0.114054 0.584115 0.674824
Si Si6 0.439602 0.475265 0.381412
Si Si7 0.510754 0.023602 0.739911
O O1 0.015964 0.736288 0.528804
O O2 0.666974 0.904154 0.373248
O O3 0.893382 0.880585 0.295684
O O4 0.646051 0.240630 0.373441
O O5 0.041839 0.662973 0.148492
O O6 0.373754 0.244063 0.149193
O O7 0.000000 0.500000 0.000000
O O8 0.050061 0.752309 0.937711
O O9 0.999268 0.485821 0.310557
O O10 0.305054 0.431987 0.379672
O O11 0.963241 0.217495 0.271997
O O12 0.259713 0.767370 0.263685
O O13 0.287764 0.056509 0.256615
O O14 0.368532 0.291373 0.749248
O O15 0.500000 0.500000 0.500000
#
# Coordination Sequence:
#
# PCOD9111614 Si02
#       7
#     2   2   2   2   2   2   2
#     4  11  24  41  65  97 125 165 212 263 319 369
#     4  10  20  43  67  91 126 164 213 268 304 368
#     4  11  23  43  64  93 130 160 216 262 311 372
#     4  11  24  41  62  96 127 165 216 249 318 376
#     4  11  22  39  68  96 123 162 210 272 316 362
#     4  12  26  41  65  91 133 177 198 257 323 380
#     4  10  21  40  66  92 121 163 209 268 311 361
#
# _framework density 22.619793999999999
#
# number of rings (size 3 to 8) (size 9 to 14) (size 15 to 20)
#    0.000    1.143    5.714    1.714    4.000    4.000 
#    2.571    0.714    0.000    0.000    0.000    0.000 
#    0.000    0.000    0.000    0.000    0.000    0.000 
#
# Total GULP energy -78185.637273 kJ/mol
# GULP energy per Si atom -5584.688377 kJ/mol
# Density = 2.256831 g / cm^3
# Si number density = 22.619794 Si / 1000 Ang^3
#
#
#
# Elastic Constant Matrix: (Units=GPa)
#
#
# Indices 1 2 3 4 5 6 
#
# 1 37.8692 21.4078 1.7123 11.6390 11.1618 -10.1372
# 2 21.4078 208.8873 75.4024 2.3251 -17.7603 -29.4778
# 3 1.7123 75.4024 112.4055 13.5589 -7.3530 -12.3797
# 4 11.6390 2.3251 13.5589 48.6109 9.3466 -1.1842
# 5 11.1618 -17.7603 -7.3530 9.3466 11.8327 -5.4396
# 6 -10.1372 -29.4778 -12.3797 -1.1842 -5.4396 36.1344
#
#
#
# Elastic Compliance Matrix: (Units=1/GPa)
#
#
# Indices 1 2 3 4 5 6 
#
# 1 0.053261 -0.013403 0.002720 0.000837 -0.072031 -0.005876
# 2 -0.013403 0.012027 -0.004213 -0.002609 0.034612 0.009733
# 3 0.002720 -0.004213 0.012706 -0.004640 0.003626 0.002073
# 4 0.000837 -0.002609 -0.004640 0.027983 -0.033168 -0.007559
# 5 -0.072031 0.034612 0.003626 -0.033168 0.254215 0.046453
# 6 -0.005876 0.009733 0.002073 -0.007559 0.046453 0.041421
#
#
# Mechanical properties :
#
#
# Convention : Reuss Voigt Hill
#
# Bulk Modulus (GPa) = 20.74610 61.80077 41.27344
# Shear Modulus (GPa) = 11.17383 36.69157 23.93270
#
# Velocity S-wave (km/s) = 2.22499 4.03190 3.25629
# Velocity P-wave (km/s) = 3.97396 7.00399 5.69421
#
# Compressibility (1/GPa) = 0.04820183
#
# Stress axis : x y z
#
# Youngs Moduli (GPa) = 18.77538 83.14654 78.70209
#
# Poissons Ratio (x) = 1.11441 -0.21403
# Poissons Ratio (y) = 0.25165 0.33156
# Poissons Ratio (z) = -0.05106 0.35028
#
# Static dielectric constant tensor:
#      x y z
#    x 1.916870 0.033330 -0.008900 
#    y 0.033330 1.883850 -0.016260 
#    z -0.008900 -0.016260 1.845560 
# 
# From -- ./inp_files/279875.got.cif
#   From: 2010.05.17/outbox.cif.g08.bks.cpg/sg2_140_cif.got.tgz:279875.got - 2010.06.03 11:33:40.
