data_PCOD9111253
_publ_section_title
;
Structure prediction by ZEFSAII (Michael W. Deem and Ramdas Pophale) SiO2 
 PCOD9111253
Probable space group: P -1
;
_chemical_formula_sum "Si O2"
_cell_formula_units_Z 14
_cell_length_a 10.285322
_cell_length_b 9.001813
_cell_length_c 7.918524
_cell_angle_alpha 54.344394
_cell_angle_beta 87.505117
_cell_angle_gamma 66.646066
_cell_volume 529.339181
_symmetry_space_group_name_H-M "P -1"
_symmetry_group_IT_number 2
_symmetry_cell_setting 'triclinic'
loop_
_space_group_symop_operation_xyz
x,y,z
-x,-y,-z
loop_
_atom_site_type_symbol
_atom_site_label
_atom_site_fract_x
_atom_site_fract_y
_atom_site_fract_z
Si Si1 0.526256 0.162894 0.999030
Si Si2 0.355753 0.713275 0.383939
Si Si3 0.206331 0.504666 0.716784
Si Si4 0.220943 0.924404 0.770506
Si Si5 0.924769 0.780530 0.123544
Si Si6 0.187347 0.531932 0.056212
Si Si7 0.770554 0.911445 0.678256
O O1 0.644312 0.202023 0.857466
O O2 0.370408 0.361854 0.877910
O O3 0.622605 0.072687 0.218023
O O4 0.500000 0.000000 0.000000
O O5 0.500000 0.500000 0.500000
O O6 0.227632 0.665967 0.492151
O O7 0.369042 0.873176 0.407152
O O8 0.155666 0.355181 0.724908
O O9 0.108675 0.574491 0.845959
O O10 0.104019 0.059253 0.831026
O O11 0.160691 0.030698 0.523663
O O12 0.260171 0.684193 0.928336
O O13 0.088166 0.625846 0.163853
O O14 0.856006 0.870846 0.881229
O O15 0.254577 0.285632 0.229198
#
# Coordination Sequence:
#
# PCOD9111253 Si02
#       7
#     2   2   2   2   2   2   2
#     4  11  21  43  70  98 141 183 228 296 355 421
#     4  10  21  41  72 102 136 185 236 282 356 425
#     4  10  20  42  71 100 140 184 236 287 358 419
#     4  12  25  44  74 105 141 186 243 294 355 420
#     4  11  24  48  72 101 149 192 235 294 348 420
#     4  11  25  46  70 106 146 186 242 294 347 420
#     4  11  23  47  69 107 139 188 236 288 357 420
#
# _framework density 26.448070000000001
#
# number of rings (size 3 to 8) (size 9 to 14) (size 15 to 20)
#    0.000    1.143    4.286    3.000    0.000    2.857 
#    5.143    5.000    0.000    0.000    0.000    0.000 
#    0.000    0.000    0.000    0.000    0.000    0.000 
#
# Total GULP energy -78134.967923 kJ/mol
# GULP energy per Si atom -5581.069137 kJ/mol
# Density = 2.638787 g / cm^3
# Si number density = 26.448070 Si / 1000 Ang^3
#
#
#
# Elastic Constant Matrix: (Units=GPa)
#
#
# Indices 1 2 3 4 5 6 
#
# 1 48.2089 23.7315 41.2380 -10.8438 -9.6031 1.3189
# 2 23.7315 213.7803 61.2505 -21.7088 -8.0752 3.1401
# 3 41.2380 61.2505 126.2274 -2.7299 -30.7059 2.0119
# 4 -10.8438 -21.7088 -2.7299 46.7780 2.0636 -12.9907
# 5 -9.6031 -8.0752 -30.7059 2.0636 39.3537 0.9598
# 6 1.3189 3.1401 2.0119 -12.9907 0.9598 40.0003
#
#
#
# Elastic Compliance Matrix: (Units=1/GPa)
#
#
# Indices 1 2 3 4 5 6 
#
# 1 0.030800 0.000182 -0.010231 0.007174 -0.000851 0.001835
# 2 0.000182 0.005781 -0.003153 0.002779 -0.001391 0.000635
# 3 -0.010231 -0.003153 0.014850 -0.003797 0.008681 -0.001603
# 4 0.007174 0.002779 -0.003797 0.026543 -0.002238 0.008410
# 5 -0.000851 -0.001391 0.008681 -0.002238 0.031852 -0.001791
# 6 0.001835 0.000635 -0.001603 0.008410 -0.001791 0.027744
#
#
# Mechanical properties :
#
#
# Convention : Reuss Voigt Hill
#
# Bulk Modulus (GPa) = 39.95921 71.18408 55.57164
# Shear Modulus (GPa) = 29.01623 42.69283 35.85453
#
# Velocity S-wave (km/s) = 3.31585 4.02209 3.68592
# Velocity P-wave (km/s) = 5.45904 6.96726 6.25875
#
# Compressibility (1/GPa) = 0.02502552
#
# Stress axis : x y z
#
# Youngs Moduli (GPa) = 32.46806 172.97463 67.34017
#
# Poissons Ratio (x) = -0.03145 0.68899
# Poissons Ratio (y) = -0.00590 0.21232
# Poissons Ratio (z) = 0.33219 0.54538
#
# Static dielectric constant tensor:
#      x y z
#    x 2.310670 -0.092820 0.042400 
#    y -0.092820 2.161230 -0.011130 
#    z 0.042400 -0.011130 2.178680 
# 
# From -- ./inp_files/236602.got.cif
#   From: 2010.05.17/outbox.cif.g08.bks.cpg/sg2_119_cif.got.tgz:236602.got - 2010.06.03 11:33:40.
