data_PCOD9111441
_publ_section_title
;
Structure prediction by ZEFSAII (Michael W. Deem and Ramdas Pophale) SiO2 
 PCOD9111441
Probable space group: P -1
;
_chemical_formula_sum "Si O2"
_cell_formula_units_Z 16
_cell_length_a 22.647883
_cell_length_b 17.761861
_cell_length_c 7.846855
_cell_angle_alpha 139.629278
_cell_angle_beta 124.138392
_cell_angle_gamma 25.742645
_cell_volume 795.455066
_symmetry_space_group_name_H-M "P -1"
_symmetry_group_IT_number 2
_symmetry_cell_setting 'triclinic'
loop_
_space_group_symop_operation_xyz
x,y,z
-x,-y,-z
loop_
_atom_site_type_symbol
_atom_site_label
_atom_site_fract_x
_atom_site_fract_y
_atom_site_fract_z
Si Si1 0.262270 0.483655 0.657766
Si Si2 0.025126 0.296445 0.829504
Si Si3 0.581646 0.001658 0.468315
Si Si4 0.444646 0.207412 0.126874
Si Si5 0.786527 0.338705 0.663395
Si Si6 0.912820 0.057506 0.709742
Si Si7 0.752556 0.827482 0.141815
Si Si8 0.160068 0.485665 0.774884
O O1 0.340456 0.349915 0.373137
O O2 0.158732 0.530758 0.654803
O O3 0.406188 0.288598 0.686905
O O4 0.171044 0.735208 0.940994
O O5 0.162269 0.185734 0.821799
O O6 0.064162 0.110833 0.510111
O O7 0.881054 0.550299 0.926396
O O8 0.973545 0.374701 0.081596
O O9 0.665981 0.971358 0.430013
O O10 0.692559 0.809745 0.471996
O O11 0.573578 0.888481 0.163457
O O12 0.374800 0.412664 0.257188
O O13 0.617615 0.978810 0.063441
O O14 0.814300 0.209696 0.637788
O O15 0.822716 0.414894 0.929420
O O16 0.922609 0.125052 0.381753
#
# Coordination Sequence:
#
# PCOD9111441 Si02
#       8
#     2   2   2   2   2   2   2   2
#     4  10  17  26  46  75  96 117 152 192 235 273
#     4   9  17  31  49  68  94 126 156 187 225 279
#     4   9  17  30  47  68  95 123 154 193 232 269
#     4  10  19  32  49  71  96 120 154 198 235 266
#     4   8  16  31  48  67  94 125 153 186 231 278
#     4   9  17  30  47  69  96 124 154 186 227 280
#     4   9  17  30  50  70  88 123 163 189 224 275
#     4   8  15  28  48  70  91 120 156 191 227 270
#
# _framework density 20.114273000000001
#
# number of rings (size 3 to 8) (size 9 to 14) (size 15 to 20)
#    0.000    3.000    0.000    3.375    0.000    0.500 
#    0.000    3.125    0.000    3.000    0.000   35.000 
#    0.000    0.000    0.000    0.000    0.000    0.000 
#
# Total GULP energy -89132.257310 kJ/mol
# GULP energy per Si atom -5570.766082 kJ/mol
# Density = 2.006849 g / cm^3
# Si number density = 20.114273 Si / 1000 Ang^3
#
#
#
# Elastic Constant Matrix: (Units=GPa)
#
#
# Indices 1 2 3 4 5 6 
#
# 1 106.3989 19.3164 18.3594 -0.0718 -14.2208 -6.3622
# 2 19.3164 55.1710 10.5863 9.9981 -3.9646 4.4867
# 3 18.3594 10.5863 80.4970 19.4192 -8.0523 -3.3675
# 4 -0.0718 9.9981 19.4192 22.0116 5.8712 -0.2060
# 5 -14.2208 -3.9646 -8.0523 5.8712 23.9053 9.6925
# 6 -6.3622 4.4867 -3.3675 -0.2060 9.6925 26.6480
#
#
#
# Elastic Compliance Matrix: (Units=1/GPa)
#
#
# Indices 1 2 3 4 5 6 
#
# 1 0.011091 -0.003795 -0.002222 0.002693 0.003908 0.001606
# 2 -0.003795 0.023037 0.001951 -0.014685 0.009048 -0.007942
# 3 -0.002222 0.001951 0.018617 -0.020392 0.011424 -0.002819
# 4 0.002693 -0.014685 -0.020392 0.078834 -0.032292 0.012893
# 5 0.003908 0.009048 0.011424 -0.032292 0.067084 -0.023797
# 6 0.001606 -0.007942 -0.002819 0.012893 -0.023797 0.047646
#
#
# Mechanical properties :
#
#
# Convention : Reuss Voigt Hill
#
# Bulk Modulus (GPa) = 22.41433 37.62123 30.01778
# Shear Modulus (GPa) = 18.56588 27.43330 22.99959
#
# Velocity S-wave (km/s) = 3.04142 3.69707 3.38516
# Velocity P-wave (km/s) = 4.84782 6.08020 5.49864
#
# Compressibility (1/GPa) = 0.04461432
#
# Stress axis : x y z
#
# Youngs Moduli (GPa) = 90.16296 43.40856 53.71380
#
# Poissons Ratio (x) = 0.16472 0.11936
# Poissons Ratio (y) = 0.34213 -0.10481
# Poissons Ratio (z) = 0.20036 -0.08470
#
# Static dielectric constant tensor:
#      x y z
#    x 1.765610 0.071330 -0.055990 
#    y 0.071330 1.793630 -0.003560 
#    z -0.055990 -0.003560 1.749880 
# 
# From -- ./inp_files/337698.got.cif
#   From: 2010.05.17/outbox.cif.g08.bks.cpg/sg2_169_cif.got.tgz:337698.got - 2010.06.03 11:33:40.
