data_PCOD9111981
_publ_section_title
;
Structure prediction by ZEFSAII (Michael W. Deem and Ramdas Pophale) SiO2 
 PCOD9111981
Probable space group: P -1
;
_chemical_formula_sum "Si O2"
_cell_formula_units_Z 14
_cell_length_a 10.884648
_cell_length_b 10.946011
_cell_length_c 10.471984
_cell_angle_alpha 142.975244
_cell_angle_beta 56.546791
_cell_angle_gamma 125.972756
_cell_volume 599.290151
_symmetry_space_group_name_H-M "P -1"
_symmetry_group_IT_number 2
_symmetry_cell_setting 'triclinic'
loop_
_space_group_symop_operation_xyz
x,y,z
-x,-y,-z
loop_
_atom_site_type_symbol
_atom_site_label
_atom_site_fract_x
_atom_site_fract_y
_atom_site_fract_z
Si Si1 0.853224 0.741186 0.821146
Si Si2 0.622571 0.319543 0.675653
Si Si3 0.245220 0.942413 0.051167
Si Si4 0.356053 0.506904 0.906633
Si Si5 0.176417 0.946127 0.704448
Si Si6 0.062066 0.131773 0.700266
Si Si7 0.471617 0.710141 0.745020
O O1 0.752093 0.502280 0.678571
O O2 0.033749 0.785027 0.727418
O O3 0.795190 0.896609 0.891037
O O4 0.820454 0.828764 0.049888
O O5 0.464219 0.357288 0.754281
O O6 0.664682 0.109233 0.434671
O O7 0.648715 0.368542 0.853743
O O8 0.086621 0.828017 0.114620
O O9 0.372919 0.097265 0.198283
O O10 0.332307 0.777122 0.815303
O O11 0.198649 0.351300 0.808577
O O12 0.432391 0.667234 0.882247
O O13 0.119838 0.962914 0.608954
O O14 0.000000 0.000000 0.500000
O O15 0.500000 0.500000 0.500000
#
# Coordination Sequence:
#
# PCOD9111981 Si02
#       7
#     2   2   2   2   2   2   2
#     4  10  20  44  66 102 130 167 234 270 326 401
#     4  11  23  44  68 100 136 171 222 282 333 388
#     4  10  24  43  69  91 135 177 219 280 320 399
#     4  11  25  44  66 102 139 168 227 280 328 399
#     4  10  23  40  72  97 132 181 215 277 335 390
#     4  11  24  46  65 101 137 177 223 269 339 404
#     4  11  24  45  66  97 130 181 225 268 333 396
#
# _framework density 23.360972
#
# number of rings (size 3 to 8) (size 9 to 14) (size 15 to 20)
#    0.000    1.429    2.857    1.286    4.000    1.143 
#    5.143    0.000    0.000    0.000    0.000    0.000 
#    0.000    0.000    0.000    0.000    0.000    0.000 
#
# Total GULP energy -78248.301325 kJ/mol
# GULP energy per Si atom -5589.164380 kJ/mol
# Density = 2.330780 g / cm^3
# Si number density = 23.360972 Si / 1000 Ang^3
#
#
#
# Elastic Constant Matrix: (Units=GPa)
#
#
# Indices 1 2 3 4 5 6 
#
# 1 83.4522 10.8537 34.5263 -13.5239 -10.3179 14.0235
# 2 10.8537 64.8255 9.7459 1.8855 -2.4057 19.0092
# 3 34.5263 9.7459 83.2278 -0.3840 -25.8362 0.9741
# 4 -13.5239 1.8855 -0.3840 20.0269 6.4395 3.7106
# 5 -10.3179 -2.4057 -25.8362 6.4395 42.5601 -4.7317
# 6 14.0235 19.0092 0.9741 3.7106 -4.7317 47.9657
#
#
#
# Elastic Compliance Matrix: (Units=1/GPa)
#
#
# Indices 1 2 3 4 5 6 
#
# 1 0.018741 -0.000446 -0.008757 0.014987 -0.003805 -0.006660
# 2 -0.000446 0.017844 -0.002180 -0.000361 -0.001144 -0.006982
# 3 -0.008757 -0.002180 0.019396 -0.009978 0.011588 0.004945
# 4 0.014987 -0.000361 -0.009978 0.066226 -0.013632 -0.010504
# 5 -0.003805 -0.001144 0.011588 -0.013632 0.032225 0.005564
# 6 -0.006660 -0.006982 0.004945 -0.010504 0.005564 0.026823
#
#
# Mechanical properties :
#
#
# Convention : Reuss Voigt Hill
#
# Bulk Modulus (GPa) = 30.10487 37.97302 34.03895
# Shear Modulus (GPa) = 23.24592 33.86918 28.55755
#
# Velocity S-wave (km/s) = 3.15790 3.81178 3.50014
# Velocity P-wave (km/s) = 5.11969 5.97186 5.56212
#
# Compressibility (1/GPa) = 0.03321722
#
# Stress axis : x y z
#
# Youngs Moduli (GPa) = 53.35880 56.04194 51.55588
#
# Poissons Ratio (x) = 0.02497 0.45146
# Poissons Ratio (y) = 0.02378 0.11238
# Poissons Ratio (z) = 0.46724 0.12216
#
# Static dielectric constant tensor:
#      x y z
#    x 1.907470 -0.013250 0.055920 
#    y -0.013250 1.900720 -0.021690 
#    z 0.055920 -0.021690 1.984950 
# 
# From -- ./inp_files/429183.got.cif
#   From: 2010.05.17/outbox.cif.g08.bks.cpg/sg2_215_cif.got.tgz:429183.got - 2010.06.03 11:33:40.
