data_PCOD9111377
_publ_section_title
;
Structure prediction by ZEFSAII (Michael W. Deem and Ramdas Pophale) SiO2 
 PCOD9111377
Probable space group: P -1
;
_chemical_formula_sum "Si O2"
_cell_formula_units_Z 14
_cell_length_a 9.919013
_cell_length_b 11.431950
_cell_length_c 7.835789
_cell_angle_alpha 52.725868
_cell_angle_beta 47.329976
_cell_angle_gamma 70.317156
_cell_volume 515.730711
_symmetry_space_group_name_H-M "P -1"
_symmetry_group_IT_number 2
_symmetry_cell_setting 'triclinic'
loop_
_space_group_symop_operation_xyz
x,y,z
-x,-y,-z
loop_
_atom_site_type_symbol
_atom_site_label
_atom_site_fract_x
_atom_site_fract_y
_atom_site_fract_z
Si Si1 0.057219 0.375668 0.435930
Si Si2 0.468789 0.851085 0.800393
Si Si3 0.340588 0.615329 0.364450
Si Si4 0.202798 0.926162 0.556688
Si Si5 0.797861 0.992015 0.903758
Si Si6 0.327142 0.284248 0.534836
Si Si7 0.818164 0.417859 0.132426
O O1 0.155465 0.264112 0.564984
O O2 0.000000 0.500000 0.500000
O O3 0.864115 0.331113 0.542938
O O4 0.201179 0.468832 0.103072
O O5 0.500954 0.758263 0.685748
O O6 0.483554 0.736158 0.044543
O O7 0.629948 0.986844 0.558852
O O8 0.282106 0.918984 0.950154
O O9 0.341338 0.455132 0.422416
O O10 0.346497 0.600080 0.575005
O O11 0.156238 0.750467 0.787356
O O12 0.017155 0.996725 0.694788
O O13 0.257938 0.955719 0.283121
O O14 0.716083 0.823646 0.172381
O O15 0.000000 0.500000 0.000000
#
# Coordination Sequence:
#
# PCOD9111377 Si02
#       7
#     2   2   2   2   2   2   2
#     4   9  20  41  72 102 138 183 239 282 353 413
#     4  12  26  46  71 107 145 185 236 293 357 418
#     4  10  22  44  72 101 145 182 243 293 340 422
#     4  11  25  46  76 105 137 187 237 293 360 416
#     4  11  25  48  72 101 148 180 235 293 356 423
#     4  11  25  47  68 106 143 192 235 288 357 418
#     4  10  20  42  76 103 136 186 237 294 344 417
#
# _framework density 27.145949000000002
#
# number of rings (size 3 to 8) (size 9 to 14) (size 15 to 20)
#    0.000    1.429    1.429    3.857    2.000    2.857 
#   15.429    1.429    0.000    0.000    0.000    0.000 
#    0.000    0.000    0.000    0.000    0.000    0.000 
#
# Total GULP energy -78423.101965 kJ/mol
# GULP energy per Si atom -5601.650140 kJ/mol
# Density = 2.708416 g / cm^3
# Si number density = 27.145949 Si / 1000 Ang^3
#
#
#
# Elastic Constant Matrix: (Units=GPa)
#
#
# Indices 1 2 3 4 5 6 
#
# 1 74.8227 22.0485 6.2102 -4.7494 -4.3065 -17.5293
# 2 22.0485 145.3784 23.8796 11.4014 -11.0295 -7.1817
# 3 6.2102 23.8796 153.6570 -4.1007 2.6141 -0.4871
# 4 -4.7494 11.4014 -4.1007 59.9253 5.3454 -9.6478
# 5 -4.3065 -11.0295 2.6141 5.3454 36.3848 -3.4771
# 6 -17.5293 -7.1817 -0.4871 -9.6478 -3.4771 38.7998
#
#
#
# Elastic Compliance Matrix: (Units=1/GPa)
#
#
# Indices 1 2 3 4 5 6 
#
# 1 0.016079 -0.002111 -0.000251 0.002755 0.001613 0.007700
# 2 -0.002111 0.007747 -0.001211 -0.001912 0.002487 0.000213
# 3 -0.000251 -0.001211 0.006743 0.000736 -0.001005 -0.000160
# 4 0.002755 -0.001912 0.000736 0.018388 -0.002506 0.005248
# 5 0.001613 0.002487 -0.001005 -0.002506 0.029172 0.003167
# 6 0.007700 0.000213 -0.000160 0.005248 0.003167 0.030878
#
#
# Mechanical properties :
#
#
# Convention : Reuss Voigt Hill
#
# Bulk Modulus (GPa) = 42.69456 53.12607 47.91032
# Shear Modulus (GPa) = 40.33534 48.46997 44.40266
#
# Velocity S-wave (km/s) = 3.85888 4.23014 4.04877
# Velocity P-wave (km/s) = 5.96796 6.59331 6.28842
#
# Compressibility (1/GPa) = 0.02342219
#
# Stress axis : x y z
#
# Youngs Moduli (GPa) = 62.19155 129.08635 148.31028
#
# Poissons Ratio (x) = 0.27246 0.03728
# Poissons Ratio (y) = 0.13127 0.17964
# Poissons Ratio (z) = 0.01563 0.15636
#
# Static dielectric constant tensor:
#      x y z
#    x 2.206190 -0.062780 0.029910 
#    y -0.062780 2.089410 -0.020850 
#    z 0.029910 -0.020850 2.136000 
# 
# From -- ./inp_files/312284.got.cif
#   From: 2010.05.17/outbox.cif.g08.bks.cpg/sg2_157_cif.got.tgz:312284.got - 2010.06.03 11:33:40.
