data_PCOD9111724
_publ_section_title
;
Structure prediction by ZEFSAII (Michael W. Deem and Ramdas Pophale) SiO2 
 PCOD9111724
Probable space group: P -1
;
_chemical_formula_sum "Si O2"
_cell_formula_units_Z 13
_cell_length_a 10.639823
_cell_length_b 13.796570
_cell_length_c 9.165192
_cell_angle_alpha 68.503203
_cell_angle_beta 53.944503
_cell_angle_gamma 31.801844
_cell_volume 544.202588
_symmetry_space_group_name_H-M "P -1"
_symmetry_group_IT_number 2
_symmetry_cell_setting 'triclinic'
loop_
_space_group_symop_operation_xyz
x,y,z
-x,-y,-z
loop_
_atom_site_type_symbol
_atom_site_label
_atom_site_fract_x
_atom_site_fract_y
_atom_site_fract_z
Si Si1 0.635415 0.216409 0.759031
Si Si2 0.500000 0.500000 0.500000
Si Si3 0.959546 0.468744 0.886121
Si Si4 0.183682 0.168874 0.556431
Si Si5 0.886695 0.018546 0.217263
Si Si6 0.491361 0.939563 0.187804
Si Si7 0.735489 0.546608 0.531029
O O1 0.596976 0.339460 0.617522
O O2 0.592920 0.132562 0.746433
O O3 0.377582 0.367382 0.972949
O O4 0.937177 0.035615 0.736316
O O5 0.623797 0.507964 0.541422
O O6 0.186745 0.245163 0.860699
O O7 0.074280 0.487903 0.684178
O O8 0.000000 0.500000 0.000000
O O9 0.945367 0.392642 0.603644
O O10 0.500000 0.000000 0.500000
O O11 0.055948 0.136137 0.726589
O O12 0.260210 0.113915 0.362406
O O13 0.547390 0.231749 0.347859
O O14 0.000000 0.000000 0.000000
O O15 0.500000 0.000000 0.000000
#
# Coordination Sequence:
#
# PCOD9111724 Si02
#       7
#     2   1   2   2   2   2   2
#     4  11  25  45  77 112 156 195 259 321 385 455
#     4  12  22  44  78 116 152 184 254 328 392 440
#     4  10  20  43  69 110 141 190 243 305 378 448
#     4  12  28  49  74 112 151 205 256 311 390 467
#     4  12  30  51  71 111 158 206 257 317 391 460
#     4  11  24  43  76 111 150 194 257 314 382 454
#     4  12  26  48  78 108 153 199 252 321 384 458
#
# _framework density 23.888164
#
# number of rings (size 3 to 8) (size 9 to 14) (size 15 to 20)
#    0.000    0.615    6.154    1.846    6.462    3.692 
#    0.000    0.000    0.000    0.000    0.000    0.000 
#    0.000    0.000    0.000    0.000    0.000    0.000 
#
# Total GULP energy -72550.042803 kJ/mol
# GULP energy per Si atom -5580.772523 kJ/mol
# Density = 2.383379 g / cm^3
# Si number density = 23.888164 Si / 1000 Ang^3
#
#
#
# Elastic Constant Matrix: (Units=GPa)
#
#
# Indices 1 2 3 4 5 6 
#
# 1 68.3317 15.4767 12.8278 -14.8482 -0.9136 2.1830
# 2 15.4767 166.0677 64.9113 -16.1020 -12.1711 -16.4219
# 3 12.8278 64.9113 148.9246 -26.1344 -12.8806 6.7581
# 4 -14.8482 -16.1020 -26.1344 49.1769 -1.4410 -5.7802
# 5 -0.9136 -12.1711 -12.8806 -1.4410 18.0554 0.4285
# 6 2.1830 -16.4219 6.7581 -5.7802 0.4285 43.3719
#
#
#
# Elastic Compliance Matrix: (Units=1/GPa)
#
#
# Indices 1 2 3 4 5 6 
#
# 1 0.015857 -0.001057 -0.000082 0.004337 0.000392 -0.000611
# 2 -0.001057 0.008047 -0.003101 0.001197 0.003166 0.003712
# 3 -0.000082 -0.003101 0.009252 0.003766 0.004858 -0.002158
# 4 0.004337 0.001197 0.003766 0.024538 0.005603 0.002863
# 5 0.000392 0.003166 0.004858 0.005603 0.061439 0.000562
# 6 -0.000611 0.003712 -0.002158 0.002863 0.000562 0.025205
#
#
# Mechanical properties :
#
#
# Convention : Reuss Voigt Hill
#
# Bulk Modulus (GPa) = 40.52526 63.30619 51.91572
# Shear Modulus (GPa) = 31.04747 41.46138 36.25443
#
# Velocity S-wave (km/s) = 3.60905 4.17063 3.89996
# Velocity P-wave (km/s) = 5.86245 7.05342 6.48534
#
# Compressibility (1/GPa) = 0.02467597
#
# Stress axis : x y z
#
# Youngs Moduli (GPa) = 63.06524 124.26374 108.07960
#
# Poissons Ratio (x) = 0.13131 0.00891
# Poissons Ratio (y) = 0.06664 0.33517
# Poissons Ratio (z) = 0.00520 0.38535
#
# Static dielectric constant tensor:
#      x y z
#    x 2.015380 -0.046260 0.038540 
#    y -0.046260 1.947440 0.058040 
#    z 0.038540 0.058040 1.913250 
# 
# From -- ./inp_files/272079.got.cif
#   From: 2010.05.17/outbox.cif.g08.bks.cpg/sg2_137_cif.got.tgz:272079.got - 2010.06.03 11:33:40.
