data_PCOD9111873
_publ_section_title
;
Structure prediction by ZEFSAII (Michael W. Deem and Ramdas Pophale) SiO2 
 PCOD9111873
Probable space group: P -1
;
_chemical_formula_sum "Si O2"
_cell_formula_units_Z 13
_cell_length_a 7.722544
_cell_length_b 7.916728
_cell_length_c 18.499395
_cell_angle_alpha 70.657887
_cell_angle_beta 47.524782
_cell_angle_gamma 38.709013
_cell_volume 472.378282
_symmetry_space_group_name_H-M "P -1"
_symmetry_group_IT_number 2
_symmetry_cell_setting 'triclinic'
loop_
_space_group_symop_operation_xyz
x,y,z
-x,-y,-z
loop_
_atom_site_type_symbol
_atom_site_label
_atom_site_fract_x
_atom_site_fract_y
_atom_site_fract_z
Si Si1 0.334230 0.689755 0.593505
Si Si2 0.678366 0.675018 0.128510
Si Si3 0.638972 0.613328 0.924455
Si Si4 0.657336 0.159876 0.630361
Si Si5 0.500000 0.000000 0.500000
Si Si6 0.050738 0.255498 0.728783
Si Si7 0.979148 0.896501 0.857470
O O1 0.500000 0.500000 0.500000
O O2 0.871395 0.987788 0.668651
O O3 0.527050 0.764330 0.536834
O O4 0.427016 0.484578 0.654593
O O5 0.303813 0.980373 0.147942
O O6 0.926858 0.609734 0.134205
O O7 0.689153 0.451812 0.169182
O O8 0.000000 0.500000 0.000000
O O9 0.704248 0.570005 0.825404
O O10 0.500000 0.500000 0.000000
O O11 0.301429 0.927161 0.016981
O O12 0.439092 0.129167 0.660596
O O13 0.000000 0.000000 0.500000
O O14 0.103549 0.238924 0.630407
O O15 0.089247 0.032091 0.782634
#
# Coordination Sequence:
#
# PCOD9111873 Si02
#       7
#     2   2   2   2   1   2   2
#     4  10  22  44  68  94 133 177 236 294 354 414
#     4  10  20  43  73 102 144 183 230 300 356 440
#     4   9  20  41  68  99 140 178 231 289 363 423
#     4  10  21  45  67  94 133 179 236 289 360 409
#     4  12  24  44  72 102 142 192 250 298 358 434
#     4  11  24  43  69 104 141 193 241 303 357 435
#     4  10  23  44  69 108 139 184 238 289 365 432
#
# _framework density 27.520319000000001
#
# number of rings (size 3 to 8) (size 9 to 14) (size 15 to 20)
#    0.000    1.846    3.077    1.846    0.000    4.308 
#    0.000   32.308    0.000    0.000    0.000    0.000 
#    0.000    0.000    0.000    0.000    0.000    0.000 
#
# Total GULP energy -72398.447761 kJ/mol
# GULP energy per Si atom -5569.111366 kJ/mol
# Density = 2.745768 g / cm^3
# Si number density = 27.520319 Si / 1000 Ang^3
#
#
#
# Elastic Constant Matrix: (Units=GPa)
#
#
# Indices 1 2 3 4 5 6 
#
# 1 47.1940 32.2815 1.4746 -8.4435 -19.6846 13.7431
# 2 32.2815 164.3597 0.4755 -13.1170 -29.9864 -2.1824
# 3 1.4746 0.4755 140.1287 7.5068 4.4450 5.9616
# 4 -8.4435 -13.1170 7.5068 52.7962 18.1303 -17.4396
# 5 -19.6846 -29.9864 4.4450 18.1303 57.7357 -13.1071
# 6 13.7431 -2.1824 5.9616 -17.4396 -13.1071 52.6482
#
#
#
# Elastic Compliance Matrix: (Units=1/GPa)
#
#
# Indices 1 2 3 4 5 6 
#
# 1 0.028667 -0.004651 -0.000169 -0.000771 0.006165 -0.006377
# 2 -0.004651 0.007599 -0.000230 0.001133 0.002608 0.002580
# 3 -0.000169 -0.000230 0.007292 -0.001368 -0.000627 -0.001400
# 4 -0.000771 0.001133 -0.001368 0.023387 -0.005366 0.006814
# 5 0.006165 0.002608 -0.000627 -0.005366 0.023087 0.002540
# 6 -0.006377 0.002580 -0.001400 0.006814 0.002540 0.023814
#
#
# Mechanical properties :
#
#
# Convention : Reuss Voigt Hill
#
# Bulk Modulus (GPa) = 29.88911 46.68285 38.28598
# Shear Modulus (GPa) = 37.01024 53.79940 45.40482
#
# Velocity S-wave (km/s) = 3.67118 4.42622 4.06626
# Velocity P-wave (km/s) = 5.37163 6.56672 5.99900
#
# Compressibility (1/GPa) = 0.03345700
#
# Stress axis : x y z
#
# Youngs Moduli (GPa) = 34.88371 131.59594 137.14392
#
# Poissons Ratio (x) = 0.61208 0.02316
# Poissons Ratio (y) = 0.16225 0.03155
# Poissons Ratio (z) = 0.00589 0.03027
#
# Static dielectric constant tensor:
#      x y z
#    x 2.341050 -0.056740 -0.022350 
#    y -0.056740 2.161450 0.080410 
#    z -0.022350 0.080410 2.189290 
# 
# From -- ./inp_files/162951.got.cif
#   From: 2010.05.17/outbox.cif.g08.bks.cpg/sg2_82_cif.got.tgz:162951.got - 2010.06.03 11:33:40.
