data_PCOD9111069
_publ_section_title
;
Structure prediction by ZEFSAII (Michael W. Deem and Ramdas Pophale) SiO2 
 PCOD9111069
Probable space group: P -1
;
_chemical_formula_sum "Si O2"
_cell_formula_units_Z 16
_cell_length_a 21.537173
_cell_length_b 9.645634
_cell_length_c 9.342662
_cell_angle_alpha 149.598262
_cell_angle_beta 135.912661
_cell_angle_gamma 44.040311
_cell_volume 655.597008
_symmetry_space_group_name_H-M "P -1"
_symmetry_group_IT_number 2
_symmetry_cell_setting 'triclinic'
loop_
_space_group_symop_operation_xyz
x,y,z
-x,-y,-z
loop_
_atom_site_type_symbol
_atom_site_label
_atom_site_fract_x
_atom_site_fract_y
_atom_site_fract_z
Si Si1 0.849402 0.034211 0.216351
Si Si2 0.780702 0.877607 0.552045
Si Si3 0.404915 0.332192 0.420548
Si Si4 0.733771 0.658452 0.556897
Si Si5 0.042354 0.014913 0.387342
Si Si6 0.515876 0.797687 0.985959
Si Si7 0.292527 0.485855 0.086168
Si Si8 0.011767 0.355560 0.236270
O O1 0.793517 0.338499 0.329624
O O2 0.954392 0.934942 0.241717
O O3 0.865088 0.086842 0.456644
O O4 0.794885 0.805482 0.889808
O O5 0.716329 0.841627 0.546394
O O6 0.880261 0.823654 0.744022
O O7 0.742516 0.176720 0.678367
O O8 0.783756 0.645347 0.227353
O O9 0.354000 0.358687 0.511376
O O10 0.452449 0.583409 0.695131
O O11 0.329677 0.365944 0.196520
O O12 0.481439 0.026607 0.258511
O O13 0.014039 0.357725 0.646203
O O14 0.047020 0.855717 0.101351
O O15 0.620563 0.610498 0.966066
O O16 0.500000 0.000000 0.000000
O O17 0.000000 0.500000 0.500000
#
# Coordination Sequence:
#
# PCOD9111069 Si02
#       8
#     2   2   2   2   2   2   2   2
#     4  11  22  40  68  87 123 170 221 270 322 382
#     4  12  24  42  62  93 134 173 208 259 342 392
#     4  11  23  41  68  99 127 166 221 270 319 378
#     4  12  24  42  64  97 137 171 211 280 330 383
#     4  11  22  42  64  92 116 167 229 268 317 382
#     4  10  20  42  68  97 128 168 214 268 320 382
#     4  11  23  41  68  92 125 171 216 259 320 398
#     4  12  25  42  63  91 132 172 215 271 327 392
#
# _framework density 24.405238000000001
#
# number of rings (size 3 to 8) (size 9 to 14) (size 15 to 20)
#    0.000    0.750    2.500    7.125    0.000    5.000 
#    0.000    3.750    0.000    0.000    0.000    0.000 
#    0.000    0.000    0.000    0.000    0.000    0.000 
#
# Total GULP energy -89568.472484 kJ/mol
# GULP energy per Si atom -5598.029530 kJ/mol
# Density = 2.434969 g / cm^3
# Si number density = 24.405238 Si / 1000 Ang^3
#
#
#
# Elastic Constant Matrix: (Units=GPa)
#
#
# Indices 1 2 3 4 5 6 
#
# 1 74.4832 -1.0265 9.1368 0.4579 -5.8062 5.0739
# 2 -1.0265 44.9944 5.1559 7.0145 -0.7641 0.8942
# 3 9.1368 5.1559 121.0433 10.9340 3.3058 0.6827
# 4 0.4579 7.0145 10.9340 35.9375 -1.3221 -3.1572
# 5 -5.8062 -0.7641 3.3058 -1.3221 34.2282 -0.2398
# 6 5.0739 0.8942 0.6827 -3.1572 -0.2398 20.0575
#
#
#
# Elastic Compliance Matrix: (Units=1/GPa)
#
#
# Indices 1 2 3 4 5 6 
#
# 1 0.014004 0.000586 -0.001114 -0.000173 0.002465 -0.003529
# 2 0.000586 0.023051 -0.000626 -0.004461 0.000489 -0.001851
# 3 -0.001114 -0.000626 0.008638 -0.002569 -0.001139 -0.000402
# 4 -0.000173 -0.004461 -0.002569 0.029974 0.001312 0.005064
# 5 0.002465 0.000489 -0.001139 0.001312 0.029805 -0.000044
# 6 -0.003529 -0.001851 -0.000402 0.005064 -0.000044 0.051642
#
#
# Mechanical properties :
#
#
# Convention : Reuss Voigt Hill
#
# Bulk Modulus (GPa) = 23.04951 29.67258 26.36104
# Shear Modulus (GPa) = 28.75506 33.19495 30.97501
#
# Velocity S-wave (km/s) = 3.43626 3.69203 3.56644
# Velocity P-wave (km/s) = 5.02084 5.50994 5.27107
#
# Compressibility (1/GPa) = 0.04338488
#
# Stress axis : x y z
#
# Youngs Moduli (GPa) = 71.40751 43.38283 115.77177
#
# Poissons Ratio (x) = -0.02543 0.12895
# Poissons Ratio (y) = -0.04185 0.07248
# Poissons Ratio (z) = 0.07953 0.02716
#
# Static dielectric constant tensor:
#      x y z
#    x 2.018530 0.034030 -0.043320 
#    y 0.034030 1.949140 -0.042710 
#    z -0.043320 -0.042710 1.949020 
# 
# From -- ./inp_files/352528.got.cif
#   From: 2010.05.17/outbox.cif.g08.bks.cpg/sg2_177_cif.got.tgz:352528.got - 2010.06.03 11:33:40.
