data_PCOD9111469
_publ_section_title
;
Structure prediction by ZEFSAII (Michael W. Deem and Ramdas Pophale) SiO2 
 PCOD9111469
Probable space group: P -1
;
_chemical_formula_sum "Si O2"
_cell_formula_units_Z 16
_cell_length_a 9.139651
_cell_length_b 14.333805
_cell_length_c 8.560187
_cell_angle_alpha 62.793399
_cell_angle_beta 76.026475
_cell_angle_gamma 118.135599
_cell_volume 714.705217
_symmetry_space_group_name_H-M "P -1"
_symmetry_group_IT_number 2
_symmetry_cell_setting 'triclinic'
loop_
_space_group_symop_operation_xyz
x,y,z
-x,-y,-z
loop_
_atom_site_type_symbol
_atom_site_label
_atom_site_fract_x
_atom_site_fract_y
_atom_site_fract_z
Si Si1 0.316708 0.478939 0.146302
Si Si2 0.783953 0.355041 0.110394
Si Si3 0.272897 0.427616 0.566047
Si Si4 0.932492 0.154407 0.479203
Si Si5 0.717869 0.086436 0.293758
Si Si6 0.900921 0.861776 0.237757
Si Si7 0.546411 0.091904 0.772981
Si Si8 0.420067 0.683762 0.493780
O O1 0.301945 0.468691 0.345297
O O2 0.115702 0.320449 0.270410
O O3 0.500000 0.500000 0.000000
O O4 0.311725 0.597947 0.006905
O O5 0.796773 0.242682 0.130458
O O6 0.646565 0.291132 0.350235
O O7 0.000000 0.500000 0.000000
O O8 0.500000 0.500000 0.500000
O O9 0.104657 0.257148 0.751150
O O10 0.255506 0.519045 0.614069
O O11 0.855239 0.083621 0.381053
O O12 0.744700 0.133956 0.610430
O O13 0.000051 0.107986 0.637818
O O14 0.500000 0.000000 0.500000
O O15 0.653128 0.003509 0.212955
O O16 0.655263 0.760976 0.395587
O O17 0.000000 0.000000 0.000000
O O18 0.586326 0.230186 0.701966
O O19 0.500000 0.000000 0.000000
#
# Coordination Sequence:
#
# PCOD9111469 Si02
#       8
#     2   2   2   2   2   2   2   2
#     4  11  22  40  67  95 128 171 213 265 322 384
#     4  12  22  42  67  94 129 172 217 262 321 389
#     4   9  21  41  62  92 131 166 211 265 320 379
#     4  10  20  43  64  94 131 165 215 269 312 387
#     4  10  21  43  64  89 133 167 216 267 321 376
#     4  10  21  41  66  94 131 167 214 270 324 388
#     4  11  23  41  68  93 130 171 215 268 325 385
#     4  11  22  43  64  93 132 171 212 271 319 377
#
# _framework density 22.386851
#
# number of rings (size 3 to 8) (size 9 to 14) (size 15 to 20)
#    0.000    1.500    3.750    3.000    1.750    0.000 
#    9.000    6.250    0.000    0.000    0.000    0.000 
#    0.000    0.000    0.000    0.000    0.000    0.000 
#
# Total GULP energy -89244.725537 kJ/mol
# GULP energy per Si atom -5577.795346 kJ/mol
# Density = 2.233590 g / cm^3
# Si number density = 22.386851 Si / 1000 Ang^3
#
#
#
# Elastic Constant Matrix: (Units=GPa)
#
#
# Indices 1 2 3 4 5 6 
#
# 1 87.9400 30.7127 47.2008 -3.6193 19.4028 8.7626
# 2 30.7127 104.9617 38.4885 -15.6018 15.6168 5.1297
# 3 47.2008 38.4885 99.3888 -24.8411 18.2655 8.0852
# 4 -3.6193 -15.6018 -24.8411 29.4744 -1.5532 6.9664
# 5 19.4028 15.6168 18.2655 -1.5532 54.5304 -0.7503
# 6 8.7626 5.1297 8.0852 6.9664 -0.7503 37.1906
#
#
#
# Elastic Compliance Matrix: (Units=1/GPa)
#
#
# Indices 1 2 3 4 5 6 
#
# 1 0.016994 -0.002448 -0.008001 -0.005895 -0.002845 -0.000880
# 2 -0.002448 0.011971 -0.001803 0.004802 -0.001839 -0.001619
# 3 -0.008001 -0.001803 0.019313 0.015378 -0.002736 -0.005000
# 4 -0.005895 0.004802 0.015378 0.051452 -0.003133 -0.012318
# 5 -0.002845 -0.001839 -0.002736 -0.003133 0.020740 0.002524
# 6 -0.000880 -0.001619 -0.005000 -0.012318 0.002524 0.030764
#
#
# Mechanical properties :
#
#
# Convention : Reuss Voigt Hill
#
# Bulk Modulus (GPa) = 42.06587 58.34384 50.20485
# Shear Modulus (GPa) = 27.22350 35.96497 31.59423
#
# Velocity S-wave (km/s) = 3.49097 4.01249 3.76078
# Velocity P-wave (km/s) = 5.92287 6.89819 6.42905
#
# Compressibility (1/GPa) = 0.02377224
#
# Stress axis : x y z
#
# Youngs Moduli (GPa) = 58.84440 83.53185 51.77906
#
# Poissons Ratio (x) = 0.20452 0.41430
# Poissons Ratio (y) = 0.14408 0.09338
# Poissons Ratio (z) = 0.47083 0.15064
#
# Static dielectric constant tensor:
#      x y z
#    x 1.860460 -0.055430 0.001370 
#    y -0.055430 1.880540 -0.000890 
#    z 0.001370 -0.000890 1.815940 
# 
# From -- ./inp_files/188470.got.cif
#   From: 2010.05.17/outbox.cif.g08.bks.cpg/sg2_95_cif.got.tgz:188470.got - 2010.06.03 11:33:40.
