data_PCOD9111947
_publ_section_title
;
Structure prediction by ZEFSAII (Michael W. Deem and Ramdas Pophale) SiO2 
 PCOD9111947
Probable space group: P -1
;
_chemical_formula_sum "Si O2"
_cell_formula_units_Z 16
_cell_length_a 11.928012
_cell_length_b 7.161282
_cell_length_c 13.804719
_cell_angle_alpha 45.758737
_cell_angle_beta 82.342551
_cell_angle_gamma 112.695326
_cell_volume 618.242941
_symmetry_space_group_name_H-M "P -1"
_symmetry_group_IT_number 2
_symmetry_cell_setting 'triclinic'
loop_
_space_group_symop_operation_xyz
x,y,z
-x,-y,-z
loop_
_atom_site_type_symbol
_atom_site_label
_atom_site_fract_x
_atom_site_fract_y
_atom_site_fract_z
Si Si1 0.358447 0.761716 0.708623
Si Si2 0.673648 0.276765 0.571318
Si Si3 0.408186 0.412243 0.412183
Si Si4 0.001103 0.772967 0.341523
Si Si5 0.080438 0.949033 0.586048
Si Si6 0.667133 0.867291 0.889375
Si Si7 0.969406 0.655095 0.094618
Si Si8 0.295888 0.103825 0.894078
O O1 0.313035 0.443118 0.767340
O O2 0.199997 0.596340 0.840569
O O3 0.513346 0.911636 0.687777
O O4 0.407874 0.102723 0.528525
O O5 0.636515 0.523601 0.504337
O O6 0.829516 0.488682 0.416344
O O7 0.695713 0.170383 0.711783
O O8 0.561916 0.781254 0.223660
O O9 0.257851 0.237281 0.431285
O O10 0.000000 0.500000 0.500000
O O11 0.968664 0.979706 0.335157
O O12 0.173833 0.052536 0.177100
O O13 0.041478 0.584976 0.734039
O O14 0.000000 0.000000 0.500000
O O15 0.500000 0.500000 0.000000
O O16 0.677168 0.925630 0.983968
O O17 0.128373 0.804064 0.976428
O O18 0.000000 0.000000 0.000000
#
# Coordination Sequence:
#
# PCOD9111947 Si02
#       8
#     2   2   2   2   2   2   2   2
#     4  10  20  44  64  88 125 172 217 252 313 402
#     4  10  21  42  65  92 123 165 215 262 319 383
#     4  10  23  39  63  95 125 162 213 267 322 375
#     4   9  22  40  61  94 127 166 216 260 324 378
#     4  10  22  39  67  95 124 168 222 268 315 388
#     4  11  23  40  62  94 130 167 210 263 326 380
#     4   9  22  42  64  90 134 170 212 265 330 380
#     4  11  23  41  63  94 129 168 210 266 326 382
#
# _framework density 25.879792999999999
#
# number of rings (size 3 to 8) (size 9 to 14) (size 15 to 20)
#    0.000    2.000    1.250    0.750    7.000    1.500 
#    9.000    0.625    0.000    0.000    0.000    0.000 
#    0.000    0.000    0.000    0.000    0.000    0.000 
#
# Total GULP energy -89112.076315 kJ/mol
# GULP energy per Si atom -5569.504770 kJ/mol
# Density = 2.582089 g / cm^3
# Si number density = 25.879793 Si / 1000 Ang^3
#
#
#
# Elastic Constant Matrix: (Units=GPa)
#
#
# Indices 1 2 3 4 5 6 
#
# 1 154.4599 33.9560 79.4458 5.3786 -29.2110 20.1665
# 2 33.9560 46.1059 30.9670 1.1486 -10.8008 1.4022
# 3 79.4458 30.9670 131.5500 -11.8023 -41.3201 6.4429
# 4 5.3786 1.1486 -11.8023 29.6977 1.9459 -10.5196
# 5 -29.2110 -10.8008 -41.3201 1.9459 88.7811 -15.4138
# 6 20.1665 1.4022 6.4429 -10.5196 -15.4138 45.3566
#
#
#
# Elastic Compliance Matrix: (Units=1/GPa)
#
#
# Indices 1 2 3 4 5 6 
#
# 1 0.011594 -0.003924 -0.006568 -0.006584 -0.000587 -0.005827
# 2 -0.003924 0.027480 -0.004194 -0.001603 0.000350 0.001238
# 3 -0.006568 -0.004194 0.014571 0.008442 0.004713 0.004540
# 4 -0.006584 -0.001603 0.008442 0.042563 0.002824 0.012609
# 5 -0.000587 0.000350 0.004713 0.002824 0.014119 0.005034
# 6 -0.005827 0.001238 0.004540 0.012609 0.005034 0.028590
#
#
# Mechanical properties :
#
#
# Convention : Reuss Voigt Hill
#
# Bulk Modulus (GPa) = 41.19544 68.98370 55.08957
# Shear Modulus (GPa) = 28.34806 45.28354 36.81580
#
# Velocity S-wave (km/s) = 3.31323 4.18756 3.77579
# Velocity P-wave (km/s) = 5.53075 7.07772 6.35151
#
# Compressibility (1/GPa) = 0.02427453
#
# Stress axis : x y z
#
# Youngs Moduli (GPa) = 86.25202 36.39021 68.63028
#
# Poissons Ratio (x) = 0.14278 0.45075
# Poissons Ratio (y) = 0.33842 0.28781
# Poissons Ratio (z) = 0.56649 0.15261
#
# Static dielectric constant tensor:
#      x y z
#    x 2.062060 0.060770 -0.059530 
#    y 0.060770 2.076410 -0.010370 
#    z -0.059530 -0.010370 2.079990 
# 
# From -- ./inp_files/565688.got.cif
#   From: 2010.05.17/outbox.cif.g08.bks.cpg/sg2_283_cif.got.tgz:565688.got - 2010.06.03 11:33:40.
