data_PCOD9111373
_publ_section_title
;
Structure prediction by ZEFSAII (Michael W. Deem and Ramdas Pophale) SiO2 
 PCOD9111373
Probable space group: P -1
;
_chemical_formula_sum "Si O2"
_cell_formula_units_Z 12
_cell_length_a 11.047068
_cell_length_b 7.792608
_cell_length_c 7.284394
_cell_angle_alpha 79.537504
_cell_angle_beta 118.318843
_cell_angle_gamma 123.000286
_cell_volume 460.461773
_symmetry_space_group_name_H-M "P -1"
_symmetry_group_IT_number 2
_symmetry_cell_setting 'triclinic'
loop_
_space_group_symop_operation_xyz
x,y,z
-x,-y,-z
loop_
_atom_site_type_symbol
_atom_site_label
_atom_site_fract_x
_atom_site_fract_y
_atom_site_fract_z
Si Si1 0.490490 0.354577 0.357706
Si Si2 0.094920 0.667731 0.877040
Si Si3 0.846055 0.895950 0.037796
Si Si4 0.019373 0.820061 0.465085
Si Si5 0.594945 0.293970 0.087319
Si Si6 0.405211 0.071278 0.664822
O O1 0.500000 0.500000 0.500000
O O2 0.602405 0.425058 0.243943
O O3 0.494516 0.185964 0.521873
O O4 0.455980 0.917292 0.802371
O O5 0.000000 0.500000 0.000000
O O6 0.987972 0.647024 0.624250
O O7 0.245477 0.655097 0.918564
O O8 0.209825 0.936755 0.523131
O O9 0.892232 0.761832 0.223934
O O10 0.842658 0.094566 0.070560
O O11 0.000000 0.000000 0.000000
O O12 0.000000 0.000000 0.500000
O O13 0.314775 0.250868 0.159603
O O14 0.459741 0.233855 0.843209
#
# Coordination Sequence:
#
# PCOD9111373 Si02
#       6
#     2   2   2   2   2   2
#     4  12  26  44  77 110 149 200 254 304 371 451
#     4  10  23  45  79 113 148 197 256 314 378 447
#     4  11  22  44  78 108 155 197 244 311 385 448
#     4   9  18  39  74 106 144 189 241 304 379 442
#     4  10  22  44  73 106 149 192 249 312 377 445
#     4  10  20  42  75 106 139 190 245 309 381 445
#
# _framework density 26.060794000000001
#
# number of rings (size 3 to 8) (size 9 to 14) (size 15 to 20)
#    0.000    1.667    1.667    4.500    0.000    2.000 
#    0.000    5.833    7.333    0.000    0.000    0.000 
#    0.000    0.000    0.000    0.000    0.000    0.000 
#
# Total GULP energy -67063.305301 kJ/mol
# GULP energy per Si atom -5588.608775 kJ/mol
# Density = 2.600148 g / cm^3
# Si number density = 26.060794 Si / 1000 Ang^3
#
#
#
# Elastic Constant Matrix: (Units=GPa)
#
#
# Indices 1 2 3 4 5 6 
#
# 1 140.7880 64.6632 77.9512 -0.5023 -19.4162 8.6014
# 2 64.6632 115.5953 78.6583 8.2806 -3.3160 -10.5966
# 3 77.9512 78.6583 225.4142 -12.8803 -3.5144 18.6681
# 4 -0.5023 8.2806 -12.8803 53.0257 -0.4688 -14.9637
# 5 -19.4162 -3.3160 -3.5144 -0.4688 59.4718 -3.9030
# 6 8.6014 -10.5966 18.6681 -14.9637 -3.9030 36.7954
#
#
#
# Elastic Compliance Matrix: (Units=1/GPa)
#
#
# Indices 1 2 3 4 5 6 
#
# 1 0.011029 -0.005149 -0.001741 -0.000333 0.003012 -0.002993
# 2 -0.005149 0.015086 -0.004156 -0.001444 -0.000637 0.007002
# 3 -0.001741 -0.004156 0.006867 0.001208 -0.000638 -0.003850
# 4 -0.000333 -0.001444 0.001208 0.021608 0.000571 0.007897
# 5 0.003012 -0.000637 -0.000638 0.000571 0.017832 0.001560
# 6 -0.002993 0.007002 -0.003850 0.007897 0.001560 0.035224
#
#
# Mechanical properties :
#
#
# Convention : Reuss Voigt Hill
#
# Bulk Modulus (GPa) = 91.83424 102.70477 97.26950
# Shear Modulus (GPa) = 37.49042 47.22687 42.35864
#
# Velocity S-wave (km/s) = 3.79697 4.26159 4.03597
# Velocity P-wave (km/s) = 7.38496 7.98186 7.68920
#
# Compressibility (1/GPa) = 0.01088918
#
# Stress axis : x y z
#
# Youngs Moduli (GPa) = 90.67127 66.28608 145.62932
#
# Poissons Ratio (x) = 0.34128 0.25361
# Poissons Ratio (y) = 0.46683 0.60526
# Poissons Ratio (z) = 0.15790 0.27550
#
# Static dielectric constant tensor:
#      x y z
#    x 2.033630 -0.029110 0.013830 
#    y -0.029110 2.225090 0.074200 
#    z 0.013830 0.074200 2.171400 
# 
# From -- ./inp_files/87247.got.cif
#   From: 2010.05.17/outbox.cif.g08.bks.cpg/sg2_44_cif.got.tgz:87247.got - 2010.06.03 11:33:40.
