data_PCOD9111454
_publ_section_title
;
Structure prediction by ZEFSAII (Michael W. Deem and Ramdas Pophale) SiO2 
 PCOD9111454
Probable space group: P -1
;
_chemical_formula_sum "Si O2"
_cell_formula_units_Z 14
_cell_length_a 30.940121
_cell_length_b 9.124368
_cell_length_c 24.888697
_cell_angle_alpha 31.281475
_cell_angle_beta 10.248225
_cell_angle_gamma 31.499435
_cell_volume 643.905669
_symmetry_space_group_name_H-M "P -1"
_symmetry_group_IT_number 2
_symmetry_cell_setting 'triclinic'
loop_
_space_group_symop_operation_xyz
x,y,z
-x,-y,-z
loop_
_atom_site_type_symbol
_atom_site_label
_atom_site_fract_x
_atom_site_fract_y
_atom_site_fract_z
Si Si1 0.814091 0.641335 0.346673
Si Si2 0.058733 0.509586 0.200039
Si Si3 0.629752 0.042744 0.271130
Si Si4 0.762092 0.006947 0.928418
Si Si5 0.751868 0.623048 0.164918
Si Si6 0.296964 0.987633 0.296597
Si Si7 0.443639 0.558755 0.111570
O O1 0.586548 0.855289 0.538559
O O2 0.940927 0.675984 0.238584
O O3 0.719311 0.332822 0.565118
O O4 0.021416 0.608383 0.057109
O O5 0.836993 0.390519 0.540917
O O6 0.236313 0.244352 0.039414
O O7 0.194683 0.716537 0.006263
O O8 0.500000 0.000000 0.500000
O O9 0.763148 0.760501 0.167010
O O10 0.029866 0.106961 0.564206
O O11 0.557075 0.271272 0.092936
O O12 0.761758 0.866012 0.031497
O O13 0.500000 0.500000 0.500000
O O14 0.396588 0.185975 0.155643
O O15 0.500000 0.000000 0.000000
O O16 0.500000 0.500000 0.000000
#
# Coordination Sequence:
#
# PCOD9111454 Si02
#       7
#     2   2   2   2   2   2   2
#     4  10  24  45  67  91 134 169 212 264 312 386
#     4  10  24  44  62  97 130 166 217 262 314 378
#     4  12  26  42  70  98 126 167 212 266 327 375
#     4  10  23  42  65  88 129 172 215 259 314 388
#     4  10  23  44  70  95 123 170 214 259 325 380
#     4  10  20  43  64  88 127 174 211 253 323 370
#     4  12  25  37  62  98 129 167 213 264 314 373
#
# _framework density 21.742315000000001
#
# number of rings (size 3 to 8) (size 9 to 14) (size 15 to 20)
#    0.000    1.714    2.857    3.000    6.000    5.714 
#    0.000    0.000    0.000    0.000    0.000    0.000 
#    0.000    0.000    0.000    0.000    0.000    0.000 
#
# Total GULP energy -78159.634037 kJ/mol
# GULP energy per Si atom -5582.831003 kJ/mol
# Density = 2.169283 g / cm^3
# Si number density = 21.742315 Si / 1000 Ang^3
#
#
#
# Elastic Constant Matrix: (Units=GPa)
#
#
# Indices 1 2 3 4 5 6 
#
# 1 14.5790 -66.5174 24.8629 -19.2629 35.2632 18.5099
# 2 -66.5174 -83.2934 47.4037 -35.9608 40.9099 -6.3218
# 3 24.8629 47.4037 98.8911 0.8474 -4.8575 24.9600
# 4 -19.2629 -35.9608 0.8474 24.3418 22.3312 -13.3603
# 5 35.2632 40.9099 -4.8575 22.3312 16.6349 6.7168
# 6 18.5099 -6.3218 24.9600 -13.3603 6.7168 46.0042
#
#
#
# Elastic Compliance Matrix: (Units=1/GPa)
#
#
# Indices 1 2 3 4 5 6 
#
# 1 0.021342 -0.011474 0.003669 -0.006856 -0.001100 -0.013985
# 2 -0.011474 0.008731 -0.000692 -0.010025 0.015707 0.000987
# 3 0.003669 -0.000692 0.010611 0.003527 -0.005489 -0.005503
# 4 -0.006856 -0.010025 0.003527 0.031738 -0.006264 0.009599
# 5 -0.001100 0.015707 -0.005489 -0.006264 0.030929 -0.000755
# 6 -0.013985 0.000987 -0.005503 0.009599 -0.000755 0.033383
#
#
# Mechanical properties :
#
#
# Convention : Reuss Voigt Hill
#
# Bulk Modulus (GPa) = 42.21478 4.63057 23.42268
# Shear Modulus (GPa) = 30.93577 19.02467 24.98022
#
# Velocity S-wave (km/s) = 3.77614 2.96126 3.39325
# Velocity P-wave (km/s) = 6.20246 3.71839 5.11356
#
# Compressibility (1/GPa) = 0.02368839
#
# Stress axis : x y z
#
# Youngs Moduli (GPa) = 46.85683 114.52995 94.24560
#
# Poissons Ratio (x) = 1.31413 -0.34578
# Poissons Ratio (y) = 0.53764 0.06525
# Poissons Ratio (z) = -0.17191 0.07930
#
# Static dielectric constant tensor:
#      x y z
#    x 1.728990 0.015220 0.074230 
#    y 0.015220 1.689970 0.014220 
#    z 0.074230 0.014220 1.824340 
# 
# From -- ./inp_files/313495.got.cif
#   From: 2010.05.17/outbox.cif.g08.bks.cpg/sg2_157_cif.got.tgz:313495.got - 2010.06.03 11:33:40.
