data_PCOD9111084
_publ_section_title
;
Structure prediction by ZEFSAII (Michael W. Deem and Ramdas Pophale) SiO2 
 PCOD9111084
Probable space group: P -1
;
_chemical_formula_sum "Si O2"
_cell_formula_units_Z 16
_cell_length_a 8.661407
_cell_length_b 9.090027
_cell_length_c 11.413485
_cell_angle_alpha 75.969375
_cell_angle_beta 56.832728
_cell_angle_gamma 67.169217
_cell_volume 692.744909
_symmetry_space_group_name_H-M "P -1"
_symmetry_group_IT_number 2
_symmetry_cell_setting 'triclinic'
loop_
_space_group_symop_operation_xyz
x,y,z
-x,-y,-z
loop_
_atom_site_type_symbol
_atom_site_label
_atom_site_fract_x
_atom_site_fract_y
_atom_site_fract_z
Si Si1 0.169869 0.334533 0.968341
Si Si2 0.135765 0.011920 0.046020
Si Si3 0.050025 0.457106 0.623099
Si Si4 0.113631 0.948799 0.312179
Si Si5 0.541414 0.916979 0.773412
Si Si6 0.619461 0.778412 0.348182
Si Si7 0.341651 0.415819 0.113497
Si Si8 0.207493 0.744508 0.527497
O O1 0.281823 0.288833 0.806445
O O2 0.076429 0.197618 0.066169
O O3 0.306420 0.340676 0.019060
O O4 0.000000 0.500000 0.000000
O O5 0.118506 0.909203 0.182894
O O6 0.359183 0.963941 0.927061
O O7 0.000000 0.000000 0.000000
O O8 0.860565 0.467650 0.776111
O O9 0.000000 0.500000 0.500000
O O10 0.218681 0.290926 0.607825
O O11 0.134661 0.595169 0.612875
O O12 0.283183 0.025673 0.261008
O O13 0.915140 0.089582 0.392618
O O14 0.153175 0.793978 0.405143
O O15 0.601281 0.726028 0.785484
O O16 0.461854 0.029178 0.671958
O O17 0.434061 0.718169 0.456646
O O18 0.500000 0.500000 0.000000
#
# Coordination Sequence:
#
# PCOD9111084 Si02
#       8
#     2   2   2   2   2   2   2   2
#     4  11  23  44  71  97 145 183 233 299 349 423
#     4  11  24  39  67 104 141 180 232 294 356 419
#     4  12  26  47  65 102 149 181 234 299 349 427
#     4  10  20  42  68  98 132 184 228 284 354 422
#     4  10  22  43  69  98 139 178 235 295 342 422
#     4  10  24  43  73 102 133 189 236 287 365 418
#     4  12  27  45  73 104 140 190 241 290 361 418
#     4  10  22  41  71  95 131 185 236 277 353 429
#
# _framework density 23.096523999999999
#
# number of rings (size 3 to 8) (size 9 to 14) (size 15 to 20)
#    0.000    1.250    3.750    0.750    7.000    2.000 
#    2.250    0.625    0.000    0.000    0.000    0.000 
#    0.000    0.000    0.000    0.000    0.000    0.000 
#
# Total GULP energy -89501.872806 kJ/mol
# GULP energy per Si atom -5593.867050 kJ/mol
# Density = 2.304396 g / cm^3
# Si number density = 23.096524 Si / 1000 Ang^3
#
#
#
# Elastic Constant Matrix: (Units=GPa)
#
#
# Indices 1 2 3 4 5 6 
#
# 1 99.1377 51.6949 55.3995 -14.0166 -4.3862 -14.9833
# 2 51.6949 104.8431 0.8041 -25.3519 -17.0673 -14.9539
# 3 55.3995 0.8041 91.4625 -12.2528 -11.6840 -9.9790
# 4 -14.0166 -25.3519 -12.2528 28.2276 -3.0438 -7.9560
# 5 -4.3862 -17.0673 -11.6840 -3.0438 38.4873 -1.9894
# 6 -14.9833 -14.9539 -9.9790 -7.9560 -1.9894 42.8722
#
#
#
# Elastic Compliance Matrix: (Units=1/GPa)
#
#
# Indices 1 2 3 4 5 6 
#
# 1 0.031846 -0.024448 -0.024895 -0.020983 -0.016836 -0.007867
# 2 -0.024448 0.038908 0.025778 0.042556 0.026701 0.020163
# 3 -0.024895 0.025778 0.034726 0.032655 0.022519 0.015479
# 4 -0.020983 0.042556 0.032655 0.090673 0.035300 0.033576
# 5 -0.016836 0.026701 0.022519 0.035300 0.046431 0.017377
# 6 -0.007867 0.020163 0.015479 0.033576 0.017377 0.038249
#
#
# Mechanical properties :
#
#
# Convention : Reuss Voigt Hill
#
# Bulk Modulus (GPa) = 17.13757 56.80448 36.97103
# Shear Modulus (GPa) = 14.39218 34.42041 24.40630
#
# Velocity S-wave (km/s) = 2.49897 3.86461 3.25423
# Velocity P-wave (km/s) = 3.97021 6.67543 5.49199
#
# Compressibility (1/GPa) = 0.05835134
#
# Stress axis : x y z
#
# Youngs Moduli (GPa) = 31.40102 25.70172 28.79702
#
# Poissons Ratio (x) = 0.62835 0.71689
# Poissons Ratio (y) = 0.76769 -0.74234
# Poissons Ratio (z) = 0.78171 -0.66254
#
# Static dielectric constant tensor:
#      x y z
#    x 1.906920 0.090600 0.059930 
#    y 0.090600 2.046560 0.035260 
#    z 0.059930 0.035260 1.898600 
# 
# From -- ./inp_files/381616.got.cif
#   From: 2010.05.17/outbox.cif.g08.bks.cpg/sg2_191_cif.got.tgz:381616.got - 2010.06.03 11:33:40.
