data_PCOD9111041
_publ_section_title
;
Structure prediction by ZEFSAII (Michael W. Deem and Ramdas Pophale) SiO2 
 PCOD9111041
Probable space group: P -1
;
_chemical_formula_sum "Si O2"
_cell_formula_units_Z 14
_cell_length_a 26.982752
_cell_length_b 9.441576
_cell_length_c 9.930528
_cell_angle_alpha 66.647342
_cell_angle_beta 145.258425
_cell_angle_gamma 139.954154
_cell_volume 716.917361
_symmetry_space_group_name_H-M "P -1"
_symmetry_group_IT_number 2
_symmetry_cell_setting 'triclinic'
loop_
_space_group_symop_operation_xyz
x,y,z
-x,-y,-z
loop_
_atom_site_type_symbol
_atom_site_label
_atom_site_fract_x
_atom_site_fract_y
_atom_site_fract_z
Si Si1 0.075902 0.452743 0.233955
Si Si2 0.321527 0.709415 0.457366
Si Si3 0.490431 0.304845 0.032138
Si Si4 0.162959 0.709638 0.615057
Si Si5 0.550610 0.226016 0.939800
Si Si6 0.925814 0.621924 0.200894
Si Si7 0.066822 0.133140 0.449562
O O1 0.192136 0.571554 0.330687
O O2 0.156463 0.617789 0.492142
O O3 0.984105 0.160074 0.185410
O O4 0.000000 0.500000 0.000000
O O5 0.372120 0.609763 0.644799
O O6 0.468488 0.050538 0.681886
O O7 0.231857 0.583127 0.162779
O O8 0.500000 0.500000 0.000000
O O9 0.474988 0.246660 0.858314
O O10 0.342301 0.036530 0.896624
O O11 0.121508 0.529792 0.707808
O O12 0.039330 0.667232 0.362306
O O13 0.740126 0.546582 0.232310
O O14 0.500000 0.000000 0.000000
O O15 0.024914 0.923303 0.343442
O O16 0.000000 0.000000 0.500000
#
# Coordination Sequence:
#
# PCOD9111041 Si02
#       7
#     2   2   2   2   2   2   2
#     4  12  22  42  71  99 135 185 235 278 346 419
#     4  11  23  43  70 101 133 180 234 283 337 417
#     4  11  22  39  68  98 134 182 233 283 342 409
#     4  11  23  43  67  95 141 191 220 283 362 414
#     4  10  20  42  68  94 131 182 226 276 346 410
#     4  11  26  42  67 103 143 175 237 289 349 408
#     4  12  24  43  70 100 139 184 228 284 352 415
#
# _framework density 19.528051000000001
#
# number of rings (size 3 to 8) (size 9 to 14) (size 15 to 20)
#    0.000    0.857    7.143    1.714    0.000    2.286 
#    0.000    0.000    0.000    5.143    0.000    0.000 
#    0.000    0.000    0.000    0.000    0.000    0.000 
#
# Total GULP energy -78000.276017 kJ/mol
# GULP energy per Si atom -5571.448287 kJ/mol
# Density = 1.948360 g / cm^3
# Si number density = 19.528051 Si / 1000 Ang^3
#
#
#
# Elastic Constant Matrix: (Units=GPa)
#
#
# Indices 1 2 3 4 5 6 
#
# 1 72.9880 51.3421 35.6934 2.4977 0.1961 -26.2383
# 2 51.3421 132.0832 53.4840 3.8060 9.2547 -28.4263
# 3 35.6934 53.4840 104.3848 -2.2669 -6.5151 -14.4003
# 4 2.4977 3.8060 -2.2669 33.9766 -4.0327 7.2541
# 5 0.1961 9.2547 -6.5151 -4.0327 35.9463 4.2570
# 6 -26.2383 -28.4263 -14.4003 7.2541 4.2570 43.9097
#
#
#
# Elastic Compliance Matrix: (Units=1/GPa)
#
#
# Indices 1 2 3 4 5 6 
#
# 1 0.022813 -0.004914 -0.004079 -0.003636 -0.001170 0.009827
# 2 -0.004914 0.012825 -0.004602 -0.003012 -0.005020 0.004841
# 3 -0.004079 -0.004602 0.013392 0.002597 0.004145 -0.001856
# 4 -0.003636 -0.003012 0.002597 0.032914 0.006059 -0.009296
# 5 -0.001170 -0.005020 0.004145 0.006059 0.031334 -0.006629
# 6 0.009827 0.004841 -0.001856 -0.009296 -0.006629 0.033350
#
#
# Mechanical properties :
#
#
# Convention : Reuss Voigt Hill
#
# Bulk Modulus (GPa) = 45.78865 65.61053 55.69959
# Shear Modulus (GPa) = 27.60950 34.02895 30.81923
#
# Velocity S-wave (km/s) = 3.76418 4.17894 3.97697
# Velocity P-wave (km/s) = 6.51081 7.54690 7.04792
#
# Compressibility (1/GPa) = 0.02183948
#
# Stress axis : x y z
#
# Youngs Moduli (GPa) = 43.83547 77.97249 74.67331
#
# Poissons Ratio (x) = 0.38317 0.30459
# Poissons Ratio (y) = 0.21542 0.34363
# Poissons Ratio (z) = 0.17880 0.35881
#
# Static dielectric constant tensor:
#      x y z
#    x 1.715180 -0.043550 -0.021190 
#    y -0.043550 1.745920 0.010820 
#    z -0.021190 0.010820 1.771410 
# 
# From -- ./inp_files/352157.got.cif
#   From: 2010.05.17/outbox.cif.g08.bks.cpg/sg2_177_cif.got.tgz:352157.got - 2010.06.03 11:33:40.
