data_PCOD9111964
_publ_section_title
;
Structure prediction by ZEFSAII (Michael W. Deem and Ramdas Pophale) SiO2 
 PCOD9111964
Probable space group: P -1
;
_chemical_formula_sum "Si O2"
_cell_formula_units_Z 16
_cell_length_a 4.815138
_cell_length_b 10.705899
_cell_length_c 11.396757
_cell_angle_alpha 87.647969
_cell_angle_beta 71.482413
_cell_angle_gamma 87.460094
_cell_volume 556.316892
_symmetry_space_group_name_H-M "P -1"
_symmetry_group_IT_number 2
_symmetry_cell_setting 'triclinic'
loop_
_space_group_symop_operation_xyz
x,y,z
-x,-y,-z
loop_
_atom_site_type_symbol
_atom_site_label
_atom_site_fract_x
_atom_site_fract_y
_atom_site_fract_z
Si Si1 0.934769 0.894147 0.885437
Si Si2 0.605180 0.117227 0.868267
Si Si3 0.896801 0.506591 0.379544
Si Si4 0.894579 0.742793 0.688499
Si Si5 0.552778 0.397461 0.838183
Si Si6 0.668513 0.351158 0.096606
Si Si7 0.319855 0.242530 0.549294
Si Si8 0.804024 0.082192 0.612884
O O1 0.996440 0.862064 0.740704
O O2 0.116315 0.770399 0.914158
O O3 0.908169 0.049035 0.885964
O O4 0.619720 0.882253 0.992498
O O5 0.515518 0.253182 0.819591
O O6 0.597152 0.037168 0.749941
O O7 0.852140 0.365571 0.349826
O O8 0.172794 0.554905 0.270794
O O9 0.000000 0.500000 0.500000
O O10 0.656125 0.618031 0.406876
O O11 0.638349 0.692268 0.807755
O O12 0.753356 0.756992 0.579353
O O13 0.299833 0.507738 0.858468
O O14 0.640846 0.381790 0.962836
O O15 0.597323 0.160252 0.549596
O O16 0.034172 0.174146 0.639623
O O17 0.000000 0.000000 0.500000
#
# Coordination Sequence:
#
# PCOD9111964 Si02
#       8
#     2   2   2   2   2   2   2   2
#     4  11  25  44  66 103 138 195 229 297 366 433
#     4  11  25  44  68 101 145 179 247 292 365 434
#     4   9  20  42  68 101 137 186 237 301 363 430
#     4  10  22  44  67 101 140 184 238 293 363 437
#     4  10  20  44  65 105 139 179 238 299 356 436
#     4  10  23  40  72  97 142 184 234 294 366 429
#     4  11  25  45  72 102 143 189 246 302 363 426
#     4  12  27  47  70 102 140 196 243 304 358 436
#
# _framework density 28.760584000000001
#
# number of rings (size 3 to 8) (size 9 to 14) (size 15 to 20)
#    0.000    1.500    2.500    1.125    5.250    2.000 
#    0.000    1.875    0.000    0.000    0.000    0.000 
#    0.000    0.000    0.000    0.000    0.000    0.000 
#
# Total GULP energy -89302.856171 kJ/mol
# GULP energy per Si atom -5581.428511 kJ/mol
# Density = 2.869512 g / cm^3
# Si number density = 28.760584 Si / 1000 Ang^3
#
#
#
# Elastic Constant Matrix: (Units=GPa)
#
#
# Indices 1 2 3 4 5 6 
#
# 1 89.9101 49.9032 12.1235 13.4302 -6.7124 -34.3672
# 2 49.9032 195.8203 53.9271 48.7331 15.9251 -58.6657
# 3 12.1235 53.9271 169.3714 3.7341 -21.0722 -26.3176
# 4 13.4302 48.7331 3.7341 74.2392 -6.6795 -7.8300
# 5 -6.7124 15.9251 -21.0722 -6.6795 32.0340 -3.7011
# 6 -34.3672 -58.6657 -26.3176 -7.8300 -3.7011 66.9921
#
#
#
# Elastic Compliance Matrix: (Units=1/GPa)
#
#
# Indices 1 2 3 4 5 6 
#
# 1 0.015503 -0.003241 0.001728 0.000507 0.006822 0.006230
# 2 -0.003241 0.010796 -0.003378 -0.006597 -0.009044 0.005194
# 3 0.001728 -0.003378 0.008094 0.002419 0.008082 0.001837
# 4 0.000507 -0.006597 0.002419 0.018146 0.008532 -0.001974
# 5 0.006822 -0.009044 0.008082 0.008532 0.044493 0.002210
# 6 0.006230 0.005194 0.001837 -0.001974 0.002210 0.023284
#
#
# Mechanical properties :
#
#
# Convention : Reuss Voigt Hill
#
# Bulk Modulus (GPa) = 40.63429 76.33438 58.48434
# Shear Modulus (GPa) = 36.15235 57.26292 46.70764
#
# Velocity S-wave (km/s) = 3.54928 4.46693 4.03428
# Velocity P-wave (km/s) = 5.56378 7.29407 6.48688
#
# Compressibility (1/GPa) = 0.02460976
#
# Stress axis : x y z
#
# Youngs Moduli (GPa) = 64.50349 92.62443 123.55216
#
# Poissons Ratio (x) = 0.30023 -0.21348
# Poissons Ratio (y) = 0.20908 0.41738
# Poissons Ratio (z) = -0.11145 0.31290
#
# Static dielectric constant tensor:
#      x y z
#    x 2.291340 0.066760 0.038410 
#    y 0.066760 2.462600 -0.020860 
#    z 0.038410 -0.020860 2.307980 
# 
# From -- ./inp_files/364463.got.cif
#   From: 2010.05.17/outbox.cif.g08.bks.cpg/sg2_183_cif.got.tgz:364463.got - 2010.06.03 11:33:40.
