data_PCOD9111500
_publ_section_title
;
Structure prediction by ZEFSAII (Michael W. Deem and Ramdas Pophale) SiO2 
 PCOD9111500
Probable space group: P -1
;
_chemical_formula_sum "Si O2"
_cell_formula_units_Z 14
_cell_length_a 9.031642
_cell_length_b 22.762408
_cell_length_c 9.294124
_cell_angle_alpha 27.492812
_cell_angle_beta 51.705477
_cell_angle_gamma 52.092360
_cell_volume 681.148800
_symmetry_space_group_name_H-M "P -1"
_symmetry_group_IT_number 2
_symmetry_cell_setting 'triclinic'
loop_
_space_group_symop_operation_xyz
x,y,z
-x,-y,-z
loop_
_atom_site_type_symbol
_atom_site_label
_atom_site_fract_x
_atom_site_fract_y
_atom_site_fract_z
Si Si1 0.328766 0.480686 0.041309
Si Si2 0.975118 0.683951 0.732153
Si Si3 0.066926 0.279516 0.666135
Si Si4 0.402003 0.395528 0.865907
Si Si5 0.708329 0.163721 0.169263
Si Si6 0.290455 0.999474 0.187861
Si Si7 0.041443 0.048832 0.711752
O O1 0.181563 0.394118 0.383577
O O2 0.500000 0.500000 0.000000
O O3 0.419657 0.410050 0.995473
O O4 0.190810 0.612605 0.787161
O O5 0.945944 0.722858 0.496605
O O6 0.919474 0.808005 0.597134
O O7 0.825265 0.588177 0.059010
O O8 0.854244 0.266422 0.873375
O O9 0.191909 0.148707 0.937835
O O10 0.500000 0.500000 0.500000
O O11 0.505171 0.252632 0.068227
O O12 0.701080 0.082284 0.494845
O O13 0.795467 0.057684 0.228395
O O14 0.149339 0.944102 0.283817
O O15 0.500000 0.000000 0.000000
O O16 0.000000 0.000000 0.000000
#
# Coordination Sequence:
#
# PCOD9111500 Si02
#       7
#     2   2   2   2   2   2   2
#     4  11  25  43  68  96 126 174 226 276 323 387
#     4  11  22  42  69  94 133 173 217 271 328 391
#     4  10  20  43  65  91 131 179 211 265 333 387
#     4  11  24  45  66  94 132 178 220 266 328 392
#     4  11  23  42  69  98 134 172 220 266 335 395
#     4  11  23  41  65  94 134 177 211 270 333 391
#     4  11  23  41  68  97 132 171 222 270 325 390
#
# _framework density 20.553512000000001
#
# number of rings (size 3 to 8) (size 9 to 14) (size 15 to 20)
#    0.000    1.143    2.857    6.857    4.000    0.571 
#    5.143    1.429    0.000    0.000    0.000    0.000 
#    0.000    0.000    0.000    0.000    0.000    0.000 
#
# Total GULP energy -78197.938955 kJ/mol
# GULP energy per Si atom -5585.567068 kJ/mol
# Density = 2.050673 g / cm^3
# Si number density = 20.553512 Si / 1000 Ang^3
#
#
#
# Elastic Constant Matrix: (Units=GPa)
#
#
# Indices 1 2 3 4 5 6 
#
# 1 93.9025 46.3098 24.1036 -6.5618 -4.4918 -3.5856
# 2 46.3098 96.3928 24.0358 4.8976 1.4802 -5.3055
# 3 24.1036 24.0358 118.7048 8.2567 1.5111 3.3880
# 4 -6.5618 4.8976 8.2567 35.5715 -1.2834 -1.9775
# 5 -4.4918 1.4802 1.5111 -1.2834 31.3096 -6.4741
# 6 -3.5856 -5.3055 3.3880 -1.9775 -6.4741 33.0149
#
#
#
# Elastic Compliance Matrix: (Units=1/GPa)
#
#
# Indices 1 2 3 4 5 6 
#
# 1 0.015116 -0.006933 -0.002059 0.004423 0.003111 0.001614
# 2 -0.006933 0.014265 -0.001293 -0.002929 -0.001477 0.001207
# 3 -0.002059 -0.001293 0.009344 -0.002511 -0.001153 -0.001767
# 4 0.004423 -0.002929 -0.002511 0.030155 0.002667 0.002597
# 5 0.003111 -0.001477 -0.001153 0.002667 0.034080 0.007062
# 6 0.001614 0.001207 -0.001767 0.002597 0.007062 0.032380
#
#
# Mechanical properties :
#
#
# Convention : Reuss Voigt Hill
#
# Bulk Modulus (GPa) = 55.07591 55.32203 55.19897
# Shear Modulus (GPa) = 30.87157 34.28259 32.57708
#
# Velocity S-wave (km/s) = 3.87978 4.08851 3.98551
# Velocity P-wave (km/s) = 6.85017 7.01872 6.93495
#
# Compressibility (1/GPa) = 0.01815676
#
# Stress axis : x y z
#
# Youngs Moduli (GPa) = 66.15389 70.10129 107.02248
#
# Poissons Ratio (x) = 0.48598 0.22036
# Poissons Ratio (y) = 0.45861 0.13835
# Poissons Ratio (z) = 0.13621 0.09062
#
# Static dielectric constant tensor:
#      x y z
#    x 1.662060 0.095040 -0.017620 
#    y 0.095040 1.549370 -0.037800 
#    z -0.017620 -0.037800 1.741440 
# 
# From -- ./inp_files/202839.got.cif
#   From: 2010.05.17/outbox.cif.g08.bks.cpg/sg2_102_cif.got.tgz:202839.got - 2010.06.03 11:33:40.
