data_PCOD9111899
_publ_section_title
;
Structure prediction by ZEFSAII (Michael W. Deem and Ramdas Pophale) SiO2 
 PCOD9111899
Probable space group: P -1
;
_chemical_formula_sum "Si O2"
_cell_formula_units_Z 14
_cell_length_a 9.291301
_cell_length_b 16.849206
_cell_length_c 7.051510
_cell_angle_alpha 66.514379
_cell_angle_beta 112.976406
_cell_angle_gamma 149.521422
_cell_volume 510.925837
_symmetry_space_group_name_H-M "P -1"
_symmetry_group_IT_number 2
_symmetry_cell_setting 'triclinic'
loop_
_space_group_symop_operation_xyz
x,y,z
-x,-y,-z
loop_
_atom_site_type_symbol
_atom_site_label
_atom_site_fract_x
_atom_site_fract_y
_atom_site_fract_z
Si Si1 0.315073 0.182254 0.005291
Si Si2 0.757761 0.685851 0.416814
Si Si3 0.807126 0.053179 0.285578
Si Si4 0.145902 0.672526 0.996636
Si Si5 0.491190 0.742413 0.550595
Si Si6 0.799244 0.155579 0.825930
Si Si7 0.054792 0.451275 0.361959
O O1 0.547750 0.218769 0.023263
O O2 0.377850 0.228971 0.213828
O O3 0.344805 0.279739 0.795872
O O4 0.000000 0.000000 0.000000
O O5 0.500000 0.500000 0.500000
O O6 0.932866 0.803670 0.576833
O O7 0.988417 0.748177 0.332768
O O8 0.707043 0.907275 0.399897
O O9 0.531935 0.985504 0.266945
O O10 0.848778 0.095945 0.045898
O O11 0.973787 0.620264 0.770672
O O12 0.145536 0.744818 0.084764
O O13 0.019077 0.529825 0.170599
O O14 0.225002 0.681893 0.526901
O O15 0.337424 0.595097 0.494303
#
# Coordination Sequence:
#
# PCOD9111899 Si02
#       7
#     2   2   2   2   2   2   2
#     4  11  25  46  79 114 166 211 270 333 406 487
#     4  12  30  56  79 118 168 221 262 336 421 492
#     4  11  25  48  81 119 159 214 273 331 400 483
#     4  10  22  45  77 115 153 205 272 337 392 478
#     4  10  20  43  74 116 154 209 265 338 392 475
#     4  11  27  50  86 115 159 213 279 329 401 492
#     4   9  20  39  72 113 151 193 270 333 392 453
#
# _framework density 27.401237999999999
#
# number of rings (size 3 to 8) (size 9 to 14) (size 15 to 20)
#    0.000    1.429    2.857    0.429    4.000    7.429 
#    5.143    2.143    0.000    0.000    0.000    0.000 
#    0.000    0.000    0.000    0.000    0.000    0.000 
#
# Total GULP energy -78569.254182 kJ/mol
# GULP energy per Si atom -5612.089584 kJ/mol
# Density = 2.733887 g / cm^3
# Si number density = 27.401238 Si / 1000 Ang^3
#
#
#
# Elastic Constant Matrix: (Units=GPa)
#
#
# Indices 1 2 3 4 5 6 
#
# 1 104.5456 48.0718 21.1584 9.6763 2.2023 13.2162
# 2 48.0718 240.8056 106.5317 23.2650 3.5134 10.2340
# 3 21.1584 106.5317 196.5105 9.9445 2.1633 7.2802
# 4 9.6763 23.2650 9.9445 71.2342 4.3894 -5.1462
# 5 2.2023 3.5134 2.1633 4.3894 43.9946 -0.4279
# 6 13.2162 10.2340 7.2802 -5.1462 -0.4279 57.7160
#
#
#
# Elastic Compliance Matrix: (Units=1/GPa)
#
#
# Indices 1 2 3 4 5 6 
#
# 1 0.010850 -0.001994 0.000048 -0.000971 -0.000311 -0.002226
# 2 -0.001994 0.006002 -0.002959 -0.001295 -0.000108 -0.000350
# 3 0.000048 -0.002959 0.006701 0.000007 -0.000099 -0.000332
# 4 -0.000971 -0.001295 0.000007 0.014800 -0.001308 0.001761
# 5 -0.000311 -0.000108 -0.000099 -0.001308 0.022891 0.000156
# 6 -0.002226 -0.000350 -0.000332 0.001761 0.000156 0.018098
#
#
# Mechanical properties :
#
#
# Convention : Reuss Voigt Hill
#
# Bulk Modulus (GPa) = 72.77125 99.26505 86.01815
# Shear Modulus (GPa) = 53.34286 58.99561 56.16923
#
# Velocity S-wave (km/s) = 4.41696 4.64511 4.53247
# Velocity P-wave (km/s) = 7.25452 8.06688 7.67146
#
# Compressibility (1/GPa) = 0.01374169
#
# Stress axis : x y z
#
# Youngs Moduli (GPa) = 92.16321 166.62489 149.23478
#
# Poissons Ratio (x) = 0.33230 -0.00715
# Poissons Ratio (y) = 0.18380 0.44160
# Poissons Ratio (z) = -0.00441 0.49306
#
# Static dielectric constant tensor:
#      x y z
#    x 2.274740 0.003810 0.037110 
#    y 0.003810 2.142920 -0.034240 
#    z 0.037110 -0.034240 2.142330 
# 
# From -- ./inp_files/217110.got.cif
#   From: 2010.05.17/outbox.cif.g08.bks.cpg/sg2_109_cif.got.tgz:217110.got - 2010.06.03 11:33:40.
