data_PCOD9111172
_publ_section_title
;
Structure prediction by ZEFSAII (Michael W. Deem and Ramdas Pophale) SiO2 
 PCOD9111172
Probable space group: P -1
;
_chemical_formula_sum "Si O2"
_cell_formula_units_Z 14
_cell_length_a 10.060311
_cell_length_b 34.183872
_cell_length_c 5.717331
_cell_angle_alpha 38.944792
_cell_angle_beta 37.922473
_cell_angle_gamma 29.647789
_cell_volume 569.620520
_symmetry_space_group_name_H-M "P -1"
_symmetry_group_IT_number 2
_symmetry_cell_setting 'triclinic'
loop_
_space_group_symop_operation_xyz
x,y,z
-x,-y,-z
loop_
_atom_site_type_symbol
_atom_site_label
_atom_site_fract_x
_atom_site_fract_y
_atom_site_fract_z
Si Si1 0.139271 0.833761 0.157421
Si Si2 0.338490 0.262022 0.780979
Si Si3 0.768186 0.811053 0.103105
Si Si4 0.645276 0.531773 0.763528
Si Si5 0.790188 0.574209 0.768091
Si Si6 0.813203 0.295823 0.590367
Si Si7 0.396795 0.989872 0.943585
O O1 0.435123 0.790823 0.079320
O O2 0.182561 0.777714 0.143477
O O3 0.941773 0.827310 0.628083
O O4 0.945183 0.931700 0.935622
O O5 0.406468 0.205387 0.730637
O O6 0.337140 0.336018 0.395644
O O7 0.022472 0.296934 0.127370
O O8 0.019770 0.730434 0.276364
O O9 0.542663 0.894435 0.177670
O O10 0.982984 0.451557 0.635238
O O11 0.500053 0.615279 0.426958
O O12 0.590168 0.562604 0.965126
O O13 0.500000 0.500000 0.000000
O O14 0.000000 0.500000 0.000000
O O15 0.500000 0.000000 0.500000
O O16 0.500000 0.000000 0.000000
#
# Coordination Sequence:
#
# PCOD9111172 Si02
#       7
#     2   2   2   2   2   2   2
#     4  10  22  42  65  90 133 167 212 268 326 388
#     4  11  24  41  59  97 127 163 219 268 323 396
#     4  10  24  39  67  93 125 172 214 262 331 396
#     4  11  24  42  62  90 123 166 211 268 329 384
#     4  11  26  41  61  91 126 163 215 267 324 394
#     4  11  22  41  63  90 128 165 211 267 323 391
#     4  10  20  42  70 100 135 178 227 273 339 402
#
# _framework density 24.577766
#
# number of rings (size 3 to 8) (size 9 to 14) (size 15 to 20)
#    0.000    1.429    4.286    0.000    4.000    2.286 
#    0.000    0.714    0.000    0.000    0.000    0.000 
#    0.000    0.000    0.000    0.000    0.000    0.000 
#
# Total GULP energy -78181.384257 kJ/mol
# GULP energy per Si atom -5584.384590 kJ/mol
# Density = 2.452183 g / cm^3
# Si number density = 24.577766 Si / 1000 Ang^3
#
#
#
# Elastic Constant Matrix: (Units=GPa)
#
#
# Indices 1 2 3 4 5 6 
#
# 1 164.2593 40.7478 16.9597 -14.9945 -7.7998 9.7160
# 2 40.7478 145.6549 13.2635 -12.5987 -12.1404 0.8859
# 3 16.9597 13.2635 60.9402 -6.3714 -1.8515 5.4069
# 4 -14.9945 -12.5987 -6.3714 29.9550 -8.4115 -1.9839
# 5 -7.7998 -12.1404 -1.8515 -8.4115 29.7322 -9.4392
# 6 9.7160 0.8859 5.4069 -1.9839 -9.4392 56.1734
#
#
#
# Elastic Compliance Matrix: (Units=1/GPa)
#
#
# Indices 1 2 3 4 5 6 
#
# 1 0.006973 -0.001414 -0.001193 0.003120 0.001855 -0.000647
# 2 -0.001414 0.008014 -0.000926 0.003723 0.004230 0.001050
# 3 -0.001193 -0.000926 0.017374 0.002857 0.000814 -0.001214
# 4 0.003120 0.003723 0.002857 0.041624 0.015298 0.003167
# 5 0.001855 0.004230 0.000814 0.015298 0.042518 0.007219
# 6 -0.000647 0.001050 -0.001214 0.003167 0.007219 0.019339
#
#
# Mechanical properties :
#
#
# Convention : Reuss Voigt Hill
#
# Bulk Modulus (GPa) = 39.53277 56.97739 48.25508
# Shear Modulus (GPa) = 33.03835 43.16436 38.10135
#
# Velocity S-wave (km/s) = 3.67036 4.19529 3.94158
# Velocity P-wave (km/s) = 5.83796 6.83375 6.35539
#
# Compressibility (1/GPa) = 0.02529547
#
# Stress axis : x y z
#
# Youngs Moduli (GPa) = 143.41075 124.78781 57.55671
#
# Poissons Ratio (x) = 0.17641 0.06866
# Poissons Ratio (y) = 0.20273 0.05330
# Poissons Ratio (z) = 0.17108 0.11556
#
# Static dielectric constant tensor:
#      x y z
#    x 2.094230 0.076860 0.100130 
#    y 0.076860 2.028520 0.125090 
#    z 0.100130 0.125090 2.103730 
# 
# From -- ./inp_files/56769.got.cif
#   From: 2010.05.17/outbox.cif.g08.bks.cpg/sg2_29_cif.got.tgz:56769.got - 2010.06.03 11:33:40.
