data_PCOD9111693
_publ_section_title
;
Structure prediction by ZEFSAII (Michael W. Deem and Ramdas Pophale) SiO2 
 PCOD9111693
Probable space group: P -1
;
_chemical_formula_sum "Si O2"
_cell_formula_units_Z 14
_cell_length_a 10.391908
_cell_length_b 8.983424
_cell_length_c 18.215315
_cell_angle_alpha 150.011645
_cell_angle_beta 48.621528
_cell_angle_gamma 138.313098
_cell_volume 564.747242
_symmetry_space_group_name_H-M "P -1"
_symmetry_group_IT_number 2
_symmetry_cell_setting 'triclinic'
loop_
_space_group_symop_operation_xyz
x,y,z
-x,-y,-z
loop_
_atom_site_type_symbol
_atom_site_label
_atom_site_fract_x
_atom_site_fract_y
_atom_site_fract_z
Si Si1 0.541137 0.276692 0.164472
Si Si2 0.799435 0.232248 0.341666
Si Si3 0.859314 0.650692 0.093452
Si Si4 0.699595 0.360621 0.584027
Si Si5 0.890267 0.594863 0.893760
Si Si6 0.230787 0.481590 0.678542
Si Si7 0.336409 0.877722 0.353674
O O1 0.716791 0.583479 0.187485
O O2 0.361142 0.347828 0.264925
O O3 0.603962 0.262659 0.218459
O O4 0.500000 0.000000 0.000000
O O5 0.816901 0.418438 0.490481
O O6 0.824079 0.419215 0.336241
O O7 0.925956 0.038459 0.218842
O O8 0.564285 0.982889 0.318329
O O9 0.789699 0.528117 0.983559
O O10 0.000000 0.500000 0.000000
O O11 0.774839 0.313808 0.613245
O O12 0.500000 0.000000 0.500000
O O13 0.743489 0.367083 0.789755
O O14 0.042281 0.441794 0.777191
O O15 0.000000 0.000000 0.000000
O O16 0.297939 0.203067 0.511404
#
# Coordination Sequence:
#
# PCOD9111693 Si02
#       7
#     2   2   2   2   2   2   2
#     4  12  26  42  73 105 135 176 232 285 341 407
#     4  11  23  43  75 100 133 182 234 283 339 408
#     4  12  25  45  68  96 144 183 221 286 351 401
#     4  10  20  43  68  97 131 173 226 282 335 395
#     4  12  28  45  66 102 145 183 225 281 346 404
#     4  12  24  46  68 104 142 177 228 285 339 414
#     4  11  24  44  74  96 138 182 231 281 340 408
#
# _framework density 24.789852
#
# number of rings (size 3 to 8) (size 9 to 14) (size 15 to 20)
#    0.000    0.571    8.571    0.857    4.000    0.571 
#    0.000    0.714    0.000    0.000    0.000    0.000 
#    0.000    0.000    0.000    0.000    0.000    0.000 
#
# Total GULP energy -78072.740517 kJ/mol
# GULP energy per Si atom -5576.624323 kJ/mol
# Density = 2.473343 g / cm^3
# Si number density = 24.789852 Si / 1000 Ang^3
#
#
#
# Elastic Constant Matrix: (Units=GPa)
#
#
# Indices 1 2 3 4 5 6 
#
# 1 122.7772 21.4625 55.0959 2.4951 2.7034 -33.7661
# 2 21.4625 41.7460 1.8043 -17.1055 11.1691 -14.0457
# 3 55.0959 1.8043 152.9133 -17.3934 5.6006 -12.6533
# 4 2.4951 -17.1055 -17.3934 42.9981 -9.1342 14.4506
# 5 2.7034 11.1691 5.6006 -9.1342 56.9075 -9.5811
# 6 -33.7661 -14.0457 -12.6533 14.4506 -9.5811 44.3174
#
#
#
# Elastic Compliance Matrix: (Units=1/GPa)
#
#
# Indices 1 2 3 4 5 6 
#
# 1 0.015391 -0.008494 -0.005726 -0.009916 0.001762 0.011014
# 2 -0.008494 0.035757 0.004585 0.015569 -0.004548 0.000110
# 3 -0.005726 0.004585 0.009107 0.006532 -0.000920 -0.002638
# 4 -0.009916 0.015569 0.006532 0.037065 0.000581 -0.012716
# 5 0.001762 -0.004548 -0.000920 0.000581 0.019170 0.003594
# 6 0.011014 0.000110 -0.002638 -0.012716 0.003594 0.035161
#
#
# Mechanical properties :
#
#
# Convention : Reuss Voigt Hill
#
# Bulk Modulus (GPa) = 24.39964 52.68465 38.54214
# Shear Modulus (GPa) = 27.08806 44.78287 35.93546
#
# Velocity S-wave (km/s) = 3.30920 4.25491 3.81150
# Velocity P-wave (km/s) = 4.94621 6.74074 5.91196
#
# Compressibility (1/GPa) = 0.04098421
#
# Stress axis : x y z
#
# Youngs Moduli (GPa) = 64.97243 27.96680 109.80394
#
# Poissons Ratio (x) = 0.23756 0.62878
# Poissons Ratio (y) = 0.55189 -0.50348
# Poissons Ratio (z) = 0.37206 -0.12824
#
# Static dielectric constant tensor:
#      x y z
#    x 2.002540 0.068860 0.095680 
#    y 0.068860 1.727430 0.027300 
#    z 0.095680 0.027300 1.898700 
# 
# From -- ./inp_files/154312.got.cif
#   From: 2010.05.17/outbox.cif.g08.bks.cpg/sg2_78_cif.got.tgz:154312.got - 2010.06.03 11:33:40.
