data_PCOD9111946
_publ_section_title
;
Structure prediction by ZEFSAII (Michael W. Deem and Ramdas Pophale) SiO2 
 PCOD9111946
Probable space group: P -1
;
_chemical_formula_sum "Si O2"
_cell_formula_units_Z 16
_cell_length_a 21.448689
_cell_length_b 16.704486
_cell_length_c 12.877619
_cell_angle_alpha 27.528763
_cell_angle_beta 31.628532
_cell_angle_gamma 15.542491
_cell_volume 571.260542
_symmetry_space_group_name_H-M "P -1"
_symmetry_group_IT_number 2
_symmetry_cell_setting 'triclinic'
loop_
_space_group_symop_operation_xyz
x,y,z
-x,-y,-z
loop_
_atom_site_type_symbol
_atom_site_label
_atom_site_fract_x
_atom_site_fract_y
_atom_site_fract_z
Si Si1 0.356468 0.770739 0.292803
Si Si2 0.832295 0.320974 0.657708
Si Si3 0.722503 0.176432 0.301045
Si Si4 0.644201 0.947534 0.426035
Si Si5 0.271438 0.902283 0.034373
Si Si6 0.701786 0.523963 0.222758
Si Si7 0.283397 0.231435 0.257231
Si Si8 0.197211 0.387148 0.813351
O O1 0.597356 0.394589 0.334144
O O2 0.234726 0.988241 0.109303
O O3 0.444543 0.794186 0.228336
O O4 0.219908 0.771377 0.523658
O O5 0.563307 0.680304 0.656927
O O6 0.846839 0.126030 0.799159
O O7 0.909478 0.372014 0.408696
O O8 0.010910 0.101746 0.751534
O O9 0.719536 0.970864 0.532522
O O10 0.550097 0.498801 0.098362
O O11 0.500000 0.000000 0.500000
O O12 0.783645 0.678707 0.629283
O O13 0.784458 0.882648 0.217881
O O14 0.722739 0.597884 0.217199
O O15 0.800050 0.536727 0.983115
O O16 0.551465 0.961627 0.193900
O O17 0.000000 0.500000 0.000000
#
# Coordination Sequence:
#
# PCOD9111946 Si02
#       8
#     2   2   2   2   2   2   2   2
#     4   9  20  37  59  89 120 166 203 252 320 360
#     4  11  22  40  65  95 121 163 222 249 313 388
#     4  10  21  41  63  91 124 166 208 257 309 376
#     4  11  23  42  66  92 124 165 207 269 319 364
#     4  10  20  44  64  87 129 161 210 259 311 378
#     4  11  19  36  60  87 127 166 202 260 314 363
#     4  11  22  39  60  92 125 169 212 255 316 378
#     4  11  21  35  61  92 128 168 210 258 303 381
#
# _framework density 28.008236
#
# number of rings (size 3 to 8) (size 9 to 14) (size 15 to 20)
#    0.750    0.750    5.000    2.250    1.750    0.500 
#    0.000    6.250    0.000    0.000    0.000    0.000 
#    0.000    0.000    0.000    0.000    0.000    0.000 
#
# Total GULP energy -89358.690816 kJ/mol
# GULP energy per Si atom -5584.918176 kJ/mol
# Density = 2.794449 g / cm^3
# Si number density = 28.008236 Si / 1000 Ang^3
#
#
#
# Elastic Constant Matrix: (Units=GPa)
#
#
# Indices 1 2 3 4 5 6 
#
# 1 146.2017 10.5418 51.9266 -2.4914 4.6210 -29.7253
# 2 10.5418 50.7133 5.3592 -2.5980 12.0124 -17.8463
# 3 51.9266 5.3592 167.2566 19.7175 48.9823 -21.9134
# 4 -2.4914 -2.5980 19.7175 45.5880 -13.4154 3.6183
# 5 4.6210 12.0124 48.9823 -13.4154 54.9866 -3.0830
# 6 -29.7253 -17.8463 -21.9134 3.6183 -3.0830 47.9180
#
#
#
# Elastic Compliance Matrix: (Units=1/GPa)
#
#
# Indices 1 2 3 4 5 6 
#
# 1 0.008841 -0.000923 -0.003625 0.002768 0.003560 0.003503
# 2 -0.000923 0.025152 0.004065 -0.003971 -0.009427 0.010347
# 3 -0.003625 0.004065 0.013094 -0.010294 -0.014473 0.005100
# 4 0.002768 -0.003971 -0.010294 0.031847 0.017251 -0.005764
# 5 0.003560 -0.009427 -0.014473 0.017251 0.036664 -0.006865
# 6 0.003503 0.010347 0.005100 -0.005764 -0.006865 0.029221
#
#
# Mechanical properties :
#
#
# Convention : Reuss Voigt Hill
#
# Bulk Modulus (GPa) = 21.68228 55.53631 38.60929
# Shear Modulus (GPa) = 31.02547 49.45480 40.24014
#
# Velocity S-wave (km/s) = 3.33186 4.20661 3.79453
# Velocity P-wave (km/s) = 4.74973 6.59285 5.74568
#
# Compressibility (1/GPa) = 0.04612061
#
# Stress axis : x y z
#
# Youngs Moduli (GPa) = 113.11296 39.75865 76.36916
#
# Poissons Ratio (x) = 0.03671 0.27683
# Poissons Ratio (y) = 0.10445 -0.31046
# Poissons Ratio (z) = 0.41003 -0.16163
#
# Static dielectric constant tensor:
#      x y z
#    x 2.370300 0.369440 -0.063900 
#    y 0.369440 2.768520 -0.223680 
#    z -0.063900 -0.223680 2.346310 
# 
# From -- ./inp_files/472323.got.cif
#   From: 2010.05.17/outbox.cif.g08.bks.cpg/sg2_237_cif.got.tgz:472323.got - 2010.06.03 11:33:40.
