data_PCOD9111539
_publ_section_title
;
Structure prediction by ZEFSAII (Michael W. Deem and Ramdas Pophale) SiO2 
 PCOD9111539
Probable space group: P -1
;
_chemical_formula_sum "Si O2"
_cell_formula_units_Z 16
_cell_length_a 13.036996
_cell_length_b 16.891512
_cell_length_c 9.240609
_cell_angle_alpha 57.542821
_cell_angle_beta 110.694457
_cell_angle_gamma 154.783165
_cell_volume 680.327450
_symmetry_space_group_name_H-M "P -1"
_symmetry_group_IT_number 2
_symmetry_cell_setting 'triclinic'
loop_
_space_group_symop_operation_xyz
x,y,z
-x,-y,-z
loop_
_atom_site_type_symbol
_atom_site_label
_atom_site_fract_x
_atom_site_fract_y
_atom_site_fract_z
Si Si1 0.382423 0.483124 0.571828
Si Si2 0.364967 0.695773 0.912307
Si Si3 0.887852 0.571543 0.378955
Si Si4 0.881686 0.976628 0.841105
Si Si5 0.279722 0.293096 0.201814
Si Si6 0.176406 0.656900 0.600740
Si Si7 0.583904 0.173580 0.876849
Si Si8 0.021381 0.756356 0.946711
O O1 0.500000 0.500000 0.500000
O O2 0.300274 0.528953 0.494721
O O3 0.576481 0.624878 0.663122
O O4 0.092596 0.220167 0.702421
O O5 0.603873 0.808938 0.895117
O O6 0.340539 0.763131 0.720740
O O7 0.394420 0.762082 0.018800
O O8 0.107592 0.432285 0.015236
O O9 0.751389 0.374482 0.434592
O O10 0.148738 0.733445 0.426514
O O11 0.951517 0.683840 0.155825
O O12 0.863524 0.902563 0.758008
O O13 0.000000 0.000000 0.000000
O O14 0.106457 0.249739 0.174661
O O15 0.500000 0.500000 0.000000
O O16 0.874057 0.405296 0.735548
O O17 0.324129 0.010521 0.833892
O O18 0.500000 0.000000 0.000000
#
# Coordination Sequence:
#
# PCOD9111539 Si02
#       8
#     2   2   2   2   2   2   2   2
#     4  12  27  45  67 103 142 175 222 297 346 398
#     4  11  22  38  65  97 128 170 228 264 331 406
#     4  10  20  43  66  87 133 176 219 270 340 398
#     4  12  23  41  74 101 128 185 233 273 344 412
#     4  12  21  43  73  99 132 178 233 277 335 412
#     4  10  23  40  67  93 129 185 215 274 340 399
#     4  12  23  39  64  96 132 166 221 284 327 385
#     4  11  22  41  70  95 128 175 222 282 326 400
#
# _framework density 23.518087999999999
#
# number of rings (size 3 to 8) (size 9 to 14) (size 15 to 20)
#    0.000    0.750    6.250    2.625    0.000    3.500 
#    0.000    6.250    0.000    0.000    0.000    0.000 
#    0.000    0.000    0.000    0.000    0.000    0.000 
#
# Total GULP energy -89275.142590 kJ/mol
# GULP energy per Si atom -5579.696412 kJ/mol
# Density = 2.346456 g / cm^3
# Si number density = 23.518088 Si / 1000 Ang^3
#
#
#
# Elastic Constant Matrix: (Units=GPa)
#
#
# Indices 1 2 3 4 5 6 
#
# 1 127.9328 36.5363 16.5574 14.6898 -0.6768 -3.4806
# 2 36.5363 162.7043 31.7441 16.9550 -0.0263 -9.7559
# 3 16.5574 31.7441 25.2284 2.6980 4.4721 1.9451
# 4 14.6898 16.9550 2.6980 26.7359 4.7200 -3.2519
# 5 -0.6768 -0.0263 4.4721 4.7200 29.9031 10.2768
# 6 -3.4806 -9.7559 1.9451 -3.2519 10.2768 43.7088
#
#
#
# Elastic Compliance Matrix: (Units=1/GPa)
#
#
# Indices 1 2 3 4 5 6 
#
# 1 0.009165 -0.000598 -0.005086 -0.004416 0.001626 0.000112
# 2 -0.000598 0.008951 -0.010841 -0.004349 0.001716 0.001706
# 3 -0.005086 -0.010841 0.057828 0.004970 -0.008518 -0.003026
# 4 -0.004416 -0.004349 0.004970 0.044177 -0.009159 0.003897
# 5 0.001626 0.001716 -0.008518 -0.009159 0.039303 -0.009031
# 6 0.000112 0.001706 -0.003026 0.003897 -0.009031 0.025816
#
#
# Mechanical properties :
#
#
# Convention : Reuss Voigt Hill
#
# Bulk Modulus (GPa) = 23.31388 53.94900 38.63144
# Shear Modulus (GPa) = 21.49710 35.47140 28.48425
#
# Velocity S-wave (km/s) = 3.02663 3.88785 3.48395
# Velocity P-wave (km/s) = 4.70624 6.56833 5.71365
#
# Compressibility (1/GPa) = 0.04289291
#
# Stress axis : x y z
#
# Youngs Moduli (GPa) = 109.11657 111.71417 17.29252
#
# Poissons Ratio (x) = 0.06686 0.08795
# Poissons Ratio (y) = 0.06530 0.18747
# Poissons Ratio (z) = 0.55499 1.21110
#
# Static dielectric constant tensor:
#      x y z
#    x 2.316730 0.233520 -0.041460 
#    y 0.233520 1.294600 0.349280 
#    z -0.041460 0.349280 1.632400 
# 
# From -- ./inp_files/272566.got.cif
#   From: 2010.05.17/outbox.cif.g08.bks.cpg/sg2_137_cif.got.tgz:272566.got - 2010.06.03 11:33:40.
