data_PCOD9111162
_publ_section_title
;
Structure prediction by ZEFSAII (Michael W. Deem and Ramdas Pophale) SiO2 
 PCOD9111162
Probable space group: P -1
;
_chemical_formula_sum "Si O2"
_cell_formula_units_Z 15
_cell_length_a 11.582578
_cell_length_b 9.632081
_cell_length_c 19.678799
_cell_angle_alpha 29.399537
_cell_angle_beta 41.163043
_cell_angle_gamma 36.675497
_cell_volume 632.664183
_symmetry_space_group_name_H-M "P -1"
_symmetry_group_IT_number 2
_symmetry_cell_setting 'triclinic'
loop_
_space_group_symop_operation_xyz
x,y,z
-x,-y,-z
loop_
_atom_site_type_symbol
_atom_site_label
_atom_site_fract_x
_atom_site_fract_y
_atom_site_fract_z
Si Si1 0.777824 0.209268 0.932463
Si Si2 0.079395 0.607683 0.983421
Si Si3 0.222076 0.236054 0.382182
Si Si4 0.631173 0.128069 0.315767
Si Si5 0.352993 0.802604 0.394508
Si Si6 0.357489 0.340001 0.080518
Si Si7 0.309854 0.527957 0.389395
Si Si8 0.000000 0.500000 0.500000
O O1 0.848891 0.431919 0.766192
O O2 0.754701 0.327693 0.970635
O O3 0.551909 0.310609 0.971283
O O4 0.906962 0.856192 0.001197
O O5 0.224793 0.758574 0.832142
O O6 0.214193 0.319686 0.096240
O O7 0.000000 0.500000 0.000000
O O8 0.451689 0.122935 0.352715
O O9 0.094448 0.268062 0.489911
O O10 0.203121 0.004488 0.433367
O O11 0.518298 0.357146 0.331812
O O12 0.753428 0.764005 0.444864
O O13 0.500000 0.500000 0.500000
O O14 0.306289 0.677444 0.398836
O O15 0.423628 0.057748 0.226347
O O16 0.142555 0.692128 0.338332
#
# Coordination Sequence:
#
# PCOD9111162 Si02
#       8
#     2   2   2   2   2   2   2   1
#     4  10  22  44  70  96 135 187 226 284 354 414
#     4  12  26  42  71 107 139 183 236 290 346 415
#     4  10  20  42  69  98 135 180 229 285 347 415
#     4  10  21  41  63  95 139 180 226 277 352 407
#     4  11  23  42  70 103 132 182 235 287 351 399
#     4  10  24  45  69 100 140 179 235 288 346 417
#     4  10  22  39  66  95 136 184 223 285 340 418
#     4  10  22  38  62  96 136 180 226 272 342 418
#
# _framework density 23.709258999999999
#
# number of rings (size 3 to 8) (size 9 to 14) (size 15 to 20)
#    0.000    1.600    2.667    1.200    1.867    4.267 
#    0.000    2.667    0.000    0.000    0.000    0.000 
#    0.000    0.000    0.000    0.000    0.000    0.000 
#
# Total GULP energy -83570.988613 kJ/mol
# GULP energy per Si atom -5571.399241 kJ/mol
# Density = 2.365530 g / cm^3
# Si number density = 23.709259 Si / 1000 Ang^3
#
#
#
# Elastic Constant Matrix: (Units=GPa)
#
#
# Indices 1 2 3 4 5 6 
#
# 1 131.6932 58.3916 3.5676 -9.2041 -13.0345 16.4050
# 2 58.3916 151.6282 32.7078 17.5762 -14.5542 27.4966
# 3 3.5676 32.7078 53.3313 4.3758 6.9068 -1.5463
# 4 -9.2041 17.5762 4.3758 27.9415 -0.3829 -4.1936
# 5 -13.0345 -14.5542 6.9068 -0.3829 30.2510 -6.7783
# 6 16.4050 27.4966 -1.5463 -4.1936 -6.7783 36.2775
#
#
#
# Elastic Compliance Matrix: (Units=1/GPa)
#
#
# Indices 1 2 3 4 5 6 
#
# 1 0.010322 -0.004896 0.001561 0.006288 0.001856 0.000183
# 2 -0.004896 0.013238 -0.007738 -0.009957 0.003983 -0.008556
# 3 0.001561 -0.007738 0.024319 0.002231 -0.007440 0.005064
# 4 0.006288 -0.009957 0.002231 0.045291 0.000241 0.010079
# 5 0.001856 0.003983 -0.007440 0.000241 0.038142 0.002979
# 6 0.000183 -0.008556 0.005064 0.010079 0.002979 0.035905
#
#
# Mechanical properties :
#
#
# Convention : Reuss Voigt Hill
#
# Bulk Modulus (GPa) = 38.85964 58.44296 48.65130
# Shear Modulus (GPa) = 25.26006 35.02638 30.14322
#
# Velocity S-wave (km/s) = 3.26760 3.84777 3.56949
# Velocity P-wave (km/s) = 5.53732 6.66662 6.12804
#
# Compressibility (1/GPa) = 0.02573364
#
# Stress axis : x y z
#
# Youngs Moduli (GPa) = 96.87802 75.54161 41.11966
#
# Poissons Ratio (x) = 0.36983 -0.06419
# Poissons Ratio (y) = 0.47429 0.31818
# Poissons Ratio (z) = -0.15122 0.58454
#
# Static dielectric constant tensor:
#      x y z
#    x 2.897170 -0.403700 0.115410 
#    y -0.403700 2.086860 -0.104690 
#    z 0.115410 -0.104690 1.922900 
# 
# From -- ./inp_files/593338.got.cif
#   From: 2010.05.17/outbox.cif.g08.bks.cpg/sg2_297_cif.got.tgz:593338.got - 2010.06.03 11:33:40.
