data_PCOD9111455
_publ_section_title
;
Structure prediction by ZEFSAII (Michael W. Deem and Ramdas Pophale) SiO2 
 PCOD9111455
Probable space group: P -1
;
_chemical_formula_sum "Si O2"
_cell_formula_units_Z 16
_cell_length_a 8.055252
_cell_length_b 10.348363
_cell_length_c 18.176193
_cell_angle_alpha 47.179308
_cell_angle_beta 99.769373
_cell_angle_gamma 133.024603
_cell_volume 679.361010
_symmetry_space_group_name_H-M "P -1"
_symmetry_group_IT_number 2
_symmetry_cell_setting 'triclinic'
loop_
_space_group_symop_operation_xyz
x,y,z
-x,-y,-z
loop_
_atom_site_type_symbol
_atom_site_label
_atom_site_fract_x
_atom_site_fract_y
_atom_site_fract_z
Si Si1 0.876011 0.442425 0.849851
Si Si2 0.473476 0.875590 0.722417
Si Si3 0.660055 0.397264 0.557476
Si Si4 0.806687 0.666535 0.623504
Si Si5 0.256962 0.168928 0.126376
Si Si6 0.496362 0.574832 0.748362
Si Si7 0.677897 0.900324 0.997458
Si Si8 0.921789 0.938298 0.315048
O O1 0.864262 0.557285 0.730665
O O2 0.183213 0.696448 0.801366
O O3 0.809778 0.182062 0.932701
O O4 0.645773 0.321482 0.935472
O O5 0.617234 0.865165 0.794033
O O6 0.422333 0.714631 0.708022
O O7 0.656081 0.196948 0.605422
O O8 0.772062 0.538326 0.592850
O O9 0.830583 0.660934 0.415120
O O10 0.341799 0.190452 0.618967
O O11 0.532185 0.535285 0.683859
O O12 0.000000 0.000000 0.500000
O O13 0.200333 0.024214 0.102918
O O14 0.500000 0.500000 0.000000
O O15 0.013508 0.065087 0.191034
O O16 0.314675 0.282997 0.890671
O O17 0.808490 0.817174 0.709766
#
# Coordination Sequence:
#
# PCOD9111455 Si02
#       8
#     2   2   2   2   2   2   2   2
#     4  10  24  41  64  94 127 167 214 261 310 385
#     4  11  24  40  65  96 130 165 210 266 319 369
#     4  11  23  41  69  96 122 169 216 263 315 377
#     4  11  22  42  67  89 127 170 211 259 317 380
#     4  11  22  41  63  95 127 167 205 262 318 375
#     4  10  21  42  64  92 132 167 203 264 323 371
#     4  10  20  43  64  88 132 169 208 259 316 374
#     4  10  22  41  66  94 125 167 211 264 314 379
#
# _framework density 23.551544
#
# number of rings (size 3 to 8) (size 9 to 14) (size 15 to 20)
#    0.000    1.500    3.750    2.250    1.750    4.000 
#    9.000    0.625    0.000    0.000    0.000    0.000 
#    0.000    0.000    0.000    0.000    0.000    0.000 
#
# Total GULP energy -89300.162371 kJ/mol
# GULP energy per Si atom -5581.260148 kJ/mol
# Density = 2.349794 g / cm^3
# Si number density = 23.551544 Si / 1000 Ang^3
#
#
#
# Elastic Constant Matrix: (Units=GPa)
#
#
# Indices 1 2 3 4 5 6 
#
# 1 62.2000 25.5634 29.3966 -15.1460 12.3507 -12.1566
# 2 25.5634 55.5062 22.1620 -13.0321 2.0812 -10.8750
# 3 29.3966 22.1620 136.1160 -22.5641 11.6456 -17.9807
# 4 -15.1460 -13.0321 -22.5641 45.0173 -18.7896 0.6743
# 5 12.3507 2.0812 11.6456 -18.7896 50.8309 -15.3951
# 6 -12.1566 -10.8750 -17.9807 0.6743 -15.3951 47.6428
#
#
#
# Elastic Compliance Matrix: (Units=1/GPa)
#
#
# Indices 1 2 3 4 5 6 
#
# 1 0.022199 -0.008129 -0.002545 0.002575 -0.002965 0.001854
# 2 -0.008129 0.024205 -0.001061 0.005618 0.004660 0.004476
# 3 -0.002545 -0.001061 0.008956 0.003599 0.000752 0.002680
# 4 0.002575 0.005618 0.003599 0.031403 0.011963 0.006719
# 5 -0.002965 0.004660 0.000752 0.011963 0.027247 0.009226
# 6 0.001854 0.004476 0.002680 0.006719 0.009226 0.026382
#
#
# Mechanical properties :
#
#
# Convention : Reuss Voigt Hill
#
# Bulk Modulus (GPa) = 31.35953 45.34069 38.35011
# Shear Modulus (GPa) = 28.65484 40.47823 34.56654
#
# Velocity S-wave (km/s) = 3.49189 4.15023 3.83521
# Velocity P-wave (km/s) = 5.44076 6.50072 5.99421
#
# Compressibility (1/GPa) = 0.03188824
#
# Stress axis : x y z
#
# Youngs Moduli (GPa) = 45.04745 41.31419 111.66290
#
# Poissons Ratio (x) = 0.33582 0.28423
# Poissons Ratio (y) = 0.36617 0.11853
# Poissons Ratio (z) = 0.11467 0.04385
#
# Static dielectric constant tensor:
#      x y z
#    x 1.993850 -0.041170 -0.009190 
#    y -0.041170 2.006690 -0.008330 
#    z -0.009190 -0.008330 1.895860 
# 
# From -- ./inp_files/503788.got.cif
#   From: 2010.05.17/outbox.cif.g08.bks.cpg/sg2_252_cif.got.tgz:503788.got - 2010.06.03 11:33:40.
