data_PCOD9111061
_publ_section_title
;
Structure prediction by ZEFSAII (Michael W. Deem and Ramdas Pophale) SiO2 
 PCOD9111061
Probable space group: P -1
;
_chemical_formula_sum "Si O2"
_cell_formula_units_Z 15
_cell_length_a 11.940251
_cell_length_b 9.050676
_cell_length_c 12.406577
_cell_angle_alpha 69.084942
_cell_angle_beta 34.798645
_cell_angle_gamma 61.386968
_cell_volume 669.948409
_symmetry_space_group_name_H-M "P -1"
_symmetry_group_IT_number 2
_symmetry_cell_setting 'triclinic'
loop_
_space_group_symop_operation_xyz
x,y,z
-x,-y,-z
loop_
_atom_site_type_symbol
_atom_site_label
_atom_site_fract_x
_atom_site_fract_y
_atom_site_fract_z
Si Si1 0.687084 0.826209 0.276735
Si Si2 0.141878 0.643881 0.005711
Si Si3 0.308220 0.894070 0.232405
Si Si4 0.000000 0.500000 0.500000
Si Si5 0.016901 0.744210 0.606494
Si Si6 0.744800 0.108126 0.304583
Si Si7 0.753950 0.740236 0.002476
Si Si8 0.898654 0.198816 0.783137
O O1 0.468415 0.806729 0.483590
O O2 0.724348 0.818099 0.122877
O O3 0.891826 0.687553 0.201814
O O4 0.686774 0.001056 0.282383
O O5 0.213783 0.702055 0.046374
O O6 0.175035 0.759430 0.853543
O O7 0.245773 0.449596 0.946540
O O8 0.552541 0.848709 0.065322
O O9 0.232406 0.771044 0.401614
O O10 0.246751 0.857208 0.169915
O O11 0.164257 0.081405 0.332573
O O12 0.997040 0.587872 0.598021
O O13 0.020857 0.672132 0.381065
O O14 0.963297 0.732341 0.776795
O O15 0.916575 0.967707 0.277017
#
# Coordination Sequence:
#
# PCOD9111061 Si02
#       8
#     2   2   2   1   2   2   2   2
#     4  10  24  43  67  96 126 178 223 274 329 384
#     4  11  24  45  67  98 134 177 224 276 326 384
#     4  10  25  42  66 101 133 180 213 268 346 389
#     4  10  20  42  68  96 132 172 210 272 330 386
#     4  10  23  44  63  97 135 174 214 269 331 392
#     4  10  24  46  69  97 128 178 230 267 333 393
#     4  12  25  42  66 103 134 170 226 272 332 399
#     4  10  21  44  69  97 137 172 220 275 331 396
#
# _framework density 22.389783000000001
#
# number of rings (size 3 to 8) (size 9 to 14) (size 15 to 20)
#    0.000    1.600    1.333    2.400    9.333    2.133 
#    7.200    0.000    0.000    0.000    0.000    0.000 
#    0.000    0.000    0.000    0.000    0.000    0.000 
#
# Total GULP energy -83634.636759 kJ/mol
# GULP energy per Si atom -5575.642451 kJ/mol
# Density = 2.233882 g / cm^3
# Si number density = 22.389783 Si / 1000 Ang^3
#
#
#
# Elastic Constant Matrix: (Units=GPa)
#
#
# Indices 1 2 3 4 5 6 
#
# 1 102.9405 13.8723 37.0667 1.5406 27.2246 12.4837
# 2 13.8723 93.9724 9.3834 -17.2531 2.5024 0.0072
# 3 37.0667 9.3834 106.2155 -7.1469 23.8250 1.0962
# 4 1.5406 -17.2531 -7.1469 22.2375 -1.8807 8.3801
# 5 27.2246 2.5024 23.8250 -1.8807 37.9533 1.1522
# 6 12.4837 0.0072 1.0962 8.3801 1.1522 25.6334
#
#
#
# Elastic Compliance Matrix: (Units=1/GPa)
#
#
# Indices 1 2 3 4 5 6 
#
# 1 0.013825 -0.001888 -0.002967 -0.001921 -0.007854 -0.005625
# 2 -0.001888 0.012976 0.000059 0.011389 0.001113 -0.002860
# 3 -0.002967 0.000059 0.011840 0.003629 -0.005127 -0.000017
# 4 -0.001921 0.011389 0.003629 0.062752 0.002060 -0.019831
# 5 -0.007854 0.001113 -0.005127 0.002060 0.035175 0.001790
# 6 -0.005625 -0.002860 -0.000017 -0.019831 0.001790 0.048155
#
#
# Mechanical properties :
#
#
# Convention : Reuss Voigt Hill
#
# Bulk Modulus (GPa) = 34.42579 47.08593 40.75586
# Shear Modulus (GPa) = 24.50999 33.35190 28.93095
#
# Velocity S-wave (km/s) = 3.31221 3.86373 3.59855
# Velocity P-wave (km/s) = 5.48057 6.40158 5.95890
#
# Compressibility (1/GPa) = 0.02904799
#
# Stress axis : x y z
#
# Youngs Moduli (GPa) = 72.33109 77.06669 84.46220
#
# Poissons Ratio (x) = 0.14548 0.25063
# Poissons Ratio (y) = 0.13654 -0.00495
# Poissons Ratio (z) = 0.21463 -0.00452
#
# Static dielectric constant tensor:
#      x y z
#    x 1.842960 -0.001630 0.014810 
#    y -0.001630 1.815210 -0.036130 
#    z 0.014810 -0.036130 1.834530 
# 
# From -- ./inp_files/416760.got.cif
#   From: 2010.05.17/outbox.cif.g08.bks.cpg/sg2_209_cif.got.tgz:416760.got - 2010.06.03 11:33:40.
