data_PCOD9111859
_publ_section_title
;
Structure prediction by ZEFSAII (Michael W. Deem and Ramdas Pophale) SiO2 
 PCOD9111859
Probable space group: P -1
;
_chemical_formula_sum "Si O2"
_cell_formula_units_Z 16
_cell_length_a 11.512954
_cell_length_b 26.570398
_cell_length_c 5.563715
_cell_angle_alpha 119.841246
_cell_angle_beta 67.801059
_cell_angle_gamma 148.941812
_cell_volume 757.157012
_symmetry_space_group_name_H-M "P -1"
_symmetry_group_IT_number 2
_symmetry_cell_setting 'triclinic'
loop_
_space_group_symop_operation_xyz
x,y,z
-x,-y,-z
loop_
_atom_site_type_symbol
_atom_site_label
_atom_site_fract_x
_atom_site_fract_y
_atom_site_fract_z
Si Si1 0.467423 0.418547 0.857409
Si Si2 0.441768 0.133218 0.562942
Si Si3 0.404424 0.937686 0.678788
Si Si4 0.067195 0.207226 0.446799
Si Si5 0.058044 0.095622 0.501974
Si Si6 0.540994 0.798933 0.781251
Si Si7 0.575346 0.694708 0.984886
Si Si8 0.250666 0.577490 0.571381
O O1 0.210487 0.311563 0.711293
O O2 0.658575 0.451857 0.649444
O O3 0.500000 0.500000 0.000000
O O4 0.453485 0.376635 0.017526
O O5 0.546948 0.111225 0.473167
O O6 0.522098 0.186546 0.366095
O O7 0.498810 0.191420 0.898011
O O8 0.167490 0.019740 0.492495
O O9 0.139293 0.849517 0.677264
O O10 0.500000 0.000000 0.500000
O O11 0.500000 0.000000 0.000000
O O12 0.982817 0.126580 0.508448
O O13 0.260239 0.253148 0.243441
O O14 0.190364 0.108305 0.234387
O O15 0.268910 0.196975 0.746931
O O16 0.409320 0.687691 0.590925
O O17 0.327458 0.613414 0.876946
O O18 0.000000 0.500000 0.500000
#
# Coordination Sequence:
#
# PCOD9111859 Si02
#       8
#     2   2   2   2   2   2   2   2
#     4  10  23  45  71 101 126 173 245 296 354 422
#     4  12  27  41  69 104 144 182 234 281 340 417
#     4  12  25  45  67  97 144 187 231 277 347 411
#     4  10  22  39  71  95 130 181 228 279 346 416
#     4  11  21  41  68  99 132 185 222 281 338 412
#     4  12  25  45  64 105 140 178 238 282 341 421
#     4  10  20  43  72  95 136 174 238 283 355 422
#     4  11  25  45  69  98 138 187 226 295 368 415
#
# _framework density 21.131681
#
# number of rings (size 3 to 8) (size 9 to 14) (size 15 to 20)
#    0.000    1.000    5.000    3.000    3.500    3.500 
#    4.500    0.000    0.000    0.000    0.000    0.000 
#    0.000    0.000    0.000    0.000    0.000    0.000 
#
# Total GULP energy -89155.484674 kJ/mol
# GULP energy per Si atom -5572.217792 kJ/mol
# Density = 2.108358 g / cm^3
# Si number density = 21.131681 Si / 1000 Ang^3
#
#
#
# Elastic Constant Matrix: (Units=GPa)
#
#
# Indices 1 2 3 4 5 6 
#
# 1 135.2046 30.9216 54.5514 18.3836 16.7245 6.2519
# 2 30.9216 64.2177 29.0050 6.1801 13.8942 -6.4869
# 3 54.5514 29.0050 95.5525 4.1632 15.3945 -9.7844
# 4 18.3836 6.1801 4.1632 16.6812 -0.6446 7.5307
# 5 16.7245 13.8942 15.3945 -0.6446 41.2239 8.2119
# 6 6.2519 -6.4869 -9.7844 7.5307 8.2119 54.2687
#
#
#
# Elastic Compliance Matrix: (Units=1/GPa)
#
#
# Indices 1 2 3 4 5 6 
#
# 1 0.011747 -0.001785 -0.005427 -0.010682 -0.002158 -0.000736
# 2 -0.001785 0.020266 -0.003556 -0.006564 -0.005628 0.003749
# 3 -0.005427 -0.003556 0.015353 0.001935 -0.002929 0.003143
# 4 -0.010682 -0.006564 0.001935 0.079279 0.009379 -0.011626
# 5 -0.002158 -0.005628 -0.002929 0.009379 0.029612 -0.006734
# 6 -0.000736 0.003749 0.003143 -0.011626 -0.006734 0.022159
#
#
# Mechanical properties :
#
#
# Convention : Reuss Voigt Hill
#
# Bulk Modulus (GPa) = 38.71537 58.21456 48.46496
# Shear Modulus (GPa) = 23.97375 34.46787 29.22081
#
# Velocity S-wave (km/s) = 3.37188 4.04307 3.72263
# Velocity P-wave (km/s) = 5.78966 7.02876 6.43909
#
# Compressibility (1/GPa) = 0.02582954
#
# Stress axis : x y z
#
# Youngs Moduli (GPa) = 85.12468 49.34463 65.13506
#
# Poissons Ratio (x) = 0.08807 0.35350
# Poissons Ratio (y) = 0.15193 0.23163
# Poissons Ratio (z) = 0.46199 0.17547
#
# Static dielectric constant tensor:
#      x y z
#    x 3.120810 -0.199920 0.934020 
#    y -0.199920 1.788920 -0.174930 
#    z 0.934020 -0.174930 2.672900 
# 
# From -- ./inp_files/77601.got.cif
#   From: 2010.05.17/outbox.cif.g08.bks.cpg/sg2_39_cif.got.tgz:77601.got - 2010.06.03 11:33:40.
