data_PCOD9111257
_publ_section_title
;
Structure prediction by ZEFSAII (Michael W. Deem and Ramdas Pophale) SiO2 
 PCOD9111257
Probable space group: P -1
;
_chemical_formula_sum "Si O2"
_cell_formula_units_Z 15
_cell_length_a 12.120890
_cell_length_b 9.971082
_cell_length_c 7.814986
_cell_angle_alpha 54.815993
_cell_angle_beta 132.259206
_cell_angle_gamma 115.843125
_cell_volume 569.495203
_symmetry_space_group_name_H-M "P -1"
_symmetry_group_IT_number 2
_symmetry_cell_setting 'triclinic'
loop_
_space_group_symop_operation_xyz
x,y,z
-x,-y,-z
loop_
_atom_site_type_symbol
_atom_site_label
_atom_site_fract_x
_atom_site_fract_y
_atom_site_fract_z
Si Si1 0.187240 0.634112 0.246407
Si Si2 0.774158 0.909103 0.404180
Si Si3 0.500000 0.000000 0.500000
Si Si4 0.889517 0.451515 0.162498
Si Si5 0.065252 0.974694 0.865959
Si Si6 0.335952 0.787653 0.775234
Si Si7 0.246159 0.246922 0.035238
Si Si8 0.612161 0.611418 0.276502
O O1 0.347165 0.570877 0.501741
O O2 0.064770 0.507498 0.304874
O O3 0.150569 0.613772 0.021584
O O4 0.157882 0.819476 0.123885
O O5 0.897767 0.917196 0.676015
O O6 0.687628 0.733795 0.409354
O O7 0.669455 0.056031 0.220598
O O8 0.859499 0.953702 0.284053
O O9 0.410768 0.861137 0.630121
O O10 0.628637 0.869066 0.686896
O O11 0.828957 0.305328 0.332957
O O12 0.807080 0.612093 0.003937
O O13 0.897456 0.877807 0.072803
O O14 0.441906 0.653129 0.056456
O O15 0.313680 0.335483 0.867466
#
# Coordination Sequence:
#
# PCOD9111257 Si02
#       8
#     2   2   1   2   2   2   2   2
#     4  11  24  44  68 110 143 183 236 300 336 440
#     4  10  20  42  71 101 138 185 233 301 345 417
#     4  10  26  46  68 102 146 182 246 294 346 428
#     4  11  25  44  71 104 148 187 233 284 374 403
#     4  10  22  42  72 105 140 182 244 288 352 416
#     4  11  24  45  72 101 139 197 230 295 356 422
#     4  10  25  46  69 105 141 196 232 296 352 425
#     4  10  24  43  70 103 144 179 246 289 355 420
#
# _framework density 26.339116000000001
#
# number of rings (size 3 to 8) (size 9 to 14) (size 15 to 20)
#    0.000    1.600    1.333    2.000    7.467    5.867 
#    0.000    0.000    0.000    0.000    0.000    0.000 
#    0.000    0.000    0.000    0.000    0.000    0.000 
#
# Total GULP energy -83878.974656 kJ/mol
# GULP energy per Si atom -5591.931644 kJ/mol
# Density = 2.627917 g / cm^3
# Si number density = 26.339116 Si / 1000 Ang^3
#
#
#
# Elastic Constant Matrix: (Units=GPa)
#
#
# Indices 1 2 3 4 5 6 
#
# 1 97.5680 38.7636 5.3960 5.0537 2.2778 -0.5010
# 2 38.7636 125.7136 22.1128 -7.9018 -0.4231 -13.1021
# 3 5.3960 22.1128 119.5895 -17.0291 20.2843 -14.5045
# 4 5.0537 -7.9018 -17.0291 32.7361 -6.1895 4.7813
# 5 2.2778 -0.4231 20.2843 -6.1895 39.8062 -21.6752
# 6 -0.5010 -13.1021 -14.5045 4.7813 -21.6752 41.5358
#
#
#
# Elastic Compliance Matrix: (Units=1/GPa)
#
#
# Indices 1 2 3 4 5 6 
#
# 1 0.012091 -0.004124 -0.000075 -0.003035 -0.002266 -0.002014
# 2 -0.004124 0.010100 -0.001461 0.002403 0.003829 0.004347
# 3 -0.000075 -0.001461 0.009971 0.003986 -0.004300 0.000317
# 4 -0.003035 0.002403 0.003986 0.034333 0.003500 -0.000012
# 5 -0.002266 0.003829 -0.004300 0.003500 0.038602 0.019420
# 6 -0.002014 0.004347 0.000317 -0.000012 0.019420 0.035669
#
#
# Mechanical properties :
#
#
# Convention : Reuss Voigt Hill
#
# Bulk Modulus (GPa) = 47.97981 52.82398 50.40190
# Shear Modulus (GPa) = 31.43961 41.25554 36.34757
#
# Velocity S-wave (km/s) = 3.45867 3.96197 3.71884
# Velocity P-wave (km/s) = 5.84855 6.40535 6.13327
#
# Compressibility (1/GPa) = 0.02084210
#
# Stress axis : x y z
#
# Youngs Moduli (GPa) = 82.70291 99.00813 100.29097
#
# Poissons Ratio (x) = 0.40826 0.00755
# Poissons Ratio (y) = 0.34103 0.14657
# Poissons Ratio (z) = 0.00623 0.14470
#
# Static dielectric constant tensor:
#      x y z
#    x 2.044970 0.001800 0.000500 
#    y 0.001800 2.011750 0.028420 
#    z 0.000500 0.028420 2.038720 
# 
# From -- ./inp_files/261818.got.cif
#   From: 2010.05.17/outbox.cif.g08.bks.cpg/sg2_131_cif.got.tgz:261818.got - 2010.06.03 11:33:40.
