data_PCOD9111304
_publ_section_title
;
Structure prediction by ZEFSAII (Michael W. Deem and Ramdas Pophale) SiO2 
 PCOD9111304
Probable space group: P -1
;
_chemical_formula_sum "Si O2"
_cell_formula_units_Z 16
_cell_length_a 9.142597
_cell_length_b 7.318592
_cell_length_c 12.471292
_cell_angle_alpha 130.109748
_cell_angle_beta 87.473739
_cell_angle_gamma 106.528908
_cell_volume 600.706669
_symmetry_space_group_name_H-M "P -1"
_symmetry_group_IT_number 2
_symmetry_cell_setting 'triclinic'
loop_
_space_group_symop_operation_xyz
x,y,z
-x,-y,-z
loop_
_atom_site_type_symbol
_atom_site_label
_atom_site_fract_x
_atom_site_fract_y
_atom_site_fract_z
Si Si1 0.487700 0.236420 0.664874
Si Si2 0.066496 0.956448 0.367729
Si Si3 0.578343 0.260172 0.223961
Si Si4 0.974146 0.969206 0.138652
Si Si5 0.330567 0.325911 0.901686
Si Si6 0.175181 0.513252 0.273938
Si Si7 0.317143 0.468596 0.487087
Si Si8 0.728681 0.179339 0.974744
O O1 0.441283 0.469575 0.703987
O O2 0.371247 0.166502 0.742613
O O3 0.661595 0.387949 0.756002
O O4 0.500000 0.000000 0.500000
O O5 0.223695 0.186775 0.423710
O O6 0.093008 0.694926 0.292622
O O7 0.970355 0.970157 0.269856
O O8 0.000000 0.000000 0.500000
O O9 0.500000 0.500000 0.500000
O O10 0.659498 0.162314 0.089453
O O11 0.692646 0.332671 0.348151
O O12 0.105780 0.846405 0.062084
O O13 0.047794 0.238119 0.180864
O O14 0.258455 0.538645 0.949817
O O15 0.500000 0.500000 0.000000
O O16 0.205899 0.166987 0.931964
O O17 0.246319 0.527698 0.400145
O O18 0.407823 0.049053 0.167268
#
# Coordination Sequence:
#
# PCOD9111304 Si02
#       8
#     2   2   2   2   2   2   2   2
#     4  11  23  43  77 111 157 203 257 326 391 465
#     4  11  28  47  72 113 159 203 258 328 398 470
#     4  10  20  42  72 113 152 207 257 320 387 473
#     4  11  25  52  79 112 157 206 265 329 399 470
#     4  11  28  50  76 115 154 208 269 328 406 479
#     4  11  25  46  77 110 158 204 263 320 404 475
#     4  11  22  42  73 114 152 199 256 317 398 463
#     4  10  22  45  76 106 158 208 260 318 394 475
#
# _framework density 26.635294999999999
#
# number of rings (size 3 to 8) (size 9 to 14) (size 15 to 20)
#    0.000    1.250    2.500    1.875    7.000    3.000 
#    2.250    1.875    0.000    0.000    0.000    0.000 
#    0.000    0.000    0.000    0.000    0.000    0.000 
#
# Total GULP energy -89456.876947 kJ/mol
# GULP energy per Si atom -5591.054809 kJ/mol
# Density = 2.657467 g / cm^3
# Si number density = 26.635295 Si / 1000 Ang^3
#
#
#
# Elastic Constant Matrix: (Units=GPa)
#
#
# Indices 1 2 3 4 5 6 
#
# 1 99.5504 74.7943 35.5044 13.2991 -17.0847 36.1512
# 2 74.7943 188.1246 44.1615 36.7736 -30.0189 12.9792
# 3 35.5044 44.1615 118.9485 6.9231 -9.9409 22.8533
# 4 13.2991 36.7736 6.9231 46.7272 8.7088 -4.7096
# 5 -17.0847 -30.0189 -9.9409 8.7088 35.2300 -1.0078
# 6 36.1512 12.9792 22.8533 -4.7096 -1.0078 67.2908
#
#
#
# Elastic Compliance Matrix: (Units=1/GPa)
#
#
# Indices 1 2 3 4 5 6 
#
# 1 0.018875 -0.005274 -0.001441 -0.002764 0.004686 -0.008757
# 2 -0.005274 0.010512 -0.001353 -0.007982 0.008015 0.000827
# 3 -0.001441 -0.001353 0.009894 -0.000408 0.000974 -0.002339
# 4 -0.002764 -0.007982 -0.000408 0.032037 -0.016029 0.005165
# 5 0.004686 0.008015 0.000974 -0.016029 0.041583 -0.004893
# 6 -0.008757 0.000827 -0.002339 0.005165 -0.004893 0.020489
#
#
# Mechanical properties :
#
#
# Convention : Reuss Voigt Hill
#
# Bulk Modulus (GPa) = 43.20538 79.50488 61.35513
# Shear Modulus (GPa) = 31.79824 46.66047 39.22935
#
# Velocity S-wave (km/s) = 3.45895 4.19003 3.84191
# Velocity P-wave (km/s) = 5.67527 7.30224 6.53955
#
# Compressibility (1/GPa) = 0.02314527
#
# Stress axis : x y z
#
# Youngs Moduli (GPa) = 52.98047 95.12834 101.07115
#
# Poissons Ratio (x) = 0.50169 0.14564
# Poissons Ratio (y) = 0.27941 0.13676
# Poissons Ratio (z) = 0.07634 0.12872
#
# Static dielectric constant tensor:
#      x y z
#    x 1.847430 -0.260650 0.432900 
#    y -0.260650 1.909330 0.228770 
#    z 0.432900 0.228770 1.892160 
# 
# From -- ./inp_files/460865.got.cif
#   From: 2010.05.17/outbox.cif.g08.bks.cpg/sg2_231_cif.got.tgz:460865.got - 2010.06.03 11:33:40.
