data_PCOD9111326
_publ_section_title
;
Structure prediction by ZEFSAII (Michael W. Deem and Ramdas Pophale) SiO2 
 PCOD9111326
Probable space group: P -1
;
_chemical_formula_sum "Si O2"
_cell_formula_units_Z 16
_cell_length_a 28.539124
_cell_length_b 9.599854
_cell_length_c 13.579730
_cell_angle_alpha 148.917331
_cell_angle_beta 154.313486
_cell_angle_gamma 21.369203
_cell_volume 584.106624
_symmetry_space_group_name_H-M "P -1"
_symmetry_group_IT_number 2
_symmetry_cell_setting 'triclinic'
loop_
_space_group_symop_operation_xyz
x,y,z
-x,-y,-z
loop_
_atom_site_type_symbol
_atom_site_label
_atom_site_fract_x
_atom_site_fract_y
_atom_site_fract_z
Si Si1 0.397954 0.419355 0.762167
Si Si2 0.231052 0.847977 0.519373
Si Si3 0.091580 0.618062 0.660781
Si Si4 0.213071 0.979863 0.035550
Si Si5 0.871819 0.787123 0.190937
Si Si6 0.317689 0.890787 0.389043
Si Si7 0.817166 0.321962 0.871070
Si Si8 0.583169 0.787569 0.130926
O O1 0.343733 0.490018 0.590167
O O2 0.482877 0.096097 0.811779
O O3 0.232179 0.767366 0.712020
O O4 0.500000 0.500000 0.000000
O O5 0.267177 0.675598 0.376556
O O6 0.219076 0.197156 0.698848
O O7 0.055267 0.092334 0.368760
O O8 0.143021 0.818021 0.840740
O O9 0.021209 0.571932 0.408704
O O10 0.362768 0.612428 0.036362
O O11 0.110848 0.282727 0.936103
O O12 0.260360 0.058083 0.269998
O O13 0.782794 0.696921 0.017366
O O14 0.500000 0.500000 0.500000
O O15 0.225336 0.786118 0.182712
O O16 0.301027 0.167070 0.601380
O O17 0.000000 0.000000 0.000000
O O18 0.500000 0.000000 0.000000
#
# Coordination Sequence:
#
# PCOD9111326 Si02
#       8
#     2   2   2   2   2   2   2   2
#     4  10  25  41  69  98 129 184 237 283 349 418
#     4  10  22  39  67 101 135 176 234 287 352 411
#     4  10  20  42  72  98 135 185 234 286 356 420
#     4  11  24  44  70  98 144 182 233 299 346 414
#     4  10  24  43  67 103 138 180 237 289 357 416
#     4  12  28  45  71 105 136 189 241 284 356 426
#     4  12  25  45  69 105 140 183 235 293 351 421
#     4  11  25  46  67  97 141 185 232 284 350 418
#
# _framework density 27.392257000000001
#
# number of rings (size 3 to 8) (size 9 to 14) (size 15 to 20)
#    0.000    1.250    2.500    1.875   10.500    0.000 
#    0.000    2.500    0.000    0.000    0.000    0.000 
#    0.000    0.000    0.000    0.000    0.000    0.000 
#
# Total GULP energy -89313.883502 kJ/mol
# GULP energy per Si atom -5582.117719 kJ/mol
# Density = 2.732991 g / cm^3
# Si number density = 27.392257 Si / 1000 Ang^3
#
#
#
# Elastic Constant Matrix: (Units=GPa)
#
#
# Indices 1 2 3 4 5 6 
#
# 1 150.6129 24.7283 59.2714 -17.7191 -20.5887 49.0627
# 2 24.7283 79.3560 23.2024 2.8974 -7.6462 19.9581
# 3 59.2714 23.2024 130.2406 -0.4153 -43.8963 27.1387
# 4 -17.7191 2.8974 -0.4153 27.9927 16.8178 -4.9637
# 5 -20.5887 -7.6462 -43.8963 16.8178 77.5149 -12.7912
# 6 49.0627 19.9581 27.1387 -4.9637 -12.7912 46.9153
#
#
#
# Elastic Compliance Matrix: (Units=1/GPa)
#
#
# Indices 1 2 3 4 5 6 
#
# 1 0.012135 -0.000575 -0.004142 0.007371 -0.002417 -0.009929
# 2 -0.000575 0.014558 -0.001109 -0.003086 0.000475 -0.005147
# 3 -0.004142 -0.001109 0.012359 -0.006774 0.007072 -0.001134
# 4 0.007371 -0.003086 -0.006774 0.048125 -0.012767 -0.000867
# 5 -0.002417 0.000475 0.007072 -0.012767 0.019441 0.002184
# 6 -0.009929 -0.005147 -0.001134 -0.000867 0.002184 0.035048
#
#
# Mechanical properties :
#
#
# Convention : Reuss Voigt Hill
#
# Bulk Modulus (GPa) = 36.49737 63.84596 50.17167
# Shear Modulus (GPa) = 30.77848 47.35177 39.06513
#
# Velocity S-wave (km/s) = 3.35568 4.16222 3.78052
# Velocity P-wave (km/s) = 5.32607 6.81597 6.11655
#
# Compressibility (1/GPa) = 0.02739923
#
# Stress axis : x y z
#
# Youngs Moduli (GPa) = 82.40398 68.69171 80.91300
#
# Poissons Ratio (x) = 0.03951 0.33517
# Poissons Ratio (y) = 0.04740 0.08972
# Poissons Ratio (z) = 0.34135 0.07617
#
# Static dielectric constant tensor:
#      x y z
#    x 2.267850 0.111320 -0.029410 
#    y 0.111320 2.499830 -0.068390 
#    z -0.029410 -0.068390 2.143120 
# 
# From -- ./inp_files/298949.got.cif
#   From: 2010.05.17/outbox.cif.g08.bks.cpg/sg2_150_cif.got.tgz:298949.got - 2010.06.03 11:33:40.
