data_PCOD9111512
_publ_section_title
;
Structure prediction by ZEFSAII (Michael W. Deem and Ramdas Pophale) SiO2 
 PCOD9111512
Probable space group: P -1
;
_chemical_formula_sum "Si O2"
_cell_formula_units_Z 15
_cell_length_a 9.186860
_cell_length_b 11.955967
_cell_length_c 23.306752
_cell_angle_alpha 30.036517
_cell_angle_beta 31.210080
_cell_angle_gamma 37.535178
_cell_volume 650.211628
_symmetry_space_group_name_H-M "P -1"
_symmetry_group_IT_number 2
_symmetry_cell_setting 'triclinic'
loop_
_space_group_symop_operation_xyz
x,y,z
-x,-y,-z
loop_
_atom_site_type_symbol
_atom_site_label
_atom_site_fract_x
_atom_site_fract_y
_atom_site_fract_z
Si Si1 0.500000 0.000000 0.500000
Si Si2 0.646906 0.546303 0.661974
Si Si3 0.028364 0.717742 0.855077
Si Si4 0.657876 0.872979 0.805597
Si Si5 0.581320 0.618944 0.300381
Si Si6 0.816739 0.135404 0.449238
Si Si7 0.068872 0.831614 0.998098
Si Si8 0.812196 0.071183 0.864058
O O1 0.237077 0.227310 0.489702
O O2 0.603758 0.048443 0.513390
O O3 0.611654 0.420072 0.671144
O O4 0.775260 0.343651 0.751186
O O5 0.328206 0.680532 0.734260
O O6 0.764697 0.769118 0.877257
O O7 0.991682 0.934345 0.812645
O O8 0.000000 0.500000 0.000000
O O9 0.928073 0.832394 0.692556
O O10 0.541226 0.145665 0.730963
O O11 0.407673 0.760986 0.914440
O O12 0.647786 0.384184 0.417204
O O13 0.875784 0.649605 0.156071
O O14 0.000000 0.000000 0.500000
O O15 0.000000 0.000000 0.000000
O O16 0.960873 0.970052 0.916530
O O17 0.500000 0.000000 0.000000
#
# Coordination Sequence:
#
# PCOD9111512 Si02
#       8
#     1   2   2   2   2   2   2   2
#     4  10  24  46  68  94 130 184 236 276 332 394
#     4  11  22  41  66  94 134 172 227 276 331 402
#     4  12  22  37  67 100 128 170 217 272 340 410
#     4  11  23  43  65  99 138 175 218 279 348 407
#     4  10  20  43  65  94 137 174 212 278 346 410
#     4  11  26  48  68  95 135 183 239 288 331 394
#     4  10  22  38  63 101 136 172 211 270 356 416
#     4  12  21  39  64  96 132 172 213 270 338 406
#
# _framework density 23.069412
#
# number of rings (size 3 to 8) (size 9 to 14) (size 15 to 20)
#    0.000    1.067    6.667    0.800    0.000    4.267 
#    0.000    6.000    0.000    0.000    0.000    0.000 
#    0.000    0.000    0.000    0.000    0.000    0.000 
#
# Total GULP energy -83518.238902 kJ/mol
# GULP energy per Si atom -5567.882593 kJ/mol
# Density = 2.301691 g / cm^3
# Si number density = 23.069412 Si / 1000 Ang^3
#
#
#
# Elastic Constant Matrix: (Units=GPa)
#
#
# Indices 1 2 3 4 5 6 
#
# 1 143.2726 29.3339 32.6250 -25.1476 36.5838 -24.4803
# 2 29.3339 120.4485 34.6425 -25.1230 2.8317 -2.0918
# 3 32.6250 34.6425 33.8738 -28.3515 18.9584 -11.2093
# 4 -25.1476 -25.1230 -28.3515 52.0763 -7.0940 -0.2806
# 5 36.5838 2.8317 18.9584 -7.0940 31.0616 -0.8985
# 6 -24.4803 -2.0918 -11.2093 -0.2806 -0.8985 26.6839
#
#
#
# Elastic Compliance Matrix: (Units=1/GPa)
#
#
# Indices 1 2 3 4 5 6 
#
# 1 0.033084 -0.029686 0.131980 0.060222 -0.100725 0.080708
# 2 -0.029686 0.049566 -0.191141 -0.077801 0.126440 -0.100203
# 3 0.131980 -0.191141 0.913000 0.390435 -0.592391 0.473785
# 4 0.060222 -0.077801 0.390435 0.189993 -0.252767 0.206649
# 5 -0.100725 0.126440 -0.592391 -0.252767 0.433896 -0.319392
# 6 0.080708 -0.100203 0.473785 0.206649 -0.319392 0.294108
#
#
# Mechanical properties :
#
#
# Convention : Reuss Voigt Hill
#
# Bulk Modulus (GPa) = 1.22256 54.53309 27.87783
# Shear Modulus (GPa) = 2.11507 35.36394 18.73950
#
# Velocity S-wave (km/s) = 0.95855 3.91952 2.85320
# Velocity P-wave (km/s) = 1.32521 6.64632 4.79217
#
# Compressibility (1/GPa) = 0.81795595
#
# Stress axis : x y z
#
# Youngs Moduli (GPa) = 30.22606 20.17502 1.09529
#
# Poissons Ratio (x) = 0.59891 -0.14456
# Poissons Ratio (y) = 0.89728 0.20936
# Poissons Ratio (z) = -3.98923 3.85628
#
# Static dielectric constant tensor:
#      x y z
#    x 1.897910 -0.039460 -0.000170 
#    y -0.039460 1.889350 0.026170 
#    z -0.000170 0.026170 1.660330 
# 
# From -- ./inp_files/413947.got.cif
#   From: 2010.05.17/outbox.cif.g08.bks.cpg/sg2_207_cif.got.tgz:413947.got - 2010.06.03 11:33:40.
