data_PCOD9111263
_publ_section_title
;
Structure prediction by ZEFSAII (Michael W. Deem and Ramdas Pophale) SiO2 
 PCOD9111263
Probable space group: P -1
;
_chemical_formula_sum "Si O2"
_cell_formula_units_Z 16
_cell_length_a 5.227727
_cell_length_b 23.917161
_cell_length_c 9.679952
_cell_angle_alpha 41.017217
_cell_angle_beta 48.942347
_cell_angle_gamma 60.226621
_cell_volume 598.945698
_symmetry_space_group_name_H-M "P -1"
_symmetry_group_IT_number 2
_symmetry_cell_setting 'triclinic'
loop_
_space_group_symop_operation_xyz
x,y,z
-x,-y,-z
loop_
_atom_site_type_symbol
_atom_site_label
_atom_site_fract_x
_atom_site_fract_y
_atom_site_fract_z
Si Si1 0.116484 0.532107 0.048787
Si Si2 0.761523 0.390986 0.552918
Si Si3 0.647465 0.261659 0.081025
Si Si4 0.513266 0.691065 0.641087
Si Si5 0.300348 0.922094 0.643211
Si Si6 0.498557 0.971704 0.211096
Si Si7 0.934498 0.118455 0.927836
Si Si8 0.429434 0.258564 0.762204
O O1 0.849977 0.491176 0.328187
O O2 0.500000 0.500000 0.000000
O O3 0.178066 0.632676 0.847314
O O4 0.000000 0.500000 0.000000
O O5 0.645335 0.341126 0.825365
O O6 0.129970 0.354760 0.438922
O O7 0.505985 0.357377 0.588197
O O8 0.053792 0.242145 0.980802
O O9 0.501928 0.286109 0.235702
O O10 0.503747 0.169524 0.255168
O O11 0.513007 0.757920 0.390084
O O12 0.218301 0.941657 0.475925
O O13 0.500000 0.000000 0.500000
O O14 0.002515 0.905868 0.889112
O O15 0.737401 0.887945 0.269638
O O16 0.500000 0.000000 0.000000
O O17 0.698711 0.045024 0.084068
O O18 0.718555 0.203596 0.836093
#
# Coordination Sequence:
#
# PCOD9111263 Si02
#       8
#     2   2   2   2   2   2   2   2
#     4  10  20  42  71 105 145 194 239 289 360 430
#     4  10  22  43  69  91 144 182 225 280 351 414
#     4  11  25  41  64 103 129 176 238 282 347 417
#     4  10  24  41  69 101 135 181 233 282 342 415
#     4  10  23  44  62  87 129 170 217 283 343 407
#     4  10  24  41  64  89 116 163 221 269 334 407
#     4  10  23  42  60  90 125 162 211 275 340 398
#     4  11  23  41  66  96 136 176 217 286 346 410
#
# _framework density 26.713608000000001
#
# number of rings (size 3 to 8) (size 9 to 14) (size 15 to 20)
#    0.000    1.750    2.500    0.000    5.250    3.000 
#    4.500    0.625    0.000    0.000    0.000    0.000 
#    0.000    0.000    0.000    0.000    0.000    0.000 
#
# Total GULP energy -89340.135918 kJ/mol
# GULP energy per Si atom -5583.758495 kJ/mol
# Density = 2.665281 g / cm^3
# Si number density = 26.713608 Si / 1000 Ang^3
#
#
#
# Elastic Constant Matrix: (Units=GPa)
#
#
# Indices 1 2 3 4 5 6 
#
# 1 80.2745 12.1784 35.7892 10.2702 10.3786 13.7825
# 2 12.1784 56.9787 48.5732 12.8815 7.5535 19.6349
# 3 35.7892 48.5732 198.2687 23.7502 29.7145 11.9753
# 4 10.2702 12.8815 23.7502 55.4237 15.6010 -6.1887
# 5 10.3786 7.5535 29.7145 15.6010 45.6830 2.6727
# 6 13.7825 19.6349 11.9753 -6.1887 2.6727 44.7365
#
#
#
# Elastic Compliance Matrix: (Units=1/GPa)
#
#
# Indices 1 2 3 4 5 6 
#
# 1 0.014466 0.000935 -0.002150 -0.002193 -0.001029 -0.004534
# 2 0.000935 0.027343 -0.005711 -0.005852 0.001662 -0.011669
# 3 -0.002150 -0.005711 0.007276 -0.000318 -0.003272 0.001372
# 4 -0.002193 -0.005852 -0.000318 0.022514 -0.006415 0.006827
# 5 -0.001029 0.001662 -0.003272 -0.006415 0.026284 -0.001995
# 6 -0.004534 -0.011669 0.001372 0.006827 -0.001995 0.029568
#
#
# Mechanical properties :
#
#
# Convention : Reuss Voigt Hill
#
# Bulk Modulus (GPa) = 28.38131 58.73370 43.55750
# Shear Modulus (GPa) = 32.66999 45.10070 38.88535
#
# Velocity S-wave (km/s) = 3.50090 4.11336 3.81942
# Velocity P-wave (km/s) = 5.19510 6.67786 5.98259
#
# Compressibility (1/GPa) = 0.03523446
#
# Stress axis : x y z
#
# Youngs Moduli (GPa) = 69.12882 36.57298 137.43229
#
# Poissons Ratio (x) = -0.03420 0.29542
# Poissons Ratio (y) = -0.06465 0.78484
# Poissons Ratio (z) = 0.14860 0.20886
#
# Static dielectric constant tensor:
#      x y z
#    x 2.280240 -0.238030 0.232830 
#    y -0.238030 2.554210 -0.475760 
#    z 0.232830 -0.475760 2.471030 
# 
# From -- ./inp_files/142512.got.cif
#   From: 2010.05.17/outbox.cif.g08.bks.cpg/sg2_72_cif.got.tgz:142512.got - 2010.06.03 11:33:40.
