data_PCOD9111726
_publ_section_title
;
Structure prediction by ZEFSAII (Michael W. Deem and Ramdas Pophale) SiO2 
 PCOD9111726
Probable space group: P -1
;
_chemical_formula_sum "Si O2"
_cell_formula_units_Z 16
_cell_length_a 8.235272
_cell_length_b 8.842331
_cell_length_c 14.838372
_cell_angle_alpha 118.362774
_cell_angle_beta 104.177810
_cell_angle_gamma 118.666528
_cell_volume 659.536475
_symmetry_space_group_name_H-M "P -1"
_symmetry_group_IT_number 2
_symmetry_cell_setting 'triclinic'
loop_
_space_group_symop_operation_xyz
x,y,z
-x,-y,-z
loop_
_atom_site_type_symbol
_atom_site_label
_atom_site_fract_x
_atom_site_fract_y
_atom_site_fract_z
Si Si1 0.437930 0.539697 0.800106
Si Si2 0.557050 0.198083 0.448729
Si Si3 0.202217 0.657065 0.722102
Si Si4 0.987227 0.097446 0.707686
Si Si5 0.970658 0.277536 0.108737
Si Si6 0.929404 0.891707 0.072136
Si Si7 0.028090 0.301476 0.450403
Si Si8 0.560467 0.255220 0.675150
O O1 0.426921 0.695972 0.777192
O O2 0.448219 0.360110 0.704965
O O3 0.183142 0.356787 0.761714
O O4 0.663333 0.710303 0.944718
O O5 0.722704 0.443986 0.483782
O O6 0.611812 0.268210 0.580691
O O7 0.279708 0.033576 0.357993
O O8 0.574108 0.005220 0.380089
O O9 0.176746 0.728510 0.837207
O O10 0.027167 0.393094 0.574375
O O11 0.156496 0.772873 0.674249
O O12 0.077666 0.136081 0.831681
O O13 0.975236 0.904134 0.602360
O O14 0.185078 0.554022 0.192334
O O15 0.046674 0.158568 0.139633
O O16 0.925824 0.154907 0.971817
#
# Coordination Sequence:
#
# PCOD9111726 Si02
#       8
#     2   2   2   2   2   2   2   2
#     4  11  26  41  66  93 133 174 217 263 320 377
#     4  11  23  39  67  93 132 168 211 264 327 387
#     4  11  23  43  66  99 128 171 210 263 330 383
#     4  12  24  43  66  98 129 173 215 266 320 381
#     4  10  20  43  69  87 130 172 211 265 313 379
#     4  10  23  43  66  93 130 172 220 269 307 373
#     4  11  25  40  69  99 137 157 213 274 319 392
#     4  10  22  40  62  98 130 167 212 264 323 386
#
# _framework density 24.259460000000001
#
# number of rings (size 3 to 8) (size 9 to 14) (size 15 to 20)
#    0.000    1.250    2.500    2.250    5.250    4.500 
#    0.000    6.875    0.000    0.000    0.000    0.000 
#    0.000    0.000    0.000    0.000    0.000    0.000 
#
# Total GULP energy -89198.914957 kJ/mol
# GULP energy per Si atom -5574.932185 kJ/mol
# Density = 2.420424 g / cm^3
# Si number density = 24.259460 Si / 1000 Ang^3
#
#
#
# Elastic Constant Matrix: (Units=GPa)
#
#
# Indices 1 2 3 4 5 6 
#
# 1 93.2533 6.4624 36.5414 10.2142 -13.9660 -9.0014
# 2 6.4624 72.6556 24.0068 23.0030 4.6310 21.6437
# 3 36.5414 24.0068 88.1083 17.1774 -15.0019 -2.4224
# 4 10.2142 23.0030 17.1774 32.7244 12.1706 -2.0740
# 5 -13.9660 4.6310 -15.0019 12.1706 46.7690 7.2074
# 6 -9.0014 21.6437 -2.4224 -2.0740 7.2074 35.9437
#
#
#
# Elastic Compliance Matrix: (Units=1/GPa)
#
#
# Indices 1 2 3 4 5 6 
#
# 1 0.013457 0.000547 -0.004530 -0.003219 0.003050 0.001938
# 2 0.000547 0.025932 -0.003255 -0.019423 0.004332 -0.017687
# 3 -0.004530 -0.003255 0.016585 -0.007267 0.006135 0.000294
# 4 -0.003219 -0.019423 -0.007267 0.057186 -0.018947 0.017499
# 5 0.003050 0.004332 0.006135 -0.018947 0.030081 -0.008556
# 6 0.001938 -0.017687 0.000294 0.017499 -0.008556 0.041702
#
#
# Mechanical properties :
#
#
# Convention : Reuss Voigt Hill
#
# Bulk Modulus (GPa) = 24.09704 43.11537 33.60620
# Shear Modulus (GPa) = 23.44655 35.55454 29.50054
#
# Velocity S-wave (km/s) = 3.11222 3.83246 3.49096
# Velocity P-wave (km/s) = 4.78217 6.11513 5.48926
#
# Compressibility (1/GPa) = 0.04149887
#
# Stress axis : x y z
#
# Youngs Moduli (GPa) = 74.31031 38.56170 60.29673
#
# Poissons Ratio (x) = -0.02110 0.27315
# Poissons Ratio (y) = -0.04066 0.19626
# Poissons Ratio (z) = 0.33663 0.12551
#
# Static dielectric constant tensor:
#      x y z
#    x 2.096360 0.046910 0.038190 
#    y 0.046910 1.931270 0.022560 
#    z 0.038190 0.022560 1.964380 
# 
# From -- ./inp_files/495631.got.cif
#   From: 2010.05.17/outbox.cif.g08.bks.cpg/sg2_248_cif.got.tgz:495631.got - 2010.06.03 11:33:40.
