data_PCOD9111647
_publ_section_title
;
Structure prediction by ZEFSAII (Michael W. Deem and Ramdas Pophale) SiO2 
 PCOD9111647
Probable space group: P -1
;
_chemical_formula_sum "Si O2"
_cell_formula_units_Z 16
_cell_length_a 9.845643
_cell_length_b 15.599084
_cell_length_c 9.940891
_cell_angle_alpha 66.012440
_cell_angle_beta 120.829576
_cell_angle_gamma 144.637056
_cell_volume 758.555517
_symmetry_space_group_name_H-M "P -1"
_symmetry_group_IT_number 2
_symmetry_cell_setting 'triclinic'
loop_
_space_group_symop_operation_xyz
x,y,z
-x,-y,-z
loop_
_atom_site_type_symbol
_atom_site_label
_atom_site_fract_x
_atom_site_fract_y
_atom_site_fract_z
Si Si1 0.262996 0.058819 0.433562
Si Si2 0.486192 0.575667 0.055366
Si Si3 0.443983 0.431042 0.375002
Si Si4 0.026289 0.897298 0.666796
Si Si5 0.012579 0.557994 0.114116
Si Si6 0.232926 0.869696 0.019729
Si Si7 0.955986 0.087015 0.867706
Si Si8 0.244570 0.594645 0.478876
O O1 0.527616 0.233182 0.468059
O O2 0.030782 0.024902 0.359652
O O3 0.234247 0.984238 0.602150
O O4 0.198443 0.985636 0.304015
O O5 0.389938 0.484562 0.202801
O O6 0.762090 0.743549 0.110347
O O7 0.500000 0.500000 0.000000
O O8 0.276770 0.555245 0.919848
O O9 0.500000 0.500000 0.500000
O O10 0.668750 0.471413 0.408681
O O11 0.234077 0.259757 0.417983
O O12 0.064296 0.849656 0.843363
O O13 0.167510 0.573502 0.296915
O O14 0.143554 0.721056 0.074990
O O15 0.000000 0.500000 0.000000
O O16 0.193076 0.911065 0.109238
O O17 0.500000 0.000000 0.000000
O O18 0.000000 0.000000 0.000000
O O19 0.000000 0.500000 0.500000
#
# Coordination Sequence:
#
# PCOD9111647 Si02
#       8
#     2   2   2   2   2   2   2   2
#     4  10  23  43  71 101 142 183 240 289 350 430
#     4  12  24  45  76 102 140 182 246 295 343 424
#     4  11  22  42  69  98 131 182 235 284 339 420
#     4  10  20  43  67  99 135 182 232 289 344 415
#     4  12  27  46  71 107 143 187 234 296 363 419
#     4  12  26  45  68 101 144 180 233 296 359 422
#     4  12  26  45  74 107 136 194 245 292 354 425
#     4  11  26  43  68 101 145 184 230 294 359 413
#
# _framework density 21.092721000000001
#
# number of rings (size 3 to 8) (size 9 to 14) (size 15 to 20)
#    0.000    0.750    3.750    3.000    5.250    2.000 
#    0.000    1.250    0.000    0.000    0.000    0.000 
#    0.000    0.000    0.000    0.000    0.000    0.000 
#
# Total GULP energy -89302.535619 kJ/mol
# GULP energy per Si atom -5581.408476 kJ/mol
# Density = 2.104471 g / cm^3
# Si number density = 21.092721 Si / 1000 Ang^3
#
#
#
# Elastic Constant Matrix: (Units=GPa)
#
#
# Indices 1 2 3 4 5 6 
#
# 1 90.8093 37.9623 9.3629 21.5288 -26.8820 1.2634
# 2 37.9623 102.1975 30.3492 13.9002 -24.8554 6.4105
# 3 9.3629 30.3492 98.9656 15.7923 -26.0787 -15.8854
# 4 21.5288 13.9002 15.7923 37.2227 -5.0450 2.2130
# 5 -26.8820 -24.8554 -26.0787 -5.0450 43.0453 5.3888
# 6 1.2634 6.4105 -15.8854 2.2130 5.3888 36.9349
#
#
#
# Elastic Compliance Matrix: (Units=1/GPa)
#
#
# Indices 1 2 3 4 5 6 
#
# 1 0.017187 -0.004017 0.003631 -0.008744 0.009488 0.000811
# 2 -0.004017 0.013516 -0.003368 -0.000544 0.003713 -0.004166
# 3 0.003631 -0.003368 0.014859 -0.006451 0.007806 0.006099
# 4 -0.008744 -0.000544 -0.006451 0.034378 -0.005193 -0.003683
# 5 0.009488 0.003713 0.007806 -0.005193 0.035736 -0.002515
# 6 0.000811 -0.004166 0.006099 -0.003683 -0.002515 0.030981
#
#
# Mechanical properties :
#
#
# Convention : Reuss Voigt Hill
#
# Bulk Modulus (GPa) = 26.27816 49.70236 37.99026
# Shear Modulus (GPa) = 29.96732 37.72710 33.84721
#
# Velocity S-wave (km/s) = 3.77336 4.23381 4.01020
# Velocity P-wave (km/s) = 5.60979 6.89312 6.28430
#
# Compressibility (1/GPa) = 0.03805442
#
# Stress axis : x y z
#
# Youngs Moduli (GPa) = 58.18309 73.98826 67.29841
#
# Poissons Ratio (x) = 0.29720 -0.24438
# Poissons Ratio (y) = 0.23371 0.22668
# Poissons Ratio (z) = -0.21128 0.24921
#
# Static dielectric constant tensor:
#      x y z
#    x 1.803570 0.038240 0.035670 
#    y 0.038240 1.873960 0.071010 
#    z 0.035670 0.071010 1.838160 
# 
# From -- ./inp_files/207096.got.cif
#   From: 2010.05.17/outbox.cif.g08.bks.cpg/sg2_104_cif.got.tgz:207096.got - 2010.06.03 11:33:40.
