data_PCOD9111515
_publ_section_title
;
Structure prediction by ZEFSAII (Michael W. Deem and Ramdas Pophale) SiO2 
 PCOD9111515
Probable space group: P -1
;
_chemical_formula_sum "Si O2"
_cell_formula_units_Z 12
_cell_length_a 11.474811
_cell_length_b 6.587869
_cell_length_c 13.987414
_cell_angle_alpha 104.182903
_cell_angle_beta 30.321059
_cell_angle_gamma 94.051704
_cell_volume 495.647400
_symmetry_space_group_name_H-M "P -1"
_symmetry_group_IT_number 2
_symmetry_cell_setting 'triclinic'
loop_
_space_group_symop_operation_xyz
x,y,z
-x,-y,-z
loop_
_atom_site_type_symbol
_atom_site_label
_atom_site_fract_x
_atom_site_fract_y
_atom_site_fract_z
Si Si1 0.502977 0.102767 0.260313
Si Si2 0.349940 0.322728 0.003788
Si Si3 0.984355 0.389491 0.857474
Si Si4 0.297079 0.950581 0.568537
Si Si5 0.379849 0.502418 0.704020
Si Si6 0.284090 0.413290 0.272973
O O1 0.613332 0.250475 0.268387
O O2 0.391380 0.266061 0.271537
O O3 0.662663 0.884265 0.072373
O O4 0.327895 0.024211 0.446803
O O5 0.585147 0.396573 0.815255
O O6 0.124726 0.528134 0.158003
O O7 0.343200 0.281529 0.116187
O O8 0.223752 0.455453 0.721551
O O9 0.780771 0.512640 0.091060
O O10 0.050971 0.128229 0.794396
O O11 0.369259 0.688550 0.487720
O O12 0.500000 0.000000 0.500000
O O13 0.000000 0.500000 0.500000
#
# Coordination Sequence:
#
# PCOD9111515 Si02
#       6
#     2   2   2   2   2   2
#     4  12  22  44  66  99 139 181 227 287 346 419
#     4  11  24  46  69 104 143 173 242 290 339 422
#     4  10  20  43  65  95 138 182 218 287 337 403
#     4  10  22  40  63  97 137 182 232 278 331 416
#     4  10  22  42  64  98 141 178 227 274 349 410
#     4  11  25  46  71 100 134 187 235 290 352 410
#
# _framework density 24.210757000000001
#
# number of rings (size 3 to 8) (size 9 to 14) (size 15 to 20)
#    0.000    1.333    3.333    1.500    0.000    4.000 
#    9.000    0.000    0.000    0.000    0.000    0.000 
#    0.000    0.000    0.000    0.000    0.000    0.000 
#
# Total GULP energy -67069.731844 kJ/mol
# GULP energy per Si atom -5589.144320 kJ/mol
# Density = 2.415565 g / cm^3
# Si number density = 24.210757 Si / 1000 Ang^3
#
#
#
# Elastic Constant Matrix: (Units=GPa)
#
#
# Indices 1 2 3 4 5 6 
#
# 1 77.2980 25.7209 41.4460 -9.2557 11.5665 -4.9270
# 2 25.7209 117.1153 69.0221 5.9037 4.2176 13.0730
# 3 41.4460 69.0221 93.6301 14.2122 6.5335 -2.2667
# 4 -9.2557 5.9037 14.2122 40.3836 -6.4300 17.8128
# 5 11.5665 4.2176 6.5335 -6.4300 40.0459 -2.3095
# 6 -4.9270 13.0730 -2.2667 17.8128 -2.3095 46.1966
#
#
#
# Elastic Compliance Matrix: (Units=1/GPa)
#
#
# Indices 1 2 3 4 5 6 
#
# 1 0.019835 0.002720 -0.012073 0.009267 -0.002728 -0.002956
# 2 0.002720 0.017632 -0.015539 0.007234 0.000580 -0.008222
# 3 -0.012073 -0.015539 0.030325 -0.016198 -0.001805 0.010753
# 4 0.009267 0.007234 -0.016198 0.039738 0.004608 -0.016945
# 5 -0.002728 0.000580 -0.001805 0.004608 0.026676 -0.000987
# 6 -0.002956 -0.008222 0.010753 -0.016945 -0.000987 0.030670
#
#
# Mechanical properties :
#
#
# Convention : Reuss Voigt Hill
#
# Bulk Modulus (GPa) = 55.53464 62.26904 58.90184
# Shear Modulus (GPa) = 22.65925 35.44887 29.05406
#
# Velocity S-wave (km/s) = 3.06259 3.83061 3.46793
# Velocity P-wave (km/s) = 5.95767 6.73351 6.35743
#
# Compressibility (1/GPa) = 0.01800678
#
# Stress axis : x y z
#
# Youngs Moduli (GPa) = 50.41712 56.71663 32.97639
#
# Poissons Ratio (x) = -0.15429 0.39813
# Poissons Ratio (y) = -0.13715 0.51243
# Poissons Ratio (z) = 0.60869 0.88133
#
# Static dielectric constant tensor:
#      x y z
#    x 1.934130 0.032210 0.011980 
#    y 0.032210 1.947900 0.004470 
#    z 0.011980 0.004470 1.955550 
# 
# From -- ./inp_files/74223.got.cif
#   From: 2010.05.17/outbox.cif.g08.bks.cpg/sg2_38_cif.got.tgz:74223.got - 2010.06.03 11:33:40.
