data_PCOD9111950
_publ_section_title
;
Structure prediction by ZEFSAII (Michael W. Deem and Ramdas Pophale) SiO2 
 PCOD9111950
Probable space group: P -1
;
_chemical_formula_sum "Si O2"
_cell_formula_units_Z 12
_cell_length_a 7.853013
_cell_length_b 5.001363
_cell_length_c 14.233076
_cell_angle_alpha 113.364220
_cell_angle_beta 107.812473
_cell_angle_gamma 89.188439
_cell_volume 484.891318
_symmetry_space_group_name_H-M "P -1"
_symmetry_group_IT_number 2
_symmetry_cell_setting 'triclinic'
loop_
_space_group_symop_operation_xyz
x,y,z
-x,-y,-z
loop_
_atom_site_type_symbol
_atom_site_label
_atom_site_fract_x
_atom_site_fract_y
_atom_site_fract_z
Si Si1 0.944214 0.565570 0.104497
Si Si2 0.878193 0.819618 0.776843
Si Si3 0.386249 0.688260 0.874232
Si Si4 0.101425 0.236582 0.440330
Si Si5 0.752704 0.796361 0.351033
Si Si6 0.455420 0.862000 0.169834
O O1 0.753750 0.388165 0.076535
O O2 0.080015 0.438260 0.183215
O O3 0.955142 0.917030 0.162917
O O4 0.000000 0.500000 0.000000
O O5 0.838131 0.715200 0.649513
O O6 0.718944 0.987366 0.814795
O O7 0.273659 0.527385 0.743918
O O8 0.459048 0.006243 0.894453
O O9 0.549339 0.488649 0.882403
O O10 0.255628 0.201445 0.537870
O O11 0.000000 0.500000 0.500000
O O12 0.949893 0.954839 0.380787
O O13 0.598811 0.941845 0.290251
#
# Coordination Sequence:
#
# PCOD9111950 Si02
#       6
#     2   2   2   2   2   2
#     4  12  25  46  71  95 121 171 225 273 320 385
#     4  12  25  43  66 101 132 162 221 275 317 381
#     4  10  20  44  64  90 130 177 205 262 320 383
#     4  11  21  37  64  99 128 177 219 254 309 385
#     4   9  20  36  63  88 133 170 214 237 326 372
#     4  10  22  40  65  94 139 170 201 264 335 369
#
# _framework density 24.747813000000001
#
# number of rings (size 3 to 8) (size 9 to 14) (size 15 to 20)
#    1.000    0.333    1.667    5.500    2.333    0.667 
#    0.000    6.667    0.000    0.000    0.000    0.000 
#    0.000    0.000    0.000    0.000    0.000    0.000 
#
# Total GULP energy -67151.264737 kJ/mol
# GULP energy per Si atom -5595.938728 kJ/mol
# Density = 2.469149 g / cm^3
# Si number density = 24.747813 Si / 1000 Ang^3
#
#
#
# Elastic Constant Matrix: (Units=GPa)
#
#
# Indices 1 2 3 4 5 6 
#
# 1 94.5745 6.5329 18.6330 -11.7649 -13.4925 -2.5258
# 2 6.5329 114.1529 16.9775 -12.6434 -4.6920 2.9137
# 3 18.6330 16.9775 150.2557 -34.3002 -16.6016 5.8898
# 4 -11.7649 -12.6434 -34.3002 46.9177 0.6783 1.7549
# 5 -13.4925 -4.6920 -16.6016 0.6783 46.4287 -0.7264
# 6 -2.5258 2.9137 5.8898 1.7549 -0.7264 33.0408
#
#
#
# Elastic Compliance Matrix: (Units=1/GPa)
#
#
# Indices 1 2 3 4 5 6 
#
# 1 0.011454 -0.000212 -0.000561 0.002325 0.003087 0.000939
# 2 -0.000212 0.009118 -0.000412 0.002125 0.000668 -0.000845
# 3 -0.000561 -0.000412 0.008511 0.005998 0.002723 -0.001783
# 4 0.002325 0.002125 0.005998 0.026908 0.002604 -0.002451
# 5 0.003087 0.000668 0.002723 0.002604 0.023440 0.000069
# 6 0.000939 -0.000845 -0.001783 -0.002451 0.000069 0.030861
#
#
# Mechanical properties :
#
#
# Convention : Reuss Voigt Hill
#
# Bulk Modulus (GPa) = 37.43485 49.25220 43.34352
# Shear Modulus (GPa) = 41.12960 46.40009 43.76484
#
# Velocity S-wave (km/s) = 4.08112 4.33473 4.20984
# Velocity P-wave (km/s) = 6.11284 6.70805 6.41735
#
# Compressibility (1/GPa) = 0.02671308
#
# Stress axis : x y z
#
# Youngs Moduli (GPa) = 87.30882 109.67384 117.48860
#
# Poissons Ratio (x) = 0.02320 0.06596
# Poissons Ratio (y) = 0.01847 0.04840
# Poissons Ratio (z) = 0.04902 0.04518
#
# Static dielectric constant tensor:
#      x y z
#    x 1.979080 0.023720 0.050520 
#    y 0.023720 1.946910 0.019410 
#    z 0.050520 0.019410 2.019700 
# 
# From -- ./inp_files/32069.got.cif
#   From: 2010.05.17/outbox.cif.g08.bks.cpg/sg2_17_cif.got.tgz:32069.got - 2010.06.03 11:33:40.
