data_PCOD9111129
_publ_section_title
;
Structure prediction by ZEFSAII (Michael W. Deem and Ramdas Pophale) SiO2 
 PCOD9111129
Probable space group: P -1
;
_chemical_formula_sum "Si O2"
_cell_formula_units_Z 16
_cell_length_a 13.480738
_cell_length_b 7.793140
_cell_length_c 12.349547
_cell_angle_alpha 122.256295
_cell_angle_beta 36.940865
_cell_angle_gamma 100.519285
_cell_volume 578.432003
_symmetry_space_group_name_H-M "P -1"
_symmetry_group_IT_number 2
_symmetry_cell_setting 'triclinic'
loop_
_space_group_symop_operation_xyz
x,y,z
-x,-y,-z
loop_
_atom_site_type_symbol
_atom_site_label
_atom_site_fract_x
_atom_site_fract_y
_atom_site_fract_z
Si Si1 0.498715 0.742010 0.099394
Si Si2 0.547100 0.746203 0.490159
Si Si3 0.157256 0.960882 0.600695
Si Si4 0.207091 0.858544 0.219076
Si Si5 0.790050 0.528282 0.614660
Si Si6 0.820509 0.861822 0.149291
Si Si7 0.520603 0.335191 0.253941
Si Si8 0.020800 0.603382 0.261410
O O1 0.385244 0.850424 0.344934
O O2 0.343427 0.892733 0.194371
O O3 0.500000 0.500000 0.000000
O O4 0.696549 0.685256 0.855317
O O5 0.696881 0.791401 0.311984
O O6 0.561114 0.520538 0.343067
O O7 0.576024 0.733177 0.589050
O O8 0.332385 0.943467 0.727546
O O9 0.121997 0.745423 0.528002
O O10 0.095805 0.029073 0.801343
O O11 0.059481 0.192076 0.690531
O O12 0.216485 0.603724 0.120272
O O13 0.287673 0.862424 0.032048
O O14 0.000000 0.000000 0.500000
O O15 0.624379 0.569453 0.686760
O O16 0.915384 0.613636 0.468525
O O17 0.955445 0.630315 0.891846
#
# Coordination Sequence:
#
# PCOD9111129 Si02
#       8
#     2   2   2   2   2   2   2   2
#     4   9  21  42  71  92 129 181 218 266 335 395
#     4  10  21  39  67  94 124 176 224 268 327 393
#     4  11  22  42  64  93 138 175 213 269 340 383
#     4  11  22  44  68  96 133 173 216 279 332 387
#     4  10  23  43  65 102 129 173 224 271 327 407
#     4  11  23  40  62  98 134 170 220 277 327 399
#     4  10  20  42  69  92 131 172 224 266 332 398
#     4  12  25  41  66  99 135 171 222 275 337 388
#
# _framework density 27.660988
#
# number of rings (size 3 to 8) (size 9 to 14) (size 15 to 20)
#    0.000    1.500    3.750    1.125    0.000    2.000 
#    2.250    2.500    0.000    0.000    0.000    0.000 
#    0.000    0.000    0.000    0.000    0.000    0.000 
#
# Total GULP energy -89466.943348 kJ/mol
# GULP energy per Si atom -5591.683959 kJ/mol
# Density = 2.759803 g / cm^3
# Si number density = 27.660988 Si / 1000 Ang^3
#
#
#
# Elastic Constant Matrix: (Units=GPa)
#
#
# Indices 1 2 3 4 5 6 
#
# 1 81.7189 4.7262 21.9432 -2.1623 8.6139 -9.9688
# 2 4.7262 114.7823 22.6324 6.6350 -2.8221 2.0400
# 3 21.9432 22.6324 119.1758 3.5790 13.5354 -14.0899
# 4 -2.1623 6.6350 3.5790 34.2236 -3.5822 1.2346
# 5 8.6139 -2.8221 13.5354 -3.5822 41.0729 -1.4389
# 6 -9.9688 2.0400 -14.0899 1.2346 -1.4389 45.7407
#
#
#
# Elastic Compliance Matrix: (Units=1/GPa)
#
#
# Indices 1 2 3 4 5 6 
#
# 1 0.013276 -0.000305 -0.001917 0.000806 -0.002025 0.002231
# 2 -0.000305 0.009230 -0.001902 -0.001452 0.001164 -0.000988
# 3 -0.001917 -0.001902 0.009787 -0.001181 -0.002965 0.002620
# 4 0.000806 -0.001452 -0.001181 0.029989 0.002706 -0.000848
# 5 -0.002025 0.001164 -0.002965 0.002706 0.026042 -0.000660
# 6 0.002231 -0.000988 0.002620 -0.000848 -0.000660 0.023202
#
#
# Mechanical properties :
#
#
# Convention : Reuss Voigt Hill
#
# Bulk Modulus (GPa) = 41.58736 46.03118 43.80927
# Shear Modulus (GPa) = 39.12685 41.96579 40.54632
#
# Velocity S-wave (km/s) = 3.76508 3.89928 3.83277
# Velocity P-wave (km/s) = 5.82824 6.07864 5.95476
#
# Compressibility (1/GPa) = 0.02404577
#
# Stress axis : x y z
#
# Youngs Moduli (GPa) = 75.32155 108.34402 102.17420
#
# Poissons Ratio (x) = 0.03301 0.19588
# Poissons Ratio (y) = 0.02295 0.19434
# Poissons Ratio (z) = 0.14440 0.20608
#
# Static dielectric constant tensor:
#      x y z
#    x 2.290650 -0.019320 -0.089290 
#    y -0.019320 2.216740 0.078040 
#    z -0.089290 0.078040 2.224120 
# 
# From -- ./inp_files/272160.got.cif
#   From: 2010.05.17/outbox.cif.g08.bks.cpg/sg2_137_cif.got.tgz:272160.got - 2010.06.03 11:33:40.
