data_PCOD9111006
_publ_section_title
;
Structure prediction by ZEFSAII (Michael W. Deem and Ramdas Pophale) SiO2 
 PCOD9111006
Probable space group: P -1
;
_chemical_formula_sum "Si O2"
_cell_formula_units_Z 12
_cell_length_a 7.502434
_cell_length_b 11.064366
_cell_length_c 12.385907
_cell_angle_alpha 120.364991
_cell_angle_beta 61.050903
_cell_angle_gamma 69.269570
_cell_volume 473.015080
_symmetry_space_group_name_H-M "P -1"
_symmetry_group_IT_number 2
_symmetry_cell_setting 'triclinic'
loop_
_space_group_symop_operation_xyz
x,y,z
-x,-y,-z
loop_
_atom_site_type_symbol
_atom_site_label
_atom_site_fract_x
_atom_site_fract_y
_atom_site_fract_z
Si Si1 0.281579 0.936351 0.327186
Si Si2 0.500875 0.369421 0.359489
Si Si3 0.591896 0.837535 0.991530
Si Si4 0.883778 0.899025 0.097946
Si Si5 0.899086 0.390859 0.609791
Si Si6 0.648161 0.483546 0.059052
O O1 0.283792 0.936943 0.194782
O O2 0.613059 0.669808 0.142733
O O3 0.000000 0.000000 0.500000
O O4 0.212355 0.138685 0.456907
O O5 0.500000 0.500000 0.500000
O O6 0.153378 0.559564 0.480652
O O7 0.793224 0.215133 0.112999
O O8 0.599390 0.173191 0.303457
O O9 0.783418 0.824130 0.017942
O O10 0.805158 0.589591 0.778393
O O11 0.500000 0.000000 0.000000
O O12 0.006550 0.771881 0.118977
O O13 0.615920 0.429217 0.736753
O O14 0.500000 0.500000 0.000000
#
# Coordination Sequence:
#
# PCOD9111006 Si02
#       6
#     2   2   2   2   2   2
#     4  10  24  42  68  95 132 181 231 262 331 411
#     4  10  22  39  64  93 132 175 223 276 334 397
#     4  12  24  42  67 102 141 173 216 288 342 387
#     4  10  24  40  61 100 133 171 224 276 336 398
#     4  10  22  40  67  96 128 178 223 270 338 398
#     4  10  20  42  68  89 123 185 225 264 323 402
#
# _framework density 25.369171999999999
#
# number of rings (size 3 to 8) (size 9 to 14) (size 15 to 20)
#    0.000    1.667    3.333    0.000    4.667    2.667 
#    0.000    0.833    0.000    0.000    0.000    0.000 
#    0.000    0.000    0.000    0.000    0.000    0.000 
#
# Total GULP energy -66944.328910 kJ/mol
# GULP energy per Si atom -5578.694076 kJ/mol
# Density = 2.531143 g / cm^3
# Si number density = 25.369172 Si / 1000 Ang^3
#
#
#
# Elastic Constant Matrix: (Units=GPa)
#
#
# Indices 1 2 3 4 5 6 
#
# 1 74.7301 76.0085 13.2869 28.8179 26.0404 5.1852
# 2 76.0085 266.7076 91.3688 59.1580 22.4441 12.0767
# 3 13.2869 91.3688 101.3610 33.0112 23.0276 19.8453
# 4 28.8179 59.1580 33.0112 70.5569 28.7232 3.6661
# 5 26.0404 22.4441 23.0276 28.7232 45.0759 -0.3230
# 6 5.1852 12.0767 19.8453 3.6661 -0.3230 52.0752
#
#
#
# Elastic Compliance Matrix: (Units=1/GPa)
#
#
# Indices 1 2 3 4 5 6 
#
# 1 0.027130 -0.009184 0.009422 -0.001462 -0.015012 -0.004152
# 2 -0.009184 0.009101 -0.007967 -0.003023 0.006786 0.002095
# 3 0.009422 -0.007967 0.020163 -0.001944 -0.010586 -0.006703
# 4 -0.001462 -0.003023 -0.001944 0.022763 -0.011163 -0.000084
# 5 -0.015012 0.006786 -0.010586 -0.011163 0.040035 0.004989
# 6 -0.004152 0.002095 -0.006703 -0.000084 0.004989 0.021722
#
#
# Mechanical properties :
#
#
# Convention : Reuss Voigt Hill
#
# Bulk Modulus (GPa) = 24.42875 89.34745 56.88810
# Shear Modulus (GPa) = 29.40892 51.01725 40.21309
#
# Velocity S-wave (km/s) = 3.40845 4.48928 3.98567
# Velocity P-wave (km/s) = 5.01401 7.88459 6.60708
#
# Compressibility (1/GPa) = 0.04093537
#
# Stress axis : x y z
#
# Youngs Moduli (GPa) = 36.85936 109.88181 49.59685
#
# Poissons Ratio (x) = 1.00914 -0.46729
# Poissons Ratio (y) = 0.33851 0.39513
# Poissons Ratio (z) = -0.34728 0.87541
#
# Static dielectric constant tensor:
#      x y z
#    x 2.043110 0.037990 -0.119730 
#    y 0.037990 2.126520 -0.001490 
#    z -0.119730 -0.001490 2.141210 
# 
# From -- ./inp_files/390967.got.cif
#   From: 2010.05.17/outbox.cif.g08.bks.cpg/sg2_196_cif.got.tgz:390967.got - 2010.06.03 11:33:40.
