data_PCOD9111797
_publ_section_title
;
Structure prediction by ZEFSAII (Michael W. Deem and Ramdas Pophale) SiO2 
 PCOD9111797
Probable space group: P -1
;
_chemical_formula_sum "Si O2"
_cell_formula_units_Z 12
_cell_length_a 7.785060
_cell_length_b 9.590422
_cell_length_c 7.953243
_cell_angle_alpha 108.257603
_cell_angle_beta 60.487471
_cell_angle_gamma 95.018557
_cell_volume 489.134624
_symmetry_space_group_name_H-M "P -1"
_symmetry_group_IT_number 2
_symmetry_cell_setting 'triclinic'
loop_
_space_group_symop_operation_xyz
x,y,z
-x,-y,-z
loop_
_atom_site_type_symbol
_atom_site_label
_atom_site_fract_x
_atom_site_fract_y
_atom_site_fract_z
Si Si1 0.385659 0.808968 0.915905
Si Si2 0.665349 0.794048 0.095153
Si Si3 0.372244 0.846493 0.553907
Si Si4 0.202923 0.535085 0.002911
Si Si5 0.937904 0.928389 0.785482
Si Si6 0.913162 0.349729 0.540603
O O1 0.441135 0.848923 0.713978
O O2 0.544799 0.821478 0.990200
O O3 0.326655 0.641823 0.874525
O O4 0.202646 0.924143 0.103620
O O5 0.535561 0.861249 0.338312
O O6 0.691030 0.621032 0.055376
O O7 0.876822 0.851598 0.961778
O O8 0.270670 0.692995 0.501804
O O9 0.169466 0.951491 0.670289
O O10 0.157762 0.628007 0.228326
O O11 0.000000 0.500000 0.000000
O O12 0.929057 0.792706 0.606993
O O13 0.000000 0.500000 0.500000
#
# Coordination Sequence:
#
# PCOD9111797 Si02
#       6
#     2   2   2   2   2   2
#     4  12  24  44  71 106 141 183 236 291 347 412
#     4  12  25  46  69 105 141 186 234 289 347 416
#     4  10  25  44  71 103 139 186 232 285 350 413
#     4  12  25  44  73 102 140 190 234 290 354 413
#     4  10  24  45  72 100 148 183 229 292 346 412
#     4  10  20  43  70  98 136 182 230 277 343 412
#
# _framework density 24.533124999999998
#
# number of rings (size 3 to 8) (size 9 to 14) (size 15 to 20)
#    1.000    0.000    3.333    3.500    0.000    5.333 
#    0.000    0.000    0.000    0.000    0.000    0.000 
#    0.000    0.000    0.000    0.000    0.000    0.000 
#
# Total GULP energy -67104.689354 kJ/mol
# GULP energy per Si atom -5592.057446 kJ/mol
# Density = 2.447729 g / cm^3
# Si number density = 24.533125 Si / 1000 Ang^3
#
#
#
# Elastic Constant Matrix: (Units=GPa)
#
#
# Indices 1 2 3 4 5 6 
#
# 1 115.1306 38.9211 60.7558 1.0175 7.1632 -2.6570
# 2 38.9211 133.6201 30.4132 -0.9437 -15.0565 -8.1110
# 3 60.7558 30.4132 179.1015 8.9172 -6.1140 -23.6523
# 4 1.0175 -0.9437 8.9172 46.8480 7.4599 -6.0575
# 5 7.1632 -15.0565 -6.1140 7.4599 43.6434 -7.3674
# 6 -2.6570 -8.1110 -23.6523 -6.0575 -7.3674 44.1956
#
#
#
# Elastic Compliance Matrix: (Units=1/GPa)
#
#
# Indices 1 2 3 4 5 6 
#
# 1 0.012146 -0.003241 -0.004107 0.000788 -0.004272 -0.002667
# 2 -0.003241 0.009009 -0.000010 -0.000113 0.004014 0.002107
# 3 -0.004107 -0.000010 0.007677 -0.001262 0.002659 0.004130
# 4 0.000788 -0.000113 -0.001262 0.022413 -0.003876 0.001777
# 5 -0.004272 0.004014 0.002659 -0.003876 0.027026 0.005877
# 6 -0.002667 0.002107 0.004130 0.001777 0.005877 0.026287
#
#
# Mechanical properties :
#
#
# Convention : Reuss Voigt Hill
#
# Bulk Modulus (GPa) = 70.83285 76.44805 73.64045
# Shear Modulus (GPa) = 40.32907 46.78821 43.55864
#
# Velocity S-wave (km/s) = 4.05886 4.37182 4.21824
# Velocity P-wave (km/s) = 7.13448 7.53078 7.33530
#
# Compressibility (1/GPa) = 0.01411774
#
# Stress axis : x y z
#
# Youngs Moduli (GPa) = 82.33141 110.99467 130.25272
#
# Poissons Ratio (x) = 0.35971 0.53497
# Poissons Ratio (y) = 0.26681 0.00126
# Poissons Ratio (z) = 0.33815 0.00107
#
# Static dielectric constant tensor:
#      x y z
#    x 2.034430 0.108060 -0.023540 
#    y 0.108060 2.046690 0.002480 
#    z -0.023540 0.002480 1.957330 
# 
# From -- ./inp_files/159061.got.cif
#   From: 2010.05.17/outbox.cif.g08.bks.cpg/sg2_80_cif.got.tgz:159061.got - 2010.06.03 11:33:40.
