data_PCOD9111496
_publ_section_title
;
Structure prediction by ZEFSAII (Michael W. Deem and Ramdas Pophale) SiO2 
 PCOD9111496
Probable space group: P -1
;
_chemical_formula_sum "Si O2"
_cell_formula_units_Z 14
_cell_length_a 21.502743
_cell_length_b 9.554206
_cell_length_c 8.185628
_cell_angle_alpha 76.675286
_cell_angle_beta 43.035375
_cell_angle_gamma 43.378694
_cell_volume 604.511764
_symmetry_space_group_name_H-M "P -1"
_symmetry_group_IT_number 2
_symmetry_cell_setting 'triclinic'
loop_
_space_group_symop_operation_xyz
x,y,z
-x,-y,-z
loop_
_atom_site_type_symbol
_atom_site_label
_atom_site_fract_x
_atom_site_fract_y
_atom_site_fract_z
Si Si1 0.520776 0.636853 0.972164
Si Si2 0.853311 0.354156 0.821297
Si Si3 0.902701 0.189539 0.394116
Si Si4 0.689337 0.815239 0.854867
Si Si5 0.512429 0.644043 0.377572
Si Si6 0.904285 0.477425 0.205976
Si Si7 0.394444 0.079363 0.532696
O O1 0.503715 0.661916 0.194148
O O2 0.384930 0.924730 0.072716
O O3 0.500000 0.500000 0.000000
O O4 0.713537 0.428857 0.623527
O O5 0.886943 0.256832 0.596342
O O6 0.814563 0.575895 0.813939
O O7 0.683847 0.491455 0.153360
O O8 0.001344 0.089843 0.716186
O O9 0.995514 0.203797 0.131488
O O10 0.783185 0.663310 0.545584
O O11 0.520878 0.943892 0.173953
O O12 0.500000 0.500000 0.500000
O O13 0.370303 0.941095 0.634769
O O14 0.783391 0.617067 0.245188
O O15 0.000000 0.500000 0.000000
O O16 0.500000 0.000000 0.500000
#
# Coordination Sequence:
#
# PCOD9111496 Si02
#       7
#     2   2   2   2   2   2   2
#     4  11  22  38  66  93 122 178 222 266 325 399
#     4   8  18  34  59  86 117 170 202 266 327 379
#     4   9  18  36  59  90 127 159 216 262 327 391
#     4  10  20  43  65  89 131 173 227 265 329 403
#     4  10  22  36  60  90 129 163 219 270 323 392
#     4  11  22  38  70  99 129 175 221 276 339 403
#     4  11  23  41  67  95 131 182 223 273 337 395
#
# _framework density 23.159185999999998
#
# number of rings (size 3 to 8) (size 9 to 14) (size 15 to 20)
#    0.000    2.000    2.857    1.286    4.000    0.000 
#    0.000    4.286    0.000    5.143    0.000    0.000 
#    0.000    0.000    0.000    0.000    0.000    0.000 
#
# Total GULP energy -78072.231080 kJ/mol
# GULP energy per Si atom -5576.587934 kJ/mol
# Density = 2.310647 g / cm^3
# Si number density = 23.159186 Si / 1000 Ang^3
#
#
#
# Elastic Constant Matrix: (Units=GPa)
#
#
# Indices 1 2 3 4 5 6 
#
# 1 68.1269 40.8043 14.6033 -5.5752 -4.2810 8.5634
# 2 40.8043 252.1772 42.6662 6.9496 -13.4213 22.3076
# 3 14.6033 42.6662 41.4593 -9.8767 0.1285 -9.7976
# 4 -5.5752 6.9496 -9.8767 39.2040 5.0925 -5.0796
# 5 -4.2810 -13.4213 0.1285 5.0925 16.4071 0.1518
# 6 8.5634 22.3076 -9.7976 -5.0796 0.1518 33.0065
#
#
#
# Elastic Compliance Matrix: (Units=1/GPa)
#
#
# Indices 1 2 3 4 5 6 
#
# 1 0.017684 -0.000968 -0.006738 -0.000312 0.004028 -0.006001
# 2 -0.000968 0.007355 -0.010891 -0.006375 0.007911 -0.008970
# 3 -0.006738 -0.010891 0.048505 0.018851 -0.017143 0.026487
# 4 -0.000312 -0.006375 0.018851 0.035512 -0.016610 0.015527
# 5 0.004028 0.007911 -0.017143 -0.016610 0.073894 -0.014377
# 6 -0.006001 -0.008970 0.026487 0.015527 -0.014377 0.048235
#
#
# Mechanical properties :
#
#
# Convention : Reuss Voigt Hill
#
# Bulk Modulus (GPa) = 27.50993 61.99012 44.75002
# Shear Modulus (GPa) = 17.82553 35.30283 26.56418
#
# Velocity S-wave (km/s) = 2.77735 3.90854 3.39045
# Velocity P-wave (km/s) = 4.71055 6.86978 5.88996
#
# Compressibility (1/GPa) = 0.03635052
#
# Stress axis : x y z
#
# Youngs Moduli (GPa) = 56.54756 135.96134 20.61625
#
# Poissons Ratio (x) = 0.13157 0.13891
# Poissons Ratio (y) = 0.05472 0.22454
# Poissons Ratio (z) = 0.38102 1.48081
#
# Static dielectric constant tensor:
#      x y z
#    x 1.866220 -0.023100 0.042950 
#    y -0.023100 1.958170 0.041160 
#    z 0.042950 0.041160 1.929180 
# 
# From -- ./inp_files/343495.got.cif
#   From: 2010.05.17/outbox.cif.g08.bks.cpg/sg2_172_cif.got.tgz:343495.got - 2010.06.03 11:33:40.
