data_PCOD9111863
_publ_section_title
;
Structure prediction by ZEFSAII (Michael W. Deem and Ramdas Pophale) SiO2 
 PCOD9111863
Probable space group: P -1
;
_chemical_formula_sum "Si O2"
_cell_formula_units_Z 16
_cell_length_a 8.897052
_cell_length_b 14.704668
_cell_length_c 13.056876
_cell_angle_alpha 115.978167
_cell_angle_beta 49.108408
_cell_angle_gamma 76.368771
_cell_volume 742.418525
_symmetry_space_group_name_H-M "P -1"
_symmetry_group_IT_number 2
_symmetry_cell_setting 'triclinic'
loop_
_space_group_symop_operation_xyz
x,y,z
-x,-y,-z
loop_
_atom_site_type_symbol
_atom_site_label
_atom_site_fract_x
_atom_site_fract_y
_atom_site_fract_z
Si Si1 0.896299 0.571884 0.695359
Si Si2 0.489556 0.789634 0.474555
Si Si3 0.423478 0.918529 0.030158
Si Si4 0.509187 0.374698 0.448071
Si Si5 0.870208 0.111521 0.517031
Si Si6 0.929921 0.118557 0.963306
Si Si7 0.146586 0.176147 0.724114
Si Si8 0.398364 0.650165 0.089787
O O1 0.000000 0.500000 0.500000
O O2 0.195943 0.456283 0.575593
O O3 0.735186 0.744100 0.845516
O O4 0.635010 0.603833 0.879086
O O5 0.491308 0.675717 0.463312
O O6 0.302458 0.872314 0.492693
O O7 0.808466 0.722955 0.274212
O O8 0.279122 0.936539 0.721373
O O9 0.275687 0.892176 0.003216
O O10 0.175825 0.032981 0.286930
O O11 0.500000 0.000000 0.000000
O O12 0.500000 0.500000 0.500000
O O13 0.788881 0.215760 0.178941
O O14 0.619455 0.282301 0.763719
O O15 0.000000 0.000000 0.500000
O O16 0.955548 0.206817 0.920863
O O17 0.947965 0.211601 0.735506
O O18 0.500000 0.000000 0.500000
O O19 0.500000 0.500000 0.000000
#
# Coordination Sequence:
#
# PCOD9111863 Si02
#       8
#     2   2   2   2   2   2   2   2
#     4  12  25  47  71  99 146 186 237 291 354 423
#     4  10  24  43  70 101 137 184 233 288 353 420
#     4  11  24  42  74 103 133 186 241 289 347 413
#     4  12  27  44  66 104 149 187 231 287 359 422
#     4  11  23  47  70  99 139 178 243 290 344 427
#     4  10  21  46  68  96 135 182 234 290 345 420
#     4  10  20  43  72  97 131 180 230 287 353 413
#     4  12  25  42  70 106 137 182 232 296 356 416
#
# _framework density 21.551189000000001
#
# number of rings (size 3 to 8) (size 9 to 14) (size 15 to 20)
#    0.000    1.000    3.750    2.625    5.250    3.000 
#    4.500    1.875    0.000    0.000    0.000    0.000 
#    0.000    0.000    0.000    0.000    0.000    0.000 
#
# Total GULP energy -89222.264025 kJ/mol
# GULP energy per Si atom -5576.391502 kJ/mol
# Density = 2.150214 g / cm^3
# Si number density = 21.551189 Si / 1000 Ang^3
#
#
#
# Elastic Constant Matrix: (Units=GPa)
#
#
# Indices 1 2 3 4 5 6 
#
# 1 64.1013 46.6428 41.4085 -17.5492 -5.9743 2.0258
# 2 46.6428 162.6552 43.4715 -28.8201 6.1392 31.0953
# 3 41.4085 43.4715 101.5604 -22.9276 6.8464 16.2959
# 4 -17.5492 -28.8201 -22.9276 39.4318 -1.6376 -7.8307
# 5 -5.9743 6.1392 6.8464 -1.6376 29.4665 6.1148
# 6 2.0258 31.0953 16.2959 -7.8307 6.1148 35.7315
#
#
#
# Elastic Compliance Matrix: (Units=1/GPa)
#
#
# Indices 1 2 3 4 5 6 
#
# 1 0.028218 -0.006661 -0.009568 0.004063 0.007876 0.008103
# 2 -0.006661 0.009982 0.000458 0.003024 -0.001803 -0.007547
# 3 -0.009568 0.000458 0.015583 0.003891 -0.004325 -0.005370
# 4 0.004063 0.003024 0.003891 0.032123 0.000597 0.002301
# 5 0.007876 -0.001803 -0.004325 0.000597 0.037614 -0.003211
# 6 0.008103 -0.007547 -0.005370 0.002301 -0.003211 0.037598
#
#
# Mechanical properties :
#
#
# Convention : Reuss Voigt Hill
#
# Bulk Modulus (GPa) = 44.95964 65.70692 55.33328
# Shear Modulus (GPa) = 24.99068 34.04556 29.51812
#
# Velocity S-wave (km/s) = 3.40898 3.97892 3.70493
# Velocity P-wave (km/s) = 6.03340 7.18777 6.63574
#
# Compressibility (1/GPa) = 0.02224217
#
# Stress axis : x y z
#
# Youngs Moduli (GPa) = 35.43786 100.17697 64.17247
#
# Poissons Ratio (x) = 0.66730 0.61400
# Poissons Ratio (y) = 0.23606 -0.02941
# Poissons Ratio (z) = 0.33907 -0.04592
#
# Static dielectric constant tensor:
#      x y z
#    x 1.873440 0.105680 -0.024800 
#    y 0.105680 1.888230 0.017740 
#    z -0.024800 0.017740 1.774110 
# 
# From -- ./inp_files/399257.got.cif
#   From: 2010.05.17/outbox.cif.g08.bks.cpg/sg2_200_cif.got.tgz:399257.got - 2010.06.03 11:33:40.
