data_PCOD9111597
_publ_section_title
;
Structure prediction by ZEFSAII (Michael W. Deem and Ramdas Pophale) SiO2 
 PCOD9111597
Probable space group: P -1
;
_chemical_formula_sum "Si O2"
_cell_formula_units_Z 16
_cell_length_a 5.175212
_cell_length_b 14.165680
_cell_length_c 12.438161
_cell_angle_alpha 50.849448
_cell_angle_beta 113.775690
_cell_angle_gamma 100.618053
_cell_volume 643.933532
_symmetry_space_group_name_H-M "P -1"
_symmetry_group_IT_number 2
_symmetry_cell_setting 'triclinic'
loop_
_space_group_symop_operation_xyz
x,y,z
-x,-y,-z
loop_
_atom_site_type_symbol
_atom_site_label
_atom_site_fract_x
_atom_site_fract_y
_atom_site_fract_z
Si Si1 0.818951 0.884926 0.078271
Si Si2 0.308966 0.546788 0.034170
Si Si3 0.530783 0.536057 0.647671
Si Si4 0.398328 0.864357 0.589390
Si Si5 0.484709 0.205601 0.564375
Si Si6 0.738912 0.994414 0.210310
Si Si7 0.180566 0.658779 0.328252
Si Si8 0.974730 0.190964 0.231295
O O1 0.907279 0.740100 0.180640
O O2 0.803188 0.900705 0.192287
O O3 0.530883 0.919775 0.940353
O O4 0.000000 0.000000 0.000000
O O5 0.232212 0.692147 0.921155
O O6 0.500000 0.500000 0.000000
O O7 0.466254 0.501933 0.202194
O O8 0.000000 0.500000 0.000000
O O9 0.231679 0.580647 0.504591
O O10 0.686391 0.661447 0.576366
O O11 0.681560 0.428794 0.677281
O O12 0.319379 0.818968 0.490104
O O13 0.163544 0.851184 0.649792
O O14 0.698371 0.784041 0.721692
O O15 0.500000 0.000000 0.500000
O O16 0.643823 0.228509 0.686190
O O17 0.331800 0.085670 0.642164
O O18 0.966187 0.083944 0.218895
#
# Coordination Sequence:
#
# PCOD9111597 Si02
#       8
#     2   2   2   2   2   2   2   2
#     4  11  23  42  67 100 143 185 234 304 376 432
#     4  12  27  51  75 108 150 201 250 309 372 444
#     4   9  21  44  71 106 142 188 250 305 358 444
#     4  12  26  46  71 112 150 189 246 305 370 453
#     4  10  20  43  67 100 146 181 240 300 372 429
#     4  11  26  40  67 106 138 188 238 307 367 452
#     4   9  21  41  74  99 140 190 243 303 365 438
#     4  12  28  45  75 108 146 195 252 299 379 442
#
# _framework density 24.847287000000001
#
# number of rings (size 3 to 8) (size 9 to 14) (size 15 to 20)
#    0.750    0.500    2.500    2.625    5.250    1.000 
#    2.250    0.625    0.000    0.000    0.000    0.000 
#    0.000    0.000    0.000    0.000    0.000    0.000 
#
# Total GULP energy -89359.552929 kJ/mol
# GULP energy per Si atom -5584.972058 kJ/mol
# Density = 2.479073 g / cm^3
# Si number density = 24.847287 Si / 1000 Ang^3
#
#
#
# Elastic Constant Matrix: (Units=GPa)
#
#
# Indices 1 2 3 4 5 6 
#
# 1 71.7428 15.7276 32.3836 14.3684 6.7253 -12.5841
# 2 15.7276 121.4792 43.2848 -5.1123 6.7177 -10.6189
# 3 32.3836 43.2848 156.5602 -5.6727 7.9481 -21.3049
# 4 14.3684 -5.1123 -5.6727 41.1453 -15.5839 14.0739
# 5 6.7253 6.7177 7.9481 -15.5839 33.3001 1.3128
# 6 -12.5841 -10.6189 -21.3049 14.0739 1.3128 32.0663
#
#
#
# Elastic Compliance Matrix: (Units=1/GPa)
#
#
# Indices 1 2 3 4 5 6 
#
# 1 0.023146 -0.000792 -0.002366 -0.019202 -0.013576 0.016232
# 2 -0.000792 0.009289 -0.002168 0.000284 -0.001113 0.001246
# 3 -0.002366 -0.002168 0.008049 -0.000080 -0.001192 0.003785
# 4 -0.019202 0.000284 -0.000080 0.053453 0.030124 -0.032188
# 5 -0.013576 -0.001113 -0.001192 0.030124 0.048233 -0.021684
# 6 0.016232 0.001246 0.003785 -0.032188 -0.021684 0.055498
#
#
# Mechanical properties :
#
#
# Convention : Reuss Voigt Hill
#
# Bulk Modulus (GPa) = 33.52163 59.17491 46.34827
# Shear Modulus (GPa) = 22.90791 38.52809 30.71800
#
# Velocity S-wave (km/s) = 3.03965 3.94203 3.51988
# Velocity P-wave (km/s) = 5.08327 6.67732 5.93407
#
# Compressibility (1/GPa) = 0.02983148
#
# Stress axis : x y z
#
# Youngs Moduli (GPa) = 43.20414 107.65065 124.24073
#
# Poissons Ratio (x) = 0.08525 0.29399
# Poissons Ratio (y) = 0.03421 0.26937
# Poissons Ratio (z) = 0.10223 0.23340
#
# Static dielectric constant tensor:
#      x y z
#    x 2.140680 0.006830 0.031770 
#    y 0.006830 1.948320 -0.029260 
#    z 0.031770 -0.029260 1.989960 
# 
# From -- ./inp_files/367535.got.cif
#   From: 2010.05.17/outbox.cif.g08.bks.cpg/sg2_184_cif.got.tgz:367535.got - 2010.06.03 11:33:40.
