data_PCOD9111804
_publ_section_title
;
Structure prediction by ZEFSAII (Michael W. Deem and Ramdas Pophale) SiO2 
 PCOD9111804
Probable space group: P -1
;
_chemical_formula_sum "Si O2"
_cell_formula_units_Z 14
_cell_length_a 9.299889
_cell_length_b 9.468103
_cell_length_c 19.107504
_cell_angle_alpha 60.223160
_cell_angle_beta 29.127680
_cell_angle_gamma 74.712738
_cell_volume 650.619428
_symmetry_space_group_name_H-M "P -1"
_symmetry_group_IT_number 2
_symmetry_cell_setting 'triclinic'
loop_
_space_group_symop_operation_xyz
x,y,z
-x,-y,-z
loop_
_atom_site_type_symbol
_atom_site_label
_atom_site_fract_x
_atom_site_fract_y
_atom_site_fract_z
Si Si1 0.708388 0.397728 0.966094
Si Si2 0.311596 0.460159 0.391807
Si Si3 0.561172 0.380735 0.440564
Si Si4 0.330878 0.667527 0.836713
Si Si5 0.350373 0.951660 0.000215
Si Si6 0.635642 0.946360 0.306400
Si Si7 0.632624 0.852172 0.183132
O O1 0.652083 0.230857 0.981580
O O2 0.085593 0.520752 0.766652
O O3 0.500000 0.500000 0.000000
O O4 0.628812 0.334242 0.096069
O O5 0.309495 0.362404 0.489803
O O6 0.391779 0.364659 0.315880
O O7 0.604099 0.655955 0.228976
O O8 0.000000 0.500000 0.500000
O O9 0.500000 0.500000 0.500000
O O10 0.541536 0.192023 0.523643
O O11 0.329087 0.852184 0.763153
O O12 0.000000 0.500000 0.000000
O O13 0.990849 0.945041 0.159016
O O14 0.500000 0.000000 0.000000
O O15 0.517954 0.091780 0.832875
O O16 0.475364 0.856568 0.323088
O O17 0.000000 0.000000 0.000000
#
# Coordination Sequence:
#
# PCOD9111804 Si02
#       7
#     2   2   2   2   2   2   2
#     4  12  28  47  73 109 147 192 247 303 363 435
#     4  12  28  45  75 109 148 190 246 305 376 438
#     4  12  24  48  73 104 150 193 236 303 370 434
#     4  12  26  50  74 105 146 197 247 304 360 443
#     4  11  24  40  71 109 141 188 252 298 351 441
#     4  11  24  44  77  98 145 197 239 292 377 428
#     4  10  20  43  70  99 137 195 242 285 360 441
#
# _framework density 21.517955000000001
#
# number of rings (size 3 to 8) (size 9 to 14) (size 15 to 20)
#    0.000    0.571    5.714    2.571    8.000    0.571 
#    2.571    1.429    0.000    0.000    0.000    0.000 
#    0.000    0.000    0.000    0.000    0.000    0.000 
#
# Total GULP energy -78258.549752 kJ/mol
# GULP energy per Si atom -5589.896411 kJ/mol
# Density = 2.146898 g / cm^3
# Si number density = 21.517955 Si / 1000 Ang^3
#
#
#
# Elastic Constant Matrix: (Units=GPa)
#
#
# Indices 1 2 3 4 5 6 
#
# 1 187.4829 75.7378 60.6162 1.2933 30.3548 -10.2035
# 2 75.7378 196.5202 58.3338 -2.2028 16.8936 -17.2773
# 3 60.6162 58.3338 73.1842 6.3800 24.7377 -12.0255
# 4 1.2933 -2.2028 6.3800 47.2793 -11.0503 6.0855
# 5 30.3548 16.8936 24.7377 -11.0503 30.0679 -2.2473
# 6 -10.2035 -17.2773 -12.0255 6.0855 -2.2473 41.7279
#
#
#
# Elastic Compliance Matrix: (Units=1/GPa)
#
#
# Indices 1 2 3 4 5 6 
#
# 1 0.007879 -0.001555 -0.003761 -0.000790 -0.004271 0.000084
# 2 -0.001555 0.007121 -0.005200 0.001530 0.002482 0.000980
# 3 -0.003761 -0.005200 0.029838 -0.009826 -0.021006 0.005828
# 4 -0.000790 0.001530 -0.009826 0.027403 0.017686 -0.005435
# 5 -0.004271 0.002482 -0.021006 0.017686 0.059551 -0.005443
# 6 0.000084 0.000980 0.005828 -0.005435 -0.005443 0.026571
#
#
# Mechanical properties :
#
#
# Convention : Reuss Voigt Hill
#
# Bulk Modulus (GPa) = 42.00119 94.06253 68.03186
# Shear Modulus (GPa) = 26.69100 41.31500 34.00300
#
# Velocity S-wave (km/s) = 3.52576 4.38656 3.97950
# Velocity P-wave (km/s) = 6.01134 8.33452 7.26638
#
# Compressibility (1/GPa) = 0.02380885
#
# Stress axis : x y z
#
# Youngs Moduli (GPa) = 126.91578 140.42778 33.51389
#
# Poissons Ratio (x) = 0.21831 0.12603
# Poissons Ratio (y) = 0.19731 0.17426
# Poissons Ratio (z) = 0.47729 0.73018
#
# Static dielectric constant tensor:
#      x y z
#    x 1.799680 0.011430 0.014220 
#    y 0.011430 1.782640 -0.052330 
#    z 0.014220 -0.052330 1.906850 
# 
# From -- ./inp_files/216988.got.cif
#   From: 2010.05.17/outbox.cif.g08.bks.cpg/sg2_109_cif.got.tgz:216988.got - 2010.06.03 11:33:40.
