data_PCOD9111807
_publ_section_title
;
Structure prediction by ZEFSAII (Michael W. Deem and Ramdas Pophale) SiO2 
 PCOD9111807
Probable space group: P -1
;
_chemical_formula_sum "Si O2"
_cell_formula_units_Z 16
_cell_length_a 8.755794
_cell_length_b 16.077747
_cell_length_c 9.140483
_cell_angle_alpha 141.884879
_cell_angle_beta 97.225566
_cell_angle_gamma 89.157082
_cell_volume 780.430405
_symmetry_space_group_name_H-M "P -1"
_symmetry_group_IT_number 2
_symmetry_cell_setting 'triclinic'
loop_
_space_group_symop_operation_xyz
x,y,z
-x,-y,-z
loop_
_atom_site_type_symbol
_atom_site_label
_atom_site_fract_x
_atom_site_fract_y
_atom_site_fract_z
Si Si1 0.734362 0.845765 0.691148
Si Si2 0.004579 0.357163 0.222016
Si Si3 0.527695 0.861580 0.227360
Si Si4 0.076069 0.848718 0.643244
Si Si5 0.596703 0.640608 0.152106
Si Si6 0.774962 0.858883 0.024290
Si Si7 0.951955 0.629532 0.094115
Si Si8 0.264401 0.845610 0.941678
O O1 0.636819 0.732937 0.427300
O O2 0.670310 0.849632 0.852431
O O3 0.915544 0.822098 0.679298
O O4 0.738809 0.993003 0.823529
O O5 0.866950 0.249059 0.117193
O O6 0.000000 0.500000 0.500000
O O7 0.155922 0.282379 0.159480
O O8 0.995498 0.373718 0.070533
O O9 0.513634 0.733112 0.157235
O O10 0.500000 0.000000 0.500000
O O11 0.697218 0.882427 0.201736
O O12 0.418474 0.827523 0.025243
O O13 0.216380 0.818857 0.726767
O O14 0.041694 0.757396 0.369760
O O15 0.107315 0.005237 0.812350
O O16 0.765619 0.624801 0.081613
O O17 0.500000 0.500000 0.000000
O O18 0.000000 0.500000 0.000000
#
# Coordination Sequence:
#
# PCOD9111807 Si02
#       8
#     2   2   2   2   2   2   2   2
#     4  10  20  43  71 101 134 176 234 290 344 412
#     4  12  25  43  71 104 139 178 234 292 348 418
#     4  12  27  46  67 107 144 184 236 282 349 431
#     4  10  21  41  75 103 131 176 236 297 347 402
#     4  11  26  47  68  98 147 187 229 292 353 415
#     4  11  23  44  71 101 137 181 231 287 354 412
#     4  11  26  44  70 102 136 182 238 288 355 417
#     4  11  22  43  70 100 139 175 228 292 342 415
#
# _framework density 20.501505999999999
#
# number of rings (size 3 to 8) (size 9 to 14) (size 15 to 20)
#    0.000    1.000    5.000    1.500    5.250    2.500 
#    4.500    1.250    0.000    0.000    0.000    0.000 
#    0.000    0.000    0.000    0.000    0.000    0.000 
#
# Total GULP energy -89260.562698 kJ/mol
# GULP energy per Si atom -5578.785169 kJ/mol
# Density = 2.045484 g / cm^3
# Si number density = 20.501506 Si / 1000 Ang^3
#
#
#
# Elastic Constant Matrix: (Units=GPa)
#
#
# Indices 1 2 3 4 5 6 
#
# 1 50.1350 40.9438 48.7262 -0.2391 -1.5135 -5.2800
# 2 40.9438 168.2394 85.1923 5.2140 -3.5825 1.1882
# 3 48.7262 85.1923 170.9572 0.4860 -4.8234 13.9964
# 4 -0.2391 5.2140 0.4860 29.2809 0.3231 -4.9032
# 5 -1.5135 -3.5825 -4.8234 0.3231 33.5773 -5.0466
# 6 -5.2800 1.1882 13.9964 -4.9032 -5.0466 37.5316
#
#
#
# Elastic Compliance Matrix: (Units=1/GPa)
#
#
# Indices 1 2 3 4 5 6 
#
# 1 0.031408 -0.003884 -0.007635 0.002376 0.001060 0.007842
# 2 -0.003884 0.008535 -0.003150 -0.001468 0.000329 0.000211
# 3 -0.007635 -0.003150 0.009987 -0.000464 0.000044 -0.004753
# 4 0.002376 -0.001468 -0.000464 0.035309 0.000327 0.005211
# 5 0.001060 0.000329 0.000044 0.000327 0.030510 0.004267
# 6 0.007842 0.000211 -0.004753 0.005211 0.004267 0.030768
#
#
# Mechanical properties :
#
#
# Convention : Reuss Voigt Hill
#
# Bulk Modulus (GPa) = 48.56306 82.11736 65.34021
# Shear Modulus (GPa) = 27.36435 34.37592 30.87014
#
# Velocity S-wave (km/s) = 3.65738 4.09926 3.88461
# Velocity P-wave (km/s) = 6.44781 7.90863 7.21529
#
# Compressibility (1/GPa) = 0.02059178
#
# Stress axis : x y z
#
# Youngs Moduli (GPa) = 31.83918 117.16109 100.12792
#
# Poissons Ratio (x) = 0.45502 0.76451
# Poissons Ratio (y) = 0.12365 0.31542
# Poissons Ratio (z) = 0.24310 0.36908
#
# Static dielectric constant tensor:
#      x y z
#    x 1.799950 -0.048670 0.014920 
#    y -0.048670 1.769440 -0.054310 
#    z 0.014920 -0.054310 1.752550 
# 
# From -- ./inp_files/209366.got.cif
#   From: 2010.05.17/outbox.cif.g08.bks.cpg/sg2_105_cif.got.tgz:209366.got - 2010.06.03 11:33:40.
