data_PCOD9111739
_publ_section_title
;
Structure prediction by ZEFSAII (Michael W. Deem and Ramdas Pophale) SiO2 
 PCOD9111739
Probable space group: P -1
;
_chemical_formula_sum "Si O2"
_cell_formula_units_Z 16
_cell_length_a 11.417701
_cell_length_b 8.813538
_cell_length_c 11.698059
_cell_angle_alpha 93.756560
_cell_angle_beta 93.556273
_cell_angle_gamma 37.435750
_cell_volume 713.939241
_symmetry_space_group_name_H-M "P -1"
_symmetry_group_IT_number 2
_symmetry_cell_setting 'triclinic'
loop_
_space_group_symop_operation_xyz
x,y,z
-x,-y,-z
loop_
_atom_site_type_symbol
_atom_site_label
_atom_site_fract_x
_atom_site_fract_y
_atom_site_fract_z
Si Si1 0.621068 0.225177 0.397233
Si Si2 0.499962 0.834758 0.935757
Si Si3 0.303262 0.908694 0.354293
Si Si4 0.247381 0.192818 0.757267
Si Si5 0.114417 0.410835 0.385307
Si Si6 0.252471 0.538262 0.269740
Si Si7 0.932686 0.100839 0.285013
Si Si8 0.605597 0.619982 0.168906
O O1 0.593427 0.249560 0.531515
O O2 0.430903 0.452383 0.323330
O O3 0.792285 0.163418 0.370541
O O4 0.681254 0.991787 0.348940
O O5 0.660506 0.649022 0.837967
O O6 0.298115 0.039434 0.864548
O O7 0.546483 0.676207 0.035285
O O8 0.500000 0.000000 0.000000
O O9 0.425128 0.755873 0.240826
O O10 0.275716 0.118326 0.372175
O O11 0.087644 0.060178 0.343763
O O12 0.347139 0.253565 0.784593
O O13 0.029861 0.454312 0.724704
O O14 0.196447 0.493770 0.373755
O O15 0.000000 0.500000 0.500000
O O16 0.072536 0.823529 0.234884
O O17 0.791784 0.328583 0.198588
#
# Coordination Sequence:
#
# PCOD9111739 Si02
#       8
#     2   2   2   2   2   2   2   2
#     4  11  24  43  68  96 138 173 215 276 329 397
#     4   9  21  46  69  97 131 167 222 277 325 385
#     4  12  25  41  68 100 133 179 216 268 340 384
#     4  10  20  43  69  94 133 167 210 285 321 372
#     4  12  22  40  70 106 131 165 227 275 323 397
#     4  11  25  44  71  96 131 181 213 264 346 382
#     4  12  25  44  62  99 138 172 223 264 326 404
#     4  11  25  44  67  97 134 171 224 277 319 390
#
# _framework density 22.410869000000002
#
# number of rings (size 3 to 8) (size 9 to 14) (size 15 to 20)
#    0.000    1.000    3.750    3.375    1.750    4.500 
#    2.250    7.500    0.000    0.000    0.000    0.000 
#    0.000    0.000    0.000    0.000    0.000    0.000 
#
# Total GULP energy -89380.730439 kJ/mol
# GULP energy per Si atom -5586.295652 kJ/mol
# Density = 2.235986 g / cm^3
# Si number density = 22.410869 Si / 1000 Ang^3
#
#
#
# Elastic Constant Matrix: (Units=GPa)
#
#
# Indices 1 2 3 4 5 6 
#
# 1 85.5619 17.1700 10.9049 -6.6199 -9.6863 -4.1843
# 2 17.1700 136.5742 54.8311 -21.4524 -12.3084 3.6857
# 3 10.9049 54.8311 117.3194 -17.7986 -8.7762 -7.4619
# 4 -6.6199 -21.4524 -17.7986 38.7241 4.3481 5.1497
# 5 -9.6863 -12.3084 -8.7762 4.3481 24.3511 -1.5990
# 6 -4.1843 3.6857 -7.4619 5.1497 -1.5990 40.0068
#
#
#
# Elastic Compliance Matrix: (Units=1/GPa)
#
#
# Indices 1 2 3 4 5 6 
#
# 1 0.012542 -0.001038 -0.000137 0.000823 0.004363 0.001450
# 2 -0.001038 0.009851 -0.003934 0.003483 0.002388 -0.002103
# 3 -0.000137 -0.003934 0.010996 0.002380 0.001637 0.002158
# 4 0.000823 0.003483 0.002380 0.029778 -0.002616 -0.003728
# 5 0.004363 0.002388 0.001637 -0.002616 0.045242 0.002686
# 6 0.001450 -0.002103 0.002158 -0.003728 0.002686 0.026331
#
#
# Mechanical properties :
#
#
# Convention : Reuss Voigt Hill
#
# Bulk Modulus (GPa) = 43.15980 56.14083 49.65031
# Shear Modulus (GPa) = 32.74782 37.71970 35.23376
#
# Velocity S-wave (km/s) = 3.82677 4.10701 3.96937
# Velocity P-wave (km/s) = 6.23104 6.89892 6.57347
#
# Compressibility (1/GPa) = 0.02316971
#
# Stress axis : x y z
#
# Youngs Moduli (GPa) = 79.73340 101.51075 90.94196
#
# Poissons Ratio (x) = 0.10541 0.01246
# Poissons Ratio (y) = 0.08280 0.35779
# Poissons Ratio (z) = 0.01092 0.39937
#
# Static dielectric constant tensor:
#      x y z
#    x 1.890610 0.046730 0.012970 
#    y 0.046730 1.876090 -0.019210 
#    z 0.012970 -0.019210 1.794670 
# 
# From -- ./inp_files/417373.got.cif
#   From: 2010.05.17/outbox.cif.g08.bks.cpg/sg2_209_cif.got.tgz:417373.got - 2010.06.03 11:33:40.
