data_PCOD9111660
_publ_section_title
;
Structure prediction by ZEFSAII (Michael W. Deem and Ramdas Pophale) SiO2 
 PCOD9111660
Probable space group: P -1
;
_chemical_formula_sum "Si O2"
_cell_formula_units_Z 12
_cell_length_a 9.189384
_cell_length_b 19.658127
_cell_length_c 16.495700
_cell_angle_alpha 17.571567
_cell_angle_beta 47.178828
_cell_angle_gamma 38.648302
_cell_volume 527.576258
_symmetry_space_group_name_H-M "P -1"
_symmetry_group_IT_number 2
_symmetry_cell_setting 'triclinic'
loop_
_space_group_symop_operation_xyz
x,y,z
-x,-y,-z
loop_
_atom_site_type_symbol
_atom_site_label
_atom_site_fract_x
_atom_site_fract_y
_atom_site_fract_z
Si Si1 0.673933 0.303373 0.231588
Si Si2 0.357857 0.886681 0.255722
Si Si3 0.620413 0.565794 0.126870
Si Si4 0.094636 0.364245 0.706113
Si Si5 0.708019 0.814911 0.468354
Si Si6 0.921463 0.672901 0.001355
O O1 0.651498 0.463461 0.139738
O O2 0.550763 0.147606 0.474467
O O3 0.500000 0.500000 0.000000
O O4 0.949441 0.175582 0.241343
O O5 0.365967 0.649129 0.571323
O O6 0.627161 0.725447 0.296046
O O7 0.152914 0.074010 0.050293
O O8 0.285966 0.123944 0.082708
O O9 0.821479 0.602433 0.043781
O O10 0.362830 0.879540 0.866309
O O11 0.000000 0.500000 0.500000
O O12 0.883188 0.607137 0.567257
O O13 0.866109 0.633685 0.692653
#
# Coordination Sequence:
#
# PCOD9111660 Si02
#       6
#     2   2   2   2   2   2
#     4  10  23  42  65  93 130 170 210 259 315 374
#     4  10  24  41  63  95 126 164 212 260 314 374
#     4  12  23  39  65  97 128 165 212 261 317 375
#     4  10  20  43  68  87 125 170 207 257 317 375
#     4  10  24  42  63  95 129 166 213 261 314 374
#     4  10  23  42  63  93 130 168 213 259 311 376
#
# _framework density 22.745528
#
# number of rings (size 3 to 8) (size 9 to 14) (size 15 to 20)
#    0.000    1.667    0.000    3.500    0.000   12.667 
#    0.000   13.333    0.000    0.000    0.000    0.000 
#    0.000    0.000    0.000    0.000    0.000    0.000 
#
# Total GULP energy -66918.355300 kJ/mol
# GULP energy per Si atom -5576.529608 kJ/mol
# Density = 2.269376 g / cm^3
# Si number density = 22.745528 Si / 1000 Ang^3
#
#
#
# Elastic Constant Matrix: (Units=GPa)
#
#
# Indices 1 2 3 4 5 6 
#
# 1 108.5008 9.4413 55.6271 21.1032 24.6910 7.0786
# 2 9.4413 64.1334 62.7855 41.0667 17.7464 -12.1563
# 3 55.6271 62.7855 189.8537 -3.2523 35.9261 11.2609
# 4 21.1032 41.0667 -3.2523 13.9305 -2.7149 17.4305
# 5 24.6910 17.7464 35.9261 -2.7149 25.3943 9.1878
# 6 7.0786 -12.1563 11.2609 17.4305 9.1878 20.7774
#
#
#
# Elastic Compliance Matrix: (Units=1/GPa)
#
#
# Indices 1 2 3 4 5 6 
#
# 1 0.010359 -0.003868 -0.000601 0.003940 -0.003481 -0.007233
# 2 -0.003868 0.002912 -0.000427 0.014136 0.008278 -0.012266
# 3 -0.000601 -0.000427 0.007473 -0.004156 -0.011802 0.004610
# 4 0.003940 0.014136 -0.004156 -0.004224 -0.015340 0.019507
# 5 -0.003481 0.008278 -0.011802 -0.015340 0.051052 0.002719
# 6 -0.007233 -0.012266 0.004610 0.019507 0.002719 0.023350
#
#
# Mechanical properties :
#
#
# Convention : Reuss Voigt Hill
#
# Bulk Modulus (GPa) = 91.29282 68.68842 79.99062
# Shear Modulus (GPa) = 47.90960 27.66271 37.78616
#
# Velocity S-wave (km/s) = 4.59446 3.49116 4.08027
# Velocity P-wave (km/s) = 8.26856 6.82020 7.57906
#
# Compressibility (1/GPa) = 0.01095376
#
# Stress axis : x y z
#
# Youngs Moduli (GPa) = 96.53719 343.37079 133.81322
#
# Poissons Ratio (x) = 1.32802 0.08041
# Poissons Ratio (y) = 0.37337 0.05710
# Poissons Ratio (z) = 0.05801 0.14651
#
# Static dielectric constant tensor:
#      x y z
#    x 1.878960 -0.019120 0.048840 
#    y -0.019120 1.851510 0.054460 
#    z 0.048840 0.054460 1.941250 
# 
# From -- ./inp_files/31040.got.cif
#   From: 2010.05.17/outbox.cif.g08.bks.cpg/sg2_16_cif.got.tgz:31040.got - 2010.06.03 11:33:40.
