data_PCOD9111888
_publ_section_title
;
Structure prediction by ZEFSAII (Michael W. Deem and Ramdas Pophale) SiO2 
 PCOD9111888
Probable space group: P -1
;
_chemical_formula_sum "Si O2"
_cell_formula_units_Z 16
_cell_length_a 9.215519
_cell_length_b 14.312490
_cell_length_c 9.121119
_cell_angle_alpha 135.540094
_cell_angle_beta 100.442928
_cell_angle_gamma 100.233601
_cell_volume 741.792764
_symmetry_space_group_name_H-M "P -1"
_symmetry_group_IT_number 2
_symmetry_cell_setting 'triclinic'
loop_
_space_group_symop_operation_xyz
x,y,z
-x,-y,-z
loop_
_atom_site_type_symbol
_atom_site_label
_atom_site_fract_x
_atom_site_fract_y
_atom_site_fract_z
Si Si1 0.679201 0.553306 0.024505
Si Si2 0.757400 0.033748 0.937178
Si Si3 0.065322 0.346398 0.407124
Si Si4 0.160476 0.355792 0.122019
Si Si5 0.153168 0.607388 0.933602
Si Si6 0.531075 0.092710 0.759894
Si Si7 0.872230 0.837807 0.544833
Si Si8 0.222153 0.069901 0.849510
O O1 0.780756 0.470468 0.020148
O O2 0.767320 0.728858 0.276623
O O3 0.500000 0.500000 0.000000
O O4 0.690471 0.540253 0.838217
O O5 0.889750 0.207274 0.178909
O O6 0.737947 0.951138 0.996624
O O7 0.590875 0.021813 0.823832
O O8 0.826747 0.961485 0.744402
O O9 0.166159 0.409226 0.348450
O O10 0.068613 0.480762 0.652941
O O11 0.147025 0.269606 0.441597
O O12 0.990020 0.342257 0.002820
O O13 0.168111 0.200482 0.969160
O O14 0.316716 0.746986 0.063608
O O15 0.369054 0.098105 0.797450
O O16 0.500000 0.000000 0.500000
O O17 0.060604 0.916980 0.616638
#
# Coordination Sequence:
#
# PCOD9111888 Si02
#       8
#     2   2   2   2   2   2   2   2
#     4  11  27  45  63  99 142 182 220 280 337 402
#     4  11  21  45  70 102 134 173 228 279 339 396
#     4  10  20  43  73  98 129 175 229 283 321 400
#     4  12  22  43  75  95 129 179 232 274 334 401
#     4  11  25  47  66  99 139 180 228 273 339 395
#     4  12  28  43  67 101 145 174 220 283 335 406
#     4  10  21  42  73  96 136 174 226 274 337 405
#     4  11  23  43  70 103 129 175 231 277 340 394
#
# _framework density 21.569365000000001
#
# number of rings (size 3 to 8) (size 9 to 14) (size 15 to 20)
#    0.000    1.000    3.750    2.625    5.250    0.500 
#    4.500    1.875    0.000    0.000    0.000    0.000 
#    0.000    0.000    0.000    0.000    0.000    0.000 
#
# Total GULP energy -89379.760117 kJ/mol
# GULP energy per Si atom -5586.235007 kJ/mol
# Density = 2.152027 g / cm^3
# Si number density = 21.569365 Si / 1000 Ang^3
#
#
#
# Elastic Constant Matrix: (Units=GPa)
#
#
# Indices 1 2 3 4 5 6 
#
# 1 110.1036 44.7576 25.5212 6.3001 -21.9309 -3.2149
# 2 44.7576 117.2796 30.4560 -7.2793 -13.3127 -4.7582
# 3 25.5212 30.4560 68.1167 12.4988 -8.8122 -23.7739
# 4 6.3001 -7.2793 12.4988 27.8143 0.0048 -0.2173
# 5 -21.9309 -13.3127 -8.8122 0.0048 23.1394 -3.9386
# 6 -3.2149 -4.7582 -23.7739 -0.2173 -3.9386 27.5850
#
#
#
# Elastic Compliance Matrix: (Units=1/GPa)
#
#
# Indices 1 2 3 4 5 6 
#
# 1 0.013087 -0.003845 -0.000518 -0.003725 0.010311 0.001858
# 2 -0.003845 0.011974 -0.006561 0.006922 0.000068 -0.003973
# 3 -0.000518 -0.006561 0.032274 -0.015883 0.012851 0.028333
# 4 -0.003725 0.006922 -0.015883 0.045640 -0.007939 -0.013703
# 5 0.010311 0.000068 0.012851 -0.007939 0.061500 0.021008
# 6 0.001858 -0.003973 0.028333 -0.013703 0.021008 0.063093
#
#
# Mechanical properties :
#
#
# Convention : Reuss Voigt Hill
#
# Bulk Modulus (GPa) = 28.17983 55.21883 41.69933
# Shear Modulus (GPa) = 19.13923 28.69206 23.91565
#
# Velocity S-wave (km/s) = 2.98205 3.65118 3.33344
# Velocity P-wave (km/s) = 4.99499 6.59022 5.84726
#
# Compressibility (1/GPa) = 0.03548637
#
# Stress axis : x y z
#
# Youngs Moduli (GPa) = 76.41375 83.51357 30.98485
#
# Poissons Ratio (x) = 0.32113 0.01604
# Poissons Ratio (y) = 0.29383 0.20329
# Poissons Ratio (z) = 0.03957 0.54794
#
# Static dielectric constant tensor:
#      x y z
#    x 1.799590 -0.029490 -0.027640 
#    y -0.029490 1.828840 -0.012330 
#    z -0.027640 -0.012330 1.798350 
# 
# From -- ./inp_files/209378.got.cif
#   From: 2010.05.17/outbox.cif.g08.bks.cpg/sg2_105_cif.got.tgz:209378.got - 2010.06.03 11:33:40.
