data_PCOD9111925
_publ_section_title
;
Structure prediction by ZEFSAII (Michael W. Deem and Ramdas Pophale) SiO2 
 PCOD9111925
Probable space group: P -1
;
_chemical_formula_sum "Si O2"
_cell_formula_units_Z 15
_cell_length_a 8.961093
_cell_length_b 12.306122
_cell_length_c 13.736427
_cell_angle_alpha 148.447841
_cell_angle_beta 53.098270
_cell_angle_gamma 123.411696
_cell_volume 631.106318
_symmetry_space_group_name_H-M "P -1"
_symmetry_group_IT_number 2
_symmetry_cell_setting 'triclinic'
loop_
_space_group_symop_operation_xyz
x,y,z
-x,-y,-z
loop_
_atom_site_type_symbol
_atom_site_label
_atom_site_fract_x
_atom_site_fract_y
_atom_site_fract_z
Si Si1 0.628472 0.064393 0.591711
Si Si2 0.324516 0.574016 0.571567
Si Si3 0.804115 0.571478 0.673972
Si Si4 0.081627 0.685830 0.008288
Si Si5 0.288460 0.363989 0.773547
Si Si6 0.500000 0.500000 0.000000
Si Si7 0.946838 0.388584 0.661043
Si Si8 0.296533 0.983438 0.014617
O O1 0.542545 0.256317 0.823933
O O2 0.833304 0.169456 0.558038
O O3 0.500000 0.000000 0.500000
O O4 0.651779 0.841765 0.461364
O O5 0.500000 0.500000 0.500000
O O6 0.341073 0.561332 0.439689
O O7 0.149498 0.410046 0.548194
O O8 0.288390 0.800180 0.797479
O O9 0.809703 0.509754 0.737101
O O10 0.000000 0.500000 0.500000
O O11 0.765135 0.807541 0.849981
O O12 0.147441 0.897511 0.088925
O O13 0.929722 0.704977 0.164986
O O14 0.264624 0.575645 0.885581
O O15 0.977482 0.525109 0.849460
O O16 0.402626 0.416208 0.868149
O O17 0.500000 0.000000 0.000000
#
# Coordination Sequence:
#
# PCOD9111925 Si02
#       8
#     2   2   2   2   2   1   2   2
#     4  10  22  40  66  90 128 168 218 269 320 381
#     4  10  21  41  64  95 131 164 216 271 323 397
#     4  10  23  41  66  94 130 171 219 268 329 401
#     4  10  23  42  65  95 131 167 219 267 326 390
#     4  10  22  42  67  93 128 172 216 268 325 387
#     4  10  20  44  60  92 132 160 220 272 310 382
#     4  10  22  42  66  92 131 173 215 271 329 396
#     4  11  23  41  67  96 135 172 216 274 331 390
#
# _framework density 23.767786999999998
#
# number of rings (size 3 to 8) (size 9 to 14) (size 15 to 20)
#    0.000    1.867    2.667    0.000    3.733    7.467 
#    0.000    1.333    0.000    0.000    0.000    0.000 
#    0.000    0.000    0.000    0.000    0.000    0.000 
#
# Total GULP energy -83522.897955 kJ/mol
# GULP energy per Si atom -5568.193197 kJ/mol
# Density = 2.371369 g / cm^3
# Si number density = 23.767787 Si / 1000 Ang^3
#
#
#
# Elastic Constant Matrix: (Units=GPa)
#
#
# Indices 1 2 3 4 5 6 
#
# 1 119.9879 35.0047 23.8857 11.3584 1.0419 -2.0286
# 2 35.0047 63.6174 17.6380 31.3636 -2.2724 6.1631
# 3 23.8857 17.6380 158.9271 31.3156 -9.7201 -6.6070
# 4 11.3584 31.3636 31.3156 30.0643 -3.7510 2.5809
# 5 1.0419 -2.2724 -9.7201 -3.7510 42.7859 3.8128
# 6 -2.0286 6.1631 -6.6070 2.5809 3.8128 52.5258
#
#
#
# Elastic Compliance Matrix: (Units=1/GPa)
#
#
# Indices 1 2 3 4 5 6 
#
# 1 0.010719 -0.009107 -0.002070 0.007449 -0.000642 0.000903
# 2 -0.009107 0.042236 0.005722 -0.046395 -0.000098 -0.002301
# 3 -0.002070 0.005722 0.008917 -0.014433 0.001025 0.001005
# 4 0.007449 -0.046395 -0.014433 0.094260 0.002419 -0.000891
# 5 -0.000642 -0.000098 0.001025 0.002419 0.023983 -0.001744
# 6 0.000903 -0.002301 0.001005 -0.000891 -0.001744 0.019640
#
#
# Mechanical properties :
#
#
# Convention : Reuss Voigt Hill
#
# Bulk Modulus (GPa) = 19.62282 55.06547 37.34414
# Shear Modulus (GPa) = 21.96337 42.80879 32.38608
#
# Velocity S-wave (km/s) = 3.04317 4.24857 3.69535
# Velocity P-wave (km/s) = 4.54112 6.87645 5.82698
#
# Compressibility (1/GPa) = 0.05096108
#
# Stress axis : x y z
#
# Youngs Moduli (GPa) = 93.29517 23.67646 112.14891
#
# Poissons Ratio (x) = 0.21562 0.23213
# Poissons Ratio (y) = 0.84963 -0.64166
# Poissons Ratio (z) = 0.19310 -0.13547
#
# Static dielectric constant tensor:
#      x y z
#    x 1.917740 0.045250 -0.047570 
#    y 0.045250 2.020950 -0.082940 
#    z -0.047570 -0.082940 1.907560 
# 
# From -- ./inp_files/501123.got.cif
#   From: 2010.05.17/outbox.cif.g08.bks.cpg/sg2_251_cif.got.tgz:501123.got - 2010.06.03 11:33:40.
