data_PCOD9111268
_publ_section_title
;
Structure prediction by ZEFSAII (Michael W. Deem and Ramdas Pophale) SiO2 
 PCOD9111268
Probable space group: P -1
;
_chemical_formula_sum "Si O2"
_cell_formula_units_Z 14
_cell_length_a 6.861975
_cell_length_b 19.963704
_cell_length_c 4.797321
_cell_angle_alpha 91.870659
_cell_angle_beta 76.354523
_cell_angle_gamma 110.214929
_cell_volume 598.437879
_symmetry_space_group_name_H-M "P -1"
_symmetry_group_IT_number 2
_symmetry_cell_setting 'triclinic'
loop_
_space_group_symop_operation_xyz
x,y,z
-x,-y,-z
loop_
_atom_site_type_symbol
_atom_site_label
_atom_site_fract_x
_atom_site_fract_y
_atom_site_fract_z
Si Si1 0.810784 0.455224 0.348839
Si Si2 0.407962 0.137721 0.913528
Si Si3 0.143010 0.409141 0.010319
Si Si4 0.136452 0.813183 0.037764
Si Si5 0.486624 0.930007 0.659355
Si Si6 0.144779 0.216555 0.331028
Si Si7 0.349905 0.366648 0.460258
O O1 0.710301 0.596018 0.783000
O O2 0.573389 0.413801 0.528244
O O3 0.787804 0.511291 0.136263
O O4 0.902719 0.397489 0.181855
O O5 0.644971 0.193264 0.919066
O O6 0.387208 0.066915 0.095100
O O7 0.236732 0.168526 0.099251
O O8 0.424951 0.117715 0.585491
O O9 0.000000 0.500000 0.500000
O O10 0.166997 0.360397 0.744958
O O11 0.244053 0.886829 0.833894
O O12 0.007019 0.760930 0.831833
O O13 0.991610 0.816077 0.351377
O O14 0.500000 0.000000 0.500000
O O15 0.333775 0.287625 0.371764
#
# Coordination Sequence:
#
# PCOD9111268 Si02
#       7
#     2   2   2   2   2   2   2
#     4  11  25  45  71  96 134 168 219 278 345 388
#     4  10  22  41  66  93 136 172 215 276 329 373
#     4  11  25  45  67  97 131 168 214 283 340 379
#     4  10  22  43  65  91 137 172 212 278 326 376
#     4  10  20  42  71  95 131 175 218 270 332 385
#     4  12  24  43  65  95 132 181 224 259 333 402
#     4  12  27  41  68  98 131 172 228 268 327 411
#
# _framework density 23.394238000000001
#
# number of rings (size 3 to 8) (size 9 to 14) (size 15 to 20)
#    0.857    0.286    2.857    3.000    4.000    2.286 
#    0.000    4.286    0.000    0.000    0.000    0.000 
#    0.000    0.000    0.000    0.000    0.000    0.000 
#
# Total GULP energy -78078.985399 kJ/mol
# GULP energy per Si atom -5577.070386 kJ/mol
# Density = 2.334099 g / cm^3
# Si number density = 23.394238 Si / 1000 Ang^3
#
#
#
# Elastic Constant Matrix: (Units=GPa)
#
#
# Indices 1 2 3 4 5 6 
#
# 1 51.2844 20.0879 46.7275 -12.9416 0.6025 -0.7046
# 2 20.0879 61.6502 39.0157 -16.6201 -9.2668 -4.5851
# 3 46.7275 39.0157 168.1163 -9.8451 1.7305 -3.9040
# 4 -12.9416 -16.6201 -9.8451 34.2654 -3.7870 0.2648
# 5 0.6025 -9.2668 1.7305 -3.7870 43.5592 3.5823
# 6 -0.7046 -4.5851 -3.9040 0.2648 3.5823 21.2132
#
#
#
# Elastic Compliance Matrix: (Units=1/GPa)
#
#
# Indices 1 2 3 4 5 6 
#
# 1 0.028852 -0.003141 -0.006881 0.007398 -0.000063 -0.001069
# 2 -0.003141 0.023483 -0.003997 0.009670 0.005781 0.003139
# 3 -0.006881 -0.003997 0.008692 -0.002196 -0.001354 0.000763
# 4 0.007398 0.009670 -0.002196 0.036605 0.005175 0.000601
# 5 -0.000063 0.005781 -0.001354 0.005175 0.024962 -0.003282
# 6 -0.001069 0.003139 0.000763 0.000601 -0.003282 0.048471
#
#
# Mechanical properties :
#
#
# Convention : Reuss Voigt Hill
#
# Bulk Modulus (GPa) = 30.31396 54.74589 42.52993
# Shear Modulus (GPa) = 23.79840 31.48887 27.64364
#
# Velocity S-wave (km/s) = 3.19294 3.67278 3.44123
# Velocity P-wave (km/s) = 5.15550 6.43724 5.83169
#
# Compressibility (1/GPa) = 0.03298810
#
# Stress axis : x y z
#
# Youngs Moduli (GPa) = 34.65940 42.58438 115.05302
#
# Poissons Ratio (x) = 0.13374 0.79173
# Poissons Ratio (y) = 0.10885 0.45989
# Poissons Ratio (z) = 0.23851 0.17022
#
# Static dielectric constant tensor:
#      x y z
#    x 1.918590 -0.003400 -0.002130 
#    y -0.003400 1.942940 0.014830 
#    z -0.002130 0.014830 1.896570 
# 
# From -- ./inp_files/51896.got.cif
#   From: 2010.05.17/outbox.cif.g08.bks.cpg/sg2_26_cif.got.tgz:51896.got - 2010.06.03 11:33:40.
