data_PCOD9111170
_publ_section_title
;
Structure prediction by ZEFSAII (Michael W. Deem and Ramdas Pophale) SiO2 
 PCOD9111170
Probable space group: P -1
;
_chemical_formula_sum "Si O2"
_cell_formula_units_Z 16
_cell_length_a 28.776305
_cell_length_b 12.925727
_cell_length_c 10.230757
_cell_angle_alpha 36.746792
_cell_angle_beta 26.573207
_cell_angle_gamma 25.466100
_cell_volume 731.572466
_symmetry_space_group_name_H-M "P -1"
_symmetry_group_IT_number 2
_symmetry_cell_setting 'triclinic'
loop_
_space_group_symop_operation_xyz
x,y,z
-x,-y,-z
loop_
_atom_site_type_symbol
_atom_site_label
_atom_site_fract_x
_atom_site_fract_y
_atom_site_fract_z
Si Si1 0.203760 0.067197 0.916768
Si Si2 0.331223 0.045288 0.093592
Si Si3 0.947415 0.094163 0.182566
Si Si4 0.072687 0.647801 0.504067
Si Si5 0.314465 0.406545 0.622921
Si Si6 0.606228 0.223756 0.045533
Si Si7 0.674714 0.685847 0.612656
Si Si8 0.867539 0.797870 0.319220
O O1 0.273052 0.176381 0.648106
O O2 0.208859 0.027580 0.791326
O O3 0.293853 0.846037 0.013520
O O4 0.041061 0.251101 0.194406
O O5 0.237449 0.094763 0.401799
O O6 0.314850 0.943951 0.109403
O O7 0.502663 0.855437 0.889919
O O8 0.276333 0.294251 0.928535
O O9 0.774936 0.320224 0.390275
O O10 0.010739 0.872063 0.341860
O O11 0.004674 0.217596 0.955226
O O12 0.000000 0.000000 0.000000
O O13 0.225595 0.516621 0.321057
O O14 0.086161 0.449802 0.591797
O O15 0.487842 0.216940 0.391205
O O16 0.287402 0.410312 0.533450
O O17 0.500000 0.500000 0.000000
#
# Coordination Sequence:
#
# PCOD9111170 Si02
#       8
#     2   2   2   2   2   2   2   2
#     4  11  21  43  69 101 135 175 232 276 335 415
#     4  11  23  43  68  98 138 180 225 279 337 405
#     4  12  28  45  67 101 139 176 230 282 343 405
#     4  11  25  44  71 100 137 182 225 283 339 404
#     4  11  21  42  69  95 131 181 226 277 328 405
#     4  11  23  39  67  99 131 178 227 274 333 402
#     4  10  20  42  70 100 132 177 232 273 337 406
#     4  11  27  44  68 103 135 184 223 282 348 393
#
# _framework density 21.870697
#
# number of rings (size 3 to 8) (size 9 to 14) (size 15 to 20)
#    0.000    1.000    2.500    5.250    3.500    7.000 
#    2.250    1.250    0.000    0.000    0.000    0.000 
#    0.000    0.000    0.000    0.000    0.000    0.000 
#
# Total GULP energy -89444.898809 kJ/mol
# GULP energy per Si atom -5590.306176 kJ/mol
# Density = 2.182092 g / cm^3
# Si number density = 21.870697 Si / 1000 Ang^3
#
#
#
# Elastic Constant Matrix: (Units=GPa)
#
#
# Indices 1 2 3 4 5 6 
#
# 1 96.6887 45.0594 38.2927 1.1153 15.4031 -18.8122
# 2 45.0594 104.6826 34.9638 -5.2985 19.5885 -28.3327
# 3 38.2927 34.9638 110.4805 2.6683 21.6384 -7.1588
# 4 1.1153 -5.2985 2.6683 28.6038 0.3522 5.4301
# 5 15.4031 19.5885 21.6384 0.3522 42.8545 -3.2090
# 6 -18.8122 -28.3327 -7.1588 5.4301 -3.2090 29.3843
#
#
#
# Elastic Compliance Matrix: (Units=1/GPa)
#
#
# Indices 1 2 3 4 5 6 
#
# 1 0.014587 -0.003572 -0.003229 -0.001914 -0.001568 0.005291
# 2 -0.003572 0.015830 -0.002263 0.001092 -0.003935 0.011793
# 3 -0.003229 -0.002263 0.011537 -0.001008 -0.003746 -0.001662
# 4 -0.001914 0.001092 -0.001008 0.036703 -0.000144 -0.007216
# 5 -0.001568 -0.003935 -0.003746 -0.000144 0.027388 -0.002693
# 6 0.005291 0.011793 -0.001662 -0.007216 -0.002693 0.049425
#
#
# Mechanical properties :
#
#
# Convention : Reuss Voigt Hill
#
# Bulk Modulus (GPa) = 41.97211 60.94263 51.45737
# Shear Modulus (GPa) = 27.54200 33.07089 30.30645
#
# Velocity S-wave (km/s) = 3.55253 3.89280 3.72655
# Velocity P-wave (km/s) = 6.00499 6.93763 6.48809
#
# Compressibility (1/GPa) = 0.02382534
#
# Stress axis : x y z
#
# Youngs Moduli (GPa) = 68.55289 63.17306 86.67499
#
# Poissons Ratio (x) = 0.22565 0.27991
# Poissons Ratio (y) = 0.24486 0.19615
# Poissons Ratio (z) = 0.22139 0.14297
#
# Static dielectric constant tensor:
#      x y z
#    x 1.816730 -0.026730 -0.055980 
#    y -0.026730 1.817720 -0.045650 
#    z -0.055980 -0.045650 1.874890 
# 
# From -- ./inp_files/357027.got.cif
#   From: 2010.05.17/outbox.cif.g08.bks.cpg/sg2_179_cif.got.tgz:357027.got - 2010.06.03 11:33:40.
