data_PCOD9111484
_publ_section_title
;
Structure prediction by ZEFSAII (Michael W. Deem and Ramdas Pophale) SiO2 
 PCOD9111484
Probable space group: P -1
;
_chemical_formula_sum "Si O2"
_cell_formula_units_Z 14
_cell_length_a 11.626917
_cell_length_b 7.392171
_cell_length_c 13.223666
_cell_angle_alpha 80.666519
_cell_angle_beta 101.478475
_cell_angle_gamma 41.847561
_cell_volume 653.989374
_symmetry_space_group_name_H-M "P -1"
_symmetry_group_IT_number 2
_symmetry_cell_setting 'triclinic'
loop_
_space_group_symop_operation_xyz
x,y,z
-x,-y,-z
loop_
_atom_site_type_symbol
_atom_site_label
_atom_site_fract_x
_atom_site_fract_y
_atom_site_fract_z
Si Si1 0.474622 0.308303 0.050254
Si Si2 0.883886 0.951894 0.196367
Si Si3 0.839219 0.231622 0.364568
Si Si4 0.748223 0.436245 0.812310
Si Si5 0.562305 0.382529 0.635980
Si Si6 0.877691 0.665485 0.777191
Si Si7 0.247242 0.381798 0.844194
O O1 0.343205 0.521225 0.104539
O O2 0.669058 0.189976 0.089506
O O3 0.585318 0.973991 0.120198
O O4 0.350976 0.416186 0.919413
O O5 0.024798 0.885226 0.149810
O O6 0.003353 0.608139 0.259524
O O7 0.875705 0.045287 0.296685
O O8 0.623960 0.466553 0.351124
O O9 0.846995 0.416704 0.291937
O O10 0.000000 0.000000 0.500000
O O11 0.630710 0.482311 0.696904
O O12 0.751926 0.655008 0.802787
O O13 0.500000 0.500000 0.500000
O O14 0.734432 0.013433 0.698712
O O15 0.075179 0.510051 0.873361
#
# Coordination Sequence:
#
# PCOD9111484 Si02
#       7
#     2   2   2   2   2   2   2
#     4  10  20  43  65 102 134 179 220 280 331 406
#     4   9  21  42  64  97 135 169 222 272 329 402
#     4  12  24  44  67  96 136 178 227 283 334 400
#     4  10  21  41  67  95 138 167 226 270 335 401
#     4  12  24  43  67  96 134 177 230 280 333 400
#     4   9  22  42  63  97 135 171 219 276 334 392
#     4  10  22  41  69  96 139 176 225 272 345 391
#
# _framework density 21.407076
#
# number of rings (size 3 to 8) (size 9 to 14) (size 15 to 20)
#    0.857    0.857    1.429    3.429    0.000    1.714 
#    5.143    3.571    0.000    0.000    0.000    0.000 
#    0.000    0.000    0.000    0.000    0.000    0.000 
#
# Total GULP energy -77986.322873 kJ/mol
# GULP energy per Si atom -5570.451634 kJ/mol
# Density = 2.135835 g / cm^3
# Si number density = 21.407076 Si / 1000 Ang^3
#
#
#
# Elastic Constant Matrix: (Units=GPa)
#
#
# Indices 1 2 3 4 5 6 
#
# 1 125.3905 28.7680 36.2599 4.7917 13.4219 -19.8115
# 2 28.7680 110.9776 35.8815 1.0838 6.4725 -25.8002
# 3 36.2599 35.8815 112.4171 -2.4618 12.0801 -15.6959
# 4 4.7917 1.0838 -2.4618 30.6839 -3.5699 -2.5429
# 5 13.4219 6.4725 12.0801 -3.5699 27.9165 -3.9068
# 6 -19.8115 -25.8002 -15.6959 -2.5429 -3.9068 47.3120
#
#
#
# Elastic Compliance Matrix: (Units=1/GPa)
#
#
# Indices 1 2 3 4 5 6 
#
# 1 0.009635 -0.001043 -0.002119 -0.001833 -0.003374 0.002386
# 2 -0.001043 0.011245 -0.002545 -0.000079 -0.000340 0.004819
# 3 -0.002119 -0.002545 0.010877 0.001064 -0.002800 0.001159
# 4 -0.001833 -0.000079 0.001064 0.033692 0.004995 0.001766
# 5 -0.003374 -0.000340 -0.002800 0.004995 0.039513 0.001004
# 6 0.002386 0.004819 0.001159 0.001766 0.001004 0.025325
#
#
# Mechanical properties :
#
#
# Convention : Reuss Voigt Hill
#
# Bulk Modulus (GPa) = 49.15836 61.17825 55.16830
# Shear Modulus (GPa) = 33.67356 37.70753 35.69055
#
# Velocity S-wave (km/s) = 3.97042 4.20152 4.08760
# Velocity P-wave (km/s) = 6.63570 7.22340 6.93578
#
# Compressibility (1/GPa) = 0.02034242
#
# Stress axis : x y z
#
# Youngs Moduli (GPa) = 103.78355 88.92854 91.93374
#
# Poissons Ratio (x) = 0.09277 0.19484
# Poissons Ratio (y) = 0.10826 0.23398
# Poissons Ratio (z) = 0.21996 0.22633
#
# Static dielectric constant tensor:
#      x y z
#    x 1.896450 0.039770 -0.004080 
#    y 0.039770 1.796070 -0.024420 
#    z -0.004080 -0.024420 1.749470 
# 
# From -- ./inp_files/417148.got.cif
#   From: 2010.05.17/outbox.cif.g08.bks.cpg/sg2_209_cif.got.tgz:417148.got - 2010.06.03 11:33:40.
