data_PCOD9111462
_publ_section_title
;
Structure prediction by ZEFSAII (Michael W. Deem and Ramdas Pophale) SiO2 
 PCOD9111462
Probable space group: P -1
;
_chemical_formula_sum "Si O2"
_cell_formula_units_Z 16
_cell_length_a 19.691298
_cell_length_b 12.982433
_cell_length_c 8.621100
_cell_angle_alpha 106.274382
_cell_angle_beta 130.745694
_cell_angle_gamma 33.233177
_cell_volume 703.161228
_symmetry_space_group_name_H-M "P -1"
_symmetry_group_IT_number 2
_symmetry_cell_setting 'triclinic'
loop_
_space_group_symop_operation_xyz
x,y,z
-x,-y,-z
loop_
_atom_site_type_symbol
_atom_site_label
_atom_site_fract_x
_atom_site_fract_y
_atom_site_fract_z
Si Si1 0.659051 0.890630 0.797694
Si Si2 0.217294 0.706214 0.029822
Si Si3 0.968254 0.594868 0.660008
Si Si4 0.368667 0.203080 0.763103
Si Si5 0.504463 0.533971 0.197232
Si Si6 0.974615 0.279307 0.403962
Si Si7 0.883519 0.241737 0.776517
Si Si8 0.162157 0.084672 0.938042
O O1 0.500000 0.000000 0.500000
O O2 0.518703 0.088018 0.810540
O O3 0.768523 0.874978 0.879496
O O4 0.834004 0.631170 0.032427
O O5 0.426791 0.520992 0.187499
O O6 0.226705 0.625949 0.166418
O O7 0.081002 0.782681 0.741862
O O8 0.088682 0.950789 0.983290
O O9 0.783516 0.722717 0.505466
O O10 0.000000 0.500000 0.500000
O O11 0.932676 0.755017 0.618649
O O12 0.238679 0.433464 0.751309
O O13 0.500000 0.000000 0.000000
O O14 0.725562 0.341557 0.485003
O O15 0.500000 0.500000 0.000000
O O16 0.343625 0.803276 0.097524
O O17 0.105390 0.153348 0.700597
O O18 0.963437 0.257716 0.808221
#
# Coordination Sequence:
#
# PCOD9111462 Si02
#       8
#     2   2   2   2   2   2   2   2
#     4  12  26  42  64 100 133 171 223 281 337 391
#     4  10  23  42  66  95 129 171 216 266 337 396
#     4  10  20  43  64  90 132 169 220 271 320 399
#     4  11  21  42  67  88 130 176 222 273 325 392
#     4  11  23  40  67  99 132 168 217 270 331 397
#     4  11  21  41  68  93 126 172 227 265 328 394
#     4  10  23  45  64  92 138 168 210 278 330 395
#     4  11  24  42  64  96 130 172 220 274 327 398
#
# _framework density 22.754382
#
# number of rings (size 3 to 8) (size 9 to 14) (size 15 to 20)
#    0.000    1.250    5.000    1.875    3.500    4.500 
#    2.250    0.000    0.000    0.000    0.000    0.000 
#    0.000    0.000    0.000    0.000    0.000    0.000 
#
# Total GULP energy -89423.812957 kJ/mol
# GULP energy per Si atom -5588.988310 kJ/mol
# Density = 2.270259 g / cm^3
# Si number density = 22.754382 Si / 1000 Ang^3
#
#
#
# Elastic Constant Matrix: (Units=GPa)
#
#
# Indices 1 2 3 4 5 6 
#
# 1 160.7378 18.0956 50.5017 10.1062 35.1094 -4.9282
# 2 18.0956 30.9919 1.6870 3.6679 -2.6291 -0.2429
# 3 50.5017 1.6870 132.1073 16.3450 10.9792 -0.0570
# 4 10.1062 3.6679 16.3450 34.9356 5.2194 2.3737
# 5 35.1094 -2.6291 10.9792 5.2194 36.9938 -0.8143
# 6 -4.9282 -0.2429 -0.0570 2.3737 -0.8143 29.2340
#
#
#
# Elastic Compliance Matrix: (Units=1/GPa)
#
#
# Indices 1 2 3 4 5 6 
#
# 1 0.009848 -0.006391 -0.002997 0.000472 -0.008948 0.001314
# 2 -0.006391 0.037139 0.001756 -0.004169 0.008768 -0.000183
# 3 -0.002997 0.001756 0.009082 -0.003674 0.000789 -0.000153
# 4 0.000472 -0.004169 -0.003674 0.031443 -0.004148 -0.002631
# 5 -0.008948 0.008768 0.000789 -0.004148 0.036497 -0.000081
# 6 0.001314 -0.000183 -0.000153 -0.002631 -0.000081 0.034638
#
#
# Mechanical properties :
#
#
# Convention : Reuss Voigt Hill
#
# Bulk Modulus (GPa) = 24.50784 51.60063 38.05424
# Shear Modulus (GPa) = 26.66509 37.13621 31.90065
#
# Velocity S-wave (km/s) = 3.42697 4.04424 3.74833
# Velocity P-wave (km/s) = 5.14323 6.67340 5.95765
#
# Compressibility (1/GPa) = 0.04080326
#
# Stress axis : x y z
#
# Youngs Moduli (GPa) = 101.54692 26.92615 110.11010
#
# Poissons Ratio (x) = 0.17210 0.33001
# Poissons Ratio (y) = 0.64903 -0.19337
# Poissons Ratio (z) = 0.30434 -0.04729
#
# Static dielectric constant tensor:
#      x y z
#    x 1.956720 0.009340 -0.002400 
#    y 0.009340 1.862720 0.003780 
#    z -0.002400 0.003780 1.830880 
# 
# From -- ./inp_files/333421.got.cif
#   From: 2010.05.17/outbox.cif.g08.bks.cpg/sg2_167_cif.got.tgz:333421.got - 2010.06.03 11:33:40.
