data_PCOD9111535
_publ_section_title
;
Structure prediction by ZEFSAII (Michael W. Deem and Ramdas Pophale) SiO2 
 PCOD9111535
Probable space group: P -1
;
_chemical_formula_sum "Si O2"
_cell_formula_units_Z 14
_cell_length_a 9.573960
_cell_length_b 11.496320
_cell_length_c 5.229156
_cell_angle_alpha 93.959947
_cell_angle_beta 79.977309
_cell_angle_gamma 86.598696
_cell_volume 563.918889
_symmetry_space_group_name_H-M "P -1"
_symmetry_group_IT_number 2
_symmetry_cell_setting 'triclinic'
loop_
_space_group_symop_operation_xyz
x,y,z
-x,-y,-z
loop_
_atom_site_type_symbol
_atom_site_label
_atom_site_fract_x
_atom_site_fract_y
_atom_site_fract_z
Si Si1 0.535956 0.221839 0.181429
Si Si2 0.843980 0.530713 0.954918
Si Si3 0.698964 0.590739 0.512210
Si Si4 0.717693 0.913144 0.796660
Si Si5 0.389507 0.598875 0.177112
Si Si6 0.171862 0.877598 0.940385
Si Si7 0.879018 0.879540 0.233671
O O1 0.430316 0.315721 0.375794
O O2 0.445745 0.108668 0.197586
O O3 0.555585 0.278700 0.901706
O O4 0.695003 0.197503 0.232412
O O5 0.762419 0.601923 0.216913
O O6 0.759512 0.414523 0.922632
O O7 0.817181 0.593774 0.700076
O O8 0.000000 0.500000 0.000000
O O9 0.770588 0.854433 0.037402
O O10 0.644992 0.459891 0.550847
O O11 0.813042 0.860060 0.525747
O O12 0.753306 0.046468 0.853249
O O13 0.500000 0.500000 0.000000
O O14 0.112265 0.978346 0.775670
O O15 0.034876 0.825047 0.099795
#
# Coordination Sequence:
#
# PCOD9111535 Si02
#       7
#     2   2   2   2   2   2   2
#     4  11  21  42  60  98 120 166 200 259 296 371
#     4  10  20  43  66  83 121 164 200 249 307 359
#     4   9  22  41  62  91 122 157 205 247 304 354
#     4  10  21  41  60  89 123 163 201 254 304 358
#     4   8  20  40  60  87 124 156 200 246 305 354
#     4   9  21  40  65  87 124 161 210 245 310 355
#     4   9  21  42  63  84 125 163 203 255 301 358
#
# _framework density 24.826263999999998
#
# number of rings (size 3 to 8) (size 9 to 14) (size 15 to 20)
#    1.714    0.857    0.000    1.286    0.000    4.000 
#   10.286    0.000    0.000    0.000    0.000    0.000 
#    0.000    0.000    0.000    0.000    0.000    0.000 
#
# Total GULP energy -78070.168202 kJ/mol
# GULP energy per Si atom -5576.440586 kJ/mol
# Density = 2.476976 g / cm^3
# Si number density = 24.826264 Si / 1000 Ang^3
#
#
#
# Elastic Constant Matrix: (Units=GPa)
#
#
# Indices 1 2 3 4 5 6 
#
# 1 155.7107 3.4438 13.0524 8.2977 -14.5883 -12.5059
# 2 3.4438 38.1813 7.6803 -7.1077 -7.8196 -11.7714
# 3 13.0524 7.6803 93.5726 -8.7414 4.6730 -4.8334
# 4 8.2977 -7.1077 -8.7414 22.5186 -1.5785 -7.3761
# 5 -14.5883 -7.8196 4.6730 -1.5785 35.2209 1.8591
# 6 -12.5059 -11.7714 -4.8334 -7.3761 1.8591 29.0490
#
#
#
# Elastic Compliance Matrix: (Units=1/GPa)
#
#
# Indices 1 2 3 4 5 6 
#
# 1 0.007092 0.000627 -0.001243 -0.001891 0.003029 0.002426
# 2 0.000627 0.037391 -0.000884 0.018157 0.008471 0.019343
# 3 -0.001243 -0.000884 0.011677 0.005399 -0.002154 0.002558
# 4 -0.001891 0.018157 0.005399 0.060610 0.004057 0.022572
# 5 0.003029 0.008471 -0.002154 0.004057 0.031817 0.003372
# 6 0.002426 0.019343 0.002558 0.022572 0.003372 0.049249
#
#
# Mechanical properties :
#
#
# Convention : Reuss Voigt Hill
#
# Bulk Modulus (GPa) = 18.81183 37.31308 28.06246
# Shear Modulus (GPa) = 22.87752 34.91025 28.89388
#
# Velocity S-wave (km/s) = 3.03892 3.75398 3.41522
# Velocity P-wave (km/s) = 4.46175 5.81826 5.18456
#
# Compressibility (1/GPa) = 0.05315804
#
# Stress axis : x y z
#
# Youngs Moduli (GPa) = 141.00575 26.74474 85.63902
#
# Poissons Ratio (x) = -0.01676 0.10647
# Poissons Ratio (y) = -0.08836 0.07571
# Poissons Ratio (z) = 0.17531 0.02364
#
# Static dielectric constant tensor:
#      x y z
#    x 1.972790 0.030710 0.016220 
#    y 0.030710 2.095470 0.040080 
#    z 0.016220 0.040080 2.016640 
# 
# From -- ./inp_files/71665.got.cif
#   From: 2010.05.17/outbox.cif.g08.bks.cpg/sg2_36_cif.got.tgz:71665.got - 2010.06.03 11:33:40.
