data_PCOD9111926
_publ_section_title
;
Structure prediction by ZEFSAII (Michael W. Deem and Ramdas Pophale) SiO2 
 PCOD9111926
Probable space group: P -1
;
_chemical_formula_sum "Si O2"
_cell_formula_units_Z 14
_cell_length_a 5.012681
_cell_length_b 14.097394
_cell_length_c 8.165283
_cell_angle_alpha 121.156431
_cell_angle_beta 89.556391
_cell_angle_gamma 78.393814
_cell_volume 479.357774
_symmetry_space_group_name_H-M "P -1"
_symmetry_group_IT_number 2
_symmetry_cell_setting 'triclinic'
loop_
_space_group_symop_operation_xyz
x,y,z
-x,-y,-z
loop_
_atom_site_type_symbol
_atom_site_label
_atom_site_fract_x
_atom_site_fract_y
_atom_site_fract_z
Si Si1 0.000000 0.500000 0.000000
Si Si2 0.564654 0.449300 0.700567
Si Si3 0.858715 0.890531 0.561842
Si Si4 0.267832 0.248373 0.247470
Si Si5 0.000000 0.500000 0.500000
Si Si6 0.442321 0.779956 0.320471
Si Si7 0.718152 0.060569 0.970798
Si Si8 0.864632 0.321004 0.030619
O O1 0.266439 0.505619 0.116575
O O2 0.035900 0.364326 0.926104
O O3 0.238975 0.381917 0.387282
O O4 0.789225 0.434107 0.544179
O O5 0.494721 0.334314 0.665296
O O6 0.821040 0.811761 0.647673
O O7 0.170740 0.860243 0.477492
O O8 0.670035 0.852396 0.392536
O O9 0.757110 0.018593 0.746024
O O10 0.068089 0.245671 0.090820
O O11 0.577604 0.188348 0.140500
O O12 0.274080 0.548778 0.778123
O O13 0.346391 0.736827 0.110815
O O14 0.500000 0.000000 0.000000
O O15 0.000000 0.000000 0.000000
#
# Coordination Sequence:
#
# PCOD9111926 Si02
#       8
#     1   2   2   2   1   2   2   2
#     4  10  20  44  60  92 144 212 240 284 370 470
#     4  11  25  40  67  97 154 202 249 291 386 450
#     4  11  24  46  73 108 136 201 258 312 360 442
#     4  11  25  45  70 109 148 187 252 314 378 439
#     4  12  24  42  66 112 150 180 244 320 372 436
#     4  11  25  43  74 102 149 197 255 294 371 449
#     4  10  23  48  77 104 146 197 253 309 383 440
#     4  11  26  42  68 104 152 208 238 307 381 462
#
# _framework density 29.205742000000001
#
# number of rings (size 3 to 8) (size 9 to 14) (size 15 to 20)
#    0.000    1.143    2.857    3.429   10.000    4.000 
#    0.000    1.429    0.000    0.000    0.000    0.000 
#    0.000    0.000    0.000    0.000    0.000    0.000 
#
# Total GULP energy -78179.349250 kJ/mol
# GULP energy per Si atom -5584.239232 kJ/mol
# Density = 2.913927 g / cm^3
# Si number density = 29.205742 Si / 1000 Ang^3
#
#
#
# Elastic Constant Matrix: (Units=GPa)
#
#
# Indices 1 2 3 4 5 6 
#
# 1 158.7633 27.9958 16.6578 12.0544 -14.4822 -19.8995
# 2 27.9958 127.4762 35.1730 12.4852 -11.1834 -24.5277
# 3 16.6578 35.1730 121.5502 29.9689 -13.1106 -24.1094
# 4 12.0544 12.4852 29.9689 69.4687 -13.1264 -6.5636
# 5 -14.4822 -11.1834 -13.1106 -13.1264 59.0641 4.7891
# 6 -19.8995 -24.5277 -24.1094 -6.5636 4.7891 54.7875
#
#
#
# Elastic Compliance Matrix: (Units=1/GPa)
#
#
# Indices 1 2 3 4 5 6 
#
# 1 0.006863 -0.000980 -0.000005 -0.000607 0.001209 0.001873
# 2 -0.000980 0.009208 -0.001805 -0.000283 0.000807 0.002868
# 3 -0.000005 -0.001805 0.010398 -0.003687 0.000882 0.003247
# 4 -0.000607 -0.000283 -0.003687 0.016630 0.002692 -0.000213
# 5 0.001209 0.000807 0.000882 0.002692 0.018181 -0.000078
# 6 0.001873 0.002868 0.003247 -0.000213 -0.000078 0.021627
#
#
# Mechanical properties :
#
#
# Convention : Reuss Voigt Hill
#
# Bulk Modulus (GPa) = 47.86964 63.04920 55.45942
# Shear Modulus (GPa) = 52.38324 58.52826 55.45575
#
# Velocity S-wave (km/s) = 4.23968 4.48146 4.36225
# Velocity P-wave (km/s) = 6.35552 6.95793 6.66353
#
# Compressibility (1/GPa) = 0.02089007
#
# Stress axis : x y z
#
# Youngs Moduli (GPa) = 145.70388 108.60078 96.16969
#
# Poissons Ratio (x) = 0.10641 0.00052
# Poissons Ratio (y) = 0.14276 0.17355
# Poissons Ratio (z) = 0.00078 0.19598
#
# Static dielectric constant tensor:
#      x y z
#    x 2.290340 0.011090 -0.116730 
#    y 0.011090 2.330430 -0.085640 
#    z -0.116730 -0.085640 2.444420 
# 
# From -- ./inp_files/104691.got.cif
#   From: 2010.05.17/outbox.cif.g08.bks.cpg/sg2_53_cif.got.tgz:104691.got - 2010.06.03 11:33:40.
