data_PCOD9111648
_publ_section_title
;
Structure prediction by ZEFSAII (Michael W. Deem and Ramdas Pophale) SiO2 
 PCOD9111648
Probable space group: P -1
;
_chemical_formula_sum "Si O2"
_cell_formula_units_Z 16
_cell_length_a 22.417081
_cell_length_b 5.192438
_cell_length_c 7.625306
_cell_angle_alpha 122.563858
_cell_angle_beta 55.844712
_cell_angle_gamma 99.426653
_cell_volume 606.710474
_symmetry_space_group_name_H-M "P -1"
_symmetry_group_IT_number 2
_symmetry_cell_setting 'triclinic'
loop_
_space_group_symop_operation_xyz
x,y,z
-x,-y,-z
loop_
_atom_site_type_symbol
_atom_site_label
_atom_site_fract_x
_atom_site_fract_y
_atom_site_fract_z
Si Si1 0.844750 0.854039 0.861223
Si Si2 0.315822 0.570890 0.419264
Si Si3 0.446493 0.835172 0.224427
Si Si4 0.707292 0.313165 0.144757
Si Si5 0.415324 0.957460 0.910966
Si Si6 0.979341 0.719781 0.817962
Si Si7 0.065452 0.062277 0.562679
Si Si8 0.800918 0.247800 0.607901
O O1 0.890597 0.040472 0.727595
O O2 0.842009 0.537300 0.646345
O O3 0.893482 0.780393 0.927434
O O4 0.760659 0.032305 0.059515
O O5 0.374521 0.794314 0.431586
O O6 0.299864 0.444350 0.592478
O O7 0.246605 0.734793 0.480904
O O8 0.358176 0.290350 0.122909
O O9 0.424119 0.910154 0.088052
O O10 0.500000 0.500000 0.000000
O O11 0.501449 0.043405 0.287224
O O12 0.626878 0.273102 0.203309
O O13 0.749091 0.314293 0.891077
O O14 0.014456 0.399921 0.741798
O O15 0.021391 0.798315 0.599347
O O16 0.000000 0.000000 0.000000
O O17 0.134623 0.051386 0.575937
#
# Coordination Sequence:
#
# PCOD9111648 Si02
#       8
#     2   2   2   2   2   2   2   2
#     4  11  25  45  71  97 139 187 235 296 362 427
#     4  11  23  43  68 100 140 187 231 293 363 418
#     4   9  20  40  70  95 137 183 230 289 352 419
#     4  11  25  41  69 105 138 184 241 289 357 434
#     4  10  20  43  67  99 138 181 233 294 348 425
#     4  12  27  46  70 105 138 181 246 302 355 438
#     4  11  25  47  72  95 137 191 228 297 371 418
#     4  11  24  46  69 102 146 184 239 300 358 434
#
# _framework density 26.371721000000001
#
# number of rings (size 3 to 8) (size 9 to 14) (size 15 to 20)
#    0.000    1.250    3.750    1.125    5.250    1.500 
#    2.250    5.625    0.000    0.000    0.000    0.000 
#    0.000    0.000    0.000    0.000    0.000    0.000 
#
# Total GULP energy -89365.248299 kJ/mol
# GULP energy per Si atom -5585.328019 kJ/mol
# Density = 2.631170 g / cm^3
# Si number density = 26.371721 Si / 1000 Ang^3
#
#
#
# Elastic Constant Matrix: (Units=GPa)
#
#
# Indices 1 2 3 4 5 6 
#
# 1 209.1855 51.0166 46.3941 -8.0863 -18.4602 -18.5511
# 2 51.0166 106.9667 15.8851 -2.4737 -12.3087 -11.4112
# 3 46.3941 15.8851 58.9321 -12.6668 4.6193 -10.3456
# 4 -8.0863 -2.4737 -12.6668 37.8195 -16.7256 -10.2680
# 5 -18.4602 -12.3087 4.6193 -16.7256 37.9870 -2.5998
# 6 -18.5511 -11.4112 -10.3456 -10.2680 -2.5998 37.7162
#
#
#
# Elastic Compliance Matrix: (Units=1/GPa)
#
#
# Indices 1 2 3 4 5 6 
#
# 1 0.006929 -0.001765 -0.004260 0.002790 0.004733 0.002791
# 2 -0.001765 0.011250 -0.000735 0.003016 0.004442 0.003461
# 3 -0.004260 -0.000735 0.023438 0.008056 -0.001186 0.006223
# 4 0.002790 0.003016 0.008056 0.044739 0.022299 0.018212
# 5 0.004733 0.004442 -0.001186 0.022299 0.040863 0.012234
# 6 0.002791 0.003461 0.006223 0.018212 0.012234 0.036442
#
#
# Mechanical properties :
#
#
# Convention : Reuss Voigt Hill
#
# Bulk Modulus (GPa) = 35.59287 66.85286 51.22287
# Shear Modulus (GPa) = 26.80296 40.15711 33.48004
#
# Velocity S-wave (km/s) = 3.19149 3.90646 3.56693
# Velocity P-wave (km/s) = 5.20641 6.76405 6.03569
#
# Compressibility (1/GPa) = 0.02809551
#
# Stress axis : x y z
#
# Youngs Moduli (GPa) = 144.32540 88.89036 42.66665
#
# Poissons Ratio (x) = 0.15690 0.18177
# Poissons Ratio (y) = 0.25474 0.03136
# Poissons Ratio (z) = 0.61485 0.06534
#
# Static dielectric constant tensor:
#      x y z
#    x 2.089780 0.022110 -0.029270 
#    y 0.022110 2.209110 -0.046560 
#    z -0.029270 -0.046560 2.267000 
# 
# From -- ./inp_files/340640.got.cif
#   From: 2010.05.17/outbox.cif.g08.bks.cpg/sg2_171_cif.got.tgz:340640.got - 2010.06.03 11:33:40.
