data_PCOD9111241
_publ_section_title
;
Structure prediction by ZEFSAII (Michael W. Deem and Ramdas Pophale) SiO2 
 PCOD9111241
Probable space group: P -1
;
_chemical_formula_sum "Si O2"
_cell_formula_units_Z 16
_cell_length_a 10.657260
_cell_length_b 11.456569
_cell_length_c 11.440152
_cell_angle_alpha 141.512487
_cell_angle_beta 121.237586
_cell_angle_gamma 61.167584
_cell_volume 735.574088
_symmetry_space_group_name_H-M "P -1"
_symmetry_group_IT_number 2
_symmetry_cell_setting 'triclinic'
loop_
_space_group_symop_operation_xyz
x,y,z
-x,-y,-z
loop_
_atom_site_type_symbol
_atom_site_label
_atom_site_fract_x
_atom_site_fract_y
_atom_site_fract_z
Si Si1 0.738641 0.766967 0.738736
Si Si2 0.491236 0.558684 0.341357
Si Si3 0.911400 0.746358 0.231462
Si Si4 0.088856 0.005845 0.359927
Si Si5 0.348891 0.781914 0.967401
Si Si6 0.200072 0.456164 0.178142
Si Si7 0.410324 0.823792 0.292640
Si Si8 0.022390 0.807663 0.782970
O O1 0.608420 0.657272 0.546693
O O2 0.786531 0.699205 0.837394
O O3 0.881450 0.713341 0.681656
O O4 0.682640 0.991467 0.887630
O O5 0.334238 0.576690 0.344236
O O6 0.468244 0.663475 0.287988
O O7 0.549656 0.338548 0.172970
O O8 0.854629 0.869149 0.411330
O O9 0.044275 0.589443 0.215793
O O10 0.796017 0.641649 0.023658
O O11 0.985883 0.873714 0.272691
O O12 0.998185 0.131800 0.314685
O O13 0.234583 0.890348 0.281850
O O14 0.419040 0.756936 0.110566
O O15 0.186995 0.712685 0.821503
O O16 0.500000 0.000000 0.500000
O O17 0.000000 0.000000 0.000000
#
# Coordination Sequence:
#
# PCOD9111241 Si02
#       8
#     2   2   2   2   2   2   2   2
#     4  11  24  46  66  97 142 175 219 285 332 390
#     4  12  26  44  67  99 135 185 221 268 341 403
#     4  10  24  41  69  98 127 179 231 275 331 391
#     4  11  21  43  72  97 128 178 222 283 333 394
#     4  11  25  42  71 102 132 181 219 275 340 399
#     4  11  25  45  63  95 140 175 227 278 326 402
#     4  12  23  45  69  97 145 168 220 282 335 398
#     4  10  20  42  70  97 132 170 222 279 338 387
#
# _framework density 21.751716999999999
#
# number of rings (size 3 to 8) (size 9 to 14) (size 15 to 20)
#    0.000    1.000    5.000    2.250    3.500    1.000 
#    4.500    0.000    0.000    0.000    0.000    0.000 
#    0.000    0.000    0.000    0.000    0.000    0.000 
#
# Total GULP energy -89479.501933 kJ/mol
# GULP energy per Si atom -5592.468871 kJ/mol
# Density = 2.170221 g / cm^3
# Si number density = 21.751717 Si / 1000 Ang^3
#
#
#
# Elastic Constant Matrix: (Units=GPa)
#
#
# Indices 1 2 3 4 5 6 
#
# 1 26.1979 0.2702 12.3323 -2.9034 7.8454 -3.6534
# 2 0.2702 76.9140 9.0251 -18.2025 -10.6104 10.6282
# 3 12.3323 9.0251 78.7172 -7.4709 2.3815 -4.6993
# 4 -2.9034 -18.2025 -7.4709 28.8310 -4.3836 0.8407
# 5 7.8454 -10.6104 2.3815 -4.3836 26.7933 -7.2623
# 6 -3.6534 10.6282 -4.6993 0.8407 -7.2623 27.3159
#
#
#
# Elastic Compliance Matrix: (Units=1/GPa)
#
#
# Indices 1 2 3 4 5 6 
#
# 1 0.045307 -0.001457 -0.006420 -0.000013 -0.012693 0.002148
# 2 -0.001457 0.017953 -0.001247 0.012265 0.008133 -0.005610
# 3 -0.006420 -0.001247 0.014178 0.002345 0.001131 0.002294
# 4 -0.000013 0.012265 0.002345 0.044824 0.011237 -0.002762
# 5 -0.012693 0.008133 0.001131 0.011237 0.048106 0.007776
# 6 0.002148 -0.005610 0.002294 -0.002762 0.007776 0.041626
#
#
# Mechanical properties :
#
#
# Convention : Reuss Voigt Hill
#
# Bulk Modulus (GPa) = 16.89475 25.00937 20.95206
# Shear Modulus (GPa) = 20.00234 27.26814 23.63524
#
# Velocity S-wave (km/s) = 3.03574 3.54447 3.29993
# Velocity P-wave (km/s) = 4.48013 5.31730 4.91657
#
# Compressibility (1/GPa) = 0.05918998
#
# Stress axis : x y z
#
# Youngs Moduli (GPa) = 22.07153 55.70198 70.53285
#
# Poissons Ratio (x) = 0.08114 0.45283
# Poissons Ratio (y) = 0.03215 0.08796
# Poissons Ratio (z) = 0.14170 0.06946
#
# Static dielectric constant tensor:
#      x y z
#    x 1.780010 0.000100 0.023350 
#    y 0.000100 1.769330 0.018820 
#    z 0.023350 0.018820 1.793230 
# 
# From -- ./inp_files/427068.got.cif
#   From: 2010.05.17/outbox.cif.g08.bks.cpg/sg2_214_cif.got.tgz:427068.got - 2010.06.03 11:33:40.
