data_PCOD9111528
_publ_section_title
;
Structure prediction by ZEFSAII (Michael W. Deem and Ramdas Pophale) SiO2 
 PCOD9111528
Probable space group: P -1
;
_chemical_formula_sum "Si O2"
_cell_formula_units_Z 16
_cell_length_a 23.987881
_cell_length_b 14.858832
_cell_length_c 5.388876
_cell_angle_alpha 90.418830
_cell_angle_beta 88.144266
_cell_angle_gamma 159.667976
_cell_volume 665.567782
_symmetry_space_group_name_H-M "P -1"
_symmetry_group_IT_number 2
_symmetry_cell_setting 'triclinic'
loop_
_space_group_symop_operation_xyz
x,y,z
-x,-y,-z
loop_
_atom_site_type_symbol
_atom_site_label
_atom_site_fract_x
_atom_site_fract_y
_atom_site_fract_z
Si Si1 0.012097 0.748642 0.273483
Si Si2 0.736426 0.953860 0.086684
Si Si3 0.033932 0.467913 0.326290
Si Si4 0.953292 0.825922 0.027223
Si Si5 0.602131 0.469104 0.775496
Si Si6 0.723116 0.263621 0.915058
Si Si7 0.374242 0.698814 0.168964
Si Si8 0.747601 0.774898 0.264964
O O1 0.977000 0.641502 0.522002
O O2 0.006283 0.847665 0.257537
O O3 0.870224 0.508185 0.089472
O O4 0.188456 0.978445 0.170313
O O5 0.580139 0.777371 0.140601
O O6 0.705405 0.816186 0.246502
O O7 0.889290 0.244458 0.150389
O O8 0.215350 0.736150 0.211488
O O9 0.000000 0.500000 0.500000
O O10 0.761875 0.526164 0.024661
O O11 0.059236 0.941103 0.794487
O O12 0.000000 0.000000 0.000000
O O13 0.621590 0.392308 0.705943
O O14 0.672247 0.624017 0.524970
O O15 0.686666 0.628243 0.025212
O O16 0.688012 0.296053 0.738082
O O17 0.555287 0.991423 0.065590
#
# Coordination Sequence:
#
# PCOD9111528 Si02
#       8
#     2   2   2   2   2   2   2   2
#     4   9  22  41  68  93 137 179 224 295 350 414
#     4  10  25  42  67  99 141 183 231 292 362 420
#     4  11  25  41  71 101 133 186 239 299 356 430
#     4  10  20  43  66 100 133 180 234 284 355 425
#     4  12  26  43  72 105 143 187 238 287 356 429
#     4   9  22  46  62 100 137 178 240 286 362 414
#     4  10  22  43  69  95 140 186 230 296 350 430
#     4  11  26  45  69 103 144 188 233 297 350 429
#
# _framework density 24.039625000000001
#
# number of rings (size 3 to 8) (size 9 to 14) (size 15 to 20)
#    0.000    1.750    1.250    1.500    8.750    2.500 
#    0.000    3.125    0.000    0.000    0.000    0.000 
#    0.000    0.000    0.000    0.000    0.000    0.000 
#
# Total GULP energy -89188.766758 kJ/mol
# GULP energy per Si atom -5574.297922 kJ/mol
# Density = 2.398491 g / cm^3
# Si number density = 24.039625 Si / 1000 Ang^3
#
#
#
# Elastic Constant Matrix: (Units=GPa)
#
#
# Indices 1 2 3 4 5 6 
#
# 1 101.0496 20.7859 4.6594 11.0142 -17.6585 12.2773
# 2 20.7859 108.0247 25.0678 -8.9861 -9.4656 27.9842
# 3 4.6594 25.0678 59.6185 -7.0393 -0.8884 12.1987
# 4 11.0142 -8.9861 -7.0393 12.6344 -6.4309 -3.9816
# 5 -17.6585 -9.4656 -0.8884 -6.4309 17.5845 -3.6986
# 6 12.2773 27.9842 12.1987 -3.9816 -3.6986 49.0744
#
#
#
# Elastic Compliance Matrix: (Units=1/GPa)
#
#
# Indices 1 2 3 4 5 6 
#
# 1 0.013050 -0.001862 -0.000822 -0.009759 0.008032 -0.002185
# 2 -0.001862 0.013307 -0.002885 0.012408 0.008687 -0.004744
# 3 -0.000822 -0.002885 0.019673 0.009870 0.001782 -0.002104
# 4 -0.009759 0.012408 0.009870 0.127109 0.045259 0.006637
# 5 0.008032 0.008687 0.001782 0.045259 0.086844 0.002811
# 6 -0.002185 -0.004744 -0.002104 0.006637 0.002811 0.024902
#
#
# Mechanical properties :
#
#
# Convention : Reuss Voigt Hill
#
# Bulk Modulus (GPa) = 28.66017 41.07989 34.87003
# Shear Modulus (GPa) = 16.25204 30.40398 23.32801
#
# Velocity S-wave (km/s) = 2.60292 3.56018 3.11850
# Velocity P-wave (km/s) = 4.58056 5.83313 5.24437
#
# Compressibility (1/GPa) = 0.03489163
#
# Stress axis : x y z
#
# Youngs Moduli (GPa) = 76.62877 75.14768 50.83103
#
# Poissons Ratio (x) = 0.13994 0.04181
# Poissons Ratio (y) = 0.14270 0.14663
# Poissons Ratio (z) = 0.06302 0.21677
#
# Static dielectric constant tensor:
#      x y z
#    x 1.970520 -0.012360 -0.030790 
#    y -0.012360 1.952940 0.027770 
#    z -0.030790 0.027770 2.009640 
# 
# From -- ./inp_files/77826.got.cif
#   From: 2010.05.17/outbox.cif.g08.bks.cpg/sg2_39_cif.got.tgz:77826.got - 2010.06.03 11:33:40.
