data_PCOD9111355
_publ_section_title
;
Structure prediction by ZEFSAII (Michael W. Deem and Ramdas Pophale) SiO2 
 PCOD9111355
Probable space group: P -1
;
_chemical_formula_sum "Si O2"
_cell_formula_units_Z 13
_cell_length_a 22.475313
_cell_length_b 5.350189
_cell_length_c 7.133953
_cell_angle_alpha 99.084944
_cell_angle_beta 139.802644
_cell_angle_gamma 88.213532
_cell_volume 541.312617
_symmetry_space_group_name_H-M "P -1"
_symmetry_group_IT_number 2
_symmetry_cell_setting 'triclinic'
loop_
_space_group_symop_operation_xyz
x,y,z
-x,-y,-z
loop_
_atom_site_type_symbol
_atom_site_label
_atom_site_fract_x
_atom_site_fract_y
_atom_site_fract_z
Si Si1 0.701965 0.045167 0.339977
Si Si2 0.850211 0.295300 0.434483
Si Si3 0.973099 0.715711 0.317040
Si Si4 0.544169 0.247492 0.526299
Si Si5 0.500000 0.000000 0.000000
Si Si6 0.712425 0.598279 0.031674
Si Si7 0.782086 0.875622 0.900306
O O1 0.740677 0.984192 0.629740
O O2 0.786314 0.215562 0.451998
O O3 0.684930 0.786743 0.144096
O O4 0.599575 0.116953 0.137240
O O5 0.961034 0.304797 0.707430
O O6 0.818877 0.560834 0.321837
O O7 0.820710 0.094831 0.169413
O O8 0.000000 0.500000 0.500000
O O9 0.863194 0.708083 0.019400
O O10 0.000000 0.000000 0.500000
O O11 0.500000 0.500000 0.500000
O O12 0.650684 0.324177 0.854923
O O13 0.500000 0.000000 0.500000
O O14 0.533118 0.184620 0.275892
O O15 0.704197 0.704008 0.815693
#
# Coordination Sequence:
#
# PCOD9111355 Si02
#       7
#     2   2   2   2   1   2   2
#     4  11  25  43  68 107 140 194 250 306 363 446
#     4  10  22  43  68  96 148 186 236 307 365 432
#     4  10  20  42  74 104 141 190 238 294 372 443
#     4  12  28  48  73 104 142 192 250 308 365 436
#     4  12  26  48  74 102 152 198 256 298 386 434
#     4  11  23  44  68  99 148 186 241 313 366 434
#     4  10  23  42  70 102 138 190 244 294 374 440
#
# _framework density 24.015699000000001
#
# number of rings (size 3 to 8) (size 9 to 14) (size 15 to 20)
#    0.000    1.231    3.077    1.846    4.308    4.923 
#    0.000    0.769    0.000    0.000    0.000    0.000 
#    0.000    0.000    0.000    0.000    0.000    0.000 
#
# Total GULP energy -72404.816686 kJ/mol
# GULP energy per Si atom -5569.601284 kJ/mol
# Density = 2.396104 g / cm^3
# Si number density = 24.015699 Si / 1000 Ang^3
#
#
#
# Elastic Constant Matrix: (Units=GPa)
#
#
# Indices 1 2 3 4 5 6 
#
# 1 188.9250 32.0940 33.4279 -1.5871 -17.2756 -6.4895
# 2 32.0940 93.8656 15.9216 1.2537 -18.4952 -1.9137
# 3 33.4279 15.9216 61.8069 -0.7373 -26.5568 -3.4312
# 4 -1.5871 1.2537 -0.7373 34.1960 -5.2958 -1.8425
# 5 -17.2756 -18.4952 -26.5568 -5.2958 40.5151 -5.6624
# 6 -6.4895 -1.9137 -3.4312 -1.8425 -5.6624 39.7213
#
#
#
# Elastic Compliance Matrix: (Units=1/GPa)
#
#
# Indices 1 2 3 4 5 6 
#
# 1 0.006094 -0.001561 -0.002749 0.000356 0.000233 0.000733
# 2 -0.001561 0.012212 -0.000066 0.000319 0.005056 0.001063
# 3 -0.002749 -0.000066 0.024858 0.003123 0.016077 0.004132
# 4 0.000356 0.000319 0.003123 0.030501 0.006711 0.002715
# 5 0.000233 0.005056 0.016077 0.006711 0.039570 0.007623
# 6 0.000733 0.001063 0.004132 0.002715 0.007623 0.026916
#
#
# Mechanical properties :
#
#
# Convention : Reuss Voigt Hill
#
# Bulk Modulus (GPa) = 29.06008 56.38716 42.72362
# Shear Modulus (GPa) = 31.17711 40.43009 35.80360
#
# Velocity S-wave (km/s) = 3.60696 4.10748 3.86533
# Velocity P-wave (km/s) = 5.42896 6.78421 6.14406
#
# Compressibility (1/GPa) = 0.03441146
#
# Stress axis : x y z
#
# Youngs Moduli (GPa) = 164.09137 81.88495 40.22913
#
# Poissons Ratio (x) = 0.12785 0.11058
# Poissons Ratio (y) = 0.25620 0.00266
# Poissons Ratio (z) = 0.45104 0.00542
#
# Static dielectric constant tensor:
#      x y z
#    x 2.056810 0.113600 0.174270 
#    y 0.113600 2.016300 0.077950 
#    z 0.174270 0.077950 2.048820 
# 
# From -- ./inp_files/85941.got.cif
#   From: 2010.05.17/outbox.cif.g08.bks.cpg/sg2_43_cif.got.tgz:85941.got - 2010.06.03 11:33:40.
