data_PCOD9111414
_publ_section_title
;
Structure prediction by ZEFSAII (Michael W. Deem and Ramdas Pophale) SiO2 
 PCOD9111414
Probable space group: P -1
;
_chemical_formula_sum "Si O2"
_cell_formula_units_Z 16
_cell_length_a 12.090204
_cell_length_b 15.395720
_cell_length_c 18.210981
_cell_angle_alpha 163.329872
_cell_angle_beta 42.797819
_cell_angle_gamma 131.751463
_cell_volume 648.626526
_symmetry_space_group_name_H-M "P -1"
_symmetry_group_IT_number 2
_symmetry_cell_setting 'triclinic'
loop_
_space_group_symop_operation_xyz
x,y,z
-x,-y,-z
loop_
_atom_site_type_symbol
_atom_site_label
_atom_site_fract_x
_atom_site_fract_y
_atom_site_fract_z
Si Si1 0.244888 0.538100 0.199148
Si Si2 0.975583 0.394513 0.110609
Si Si3 0.840719 0.533892 0.052319
Si Si4 0.456764 0.973003 0.362685
Si Si5 0.880524 0.623435 0.728033
Si Si6 0.850990 0.218952 0.165155
Si Si7 0.705474 0.950802 0.648807
Si Si8 0.414595 0.223912 0.285461
O O1 0.074688 0.577598 0.267375
O O2 0.356408 0.752799 0.279405
O O3 0.215910 0.573618 0.330527
O O4 0.351361 0.186964 0.850460
O O5 0.905829 0.157985 0.004518
O O6 0.106789 0.281549 0.892863
O O7 0.820594 0.611481 0.322701
O O8 0.652261 0.693543 0.293331
O O9 0.825694 0.185466 0.761950
O O10 0.000000 0.500000 0.000000
O O11 0.425331 0.985469 0.300831
O O12 0.000000 0.500000 0.500000
O O13 0.991890 0.749977 0.837704
O O14 0.770063 0.937866 0.004395
O O15 0.744274 0.558597 0.495668
O O16 0.629804 0.979043 0.789727
O O17 0.500000 0.500000 0.500000
O O18 0.500000 0.000000 0.000000
#
# Coordination Sequence:
#
# PCOD9111414 Si02
#       8
#     2   2   2   2   2   2   2   2
#     4  10  23  42  61  92 138 170 222 291 345 425
#     4  10  20  43  62  91 132 168 223 287 343 419
#     4  12  23  37  72  98 132 184 228 283 352 425
#     4  11  24  41  62 100 135 176 223 284 360 417
#     4  10  22  41  69  92 130 185 237 296 354 423
#     4   9  23  42  63  99 129 177 241 292 353 427
#     4  11  24  44  67  99 136 173 235 287 347 432
#     4  11  28  46  73 104 145 190 234 299 365 429
#
# _framework density 24.667508000000002
#
# number of rings (size 3 to 8) (size 9 to 14) (size 15 to 20)
#    0.000    1.500    2.500    1.125    7.000    0.500 
#    0.000    0.000    0.000    0.000    0.000    0.000 
#    0.000    0.000    0.000    0.000    0.000    0.000 
#
# Total GULP energy -89188.513106 kJ/mol
# GULP energy per Si atom -5574.282069 kJ/mol
# Density = 2.461136 g / cm^3
# Si number density = 24.667508 Si / 1000 Ang^3
#
#
#
# Elastic Constant Matrix: (Units=GPa)
#
#
# Indices 1 2 3 4 5 6 
#
# 1 40.2043 20.7039 17.0804 6.8949 -16.1628 -11.5806
# 2 20.7039 155.9336 53.9332 -14.1821 -7.9386 -44.4750
# 3 17.0804 53.9332 92.4082 -21.3008 -12.9528 -18.4189
# 4 6.8949 -14.1821 -21.3008 44.5916 -6.9134 -0.1054
# 5 -16.1628 -7.9386 -12.9528 -6.9134 25.0202 -2.2061
# 6 -11.5806 -44.4750 -18.4189 -0.1054 -2.2061 37.4840
#
#
#
# Elastic Compliance Matrix: (Units=1/GPa)
#
#
# Indices 1 2 3 4 5 6 
#
# 1 0.040083 0.000063 -0.002124 -0.003279 0.025043 0.012879
# 2 0.000063 0.011425 -0.003010 0.002832 0.003977 0.012338
# 3 -0.002124 -0.003010 0.017435 0.009212 0.009679 0.004935
# 4 -0.003279 0.002832 0.009212 0.030201 0.012573 0.007698
# 5 0.025043 0.003977 0.009679 0.012573 0.067764 0.021236
# 6 0.012879 0.012338 0.004935 0.007698 0.021236 0.048992
#
#
# Mechanical properties :
#
#
# Convention : Reuss Voigt Hill
#
# Bulk Modulus (GPa) = 17.00701 52.44235 34.72468
# Shear Modulus (GPa) = 20.35478 34.54107 27.44793
#
# Velocity S-wave (km/s) = 2.87569 3.74607 3.33936
# Velocity P-wave (km/s) = 4.23504 6.32587 5.38294
#
# Compressibility (1/GPa) = 0.05879927
#
# Stress axis : x y z
#
# Youngs Moduli (GPa) = 24.94840 87.52872 57.35711
#
# Poissons Ratio (x) = -0.00548 0.12183
# Poissons Ratio (y) = -0.00156 0.17265
# Poissons Ratio (z) = 0.05299 0.26347
#
# Static dielectric constant tensor:
#      x y z
#    x 2.018960 -0.064730 -0.055720 
#    y -0.064730 2.075630 0.034870 
#    z -0.055720 0.034870 2.206450 
# 
# From -- ./inp_files/98364.got.cif
#   From: 2010.05.17/outbox.cif.g08.bks.cpg/sg2_50_cif.got.tgz:98364.got - 2010.06.03 11:33:40.
