data_PCOD9111722
_publ_section_title
;
Structure prediction by ZEFSAII (Michael W. Deem and Ramdas Pophale) SiO2 
 PCOD9111722
Probable space group: P -1
;
_chemical_formula_sum "Si O2"
_cell_formula_units_Z 16
_cell_length_a 20.353875
_cell_length_b 5.298516
_cell_length_c 10.503427
_cell_angle_alpha 108.478505
_cell_angle_beta 35.936407
_cell_angle_gamma 118.094040
_cell_volume 581.918670
_symmetry_space_group_name_H-M "P -1"
_symmetry_group_IT_number 2
_symmetry_cell_setting 'triclinic'
loop_
_space_group_symop_operation_xyz
x,y,z
-x,-y,-z
loop_
_atom_site_type_symbol
_atom_site_label
_atom_site_fract_x
_atom_site_fract_y
_atom_site_fract_z
Si Si1 0.417595 0.662337 0.547143
Si Si2 0.734489 0.614747 0.025242
Si Si3 0.297545 0.862495 0.451439
Si Si4 0.056815 0.318059 0.742464
Si Si5 0.484068 0.307341 0.868010
Si Si6 0.248343 0.840802 0.233302
Si Si7 0.996960 0.323036 0.324067
Si Si8 0.209623 0.845885 0.832477
O O1 0.380505 0.515392 0.720061
O O2 0.472694 0.566223 0.320579
O O3 0.289470 0.663097 0.701082
O O4 0.500000 0.000000 0.500000
O O5 0.771735 0.952112 0.041834
O O6 0.718911 0.436688 0.891761
O O7 0.860270 0.586091 0.870016
O O8 0.193907 0.538946 0.585142
O O9 0.430305 0.867309 0.263540
O O10 0.278438 0.932118 0.348163
O O11 0.264630 0.026658 0.646055
O O12 0.036651 0.430133 0.651248
O O13 0.040904 0.988783 0.737151
O O14 0.931477 0.320225 0.995888
O O15 0.500000 0.500000 0.000000
O O16 0.344961 0.093609 0.042394
O O17 0.107053 0.779126 0.419822
#
# Coordination Sequence:
#
# PCOD9111722 Si02
#       8
#     2   2   2   2   2   2   2   2
#     4  11  23  44  65  97 132 174 226 281 341 416
#     4  11  23  44  67  99 131 176 227 284 345 409
#     4  10  23  42  64  96 134 177 229 279 344 412
#     4  10  20  43  69 104 138 181 231 290 346 410
#     4  11  24  41  65  94 136 178 225 281 344 414
#     4  11  23  43  64  98 135 179 227 281 344 413
#     4  10  22  42  72 103 140 180 232 288 349 410
#     4  10  23  42  67  97 132 175 225 285 344 409
#
# _framework density 27.495251
#
# number of rings (size 3 to 8) (size 9 to 14) (size 15 to 20)
#    0.000    1.500    2.500    1.875    1.750    1.500 
#    6.750   11.250    0.000    0.000    0.000    0.000 
#    0.000    0.000    0.000    0.000    0.000    0.000 
#
# Total GULP energy -89346.835313 kJ/mol
# GULP energy per Si atom -5584.177207 kJ/mol
# Density = 2.743267 g / cm^3
# Si number density = 27.495251 Si / 1000 Ang^3
#
#
#
# Elastic Constant Matrix: (Units=GPa)
#
#
# Indices 1 2 3 4 5 6 
#
# 1 111.8999 19.3385 41.7829 13.5059 8.8489 10.8848
# 2 19.3385 63.0029 23.2159 -6.6676 -4.0115 9.4876
# 3 41.7829 23.2159 199.6470 -12.7756 -22.2946 16.9000
# 4 13.5059 -6.6676 -12.7756 46.8491 10.0004 4.0241
# 5 8.8489 -4.0115 -22.2946 10.0004 25.1291 3.2126
# 6 10.8848 9.4876 16.9000 4.0241 3.2126 20.1788
#
#
#
# Elastic Compliance Matrix: (Units=1/GPa)
#
#
# Indices 1 2 3 4 5 6 
#
# 1 0.011420 -0.003044 -0.002795 -0.003220 -0.005596 -0.000856
# 2 -0.003044 0.018716 -0.000229 0.003428 0.003542 -0.008214
# 3 -0.002795 -0.000229 0.007022 0.001631 0.007263 -0.005748
# 4 -0.003220 0.003428 0.001631 0.024966 -0.006137 -0.005243
# 5 -0.005596 0.003542 0.007263 -0.006137 0.052739 -0.011902
# 6 -0.000856 -0.008214 -0.005748 -0.005243 -0.011902 0.061635
#
#
# Mechanical properties :
#
#
# Convention : Reuss Voigt Hill
#
# Bulk Modulus (GPa) = 39.96214 60.35825 50.16020
# Shear Modulus (GPa) = 25.38384 37.77891 31.58138
#
# Velocity S-wave (km/s) = 3.04173 3.71079 3.39279
# Velocity P-wave (km/s) = 5.18671 6.35294 5.79922
#
# Compressibility (1/GPa) = 0.02502368
#
# Stress axis : x y z
#
# Youngs Moduli (GPa) = 87.56187 53.42949 142.40091
#
# Poissons Ratio (x) = 0.16263 0.39797
# Poissons Ratio (y) = 0.26653 0.03264
# Poissons Ratio (z) = 0.24471 0.01225
#
# Static dielectric constant tensor:
#      x y z
#    x 2.199840 0.005510 0.093000 
#    y 0.005510 2.249450 -0.023610 
#    z 0.093000 -0.023610 2.182710 
# 
# From -- ./inp_files/476025.got.cif
#   From: 2010.05.17/outbox.cif.g08.bks.cpg/sg2_239_cif.got.tgz:476025.got - 2010.06.03 11:33:40.
