data_PCOD9111192
_publ_section_title
;
Structure prediction by ZEFSAII (Michael W. Deem and Ramdas Pophale) SiO2 
 PCOD9111192
Probable space group: P -1
;
_chemical_formula_sum "Si O2"
_cell_formula_units_Z 15
_cell_length_a 10.817523
_cell_length_b 9.221376
_cell_length_c 16.049043
_cell_angle_alpha 57.725622
_cell_angle_beta 148.612807
_cell_angle_gamma 123.786210
_cell_volume 686.459066
_symmetry_space_group_name_H-M "P -1"
_symmetry_group_IT_number 2
_symmetry_cell_setting 'triclinic'
loop_
_space_group_symop_operation_xyz
x,y,z
-x,-y,-z
loop_
_atom_site_type_symbol
_atom_site_label
_atom_site_fract_x
_atom_site_fract_y
_atom_site_fract_z
Si Si1 0.838054 0.993405 0.490404
Si Si2 0.291924 0.874209 0.231166
Si Si3 0.919424 0.468830 0.701280
Si Si4 0.979021 0.754676 0.783265
Si Si5 0.460066 0.625912 0.114307
Si Si6 0.500000 0.500000 0.000000
Si Si7 0.173795 0.230755 0.121073
Si Si8 0.078184 0.362994 0.525727
O O1 0.849226 0.198365 0.446169
O O2 0.563723 0.887935 0.352536
O O3 0.000000 0.000000 0.500000
O O4 0.952466 0.912599 0.659055
O O5 0.225747 0.730634 0.310226
O O6 0.275576 0.066370 0.196394
O O7 0.090386 0.806007 0.065054
O O8 0.867036 0.559413 0.558427
O O9 0.867774 0.580583 0.717420
O O10 0.208689 0.479635 0.862082
O O11 0.855694 0.766989 0.797244
O O12 0.256067 0.739323 0.964026
O O13 0.332583 0.421915 0.127063
O O14 0.682652 0.690106 0.285234
O O15 0.570776 0.620601 0.087751
O O16 0.000000 0.500000 0.500000
#
# Coordination Sequence:
#
# PCOD9111192 Si02
#       8
#     2   2   2   2   2   1   2   2
#     4  12  29  50  68 109 147 187 238 304 362 424
#     4  11  27  47  75 105 145 187 243 299 357 429
#     4  11  24  45  72 109 142 197 232 295 363 431
#     4  11  26  45  70 103 146 189 237 296 367 423
#     4  11  24  44  74 104 145 189 245 292 356 439
#     4  10  20  42  70 104 144 180 242 288 350 422
#     4  11  25  46  73 110 140 189 241 302 356 427
#     4  12  26  45  74 105 142 193 242 295 357 427
#
# _framework density 21.851265000000001
#
# number of rings (size 3 to 8) (size 9 to 14) (size 15 to 20)
#    0.000    0.800    5.333    1.200    5.600    1.600 
#    0.000    0.000    0.000    0.000    0.000    0.000 
#    0.000    0.000    0.000    0.000    0.000    0.000 
#
# Total GULP energy -83640.154194 kJ/mol
# GULP energy per Si atom -5576.010280 kJ/mol
# Density = 2.180153 g / cm^3
# Si number density = 21.851265 Si / 1000 Ang^3
#
#
#
# Elastic Constant Matrix: (Units=GPa)
#
#
# Indices 1 2 3 4 5 6 
#
# 1 74.7406 7.3239 22.3420 -3.7604 -1.6640 -18.8242
# 2 7.3239 65.8718 2.1963 2.0292 13.9477 8.9212
# 3 22.3420 2.1963 71.7195 7.9487 1.5225 16.4360
# 4 -3.7604 2.0292 7.9487 30.1140 4.1821 -1.6417
# 5 -1.6640 13.9477 1.5225 4.1821 27.2235 4.8192
# 6 -18.8242 8.9212 16.4360 -1.6417 4.8192 23.7541
#
#
#
# Elastic Compliance Matrix: (Units=1/GPa)
#
#
# Indices 1 2 3 4 5 6 
#
# 1 0.033293 -0.009196 -0.022221 0.013509 -0.002339 0.046620
# 2 -0.009196 0.020175 0.007161 -0.004397 -0.007324 -0.018637
# 3 -0.022221 0.007161 0.032373 -0.014676 0.003273 -0.044377
# 4 0.013509 -0.004397 -0.014676 0.041533 -0.007234 0.026849
# 5 -0.002339 -0.007324 0.003273 -0.007234 0.043151 -0.010622
# 6 0.046620 -0.018637 -0.044377 0.026849 -0.010622 0.120758
#
#
# Mechanical properties :
#
#
# Convention : Reuss Voigt Hill
#
# Bulk Modulus (GPa) = 26.78933 30.67293 28.73113
# Shear Modulus (GPa) = 14.19492 28.24962 21.22227
#
# Velocity S-wave (km/s) = 2.55152 3.59947 3.11981
# Velocity P-wave (km/s) = 4.57895 5.59844 5.11416
#
# Compressibility (1/GPa) = 0.03732829
#
# Stress axis : x y z
#
# Youngs Moduli (GPa) = 30.03656 49.56626 30.88965
#
# Poissons Ratio (x) = 0.45579 0.68641
# Poissons Ratio (y) = 0.27620 -0.22119
# Poissons Ratio (z) = 0.66745 -0.35492
#
# Static dielectric constant tensor:
#      x y z
#    x 1.780920 -0.050390 -0.012010 
#    y -0.050390 1.865350 -0.027960 
#    z -0.012010 -0.027960 1.833230 
# 
# From -- ./inp_files/566588.got.cif
#   From: 2010.05.17/outbox.cif.g08.bks.cpg/sg2_284_cif.got.tgz:566588.got - 2010.06.03 11:33:40.
