data_PCOD9111684
_publ_section_title
;
Structure prediction by ZEFSAII (Michael W. Deem and Ramdas Pophale) SiO2 
 PCOD9111684
Probable space group: P -1
;
_chemical_formula_sum "Si O2"
_cell_formula_units_Z 14
_cell_length_a 14.535701
_cell_length_b 23.816681
_cell_length_c 6.990989
_cell_angle_alpha 78.578464
_cell_angle_beta 85.904061
_cell_angle_gamma 157.240440
_cell_volume 681.380042
_symmetry_space_group_name_H-M "P -1"
_symmetry_group_IT_number 2
_symmetry_cell_setting 'triclinic'
loop_
_space_group_symop_operation_xyz
x,y,z
-x,-y,-z
loop_
_atom_site_type_symbol
_atom_site_label
_atom_site_fract_x
_atom_site_fract_y
_atom_site_fract_z
Si Si1 0.518960 0.334125 0.667603
Si Si2 0.127964 0.000915 0.154642
Si Si3 0.497711 0.826459 0.705647
Si Si4 0.250193 0.902024 0.645113
Si Si5 0.683627 0.549626 0.680810
Si Si6 0.978369 0.794508 0.115517
Si Si7 0.922398 0.485363 0.323963
O O1 0.642004 0.458135 0.698697
O O2 0.797930 0.474201 0.402237
O O3 0.363868 0.189155 0.906304
O O4 0.230694 0.189217 0.685103
O O5 0.218337 0.040855 0.331206
O O6 0.141858 0.949579 0.068177
O O7 0.357502 0.713906 0.613800
O O8 0.609791 0.956629 0.559686
O O9 0.222727 0.663727 0.017794
O O10 0.908504 0.688129 0.738055
O O11 0.500000 0.000000 0.500000
O O12 0.194444 0.883737 0.887981
O O13 0.856348 0.685355 0.387816
O O14 0.328578 0.366376 0.855252
O O15 0.000000 0.500000 0.500000
#
# Coordination Sequence:
#
# PCOD9111684 Si02
#       7
#     2   2   2   2   2   2   2
#     4  10  22  39  69  96 124 164 211 274 313 371
#     4  10  20  43  68  95 122 164 221 261 319 374
#     4  11  25  42  63  92 127 174 213 255 324 386
#     4  12  27  39  63  98 130 169 219 259 313 389
#     4  10  23  43  67  92 127 168 215 265 320 375
#     4  10  22  45  67  89 129 173 209 265 324 371
#     4  11  24  42  65  90 132 170 204 264 327 375
#
# _framework density 20.546536
#
# number of rings (size 3 to 8) (size 9 to 14) (size 15 to 20)
#    0.000    1.429    2.857    1.286    4.000    1.143 
#    0.000    0.000    0.000    0.000    0.000    0.000 
#    0.000    0.000    0.000    0.000    0.000    0.000 
#
# Total GULP energy -78269.151242 kJ/mol
# GULP energy per Si atom -5590.653660 kJ/mol
# Density = 2.049977 g / cm^3
# Si number density = 20.546536 Si / 1000 Ang^3
#
#
#
# Elastic Constant Matrix: (Units=GPa)
#
#
# Indices 1 2 3 4 5 6 
#
# 1 91.9443 35.6467 25.2639 8.4287 -9.4824 -18.4292
# 2 35.6467 104.1904 10.6466 17.1867 10.2092 -11.7971
# 3 25.2639 10.6466 51.1316 14.6627 -7.0103 -7.9619
# 4 8.4287 17.1867 14.6627 21.2697 -4.8085 9.8150
# 5 -9.4824 10.2092 -7.0103 -4.8085 33.3841 -2.9662
# 6 -18.4292 -11.7971 -7.9619 9.8150 -2.9662 32.5562
#
#
#
# Elastic Compliance Matrix: (Units=1/GPa)
#
#
# Indices 1 2 3 4 5 6 
#
# 1 0.016050 -0.004400 -0.004600 -0.001848 0.005331 0.007409
# 2 -0.004400 0.015966 0.005698 -0.021555 -0.007104 0.010539
# 3 -0.004600 0.005698 0.033171 -0.033715 0.000642 0.017796
# 4 -0.001848 -0.021555 -0.033715 0.114201 0.010946 -0.050534
# 5 0.005331 -0.007104 0.000642 0.010946 0.035399 0.000525
# 6 0.007409 0.010539 0.017796 -0.050534 0.000525 0.058364
#
#
# Mechanical properties :
#
#
# Convention : Reuss Voigt Hill
#
# Bulk Modulus (GPa) = 17.06961 43.37566 30.22263
# Shear Modulus (GPa) = 16.70665 29.15593 22.93129
#
# Velocity S-wave (km/s) = 2.85461 3.77107 3.34438
# Velocity P-wave (km/s) = 4.38074 6.33388 5.44559
#
# Compressibility (1/GPa) = 0.05858366
#
# Stress axis : x y z
#
# Youngs Moduli (GPa) = 62.30517 62.63356 30.14676
#
# Poissons Ratio (x) = 0.27557 0.13866
# Poissons Ratio (y) = 0.27413 -0.17177
# Poissons Ratio (z) = 0.28658 -0.35687
#
# Static dielectric constant tensor:
#      x y z
#    x 1.701170 0.013150 -0.007870 
#    y 0.013150 1.738450 -0.013320 
#    z -0.007870 -0.013320 1.723730 
# 
# From -- ./inp_files/65697.got.cif
#   From: 2010.05.17/outbox.cif.g08.bks.cpg/sg2_33_cif.got.tgz:65697.got - 2010.06.03 11:33:40.
