data_PCOD9111171
_publ_section_title
;
Structure prediction by ZEFSAII (Michael W. Deem and Ramdas Pophale) SiO2 
 PCOD9111171
Probable space group: P -1
;
_chemical_formula_sum "Si O2"
_cell_formula_units_Z 14
_cell_length_a 15.908815
_cell_length_b 8.321260
_cell_length_c 6.836150
_cell_angle_alpha 137.889981
_cell_angle_beta 96.772687
_cell_angle_gamma 81.307352
_cell_volume 599.845788
_symmetry_space_group_name_H-M "P -1"
_symmetry_group_IT_number 2
_symmetry_cell_setting 'triclinic'
loop_
_space_group_symop_operation_xyz
x,y,z
-x,-y,-z
loop_
_atom_site_type_symbol
_atom_site_label
_atom_site_fract_x
_atom_site_fract_y
_atom_site_fract_z
Si Si1 0.334211 0.365864 0.127707
Si Si2 0.075335 0.665242 0.687301
Si Si3 0.511034 0.263459 0.145035
Si Si4 0.782682 0.248928 0.421659
Si Si5 0.685257 0.008441 0.872324
Si Si6 0.790203 0.863791 0.397728
Si Si7 0.956404 0.985235 0.682750
O O1 0.429137 0.313196 0.024955
O O2 0.309556 0.636474 0.431508
O O3 0.334225 0.209160 0.185621
O O4 0.256356 0.310425 0.916296
O O5 0.155668 0.567367 0.487015
O O6 0.000000 0.500000 0.500000
O O7 0.084330 0.769594 0.001999
O O8 0.037078 0.894668 0.756260
O O9 0.500000 0.500000 0.500000
O O10 0.604301 0.209633 0.027526
O O11 0.500000 0.000000 0.000000
O O12 0.811453 0.083560 0.461910
O O13 0.764821 0.102788 0.091331
O O14 0.718497 0.933325 0.601614
O O15 0.880649 0.807112 0.480451
O O16 0.000000 0.000000 0.500000
#
# Coordination Sequence:
#
# PCOD9111171 Si02
#       7
#     2   2   2   2   2   2   2
#     4  10  24  39  67  93 130 166 216 270 326 394
#     4  11  26  39  65  91 121 169 216 262 330 394
#     4  10  20  42  70 100 134 182 226 275 341 402
#     4  11  22  41  60  94 126 163 215 270 320 398
#     4  10  22  42  66  88 130 173 213 262 336 392
#     4  11  24  41  62  94 127 169 214 269 329 391
#     4  11  24  44  59  87 129 162 207 271 323 386
#
# _framework density 23.33933
#
# number of rings (size 3 to 8) (size 9 to 14) (size 15 to 20)
#    0.000    1.429    4.286    0.000    4.000    3.429 
#    0.000    0.714    0.000    0.000    0.000    0.000 
#    0.000    0.000    0.000    0.000    0.000    0.000 
#
# Total GULP energy -77950.124327 kJ/mol
# GULP energy per Si atom -5567.866023 kJ/mol
# Density = 2.328621 g / cm^3
# Si number density = 23.339330 Si / 1000 Ang^3
#
#
#
# Elastic Constant Matrix: (Units=GPa)
#
#
# Indices 1 2 3 4 5 6 
#
# 1 99.4576 1.1249 13.2500 -14.8910 -7.9411 -8.3369
# 2 1.1249 9.5839 18.4243 -3.8014 -4.4481 0.8491
# 3 13.2500 18.4243 97.4739 -19.6850 -9.0304 5.0454
# 4 -14.8910 -3.8014 -19.6850 28.3191 3.8645 -5.8420
# 5 -7.9411 -4.4481 -9.0304 3.8645 42.0279 -2.5039
# 6 -8.3369 0.8491 5.0454 -5.8420 -2.5039 33.3880
#
#
#
# Elastic Compliance Matrix: (Units=1/GPa)
#
#
# Indices 1 2 3 4 5 6 
#
# 1 0.011642 0.003704 -0.000997 0.006527 0.002031 0.004258
# 2 0.003704 0.170177 -0.031305 0.001927 0.011960 0.002562
# 3 -0.000997 -0.031305 0.017844 0.007557 -0.000413 -0.000858
# 4 0.006527 0.001927 0.007557 0.046091 -0.000674 0.008453
# 5 0.002031 0.011960 -0.000413 -0.000674 0.025539 0.002063
# 6 0.004258 0.002562 -0.000858 0.008453 0.002063 0.032712
#
#
# Mechanical properties :
#
#
# Convention : Reuss Voigt Hill
#
# Bulk Modulus (GPa) = 7.01920 30.23488 18.62704
# Shear Modulus (GPa) = 12.23419 32.32808 22.28114
#
# Velocity S-wave (km/s) = 2.29200 3.72578 3.09311
# Velocity P-wave (km/s) = 3.16517 5.61170 4.55574
#
# Compressibility (1/GPa) = 0.14246632
#
# Stress axis : x y z
#
# Youngs Moduli (GPa) = 85.89785 5.87624 56.04084
#
# Poissons Ratio (x) = -0.02176 0.05585
# Poissons Ratio (y) = -0.31816 1.75438
# Poissons Ratio (z) = 0.08561 0.18396
#
# Static dielectric constant tensor:
#      x y z
#    x 2.024300 -0.009190 -0.010070 
#    y -0.009190 1.996050 -0.005470 
#    z -0.010070 -0.005470 1.908890 
# 
# From -- ./inp_files/6699.got.cif
#   From: 2010.05.17/outbox.cif.g08.bks.cpg/sg2_4_cif.got.tgz:6699.got - 2010.06.03 11:33:40.
