data_PCOD9111403
_publ_section_title
;
Structure prediction by ZEFSAII (Michael W. Deem and Ramdas Pophale) SiO2 
 PCOD9111403
Probable space group: P -1
;
_chemical_formula_sum "Si O2"
_cell_formula_units_Z 14
_cell_length_a 14.778459
_cell_length_b 14.692900
_cell_length_c 14.002633
_cell_angle_alpha 150.529199
_cell_angle_beta 150.503837
_cell_angle_gamma 30.077495
_cell_volume 659.890668
_symmetry_space_group_name_H-M "P -1"
_symmetry_group_IT_number 2
_symmetry_cell_setting 'triclinic'
loop_
_space_group_symop_operation_xyz
x,y,z
-x,-y,-z
loop_
_atom_site_type_symbol
_atom_site_label
_atom_site_fract_x
_atom_site_fract_y
_atom_site_fract_z
Si Si1 0.205622 0.795621 0.806961
Si Si2 0.930702 0.821842 0.294106
Si Si3 0.353214 0.886497 0.549745
Si Si4 0.982284 0.787776 0.101585
Si Si5 0.767669 0.923149 0.596739
Si Si6 0.797916 0.530712 0.639334
Si Si7 0.492646 0.718660 0.167588
O O1 0.230857 0.592989 0.588833
O O2 0.008399 0.854344 0.747438
O O3 0.144442 0.983590 0.848139
O O4 0.400043 0.766859 0.020383
O O5 0.895950 0.761090 0.100694
O O6 0.110273 0.634950 0.343026
O O7 0.742021 0.929392 0.292039
O O8 0.000000 0.000000 0.500000
O O9 0.582073 0.725881 0.637030
O O10 0.209394 0.766790 0.306461
O O11 0.326210 0.982106 0.506701
O O12 0.961049 0.624174 0.862163
O O13 0.703156 0.739906 0.388549
O O14 0.661315 0.101551 0.739878
O O15 0.500000 0.500000 0.000000
#
# Coordination Sequence:
#
# PCOD9111403 Si02
#       7
#     2   2   2   2   2   2   2
#     4  11  23  42  63  92 131 162 207 266 308 372
#     4  10  20  43  61  93 135 162 213 266 299 372
#     4  10  22  42  66  92 130 167 209 263 311 372
#     4  10  23  42  63  93 130 167 214 260 308 374
#     4  10  22  44  62  91 131 158 204 268 308 370
#     4  12  22  39  66  91 126 176 210 250 320 366
#     4  11  24  40  66  94 120 164 212 253 320 384
#
# _framework density 21.215636
#
# number of rings (size 3 to 8) (size 9 to 14) (size 15 to 20)
#    0.000    1.429    4.286    2.571    0.000    8.000 
#    2.571    0.000    0.000    0.000    0.000    0.000 
#    0.000    0.000    0.000    0.000    0.000    0.000 
#
# Total GULP energy -78191.901225 kJ/mol
# GULP energy per Si atom -5585.135802 kJ/mol
# Density = 2.116735 g / cm^3
# Si number density = 21.215636 Si / 1000 Ang^3
#
#
#
# Elastic Constant Matrix: (Units=GPa)
#
#
# Indices 1 2 3 4 5 6 
#
# 1 41.2307 -18.2221 14.9562 3.9433 -13.9628 2.9223
# 2 -18.2221 36.5274 -1.2233 -1.3975 16.3088 3.9663
# 3 14.9562 -1.2233 107.7582 15.2639 2.6713 0.8448
# 4 3.9433 -1.3975 15.2639 28.5858 0.0435 0.7252
# 5 -13.9628 16.3088 2.6713 0.0435 22.4965 4.4568
# 6 2.9223 3.9663 0.8448 0.7252 4.4568 8.5457
#
#
#
# Elastic Compliance Matrix: (Units=1/GPa)
#
#
# Indices 1 2 3 4 5 6 
#
# 1 0.043274 0.014335 -0.005993 -0.001264 0.023745 -0.033135
# 2 0.014335 0.045569 -0.001003 0.001200 -0.021033 -0.015085
# 3 -0.005993 -0.001003 0.010925 -0.005164 -0.005187 0.004578
# 4 -0.001264 0.001200 -0.005164 0.038038 -0.000616 -0.002521
# 5 0.023745 -0.021033 -0.005187 -0.000616 0.083214 -0.041191
# 6 -0.033135 -0.015085 0.004578 -0.002521 -0.041191 0.156594
#
#
# Mechanical properties :
#
#
# Convention : Reuss Voigt Hill
#
# Bulk Modulus (GPa) = 8.73783 19.61533 14.17658
# Shear Modulus (GPa) = 12.46623 24.59263 18.52943
#
# Velocity S-wave (km/s) = 2.42667 3.40836 2.95852
# Velocity P-wave (km/s) = 3.46109 4.97544 4.28568
#
# Compressibility (1/GPa) = 0.11444490
#
# Stress axis : x y z
#
# Youngs Moduli (GPa) = 23.10871 21.94483 91.53619
#
# Poissons Ratio (x) = -0.31457 0.54860
# Poissons Ratio (y) = -0.33126 0.09178
# Poissons Ratio (z) = 0.13850 0.02200
#
# Static dielectric constant tensor:
#      x y z
#    x 1.814770 -0.001950 -0.011870 
#    y -0.001950 1.732420 0.018180 
#    z -0.011870 0.018180 1.773110 
# 
# From -- ./inp_files/534615.got.cif
#   From: 2010.05.17/outbox.cif.g08.bks.cpg/sg2_268_cif.got.tgz:534615.got - 2010.06.03 11:33:40.
