data_PCOD9111696
_publ_section_title
;
Structure prediction by ZEFSAII (Michael W. Deem and Ramdas Pophale) SiO2 
 PCOD9111696
Probable space group: P -1
;
_chemical_formula_sum "Si O2"
_cell_formula_units_Z 14
_cell_length_a 6.808359
_cell_length_b 14.372709
_cell_length_c 7.928668
_cell_angle_alpha 80.233410
_cell_angle_beta 53.727005
_cell_angle_gamma 64.547059
_cell_volume 560.959118
_symmetry_space_group_name_H-M "P -1"
_symmetry_group_IT_number 2
_symmetry_cell_setting 'triclinic'
loop_
_space_group_symop_operation_xyz
x,y,z
-x,-y,-z
loop_
_atom_site_type_symbol
_atom_site_label
_atom_site_fract_x
_atom_site_fract_y
_atom_site_fract_z
Si Si1 0.745564 0.333669 0.507527
Si Si2 0.193332 0.398076 0.822943
Si Si3 0.796439 0.112110 0.638977
Si Si4 0.760676 0.133117 0.058658
Si Si5 0.818691 0.459446 0.721065
Si Si6 0.697471 0.666102 0.869011
Si Si7 0.336805 0.054097 0.894656
O O1 0.439925 0.393459 0.580425
O O2 0.831833 0.210818 0.514544
O O3 0.710638 0.395391 0.681196
O O4 0.995241 0.349233 0.298372
O O5 0.994692 0.382164 0.800041
O O6 0.339614 0.315188 0.918079
O O7 0.000000 0.500000 0.000000
O O8 0.827001 0.116806 0.827085
O O9 0.510020 0.114052 0.727986
O O10 0.000000 0.000000 0.500000
O O11 0.502512 0.239765 0.166649
O O12 0.670357 0.041500 0.179884
O O13 0.017876 0.125364 0.036929
O O14 0.647042 0.566856 0.867922
O O15 0.000000 0.500000 0.500000
O O16 0.500000 0.000000 0.000000
#
# Coordination Sequence:
#
# PCOD9111696 Si02
#       7
#     2   2   2   2   2   2   2
#     4  11  23  44  66 101 144 175 234 284 344 411
#     4  10  22  42  67 101 139 184 229 280 344 410
#     4  11  23  41  65  99 135 181 229 287 349 410
#     4  10  20  43  68  97 133 180 232 287 343 417
#     4   9  22  42  66 100 138 180 226 278 338 407
#     4  10  21  42  71 101 136 185 229 281 348 409
#     4   9  21  41  67  93 133 174 227 281 346 406
#
# _framework density 24.957253999999999
#
# number of rings (size 3 to 8) (size 9 to 14) (size 15 to 20)
#    0.000    2.000    1.429    0.857    0.000    9.143 
#    2.571   17.143    0.000    0.000    0.000    0.000 
#    0.000    0.000    0.000    0.000    0.000    0.000 
#
# Total GULP energy -78076.093071 kJ/mol
# GULP energy per Si atom -5576.863791 kJ/mol
# Density = 2.490045 g / cm^3
# Si number density = 24.957254 Si / 1000 Ang^3
#
#
#
# Elastic Constant Matrix: (Units=GPa)
#
#
# Indices 1 2 3 4 5 6 
#
# 1 123.3585 33.9579 17.9064 -4.8638 -30.3968 -3.7555
# 2 33.9579 130.5844 19.6067 2.9527 -16.2251 13.2492
# 3 17.9064 19.6067 73.3080 6.8509 -16.2538 11.5802
# 4 -4.8638 2.9527 6.8509 32.3249 -1.8888 -8.3878
# 5 -30.3968 -16.2251 -16.2538 -1.8888 37.9610 0.0849
# 6 -3.7555 13.2492 11.5802 -8.3878 0.0849 47.9920
#
#
#
# Elastic Compliance Matrix: (Units=1/GPa)
#
#
# Indices 1 2 3 4 5 6 
#
# 1 0.010858 -0.002019 -0.001076 0.003053 0.007518 0.002187
# 2 -0.002019 0.008835 -0.000939 -0.001497 0.001689 -0.002635
# 3 -0.001076 -0.000939 0.016542 -0.004449 0.005608 -0.004604
# 4 0.003053 -0.001497 -0.004449 0.034584 0.001603 0.007767
# 5 0.007518 0.001689 0.005608 0.001603 0.035568 -0.001014
# 6 0.002187 -0.002635 -0.004604 0.007767 -0.001014 0.024206
#
#
# Mechanical properties :
#
#
# Convention : Reuss Voigt Hill
#
# Bulk Modulus (GPa) = 35.50394 52.24366 43.87380
# Shear Modulus (GPa) = 33.77270 40.70758 37.24014
#
# Velocity S-wave (km/s) = 3.68261 4.04306 3.86704
# Velocity P-wave (km/s) = 5.68673 6.54017 6.12832
#
# Compressibility (1/GPa) = 0.02816588
#
# Stress axis : x y z
#
# Youngs Moduli (GPa) = 92.10012 113.18713 60.45343
#
# Poissons Ratio (x) = 0.22850 0.06506
# Poissons Ratio (y) = 0.18593 0.05678
# Poissons Ratio (z) = 0.09912 0.10631
#
# Static dielectric constant tensor:
#      x y z
#    x 1.910360 -0.044610 -0.033850 
#    y -0.044610 2.011810 0.018470 
#    z -0.033850 0.018470 2.168630 
# 
# From -- ./inp_files/135221.got.cif
#   From: 2010.05.17/outbox.cif.g08.bks.cpg/sg2_68_cif.got.tgz:135221.got - 2010.06.03 11:33:40.
