data_PCOD9111534
_publ_section_title
;
Structure prediction by ZEFSAII (Michael W. Deem and Ramdas Pophale) SiO2 
 PCOD9111534
Probable space group: P -1
;
_chemical_formula_sum "Si O2"
_cell_formula_units_Z 15
_cell_length_a 13.534154
_cell_length_b 6.498916
_cell_length_c 14.593309
_cell_angle_alpha 135.857886
_cell_angle_beta 40.205359
_cell_angle_gamma 120.334260
_cell_volume 574.417611
_symmetry_space_group_name_H-M "P -1"
_symmetry_group_IT_number 2
_symmetry_cell_setting 'triclinic'
loop_
_space_group_symop_operation_xyz
x,y,z
-x,-y,-z
loop_
_atom_site_type_symbol
_atom_site_label
_atom_site_fract_x
_atom_site_fract_y
_atom_site_fract_z
Si Si1 0.725235 0.800725 0.025890
Si Si2 0.837072 0.147844 0.365395
Si Si3 0.059010 0.571460 0.784398
Si Si4 0.999101 0.880511 0.590146
Si Si5 0.738617 0.144508 0.747486
Si Si6 0.545257 0.120436 0.107689
Si Si7 0.000000 0.500000 0.000000
Si Si8 0.501345 0.179706 0.650662
O O1 0.612539 0.929562 0.227606
O O2 0.696975 0.975884 0.006215
O O3 0.898073 0.747551 0.923745
O O4 0.681546 0.463939 0.931342
O O5 0.963308 0.257912 0.381734
O O6 0.682447 0.155174 0.536454
O O7 0.821051 0.355427 0.354000
O O8 0.892493 0.820334 0.185652
O O9 0.089031 0.620352 0.884688
O O10 0.024441 0.229309 0.697150
O O11 0.130565 0.784884 0.393656
O O12 0.829008 0.911559 0.679662
O O13 0.592940 0.988869 0.768144
O O14 0.548872 0.471221 0.216847
O O15 0.500000 0.000000 0.000000
O O16 0.500000 0.000000 0.500000
#
# Coordination Sequence:
#
# PCOD9111534 Si02
#       8
#     2   2   2   2   2   2   1   2
#     4  11  25  44  70 105 146 186 236 295 358 422
#     4  11  23  41  70  98 137 183 237 288 355 423
#     4  10  22  41  67 101 133 185 236 290 354 425
#     4   9  21  38  65 100 142 173 229 300 354 411
#     4  10  20  43  66 103 143 184 231 295 357 416
#     4  12  26  42  72 103 140 193 241 283 351 428
#     4  10  22  42  68  94 132 182 234 290 348 422
#     4  12  28  48  69 105 146 189 238 300 357 421
#
# _framework density 26.113406999999999
#
# number of rings (size 3 to 8) (size 9 to 14) (size 15 to 20)
#    0.000    1.333    1.333    3.200    3.733    3.733 
#    0.000    2.667    0.000    0.000    0.000    0.000 
#    0.000    0.000    0.000    0.000    0.000    0.000 
#
# Total GULP energy -83721.484644 kJ/mol
# GULP energy per Si atom -5581.432310 kJ/mol
# Density = 2.605397 g / cm^3
# Si number density = 26.113407 Si / 1000 Ang^3
#
#
#
# Elastic Constant Matrix: (Units=GPa)
#
#
# Indices 1 2 3 4 5 6 
#
# 1 83.5840 8.3239 9.2982 -0.9872 5.1204 -20.0235
# 2 8.3239 78.8624 14.5935 0.9764 11.4588 -15.9235
# 3 9.2982 14.5935 107.6343 -12.0636 6.0835 -18.3300
# 4 -0.9872 0.9764 -12.0636 48.2739 2.1070 1.7145
# 5 5.1204 11.4588 6.0835 2.1070 35.3663 -8.0550
# 6 -20.0235 -15.9235 -18.3300 1.7145 -8.0550 39.7582
#
#
#
# Elastic Compliance Matrix: (Units=1/GPa)
#
#
# Indices 1 2 3 4 5 6 
#
# 1 0.013612 -0.000010 0.000009 0.000059 -0.000432 0.006765
# 2 -0.000010 0.014295 -0.001028 -0.000562 -0.003375 0.004586
# 3 0.000009 -0.001028 0.010459 0.002516 -0.000667 0.004171
# 4 0.000059 -0.000562 0.002516 0.021436 -0.001601 -0.000284
# 5 -0.000432 -0.003375 -0.000667 -0.001601 0.030644 0.004401
# 6 0.006765 0.004586 0.004171 -0.000284 0.004401 0.033223
#
#
# Mechanical properties :
#
#
# Convention : Reuss Voigt Hill
#
# Bulk Modulus (GPa) = 27.54356 37.16800 32.35578
# Shear Modulus (GPa) = 36.27603 40.53737 38.40670
#
# Velocity S-wave (km/s) = 3.73120 3.94427 3.83922
# Velocity P-wave (km/s) = 5.39751 5.91669 5.66305
#
# Compressibility (1/GPa) = 0.03630613
#
# Stress axis : x y z
#
# Youngs Moduli (GPa) = 73.46516 69.95377 95.60787
#
# Poissons Ratio (x) = 0.00072 -0.00083
# Poissons Ratio (y) = 0.00076 0.09833
# Poissons Ratio (z) = -0.00064 0.07194
#
# Static dielectric constant tensor:
#      x y z
#    x 2.341550 0.064630 0.033980 
#    y 0.064630 2.053650 0.009970 
#    z 0.033980 0.009970 2.066140 
# 
# From -- ./inp_files/526046.got.cif
#   From: 2010.05.17/outbox.cif.g08.bks.cpg/sg2_264_cif.got.tgz:526046.got - 2010.06.03 11:33:40.
