data_PCOD9111799
_publ_section_title
;
Structure prediction by ZEFSAII (Michael W. Deem and Ramdas Pophale) SiO2 
 PCOD9111799
Probable space group: P -1
;
_chemical_formula_sum "Si O2"
_cell_formula_units_Z 15
_cell_length_a 9.060894
_cell_length_b 16.274069
_cell_length_c 8.943411
_cell_angle_alpha 74.306877
_cell_angle_beta 39.264058
_cell_angle_gamma 55.505938
_cell_volume 651.255959
_symmetry_space_group_name_H-M "P -1"
_symmetry_group_IT_number 2
_symmetry_cell_setting 'triclinic'
loop_
_space_group_symop_operation_xyz
x,y,z
-x,-y,-z
loop_
_atom_site_type_symbol
_atom_site_label
_atom_site_fract_x
_atom_site_fract_y
_atom_site_fract_z
Si Si1 0.151251 0.253264 0.151724
Si Si2 0.824048 0.837147 0.345453
Si Si3 0.332730 0.573929 0.340272
Si Si4 0.036601 0.579457 0.022310
Si Si5 0.755832 0.996627 0.107346
Si Si6 0.500000 0.000000 0.000000
Si Si7 0.564690 0.284205 0.001471
Si Si8 0.864353 0.628345 0.457133
O O1 0.848527 0.337810 0.433149
O O2 0.370950 0.259560 0.078454
O O3 0.130230 0.307867 0.983837
O O4 0.269653 0.131851 0.114211
O O5 0.544610 0.911456 0.627113
O O6 0.879698 0.725550 0.355004
O O7 0.107225 0.816287 0.208065
O O8 0.793031 0.891070 0.186452
O O9 0.445425 0.623146 0.116506
O O10 0.114897 0.563111 0.417548
O O11 0.625488 0.467941 0.215935
O O12 0.922498 0.577897 0.275792
O O13 0.000000 0.500000 0.000000
O O14 0.701708 0.005985 0.968537
O O15 0.000000 0.000000 0.000000
O O16 0.438306 0.320299 0.249156
#
# Coordination Sequence:
#
# PCOD9111799 Si02
#       8
#     2   2   2   2   2   1   2   2
#     4  11  24  45  70 102 144 181 233 296 355 421
#     4  10  21  42  66  97 139 184 233 291 355 418
#     4  10  22  45  68  98 139 185 230 289 355 424
#     4  12  24  45  66 102 140 180 231 292 357 416
#     4  11  23  43  68 100 141 184 239 298 352 420
#     4  12  24  44  74 106 134 188 236 284 360 414
#     4  10  20  43  70  98 139 182 234 286 350 429
#     4  10  22  40  67  96 132 183 229 284 350 426
#
# _framework density 23.032419999999998
#
# number of rings (size 3 to 8) (size 9 to 14) (size 15 to 20)
#    0.000    1.333    1.333    5.600    0.000    0.533 
#   14.400    9.333    0.000    0.000    0.000    0.000 
#    0.000    0.000    0.000    0.000    0.000    0.000 
#
# Total GULP energy -83571.501943 kJ/mol
# GULP energy per Si atom -5571.433463 kJ/mol
# Density = 2.298000 g / cm^3
# Si number density = 23.032420 Si / 1000 Ang^3
#
#
#
# Elastic Constant Matrix: (Units=GPa)
#
#
# Indices 1 2 3 4 5 6 
#
# 1 130.9997 39.9693 65.6085 16.4281 6.6468 -0.6164
# 2 39.9693 92.4248 25.7393 9.4964 13.1886 -11.9361
# 3 65.6085 25.7393 117.8912 3.1929 -3.3038 -1.3881
# 4 16.4281 9.4964 3.1929 27.5836 -11.2228 -4.4892
# 5 6.6468 13.1886 -3.3038 -11.2228 37.2640 1.2977
# 6 -0.6164 -11.9361 -1.3881 -4.4892 1.2977 36.2909
#
#
#
# Elastic Compliance Matrix: (Units=1/GPa)
#
#
# Indices 1 2 3 4 5 6 
#
# 1 0.012925 -0.002521 -0.006566 -0.008133 -0.004385 -0.001710
# 2 -0.002521 0.014404 -0.001734 -0.005225 -0.006523 0.004215
# 3 -0.006566 -0.001734 0.012508 0.004870 0.004352 0.000243
# 4 -0.008133 -0.005225 0.004870 0.050638 0.018846 0.003920
# 5 -0.004385 -0.006523 0.004352 0.018846 0.036023 -0.001010
# 6 -0.001710 0.004215 0.000243 0.003920 -0.001010 0.029443
#
#
# Mechanical properties :
#
#
# Convention : Reuss Voigt Hill
#
# Bulk Modulus (GPa) = 54.95260 67.10555 61.02908
# Shear Modulus (GPa) = 27.22615 34.22759 30.72687
#
# Velocity S-wave (km/s) = 3.44187 3.85913 3.65646
# Velocity P-wave (km/s) = 6.30126 7.00398 6.66189
#
# Compressibility (1/GPa) = 0.01819750
#
# Stress axis : x y z
#
# Youngs Moduli (GPa) = 77.36818 69.42281 79.95053
#
# Poissons Ratio (x) = 0.17498 0.52492
# Poissons Ratio (y) = 0.19501 0.13862
# Poissons Ratio (z) = 0.50796 0.12037
#
# Static dielectric constant tensor:
#      x y z
#    x 1.887760 -0.021490 0.004840 
#    y -0.021490 1.908670 -0.010650 
#    z 0.004840 -0.010650 1.857130 
# 
# From -- ./inp_files/206636.got.cif
#   From: 2010.05.17/outbox.cif.g08.bks.cpg/sg2_104_cif.got.tgz:206636.got - 2010.06.03 11:33:40.
