data_PCOD9111989
_publ_section_title
;
Structure prediction by ZEFSAII (Michael W. Deem and Ramdas Pophale) SiO2 
 PCOD9111989
Probable space group: P -1
;
_chemical_formula_sum "Si O2"
_cell_formula_units_Z 14
_cell_length_a 7.499732
_cell_length_b 6.609621
_cell_length_c 14.249357
_cell_angle_alpha 108.272173
_cell_angle_beta 104.680245
_cell_angle_gamma 89.871122
_cell_volume 646.538860
_symmetry_space_group_name_H-M "P -1"
_symmetry_group_IT_number 2
_symmetry_cell_setting 'triclinic'
loop_
_space_group_symop_operation_xyz
x,y,z
-x,-y,-z
loop_
_atom_site_type_symbol
_atom_site_label
_atom_site_fract_x
_atom_site_fract_y
_atom_site_fract_z
Si Si1 0.188366 0.633744 0.705440
Si Si2 0.508253 0.655102 0.611553
Si Si3 0.968090 0.105618 0.127753
Si Si4 0.849670 0.492577 0.726758
Si Si5 0.641104 0.815729 0.003657
Si Si6 0.282106 0.917664 0.261891
Si Si7 0.439229 0.389625 0.835793
O O1 0.310711 0.673180 0.636167
O O2 0.176455 0.844983 0.799014
O O3 0.281738 0.455755 0.753943
O O4 0.972215 0.552359 0.659273
O O5 0.500000 0.500000 0.500000
O O6 0.644123 0.555899 0.690636
O O7 0.610004 0.887987 0.640575
O O8 0.045186 0.354063 0.157589
O O9 0.841471 0.938491 0.024387
O O10 0.143081 0.004041 0.180226
O O11 0.839166 0.246974 0.713684
O O12 0.640844 0.707112 0.090939
O O13 0.564401 0.612758 0.902525
O O14 0.500000 0.000000 0.000000
O O15 0.431981 0.783158 0.212308
#
# Coordination Sequence:
#
# PCOD9111989 Si02
#       7
#     2   2   2   2   2   2   2
#     4  10  20  44  66  88 132 171 207 258 321 379
#     4  11  24  42  67  98 126 164 213 267 322 385
#     4   9  21  37  62  86 130 169 206 254 318 366
#     4   9  21  40  62  93 127 163 213 256 318 387
#     4  11  21  38  61  97 128 167 221 259 304 377
#     4  11  22  42  65  91 129 167 214 265 320 377
#     4  11  23  36  67  92 126 174 215 257 318 369
#
# _framework density 21.653763000000001
#
# number of rings (size 3 to 8) (size 9 to 14) (size 15 to 20)
#    0.857    0.857    2.857    1.714    0.000    1.714 
#    0.000    2.143    0.000    0.000    0.000    0.000 
#    0.000    0.000    0.000    0.000    0.000    0.000 
#
# Total GULP energy -78060.192726 kJ/mol
# GULP energy per Si atom -5575.728052 kJ/mol
# Density = 2.160448 g / cm^3
# Si number density = 21.653763 Si / 1000 Ang^3
#
#
#
# Elastic Constant Matrix: (Units=GPa)
#
#
# Indices 1 2 3 4 5 6 
#
# 1 78.2072 15.5555 3.4095 10.9376 1.0682 0.7705
# 2 15.5555 116.2594 29.8819 33.9008 8.0418 14.4608
# 3 3.4095 29.8819 66.4869 29.6635 -0.6335 8.1610
# 4 10.9376 33.9008 29.6635 28.7898 2.5585 -1.7837
# 5 1.0682 8.0418 -0.6335 2.5585 15.9440 7.2265
# 6 0.7705 14.4608 8.1610 -1.7837 7.2265 49.8304
#
#
#
# Elastic Compliance Matrix: (Units=1/GPa)
#
#
# Indices 1 2 3 4 5 6 
#
# 1 0.013901 -0.000062 0.003503 -0.009009 0.001263 -0.001276
# 2 -0.000062 0.014574 0.003381 -0.020821 -0.001462 -0.005315
# 3 0.003503 0.003381 0.032571 -0.040337 0.010027 -0.009268
# 4 -0.009009 -0.020821 -0.040337 0.106854 -0.016241 0.018968
# 5 0.001263 -0.001462 0.010027 -0.016241 0.071929 -0.012250
# 6 -0.001276 -0.005315 -0.009268 0.018968 -0.012250 0.025604
#
#
# Mechanical properties :
#
#
# Convention : Reuss Voigt Hill
#
# Bulk Modulus (GPa) = 13.38852 39.84969 26.61911
# Shear Modulus (GPa) = 18.07100 33.05329 25.56215
#
# Velocity S-wave (km/s) = 2.89198 3.91121 3.43956
# Velocity P-wave (km/s) = 4.16507 6.23216 5.30036
#
# Compressibility (1/GPa) = 0.07469084
#
# Stress axis : x y z
#
# Youngs Moduli (GPa) = 71.93494 68.61335 30.70215
#
# Poissons Ratio (x) = 0.00425 -0.10756
# Poissons Ratio (y) = 0.00446 -0.10380
# Poissons Ratio (z) = -0.25200 -0.23197
#
# Static dielectric constant tensor:
#      x y z
#    x 1.834400 0.053230 -0.045720 
#    y 0.053230 1.800850 -0.009390 
#    z -0.045720 -0.009390 1.842230 
# 
# From -- ./inp_files/487931.got.cif
#   From: 2010.05.17/outbox.cif.g08.bks.cpg/sg2_244_cif.got.tgz:487931.got - 2010.06.03 11:33:40.
