data_PCOD9111583
_publ_section_title
;
Structure prediction by ZEFSAII (Michael W. Deem and Ramdas Pophale) SiO2 
 PCOD9111583
Probable space group: P -1
;
_chemical_formula_sum "Si O2"
_cell_formula_units_Z 16
_cell_length_a 15.237718
_cell_length_b 6.324647
_cell_length_c 15.528541
_cell_angle_alpha 66.602013
_cell_angle_beta 34.952726
_cell_angle_gamma 53.469041
_cell_volume 675.397723
_symmetry_space_group_name_H-M "P -1"
_symmetry_group_IT_number 2
_symmetry_cell_setting 'triclinic'
loop_
_space_group_symop_operation_xyz
x,y,z
-x,-y,-z
loop_
_atom_site_type_symbol
_atom_site_label
_atom_site_fract_x
_atom_site_fract_y
_atom_site_fract_z
Si Si1 0.909325 0.085253 0.283100
Si Si2 0.347482 0.282829 0.113703
Si Si3 0.633905 0.106999 0.370250
Si Si4 0.852912 0.601322 0.177033
Si Si5 0.278138 0.706955 0.962414
Si Si6 0.595939 0.791051 0.719456
Si Si7 0.966693 0.580001 0.413794
Si Si8 0.578069 0.616135 0.263736
O O1 0.731622 0.120271 0.375338
O O2 0.954431 0.864670 0.357135
O O3 0.892761 0.375724 0.254343
O O4 0.078204 0.933153 0.107150
O O5 0.376972 0.302616 0.188018
O O6 0.141607 0.353369 0.260183
O O7 0.349233 0.509789 0.018936
O O8 0.500000 0.000000 0.000000
O O9 0.798522 0.885989 0.215608
O O10 0.500000 0.000000 0.500000
O O11 0.526314 0.401773 0.368676
O O12 0.681951 0.639686 0.256736
O O13 0.000000 0.500000 0.000000
O O14 0.418172 0.807548 0.825005
O O15 0.291407 0.530334 0.898274
O O16 0.772913 0.616341 0.548468
O O17 0.565887 0.089249 0.697634
O O18 0.000000 0.500000 0.500000
#
# Coordination Sequence:
#
# PCOD9111583 Si02
#       8
#     2   2   2   2   2   2   2   2
#     4  10  23  41  67  92 135 168 216 274 318 381
#     4  10  20  43  66  95 132 170 212 269 321 382
#     4  11  26  41  63  95 131 172 218 266 325 385
#     4  11  23  42  64  93 127 171 220 263 323 381
#     4  11  22  40  67  99 125 174 218 264 326 388
#     4  11  22  39  69  93 132 172 214 266 327 383
#     4   9  22  41  67  95 130 169 211 267 324 380
#     4  11  23  37  65  92 129 165 218 268 317 376
#
# _framework density 23.689746
#
# number of rings (size 3 to 8) (size 9 to 14) (size 15 to 20)
#    0.000    1.500    1.250    3.375    5.250    3.000 
#    0.000    0.625    2.750    0.000    0.000    0.000 
#    0.000    0.000    0.000    0.000    0.000    0.000 
#
# Total GULP energy -89389.210740 kJ/mol
# GULP energy per Si atom -5586.825671 kJ/mol
# Density = 2.363583 g / cm^3
# Si number density = 23.689746 Si / 1000 Ang^3
#
#
#
# Elastic Constant Matrix: (Units=GPa)
#
#
# Indices 1 2 3 4 5 6 
#
# 1 54.5131 28.3776 10.0124 -11.9230 4.3484 -8.7503
# 2 28.3776 117.9627 40.5248 -14.1243 9.7695 -20.6921
# 3 10.0124 40.5248 139.1333 8.1137 -16.3945 1.1905
# 4 -11.9230 -14.1243 8.1137 44.5704 -3.4339 11.0674
# 5 4.3484 9.7695 -16.3945 -3.4339 40.3507 -5.2068
# 6 -8.7503 -20.6921 1.1905 11.0674 -5.2068 31.3832
#
#
#
# Elastic Compliance Matrix: (Units=1/GPa)
#
#
# Indices 1 2 3 4 5 6 
#
# 1 0.021907 -0.004104 -0.000769 0.004174 -0.001095 0.001778
# 2 -0.004104 0.012293 -0.003812 0.001769 -0.003164 0.005957
# 3 -0.000769 -0.003812 0.009006 -0.002343 0.004267 -0.001535
# 4 0.004174 0.001769 -0.002343 0.026218 -0.000490 -0.006908
# 5 -0.001095 -0.003164 0.004267 -0.000490 0.027643 0.002206
# 6 0.001778 0.005957 -0.001535 -0.006908 0.002206 0.039148
#
#
# Mechanical properties :
#
#
# Convention : Reuss Voigt Hill
#
# Bulk Modulus (GPa) = 38.70489 52.15984 45.43237
# Shear Modulus (GPa) = 30.82687 38.77381 34.80034
#
# Velocity S-wave (km/s) = 3.61123 4.05005 3.83692
# Velocity P-wave (km/s) = 5.81048 6.62844 6.23289
#
# Compressibility (1/GPa) = 0.02583653
#
# Stress axis : x y z
#
# Youngs Moduli (GPa) = 45.64680 81.34892 111.04186
#
# Poissons Ratio (x) = 0.33382 0.08538
# Poissons Ratio (y) = 0.18732 0.42330
# Poissons Ratio (z) = 0.03510 0.31011
#
# Static dielectric constant tensor:
#      x y z
#    x 1.897570 -0.008530 0.002850 
#    y -0.008530 1.916840 0.005530 
#    z 0.002850 0.005530 1.974150 
# 
# From -- ./inp_files/285833.got.cif
#   From: 2010.05.17/outbox.cif.g08.bks.cpg/sg2_143_cif.got.tgz:285833.got - 2010.06.03 11:33:40.
