data_PCOD9111471
_publ_section_title
;
Structure prediction by ZEFSAII (Michael W. Deem and Ramdas Pophale) SiO2 
 PCOD9111471
Probable space group: P -1
;
_chemical_formula_sum "Si O2"
_cell_formula_units_Z 14
_cell_length_a 16.381296
_cell_length_b 7.674930
_cell_length_c 7.563246
_cell_angle_alpha 39.591726
_cell_angle_beta 63.730145
_cell_angle_gamma 59.780685
_cell_volume 521.066962
_symmetry_space_group_name_H-M "P -1"
_symmetry_group_IT_number 2
_symmetry_cell_setting 'triclinic'
loop_
_space_group_symop_operation_xyz
x,y,z
-x,-y,-z
loop_
_atom_site_type_symbol
_atom_site_label
_atom_site_fract_x
_atom_site_fract_y
_atom_site_fract_z
Si Si1 0.611695 0.722871 0.712499
Si Si2 0.194095 0.191236 0.517116
Si Si3 0.889183 0.315720 0.537295
Si Si4 0.671652 0.088253 0.097683
Si Si5 0.451458 0.336383 0.812068
Si Si6 0.252066 0.414120 0.826024
Si Si7 0.913668 0.769602 0.733828
O O1 0.545593 0.667223 0.975215
O O2 0.641323 0.418131 0.829727
O O3 0.705735 0.773617 0.677014
O O4 0.599208 0.964097 0.384020
O O5 0.130715 0.499362 0.409602
O O6 0.233041 0.992610 0.806384
O O7 0.135790 0.069717 0.524552
O O8 0.792247 0.429975 0.431875
O O9 0.979058 0.382672 0.303318
O O10 0.912626 0.978197 0.737666
O O11 0.696786 0.907880 0.037398
O O12 0.500000 0.500000 0.500000
O O13 0.339697 0.497131 0.758202
O O14 0.500000 0.000000 0.000000
O O15 0.158486 0.415575 0.021804
#
# Coordination Sequence:
#
# PCOD9111471 Si02
#       7
#     2   2   2   2   2   2   2
#     4  10  20  43  64  95 134 172 226 271 347 402
#     4   9  20  37  64  95 142 182 224 276 341 401
#     4  10  23  38  63 105 136 180 234 278 330 428
#     4   9  21  37  69  96 125 186 218 274 343 408
#     4  12  28  45  70 102 129 174 235 285 345 421
#     4  11  23  42  66  92 141 174 225 288 344 397
#     4  11  21  38  67  98 142 183 229 273 350 396
#
# _framework density 26.86795
#
# number of rings (size 3 to 8) (size 9 to 14) (size 15 to 20)
#    0.857    0.857    1.429    2.571    4.000    0.000 
#    0.000    4.286    0.000    9.429    0.000    0.000 
#    0.000    0.000    0.000    0.000    0.000    0.000 
#
# Total GULP energy -78132.348032 kJ/mol
# GULP energy per Si atom -5580.882002 kJ/mol
# Density = 2.680680 g / cm^3
# Si number density = 26.867950 Si / 1000 Ang^3
#
#
#
# Elastic Constant Matrix: (Units=GPa)
#
#
# Indices 1 2 3 4 5 6 
#
# 1 138.1845 9.7312 40.4973 16.7737 -2.5107 -22.9703
# 2 9.7312 85.7027 45.2560 17.9819 -17.0408 4.1145
# 3 40.4973 45.2560 153.8407 13.4848 -21.3564 -17.5781
# 4 16.7737 17.9819 13.4848 49.2913 -8.8226 -14.0965
# 5 -2.5107 -17.0408 -21.3564 -8.8226 26.1880 9.1167
# 6 -22.9703 4.1145 -17.5781 -14.0965 9.1167 31.5399
#
#
#
# Elastic Compliance Matrix: (Units=1/GPa)
#
#
# Indices 1 2 3 4 5 6 
#
# 1 0.008921 -0.000854 -0.001808 -0.001129 -0.003701 0.006167
# 2 -0.000854 0.017902 -0.004401 -0.006482 0.009658 -0.011099
# 3 -0.001808 -0.004401 0.009078 0.001499 0.003486 0.003979
# 4 -0.001129 -0.006482 0.001499 0.026393 0.001538 0.012211
# 5 -0.003701 0.009658 0.003486 0.001538 0.053301 -0.016733
# 6 0.006167 -0.011099 0.003979 0.012211 -0.016733 0.050157
#
#
# Mechanical properties :
#
#
# Convention : Reuss Voigt Hill
#
# Bulk Modulus (GPa) = 45.91911 63.18853 54.55382
# Shear Modulus (GPa) = 26.71846 40.22007 33.46927
#
# Velocity S-wave (km/s) = 3.15689 3.87325 3.53327
# Velocity P-wave (km/s) = 5.51504 6.60091 6.08225
#
# Compressibility (1/GPa) = 0.02177742
#
# Stress axis : x y z
#
# Youngs Moduli (GPa) = 112.08962 55.85852 110.15762
#
# Poissons Ratio (x) = 0.04768 0.19913
# Poissons Ratio (y) = 0.09568 0.48479
# Poissons Ratio (z) = 0.20262 0.24583
#
# Static dielectric constant tensor:
#      x y z
#    x 2.132500 -0.017890 0.023500 
#    y -0.017890 2.176360 -0.013220 
#    z 0.023500 -0.013220 2.174050 
# 
# From -- ./inp_files/328251.got.cif
#   From: 2010.05.17/outbox.cif.g08.bks.cpg/sg2_165_cif.got.tgz:328251.got - 2010.06.03 11:33:40.
