data_PCOD9111107
_publ_section_title
;
Structure prediction by ZEFSAII (Michael W. Deem and Ramdas Pophale) SiO2 
 PCOD9111107
Probable space group: P -1
;
_chemical_formula_sum "Si O2"
_cell_formula_units_Z 14
_cell_length_a 12.128661
_cell_length_b 9.916755
_cell_length_c 6.698287
_cell_angle_alpha 107.057112
_cell_angle_beta 80.281822
_cell_angle_gamma 140.331337
_cell_volume 489.513937
_symmetry_space_group_name_H-M "P -1"
_symmetry_group_IT_number 2
_symmetry_cell_setting 'triclinic'
loop_
_space_group_symop_operation_xyz
x,y,z
-x,-y,-z
loop_
_atom_site_type_symbol
_atom_site_label
_atom_site_fract_x
_atom_site_fract_y
_atom_site_fract_z
Si Si1 0.606659 0.641626 0.334005
Si Si2 0.465037 0.213189 0.094092
Si Si3 0.395016 0.872916 0.733757
Si Si4 0.747626 0.554594 0.714800
Si Si5 0.845886 0.360247 0.650652
Si Si6 0.862742 0.957420 0.738195
Si Si7 0.104507 0.412406 0.745708
O O1 0.500000 0.500000 0.500000
O O2 0.594870 0.474438 0.158285
O O3 0.458719 0.604424 0.268865
O O4 0.781190 0.865347 0.492311
O O5 0.483429 0.143803 0.267028
O O6 0.274685 0.092998 0.104318
O O7 0.471368 0.092008 0.883760
O O8 0.322079 0.826565 0.515057
O O9 0.236612 0.671131 0.844702
O O10 0.820240 0.494167 0.796862
O O11 0.858249 0.803259 0.783834
O O12 0.803598 0.552441 0.474449
O O13 0.916766 0.308306 0.747504
O O14 0.000000 0.500000 0.500000
O O15 0.043675 0.210507 0.781126
#
# Coordination Sequence:
#
# PCOD9111107 Si02
#       7
#     2   2   2   2   2   2   2
#     4   8  14  26  42  61  85 109 145 177 206 250
#     4   9  17  28  46  66  85 115 148 182 209 253
#     4   9  16  30  46  61  87 119 150 171 210 264
#     4   8  14  27  44  60  83 115 147 172 203 254
#     4   8  15  28  45  63  85 117 149 172 204 261
#     4  10  17  26  44  71  91 105 140 190 225 243
#     4  10  18  27  45  69  92 112 137 182 224 254
#
# _framework density 28.599798
#
# number of rings (size 3 to 8) (size 9 to 14) (size 15 to 20)
#    0.000    3.714    0.000    5.571    0.000    0.571 
#    0.000    2.857    0.000   31.714    0.000    2.000 
#    0.000    0.000    0.000    0.000    0.000    0.000 
#
# Total GULP energy -77976.944953 kJ/mol
# GULP energy per Si atom -5569.781782 kJ/mol
# Density = 2.853470 g / cm^3
# Si number density = 28.599798 Si / 1000 Ang^3
#
#
#
# Elastic Constant Matrix: (Units=GPa)
#
#
# Indices 1 2 3 4 5 6 
#
# 1 165.3884 39.2609 41.5846 27.9586 -35.3969 -12.3608
# 2 39.2609 138.3465 27.1363 41.0912 1.9821 2.2589
# 3 41.5846 27.1363 137.3358 30.6012 -22.7138 3.9914
# 4 27.9586 41.0912 30.6012 37.4305 -4.1866 4.6723
# 5 -35.3969 1.9821 -22.7138 -4.1866 39.2377 7.7645
# 6 -12.3608 2.2589 3.9914 4.6723 7.7645 49.9605
#
#
#
# Elastic Compliance Matrix: (Units=1/GPa)
#
#
# Indices 1 2 3 4 5 6 
#
# 1 0.008779 -0.001277 -0.000333 -0.004293 0.007024 0.001566
# 2 -0.001277 0.011096 0.000347 -0.011929 -0.002928 0.000725
# 3 -0.000333 0.000347 0.009793 -0.007495 0.004732 -0.000915
# 4 -0.004293 -0.011929 -0.007495 0.049521 -0.001469 -0.004327
# 5 0.007024 -0.002928 0.004732 -0.001469 0.035316 -0.003859
# 6 0.001566 0.000725 -0.000915 -0.004327 -0.003859 0.021448
#
#
# Mechanical properties :
#
#
# Convention : Reuss Voigt Hill
#
# Bulk Modulus (GPa) = 36.84486 73.00378 54.92432
# Shear Modulus (GPa) = 33.89204 47.53166 40.71185
#
# Velocity S-wave (km/s) = 3.44618 4.08113 3.77702
# Velocity P-wave (km/s) = 5.36151 6.91295 6.18606
#
# Compressibility (1/GPa) = 0.02714083
#
# Stress axis : x y z
#
# Youngs Moduli (GPa) = 113.90335 90.12486 102.11394
#
# Poissons Ratio (x) = 0.11510 0.03404
# Poissons Ratio (y) = 0.14547 -0.03542
# Poissons Ratio (z) = 0.03797 -0.03126
#
# Static dielectric constant tensor:
#      x y z
#    x 2.436050 -0.040770 0.181400 
#    y -0.040770 2.221470 -0.009770 
#    z 0.181400 -0.009770 2.549470 
# 
# From -- ./inp_files/420712.got.cif
#   From: 2010.05.17/outbox.cif.g08.bks.cpg/sg2_211_cif.got.tgz:420712.got - 2010.06.03 11:33:40.
