data_PCOD9111526
_publ_section_title
;
Structure prediction by ZEFSAII (Michael W. Deem and Ramdas Pophale) SiO2 
 PCOD9111526
Probable space group: P -1
;
_chemical_formula_sum "Si O2"
_cell_formula_units_Z 14
_cell_length_a 6.512673
_cell_length_b 13.935853
_cell_length_c 14.768946
_cell_angle_alpha 149.939523
_cell_angle_beta 93.685518
_cell_angle_gamma 72.843101
_cell_volume 588.241749
_symmetry_space_group_name_H-M "P -1"
_symmetry_group_IT_number 2
_symmetry_cell_setting 'triclinic'
loop_
_space_group_symop_operation_xyz
x,y,z
-x,-y,-z
loop_
_atom_site_type_symbol
_atom_site_label
_atom_site_fract_x
_atom_site_fract_y
_atom_site_fract_z
Si Si1 0.053796 0.686505 0.309115
Si Si2 0.764184 0.701774 0.773214
Si Si3 0.396888 0.175748 0.483720
Si Si4 0.875887 0.792946 0.660667
Si Si5 0.097931 0.112480 0.710135
Si Si6 0.490857 0.562264 0.768351
Si Si7 0.967713 0.878490 0.074584
O O1 0.822099 0.692552 0.348581
O O2 0.047345 0.696766 0.209020
O O3 0.291922 0.502604 0.209392
O O4 0.034633 0.917906 0.530107
O O5 0.749005 0.815731 0.770550
O O6 0.553670 0.657088 0.759451
O O7 0.987969 0.460625 0.571189
O O8 0.817900 0.825722 0.956026
O O9 0.305105 0.086315 0.326452
O O10 0.478140 0.339138 0.574320
O O11 0.625308 0.991380 0.388021
O O12 0.063718 0.879470 0.740084
O O13 0.068957 0.164319 0.857576
O O14 0.239928 0.731010 0.936441
#
# Coordination Sequence:
#
# PCOD9111526 Si02
#       7
#     2   2   2   2   2   2   2
#     4  10  20  43  65  99 130 173 221 265 323 391
#     4  11  25  46  65  97 133 172 222 269 319 392
#     4  11  20  44  67  95 133 171 218 273 320 387
#     4  11  23  45  70  93 132 174 218 269 328 381
#     4  10  23  37  70  97 131 174 217 267 329 382
#     4  11  23  41  66  93 140 168 214 272 320 388
#     4  12  24  44  65 100 134 172 216 269 324 390
#
# _framework density 23.799738999999999
#
# number of rings (size 3 to 8) (size 9 to 14) (size 15 to 20)
#    0.000    1.143    4.286    1.714    2.000    1.714 
#    2.571    2.857    0.000    0.000    0.000    0.000 
#    0.000    0.000    0.000    0.000    0.000    0.000 
#
# Total GULP energy -78377.319180 kJ/mol
# GULP energy per Si atom -5598.379941 kJ/mol
# Density = 2.374557 g / cm^3
# Si number density = 23.799739 Si / 1000 Ang^3
#
#
#
# Elastic Constant Matrix: (Units=GPa)
#
#
# Indices 1 2 3 4 5 6 
#
# 1 93.3872 8.9524 10.4865 -3.6467 -8.8640 14.6095
# 2 8.9524 78.4238 17.3131 -20.9683 -2.0564 22.4793
# 3 10.4865 17.3131 56.8857 -17.7066 16.9814 1.9757
# 4 -3.6467 -20.9683 -17.7066 32.0524 3.1263 -10.5850
# 5 -8.8640 -2.0564 16.9814 3.1263 47.2053 1.8579
# 6 14.6095 22.4793 1.9757 -10.5850 1.8579 29.3940
#
#
#
# Elastic Compliance Matrix: (Units=1/GPa)
#
#
# Indices 1 2 3 4 5 6 
#
# 1 0.012840 0.001245 -0.005128 -0.003912 0.004912 -0.008709
# 2 0.001245 0.018880 -0.004754 0.005280 0.002929 -0.013022
# 3 -0.005128 -0.004754 0.028880 0.017273 -0.013148 0.011294
# 4 -0.003912 0.005280 0.017273 0.049863 -0.010626 0.015373
# 5 0.004912 0.002929 -0.013148 -0.010626 0.028037 -0.009396
# 6 -0.008709 -0.013022 0.011294 0.015373 -0.009396 0.053678
#
#
# Mechanical properties :
#
#
# Convention : Reuss Voigt Hill
#
# Bulk Modulus (GPa) = 23.08007 33.57787 28.32897
# Shear Modulus (GPa) = 22.33193 34.52666 28.42929
#
# Velocity S-wave (km/s) = 3.06654 3.81296 3.45993
# Velocity P-wave (km/s) = 4.71772 5.78999 5.28114
#
# Compressibility (1/GPa) = 0.04332742
#
# Stress axis : x y z
#
# Youngs Moduli (GPa) = 77.87934 52.96692 34.62565
#
# Poissons Ratio (x) = -0.06596 0.17754
# Poissons Ratio (y) = -0.09698 0.16462
# Poissons Ratio (z) = 0.39933 0.25182
#
# Static dielectric constant tensor:
#      x y z
#    x 1.891690 0.016020 0.024950 
#    y 0.016020 1.902870 0.050770 
#    z 0.024950 0.050770 1.952370 
# 
# From -- ./inp_files/48701.got.cif
#   From: 2010.05.17/outbox.cif.g08.bks.cpg/sg2_25_cif.got.tgz:48701.got - 2010.06.03 11:33:40.
