data_PCOD9111010
_publ_section_title
;
Structure prediction by ZEFSAII (Michael W. Deem and Ramdas Pophale) SiO2 
 PCOD9111010
Probable space group: P -1
;
_chemical_formula_sum "Si O2"
_cell_formula_units_Z 16
_cell_length_a 12.279367
_cell_length_b 8.761127
_cell_length_c 14.057290
_cell_angle_alpha 74.761392
_cell_angle_beta 114.352451
_cell_angle_gamma 49.332037
_cell_volume 667.720242
_symmetry_space_group_name_H-M "P -1"
_symmetry_group_IT_number 2
_symmetry_cell_setting 'triclinic'
loop_
_space_group_symop_operation_xyz
x,y,z
-x,-y,-z
loop_
_atom_site_type_symbol
_atom_site_label
_atom_site_fract_x
_atom_site_fract_y
_atom_site_fract_z
Si Si1 0.098847 0.727667 0.842839
Si Si2 0.022935 0.119899 0.661305
Si Si3 0.375811 0.184245 0.661933
Si Si4 0.737190 0.293150 0.903844
Si Si5 0.866361 0.665847 0.824756
Si Si6 0.744744 0.629346 0.203493
Si Si7 0.251237 0.978988 0.591591
Si Si8 0.198437 0.095692 0.910710
O O1 0.290073 0.464556 0.873406
O O2 0.941846 0.752642 0.801411
O O3 0.944880 0.042961 0.688841
O O4 0.228827 0.640330 0.998821
O O5 0.164010 0.038334 0.811172
O O6 0.816914 0.474960 0.502427
O O7 0.174039 0.937742 0.649045
O O8 0.404606 0.194909 0.781626
O O9 0.597275 0.950362 0.710961
O O10 0.289906 0.102118 0.638620
O O11 0.512490 0.621298 0.710899
O O12 0.690933 0.162737 0.936527
O O13 0.000000 0.000000 0.000000
O O14 0.957323 0.427070 0.824848
O O15 0.000000 0.500000 0.000000
O O16 0.721597 0.823118 0.110342
O O17 0.021774 0.278567 0.394019
#
# Coordination Sequence:
#
# PCOD9111010 Si02
#       8
#     2   2   2   2   2   2   2   2
#     4  10  24  44  63  97 136 161 224 266 325 385
#     4  10  21  42  66  99 124 165 222 275 317 386
#     4  11  21  40  71  92 132 172 216 263 338 380
#     4  11  24  45  65  94 136 176 211 267 336 389
#     4  11  24  44  60  93 135 176 211 265 329 398
#     4  10  21  45  68 100 124 170 222 276 317 386
#     4  11  21  41  72  98 129 168 226 266 329 383
#     4  10  20  42  68  90 126 164 225 259 315 388
#
# _framework density 23.962129999999998
#
# number of rings (size 3 to 8) (size 9 to 14) (size 15 to 20)
#    0.000    1.500    2.500    3.000    0.000    5.000 
#   22.500    1.875    0.000    0.000    0.000    0.000 
#    0.000    0.000    0.000    0.000    0.000    0.000 
#
# Total GULP energy -89420.762848 kJ/mol
# GULP energy per Si atom -5588.797678 kJ/mol
# Density = 2.390759 g / cm^3
# Si number density = 23.962130 Si / 1000 Ang^3
#
#
#
# Elastic Constant Matrix: (Units=GPa)
#
#
# Indices 1 2 3 4 5 6 
#
# 1 113.2639 25.1245 34.6808 -1.7027 -23.8055 7.4676
# 2 25.1245 86.7274 27.1851 -7.9087 6.5426 -0.3815
# 3 34.6808 27.1851 99.8459 -21.1772 -16.7717 -3.5564
# 4 -1.7027 -7.9087 -21.1772 40.8425 1.5033 4.3209
# 5 -23.8055 6.5426 -16.7717 1.5033 39.2017 -9.1436
# 6 7.4676 -0.3815 -3.5564 4.3209 -9.1436 37.0599
#
#
#
# Elastic Compliance Matrix: (Units=1/GPa)
#
#
# Indices 1 2 3 4 5 6 
#
# 1 0.011690 -0.003251 -0.002453 -0.001562 0.006454 -0.000850
# 2 -0.003251 0.014154 -0.003571 0.001108 -0.006186 -0.001197
# 3 -0.002453 -0.003571 0.014139 0.006075 0.005497 0.002462
# 4 -0.001562 0.001108 0.006075 0.028044 -0.000170 -0.002403
# 5 0.006454 -0.006186 0.005497 -0.000170 0.034621 0.007725
# 6 -0.000850 -0.001197 0.002462 -0.002403 0.007725 0.029565
#
#
# Mechanical properties :
#
#
# Convention : Reuss Voigt Hill
#
# Bulk Modulus (GPa) = 46.65582 52.64646 49.65114
# Shear Modulus (GPa) = 31.66423 37.61061 34.63742
#
# Velocity S-wave (km/s) = 3.63909 3.96610 3.80611
# Velocity P-wave (km/s) = 6.09674 6.55680 6.33095
#
# Compressibility (1/GPa) = 0.02143355
#
# Stress axis : x y z
#
# Youngs Moduli (GPa) = 85.54307 70.65163 70.72468
#
# Poissons Ratio (x) = 0.22967 0.17348
# Poissons Ratio (y) = 0.27807 0.25258
# Poissons Ratio (z) = 0.20982 0.25232
#
# Static dielectric constant tensor:
#      x y z
#    x 1.851050 -0.014200 0.039640 
#    y -0.014200 1.950500 -0.038470 
#    z 0.039640 -0.038470 1.958890 
# 
# From -- ./inp_files/223193.got.cif
#   From: 2010.05.17/outbox.cif.g08.bks.cpg/sg2_112_cif.got.tgz:223193.got - 2010.06.03 11:33:40.
