data_PCOD9111552
_publ_section_title
;
Structure prediction by ZEFSAII (Michael W. Deem and Ramdas Pophale) SiO2 
 PCOD9111552
Probable space group: P -1
;
_chemical_formula_sum "Si O2"
_cell_formula_units_Z 16
_cell_length_a 11.975531
_cell_length_b 12.996876
_cell_length_c 17.283402
_cell_angle_alpha 155.030680
_cell_angle_beta 123.687463
_cell_angle_gamma 72.921042
_cell_volume 759.143670
_symmetry_space_group_name_H-M "P -1"
_symmetry_group_IT_number 2
_symmetry_cell_setting 'triclinic'
loop_
_space_group_symop_operation_xyz
x,y,z
-x,-y,-z
loop_
_atom_site_type_symbol
_atom_site_label
_atom_site_fract_x
_atom_site_fract_y
_atom_site_fract_z
Si Si1 0.331124 0.983252 0.987818
Si Si2 0.975516 0.814842 0.789474
Si Si3 0.125194 0.753812 0.320185
Si Si4 0.338646 0.811791 0.707563
Si Si5 0.434770 0.198294 0.630941
Si Si6 0.068835 0.198410 0.849381
Si Si7 0.708060 0.865653 0.208950
Si Si8 0.768405 0.680018 0.469668
O O1 0.157859 0.931706 0.906895
O O2 0.364747 0.013911 0.929900
O O3 0.297077 0.666649 0.786749
O O4 0.516493 0.238873 0.266482
O O5 0.851180 0.472568 0.541218
O O6 0.864553 0.821718 0.684455
O O7 0.000000 0.000000 0.000000
O O8 0.970826 0.696436 0.173504
O O9 0.283421 0.990441 0.489451
O O10 0.159564 0.915566 0.525630
O O11 0.105486 0.440196 0.093642
O O12 0.360561 0.959317 0.733750
O O13 0.367998 0.272437 0.579841
O O14 0.500000 0.000000 0.500000
O O15 0.567899 0.519883 0.942783
O O16 0.213565 0.178692 0.866199
O O17 0.913233 0.868374 0.590161
#
# Coordination Sequence:
#
# PCOD9111552 Si02
#       8
#     2   2   2   2   2   2   2   2
#     4  10  20  43  66  91 128 169 213 263 321 402
#     4  11  24  41  62 101 133 163 214 276 324 390
#     4  10  23  38  58  89 122 164 216 264 314 384
#     4  10  22  39  67  94 123 167 219 256 326 394
#     4  11  22  42  61  90 129 168 212 265 325 381
#     4  10  21  39  61  85 124 166 209 265 321 380
#     4  12  21  39  65  92 121 167 216 263 322 387
#     4  10  21  42  64  86 125 173 206 258 335 381
#
# _framework density 21.076378999999999
#
# number of rings (size 3 to 8) (size 9 to 14) (size 15 to 20)
#    0.000    1.500    2.500    3.750    1.750    0.500 
#    2.250    0.000    0.000    0.000    0.000    0.000 
#    0.000    0.000    0.000    0.000    0.000    0.000 
#
# Total GULP energy -89132.131831 kJ/mol
# GULP energy per Si atom -5570.758239 kJ/mol
# Density = 2.102841 g / cm^3
# Si number density = 21.076379 Si / 1000 Ang^3
#
#
#
# Elastic Constant Matrix: (Units=GPa)
#
#
# Indices 1 2 3 4 5 6 
#
# 1 71.2496 9.8773 30.9780 -3.3486 7.6748 -8.8892
# 2 9.8773 69.2956 10.1810 1.0846 -11.6670 -10.8020
# 3 30.9780 10.1810 42.4914 -5.5765 7.0917 -5.2440
# 4 -3.3486 1.0846 -5.5765 24.2608 6.3512 12.9485
# 5 7.6748 -11.6670 7.0917 6.3512 27.1420 4.1058
# 6 -8.8892 -10.8020 -5.2440 12.9485 4.1058 22.5492
#
#
#
# Elastic Compliance Matrix: (Units=1/GPa)
#
#
# Indices 1 2 3 4 5 6 
#
# 1 0.021539 -0.000046 -0.014837 -0.003899 -0.002488 0.007711
# 2 -0.000046 0.019380 -0.006439 -0.011961 0.010911 0.012649
# 3 -0.014837 -0.006439 0.038740 0.012829 -0.010894 -0.005308
# 4 -0.003899 -0.011961 0.012829 0.071180 -0.017703 -0.041934
# 5 -0.002488 0.010911 -0.010894 -0.017703 0.048772 0.002998
# 6 0.007711 0.012649 -0.005308 -0.041934 0.002998 0.075746
#
#
# Mechanical properties :
#
#
# Convention : Reuss Voigt Hill
#
# Bulk Modulus (GPa) = 27.01629 31.67878 29.34754
# Shear Modulus (GPa) = 15.13596 23.59043 19.36319
#
# Velocity S-wave (km/s) = 2.68274 3.34920 3.03432
# Velocity P-wave (km/s) = 4.73732 5.47898 5.12159
#
# Compressibility (1/GPa) = 0.03701470
#
# Stress axis : x y z
#
# Youngs Moduli (GPa) = 46.42755 51.60049 25.81288
#
# Poissons Ratio (x) = 0.00238 0.38298
# Poissons Ratio (y) = 0.00214 0.16622
# Poissons Ratio (z) = 0.68883 0.33227
#
# Static dielectric constant tensor:
#      x y z
#    x 1.731900 -0.060970 0.134180 
#    y -0.060970 1.894910 0.043910 
#    z 0.134180 0.043910 1.548180 
# 
# From -- ./inp_files/308862.got.cif
#   From: 2010.05.17/outbox.cif.g08.bks.cpg/sg2_155_cif.got.tgz:308862.got - 2010.06.03 11:33:40.
