data_PCOD9111047
_publ_section_title
;
Structure prediction by ZEFSAII (Michael W. Deem and Ramdas Pophale) SiO2 
 PCOD9111047
Probable space group: P -1
;
_chemical_formula_sum "Si O2"
_cell_formula_units_Z 13
_cell_length_a 6.940048
_cell_length_b 16.699729
_cell_length_c 9.452749
_cell_angle_alpha 151.044853
_cell_angle_beta 69.774020
_cell_angle_gamma 105.584052
_cell_volume 496.290985
_symmetry_space_group_name_H-M "P -1"
_symmetry_group_IT_number 2
_symmetry_cell_setting 'triclinic'
loop_
_space_group_symop_operation_xyz
x,y,z
-x,-y,-z
loop_
_atom_site_type_symbol
_atom_site_label
_atom_site_fract_x
_atom_site_fract_y
_atom_site_fract_z
Si Si1 0.925178 0.319037 0.200386
Si Si2 0.539781 0.668972 0.608890
Si Si3 0.986660 0.271090 0.785036
Si Si4 0.388889 0.107775 0.487501
Si Si5 0.362733 0.213275 0.956295
Si Si6 0.701016 0.466735 0.992886
Si Si7 0.500000 0.000000 0.000000
O O1 0.000000 0.500000 0.500000
O O2 0.707076 0.298012 0.295215
O O3 0.899091 0.296578 0.004154
O O4 0.119022 0.193305 0.000905
O O5 0.642391 0.539385 0.274627
O O6 0.617889 0.847013 0.821569
O O7 0.594248 0.644952 0.723291
O O8 0.149274 0.111066 0.505354
O O9 0.132326 0.421014 0.947818
O O10 0.819195 0.289059 0.729961
O O11 0.391332 0.236392 0.816548
O O12 0.478374 0.937591 0.271964
O O13 0.500721 0.120778 0.330470
O O14 0.500000 0.500000 0.000000
#
# Coordination Sequence:
#
# PCOD9111047 Si02
#       7
#     2   2   2   2   2   2   1
#     4  11  23  41  66 103 134 175 228 276 338 407
#     4  11  23  42  69  99 135 179 223 282 335 401
#     4  10  22  40  63  93 135 172 218 282 330 395
#     4   9  18  41  66  94 130 181 215 280 332 401
#     4   9  21  40  69  94 138 173 227 273 340 405
#     4  11  23  40  64  98 133 179 224 273 342 399
#     4  10  20  42  68  94 138 170 224 274 336 394
#
# _framework density 26.194307999999999
#
# number of rings (size 3 to 8) (size 9 to 14) (size 15 to 20)
#    0.000    1.846    1.538    1.846    0.000    6.154 
#    0.000   25.385    0.000    0.000    0.000    0.000 
#    0.000    0.000    0.000    0.000    0.000    0.000 
#
# Total GULP energy -72394.950286 kJ/mol
# GULP energy per Si atom -5568.842330 kJ/mol
# Density = 2.613469 g / cm^3
# Si number density = 26.194308 Si / 1000 Ang^3
#
#
#
# Elastic Constant Matrix: (Units=GPa)
#
#
# Indices 1 2 3 4 5 6 
#
# 1 139.8357 44.6339 17.8763 6.9108 -23.3365 -38.9977
# 2 44.6339 81.7459 40.4786 -24.1134 -7.5324 -33.2564
# 3 17.8763 40.4786 98.3572 -18.9136 9.5839 -16.2784
# 4 6.9108 -24.1134 -18.9136 48.7689 -19.7154 -11.1615
# 5 -23.3365 -7.5324 9.5839 -19.7154 58.2439 1.8628
# 6 -38.9977 -33.2564 -16.2784 -11.1615 1.8628 51.3372
#
#
#
# Elastic Compliance Matrix: (Units=1/GPa)
#
#
# Indices 1 2 3 4 5 6 
#
# 1 0.010301 -0.003097 -0.000074 -0.000348 0.003442 0.005595
# 2 -0.003097 0.035716 -0.006344 0.026195 0.012521 0.024013
# 3 -0.000074 -0.006344 0.013316 0.001031 -0.002704 0.000379
# 4 -0.000348 0.026195 0.001031 0.047397 0.018269 0.026674
# 5 0.003442 0.012521 -0.002704 0.018269 0.026385 0.012883
# 6 0.005595 0.024013 0.000379 0.026674 0.012883 0.044737
#
#
# Mechanical properties :
#
#
# Convention : Reuss Voigt Hill
#
# Bulk Modulus (GPa) = 24.81250 58.43514 41.62382
# Shear Modulus (GPa) = 23.77372 46.13335 34.95354
#
# Velocity S-wave (km/s) = 3.01589 4.20122 3.65690
# Velocity P-wave (km/s) = 4.64979 6.77424 5.80994
#
# Compressibility (1/GPa) = 0.04030226
#
# Stress axis : x y z
#
# Youngs Moduli (GPa) = 97.07534 27.99880 75.09819
#
# Poissons Ratio (x) = 0.08672 0.00555
# Poissons Ratio (y) = 0.30065 0.47645
# Poissons Ratio (z) = 0.00718 0.17763
#
# Static dielectric constant tensor:
#      x y z
#    x 2.121040 0.068100 0.016840 
#    y 0.068100 2.114220 0.082550 
#    z 0.016840 0.082550 2.089780 
# 
# From -- ./inp_files/60558.got.cif
#   From: 2010.05.17/outbox.cif.g08.bks.cpg/sg2_31_cif.got.tgz:60558.got - 2010.06.03 11:33:40.
