data_PCOD9111565
_publ_section_title
;
Structure prediction by ZEFSAII (Michael W. Deem and Ramdas Pophale) SiO2 
 PCOD9111565
Probable space group: P -1
;
_chemical_formula_sum "Si O2"
_cell_formula_units_Z 16
_cell_length_a 7.724077
_cell_length_b 11.437504
_cell_length_c 27.106230
_cell_angle_alpha 146.837227
_cell_angle_beta 37.168411
_cell_angle_gamma 123.998357
_cell_volume 748.041290
_symmetry_space_group_name_H-M "P -1"
_symmetry_group_IT_number 2
_symmetry_cell_setting 'triclinic'
loop_
_space_group_symop_operation_xyz
x,y,z
-x,-y,-z
loop_
_atom_site_type_symbol
_atom_site_label
_atom_site_fract_x
_atom_site_fract_y
_atom_site_fract_z
Si Si1 0.058463 0.235776 0.381725
Si Si2 0.298947 0.913413 0.861148
Si Si3 0.048842 0.612039 0.872805
Si Si4 0.768592 0.478186 0.086122
Si Si5 0.344510 0.931791 0.375709
Si Si6 0.237992 0.104554 0.635167
Si Si7 0.831019 0.990813 0.906547
Si Si8 0.693922 0.240318 0.366292
O O1 0.410000 0.139670 0.256879
O O2 0.000000 0.500000 0.500000
O O3 0.885307 0.214485 0.363606
O O4 0.959145 0.064968 0.379428
O O5 0.303782 0.708106 0.824395
O O6 0.022847 0.948061 0.898334
O O7 0.238219 0.159098 0.986730
O O8 0.094508 0.562650 0.903563
O O9 0.060986 0.372685 0.762079
O O10 0.461555 0.689718 0.235948
O O11 0.745283 0.240720 0.992734
O O12 0.000000 0.500000 0.000000
O O13 0.571612 0.905996 0.361426
O O14 0.452741 0.102934 0.376763
O O15 0.000000 0.000000 0.500000
O O16 0.500000 0.000000 0.500000
O O17 0.060049 0.830713 0.758553
O O18 0.500000 0.000000 0.000000
O O19 0.500000 0.500000 0.500000
#
# Coordination Sequence:
#
# PCOD9111565 Si02
#       8
#     2   2   2   2   2   2   2   2
#     4  11  24  42  66  90 132 176 219 275 323 389
#     4  10  22  42  65  95 133 171 217 263 338 393
#     4   9  21  39  66  93 128 166 215 261 322 396
#     4  10  20  43  66  93 133 168 211 269 330 394
#     4  10  23  42  64  93 128 167 213 269 325 387
#     4  10  22  42  62  92 126 169 218 264 322 385
#     4  11  25  42  67  98 133 172 218 275 332 393
#     4  11  25  41  65  98 130 169 224 270 327 395
#
# _framework density 21.389192000000001
#
# number of rings (size 3 to 8) (size 9 to 14) (size 15 to 20)
#    0.000    1.750    1.250    1.500    7.000    4.500 
#    0.000    0.000    0.000    0.000    0.000    0.000 
#    0.000    0.000    0.000    0.000    0.000    0.000 
#
# Total GULP energy -89120.364934 kJ/mol
# GULP energy per Si atom -5570.022808 kJ/mol
# Density = 2.134051 g / cm^3
# Si number density = 21.389192 Si / 1000 Ang^3
#
#
#
# Elastic Constant Matrix: (Units=GPa)
#
#
# Indices 1 2 3 4 5 6 
#
# 1 52.5664 25.9171 20.6879 -5.9086 -3.6939 5.9787
# 2 25.9171 201.0753 109.6263 -13.6315 -0.9281 4.5695
# 3 20.6879 109.6263 214.9858 -7.1989 9.3428 12.6532
# 4 -5.9086 -13.6315 -7.1989 49.2640 6.1335 -2.1149
# 5 -3.6939 -0.9281 9.3428 6.1335 32.6122 -8.7748
# 6 5.9787 4.5695 12.6532 -2.1149 -8.7748 26.8188
#
#
#
# Elastic Compliance Matrix: (Units=1/GPa)
#
#
# Indices 1 2 3 4 5 6 
#
# 1 0.021013 -0.002113 -0.000751 0.001514 0.001332 -0.003415
# 2 -0.002113 0.007254 -0.003590 0.001145 0.001156 0.001397
# 3 -0.000751 -0.003590 0.006901 0.000166 -0.003134 -0.003490
# 4 0.001514 0.001145 0.000166 0.021299 -0.003905 -0.000209
# 5 0.001332 0.001156 -0.003134 -0.003905 0.035815 0.012395
# 6 -0.003415 0.001397 -0.003490 -0.000209 0.012395 0.043496
#
#
# Mechanical properties :
#
#
# Convention : Reuss Voigt Hill
#
# Bulk Modulus (GPa) = 44.92081 86.78781 65.85431
# Shear Modulus (GPa) = 32.02981 42.56541 37.29761
#
# Velocity S-wave (km/s) = 3.87392 4.46583 4.18037
# Velocity P-wave (km/s) = 6.40757 8.20092 7.35908
#
# Compressibility (1/GPa) = 0.02226140
#
# Stress axis : x y z
#
# Youngs Moduli (GPa) = 47.59006 137.85617 144.89836
#
# Poissons Ratio (x) = 0.29124 0.10881
# Poissons Ratio (y) = 0.10054 0.52015
# Poissons Ratio (z) = 0.03574 0.49487
#
# Static dielectric constant tensor:
#      x y z
#    x 1.798480 -0.018870 0.049940 
#    y -0.018870 1.779030 0.034710 
#    z 0.049940 0.034710 1.772160 
# 
# From -- ./inp_files/622501.got.cif
#   From: 2010.05.17/outbox.cif.g08.bks.cpg/sg2_312_cif.got.tgz:622501.got - 2010.06.03 11:33:40.
