data_PCOD9111869
_publ_section_title
;
Structure prediction by ZEFSAII (Michael W. Deem and Ramdas Pophale) SiO2 
 PCOD9111869
Probable space group: P -1
;
_chemical_formula_sum "Si O2"
_cell_formula_units_Z 12
_cell_length_a 9.524559
_cell_length_b 7.235993
_cell_length_c 9.364034
_cell_angle_alpha 72.212088
_cell_angle_beta 57.323312
_cell_angle_gamma 86.832753
_cell_volume 512.388166
_symmetry_space_group_name_H-M "P -1"
_symmetry_group_IT_number 2
_symmetry_cell_setting 'triclinic'
loop_
_space_group_symop_operation_xyz
x,y,z
-x,-y,-z
loop_
_atom_site_type_symbol
_atom_site_label
_atom_site_fract_x
_atom_site_fract_y
_atom_site_fract_z
Si Si1 0.268484 0.584837 0.766964
Si Si2 0.847729 0.829232 0.588689
Si Si3 0.181782 0.232713 0.715932
Si Si4 0.516725 0.294003 0.119288
Si Si5 0.943002 0.712805 0.831360
Si Si6 0.811742 0.067322 0.979538
O O1 0.285844 0.434609 0.664837
O O2 0.426998 0.670257 0.753779
O O3 0.142042 0.729328 0.745080
O O4 0.159601 0.450191 0.976120
O O5 0.826691 0.787733 0.443613
O O6 0.661241 0.844017 0.745919
O O7 0.904005 0.661499 0.700009
O O8 0.000000 0.000000 0.500000
O O9 0.241766 0.058906 0.818380
O O10 0.984331 0.213188 0.877335
O O11 0.661158 0.185252 0.994449
O O12 0.500000 0.500000 0.000000
O O13 0.869000 0.909478 0.874898
#
# Coordination Sequence:
#
# PCOD9111869 Si02
#       6
#     2   2   2   2   2   2
#     4  10  21  42  71 100 134 182 226 276 337 415
#     4  12  26  45  66 106 142 175 230 288 341 393
#     4  10  22  42  72 101 137 182 225 277 350 407
#     4  12  26  44  71 103 139 176 234 285 335 403
#     4  10  20  43  73 100 134 179 229 275 341 408
#     4  10  21  42  72  98 131 190 228 266 341 422
#
# _framework density 23.419746
#
# number of rings (size 3 to 8) (size 9 to 14) (size 15 to 20)
#    0.000    1.333    3.333    4.000    0.000    2.667 
#    0.000    0.000    0.000    0.000    0.000    0.000 
#    0.000    0.000    0.000    0.000    0.000    0.000 
#
# Total GULP energy -66981.717371 kJ/mol
# GULP energy per Si atom -5581.809781 kJ/mol
# Density = 2.336644 g / cm^3
# Si number density = 23.419746 Si / 1000 Ang^3
#
#
#
# Elastic Constant Matrix: (Units=GPa)
#
#
# Indices 1 2 3 4 5 6 
#
# 1 168.4491 50.9313 42.1760 0.3155 1.8300 -1.9278
# 2 50.9313 92.0837 26.8257 10.5344 -5.1987 -12.7252
# 3 42.1760 26.8257 75.6578 4.3535 23.5241 -3.5840
# 4 0.3155 10.5344 4.3535 9.7016 12.6472 -2.2835
# 5 1.8300 -5.1987 23.5241 12.6472 57.0960 -1.0176
# 6 -1.9278 -12.7252 -3.5840 -2.2835 -1.0176 51.3051
#
#
#
# Elastic Compliance Matrix: (Units=1/GPa)
#
#
# Indices 1 2 3 4 5 6 
#
# 1 0.008060 -0.004581 -0.002990 0.007271 -0.001067 -0.000740
# 2 -0.004581 0.020278 -0.006323 -0.034254 0.012242 0.003134
# 3 -0.002990 -0.006323 0.019988 0.013174 -0.011632 0.000071
# 4 0.007271 -0.034254 0.013174 0.204889 -0.054151 0.000743
# 5 -0.001067 0.012242 -0.011632 -0.054151 0.035459 0.000477
# 6 -0.000740 0.003134 0.000071 0.000743 0.000477 0.020288
#
#
# Mechanical properties :
#
#
# Convention : Reuss Voigt Hill
#
# Bulk Modulus (GPa) = 48.69104 64.00628 56.34866
# Shear Modulus (GPa) = 14.55192 38.03773 26.29482
#
# Velocity S-wave (km/s) = 2.49540 4.03448 3.35440
# Velocity P-wave (km/s) = 5.39800 7.00657 6.25422
#
# Compressibility (1/GPa) = 0.02053766
#
# Stress axis : x y z
#
# Youngs Moduli (GPa) = 124.07198 49.31379 50.02900
#
# Poissons Ratio (x) = 0.22591 0.14960
# Poissons Ratio (y) = 0.56838 0.31634
# Poissons Ratio (z) = 0.37102 0.31181
#
# Static dielectric constant tensor:
#      x y z
#    x 1.951760 0.012760 0.050910 
#    y 0.012760 1.983980 -0.020330 
#    z 0.050910 -0.020330 1.953760 
# 
# From -- ./inp_files/146166.got.cif
#   From: 2010.05.17/outbox.cif.g08.bks.cpg/sg2_74_cif.got.tgz:146166.got - 2010.06.03 11:33:40.
