data_PCOD9111435
_publ_section_title
;
Structure prediction by ZEFSAII (Michael W. Deem and Ramdas Pophale) SiO2 
 PCOD9111435
Probable space group: P -1
;
_chemical_formula_sum "Si O2"
_cell_formula_units_Z 16
_cell_length_a 10.899117
_cell_length_b 27.771824
_cell_length_c 6.630002
_cell_angle_alpha 134.952027
_cell_angle_beta 58.473612
_cell_angle_gamma 149.404549
_cell_volume 702.313254
_symmetry_space_group_name_H-M "P -1"
_symmetry_group_IT_number 2
_symmetry_cell_setting 'triclinic'
loop_
_space_group_symop_operation_xyz
x,y,z
-x,-y,-z
loop_
_atom_site_type_symbol
_atom_site_label
_atom_site_fract_x
_atom_site_fract_y
_atom_site_fract_z
Si Si1 0.338540 0.661454 0.512714
Si Si2 0.719937 0.613590 0.786197
Si Si3 0.810217 0.519363 0.633325
Si Si4 0.972855 0.921419 0.160397
Si Si5 0.488912 0.329978 0.000875
Si Si6 0.279985 0.831237 0.831013
Si Si7 0.618844 0.982051 0.632081
Si Si8 0.671451 0.905324 0.976731
O O1 0.300913 0.570820 0.363567
O O2 0.366102 0.663112 0.254766
O O3 0.586471 0.795532 0.767490
O O4 0.101174 0.613249 0.649001
O O5 0.500000 0.500000 0.500000
O O6 0.745965 0.575037 0.847155
O O7 0.989087 0.707453 0.731511
O O8 0.660592 0.671214 0.007618
O O9 0.683830 0.441292 0.308415
O O10 0.709111 0.786740 0.038614
O O11 0.171775 0.947688 0.169013
O O12 0.080395 0.982928 0.031576
O O13 0.000000 0.000000 0.500000
O O14 0.366037 0.871471 0.644511
O O15 0.450389 0.841705 0.824550
O O16 0.352232 0.927898 0.176774
O O17 0.658487 0.946071 0.308306
#
# Coordination Sequence:
#
# PCOD9111435 Si02
#       8
#     2   2   2   2   2   2   2   2
#     4  11  23  42  65  95 129 164 215 265 310 380
#     4  10  21  43  66  90 125 167 212 264 316 369
#     4  10  24  43  64  91 125 168 224 258 310 375
#     4  11  23  39  61  92 128 161 204 256 321 384
#     4  11  23  43  67  91 129 171 205 266 325 372
#     4  10  20  43  63  89 127 161 214 258 311 382
#     4  10  23  39  64  91 123 168 206 259 315 377
#     4  11  23  39  65  94 126 164 210 260 317 380
#
# _framework density 22.781856999999999
#
# number of rings (size 3 to 8) (size 9 to 14) (size 15 to 20)
#    0.000    1.500    3.750    0.750    1.750    2.000 
#    9.000    1.250    0.000    0.000    0.000    0.000 
#    0.000    0.000    0.000    0.000    0.000    0.000 
#
# Total GULP energy -89348.942778 kJ/mol
# GULP energy per Si atom -5584.308924 kJ/mol
# Density = 2.273000 g / cm^3
# Si number density = 22.781857 Si / 1000 Ang^3
#
#
#
# Elastic Constant Matrix: (Units=GPa)
#
#
# Indices 1 2 3 4 5 6 
#
# 1 64.8878 24.2101 -26.0881 8.3348 11.8279 -11.0527
# 2 24.2101 175.0249 44.5298 5.3647 8.7823 -0.9036
# 3 -26.0881 44.5298 65.8023 -13.3268 4.1155 -5.6145
# 4 8.3348 5.3647 -13.3268 33.2284 -1.3340 -3.5341
# 5 11.8279 8.7823 4.1155 -1.3340 16.2595 10.8247
# 6 -11.0527 -0.9036 -5.6145 -3.5341 10.8247 37.8719
#
#
#
# Elastic Compliance Matrix: (Units=1/GPa)
#
#
# Indices 1 2 3 4 5 6 
#
# 1 0.060910 -0.016052 0.045395 0.007400 -0.077856 0.047067
# 2 -0.016052 0.011601 -0.017515 -0.005498 0.017781 -0.012600
# 3 0.045395 -0.017515 0.055629 0.015530 -0.063436 0.040658
# 4 0.007400 -0.005498 0.015530 0.036071 -0.010509 0.010700
# 5 -0.077856 0.017781 -0.063436 -0.010509 0.179678 -0.084039
# 6 0.047067 -0.012600 0.040658 0.010700 -0.084039 0.070887
#
#
# Mechanical properties :
#
#
# Convention : Reuss Voigt Hill
#
# Bulk Modulus (GPa) = 6.58781 43.44651 25.01716
# Shear Modulus (GPa) = 11.31942 35.00952 23.16447
#
# Velocity S-wave (km/s) = 2.23146 3.92436 3.19218
# Velocity P-wave (km/s) = 3.08823 6.29653 4.95900
#
# Compressibility (1/GPa) = 0.15179562
#
# Stress axis : x y z
#
# Youngs Moduli (GPa) = 16.41776 86.19701 17.97614
#
# Poissons Ratio (x) = 1.38362 -0.81603
# Poissons Ratio (y) = 0.26354 0.31486
# Poissons Ratio (z) = -0.74528 1.50978
#
# Static dielectric constant tensor:
#      x y z
#    x 2.004920 -0.040440 -0.066970 
#    y -0.040440 1.864200 -0.007940 
#    z -0.066970 -0.007940 1.905850 
# 
# From -- ./inp_files/85144.got.cif
#   From: 2010.05.17/outbox.cif.g08.bks.cpg/sg2_43_cif.got.tgz:85144.got - 2010.06.03 11:33:40.
