data_PCOD9111879
_publ_section_title
;
Structure prediction by ZEFSAII (Michael W. Deem and Ramdas Pophale) SiO2 
 PCOD9111879
Probable space group: P -1
;
_chemical_formula_sum "Si O2"
_cell_formula_units_Z 15
_cell_length_a 13.963896
_cell_length_b 7.095248
_cell_length_c 6.925924
_cell_angle_alpha 88.624922
_cell_angle_beta 71.053125
_cell_angle_gamma 113.951074
_cell_volume 583.422092
_symmetry_space_group_name_H-M "P -1"
_symmetry_group_IT_number 2
_symmetry_cell_setting 'triclinic'
loop_
_space_group_symop_operation_xyz
x,y,z
-x,-y,-z
loop_
_atom_site_type_symbol
_atom_site_label
_atom_site_fract_x
_atom_site_fract_y
_atom_site_fract_z
Si Si1 0.755201 0.159408 0.890090
Si Si2 0.193077 0.171396 0.903888
Si Si3 0.500000 0.000000 0.000000
Si Si4 0.351577 0.526065 0.547666
Si Si5 0.013868 0.543922 0.260842
Si Si6 0.422407 0.182359 0.414291
Si Si7 0.783157 0.218755 0.434412
Si Si8 0.984536 0.963022 0.283697
O O1 0.631855 0.143158 0.975837
O O2 0.856506 0.380894 0.881971
O O3 0.790584 0.140928 0.646563
O O4 0.760552 0.970507 0.009251
O O5 0.291788 0.395442 0.781691
O O6 0.133012 0.077609 0.738369
O O7 0.087599 0.149721 0.104392
O O8 0.545025 0.892753 0.802386
O O9 0.380728 0.363811 0.408660
O O10 0.470590 0.718477 0.516065
O O11 0.267010 0.609302 0.512560
O O12 0.906140 0.343323 0.257232
O O13 0.000000 0.500000 0.500000
O O14 0.994747 0.749763 0.234600
O O15 0.321606 0.979845 0.580976
O O16 0.000000 0.000000 0.500000
#
# Coordination Sequence:
#
# PCOD9111879 Si02
#       8
#     2   2   1   2   2   2   2   2
#     4   9  21  40  69 102 150 196 249 319 383 458
#     4  10  22  42  69 108 153 186 258 321 374 465
#     4  10  22  48  70 100 150 206 254 316 390 450
#     4  11  23  44  75 112 144 202 263 324 392 461
#     4   9  18  38  66 103 141 187 245 300 383 459
#     4  10  25  45  74 106 151 202 263 327 387 460
#     4  10  20  43  73 104 149 199 251 315 393 460
#     4  10  21  41  71 107 150 200 243 311 390 467
#
# _framework density 25.710370999999999
#
# number of rings (size 3 to 8) (size 9 to 14) (size 15 to 20)
#    0.000    2.133    1.333    0.400    0.000   10.667 
#    7.200    5.333    0.000    7.200    0.000    0.000 
#    0.000    0.000    0.000    0.000    0.000    0.000 
#
# Total GULP energy -83680.725101 kJ/mol
# GULP energy per Si atom -5578.715007 kJ/mol
# Density = 2.565185 g / cm^3
# Si number density = 25.710371 Si / 1000 Ang^3
#
#
#
# Elastic Constant Matrix: (Units=GPa)
#
#
# Indices 1 2 3 4 5 6 
#
# 1 165.1700 57.4198 63.4185 -21.9410 -51.1519 29.3335
# 2 57.4198 118.2717 21.9064 -7.4992 -18.7773 13.6979
# 3 63.4185 21.9064 115.9118 0.0504 0.2954 7.5034
# 4 -21.9410 -7.4992 0.0504 47.0127 2.4031 -7.1367
# 5 -51.1519 -18.7773 0.2954 2.4031 60.6098 -16.0232
# 6 29.3335 13.6979 7.5034 -7.1367 -16.0232 49.8088
#
#
#
# Elastic Compliance Matrix: (Units=1/GPa)
#
#
# Indices 1 2 3 4 5 6 
#
# 1 0.014137 -0.003367 -0.006974 0.005194 0.010092 -0.002358
# 2 -0.003367 0.010201 -0.000035 -0.000070 0.000113 -0.000791
# 3 -0.006974 -0.000035 0.012470 -0.002985 -0.005858 -0.000074
# 4 0.005194 -0.000070 -0.002985 0.023802 0.003989 0.002104
# 5 0.010092 0.000113 -0.005858 0.003989 0.025932 0.003822
# 6 -0.002358 -0.000791 -0.000074 0.002104 0.003822 0.023225
#
#
# Mechanical properties :
#
#
# Convention : Reuss Voigt Hill
#
# Bulk Modulus (GPa) = 62.27584 76.09365 69.18475
# Shear Modulus (GPa) = 36.79962 48.59351 42.69656
#
# Velocity S-wave (km/s) = 3.78738 4.35217 4.07956
# Velocity P-wave (km/s) = 6.58789 7.41053 7.01128
#
# Compressibility (1/GPa) = 0.01605759
#
# Stress axis : x y z
#
# Youngs Moduli (GPa) = 70.73821 98.02743 80.19038
#
# Poissons Ratio (x) = 0.33004 0.55921
# Poissons Ratio (y) = 0.23816 0.00280
# Poissons Ratio (z) = 0.49330 0.00342
#
# Static dielectric constant tensor:
#      x y z
#    x 2.077140 0.015030 -0.004360 
#    y 0.015030 2.074250 0.029040 
#    z -0.004360 0.029040 1.980670 
# 
# From -- ./inp_files/322603.got.cif
#   From: 2010.05.17/outbox.cif.g08.bks.cpg/sg2_162_cif.got.tgz:322603.got - 2010.06.03 11:33:40.
