data_PCOD9111437
_publ_section_title
;
Structure prediction by ZEFSAII (Michael W. Deem and Ramdas Pophale) SiO2 
 PCOD9111437
Probable space group: P -1
;
_chemical_formula_sum "Si O2"
_cell_formula_units_Z 14
_cell_length_a 24.025403
_cell_length_b 13.105989
_cell_length_c 12.493442
_cell_angle_alpha 32.128961
_cell_angle_beta 32.824252
_cell_angle_gamma 15.809837
_cell_volume 561.086299
_symmetry_space_group_name_H-M "P -1"
_symmetry_group_IT_number 2
_symmetry_cell_setting 'triclinic'
loop_
_space_group_symop_operation_xyz
x,y,z
-x,-y,-z
loop_
_atom_site_type_symbol
_atom_site_label
_atom_site_fract_x
_atom_site_fract_y
_atom_site_fract_z
Si Si1 0.436919 0.512070 0.202471
Si Si2 0.213872 0.232970 0.001607
Si Si3 0.887005 0.061007 0.219508
Si Si4 0.180036 0.565316 0.559382
Si Si5 0.957428 0.714935 0.601371
Si Si6 0.422174 0.184243 0.845963
Si Si7 0.539344 0.377643 0.386096
O O1 0.252627 0.955314 0.142915
O O2 0.500000 0.500000 0.000000
O O3 0.376814 0.388179 0.395556
O O4 0.584246 0.290889 0.264185
O O5 0.187828 0.398425 0.789957
O O6 0.402762 0.035231 0.931716
O O7 0.047444 0.474647 0.152410
O O8 0.804026 0.351690 0.181651
O O9 0.688948 0.280405 0.290179
O O10 0.002764 0.703516 0.415939
O O11 0.000000 0.000000 0.000000
O O12 0.110780 0.594055 0.532507
O O13 0.000000 0.000000 0.500000
O O14 0.704775 0.168075 0.608727
O O15 0.554076 0.142458 0.621024
O O16 0.500000 0.000000 0.000000
#
# Coordination Sequence:
#
# PCOD9111437 Si02
#       7
#     2   2   2   2   2   2   2
#     4  11  25  42  66  96 136 171 212 277 334 379
#     4  11  22  41  68  97 127 175 226 260 320 397
#     4  11  24  42  66  98 132 168 217 282 332 378
#     4  12  21  41  66  97 130 169 225 263 320 396
#     4  10  21  39  65  92 126 176 215 262 318 397
#     4  11  20  40  70  93 125 175 225 263 316 401
#     4  10  20  43  63  90 129 175 216 257 325 400
#
# _framework density 24.951598000000001
#
# number of rings (size 3 to 8) (size 9 to 14) (size 15 to 20)
#    0.000    1.143    4.286    5.571    2.000    0.571 
#    0.000    2.857    0.000    0.000    0.000    0.000 
#    0.000    0.000    0.000    0.000    0.000    0.000 
#
# Total GULP energy -78146.353462 kJ/mol
# GULP energy per Si atom -5581.882390 kJ/mol
# Density = 2.489481 g / cm^3
# Si number density = 24.951598 Si / 1000 Ang^3
#
#
#
# Elastic Constant Matrix: (Units=GPa)
#
#
# Indices 1 2 3 4 5 6 
#
# 1 137.7998 34.4676 69.3062 0.8195 -2.9461 -46.3441
# 2 34.4676 45.7998 27.7216 4.0708 3.3362 -6.4373
# 3 69.3062 27.7216 227.9240 -4.5885 24.2460 -16.6900
# 4 0.8195 4.0708 -4.5885 27.4942 -7.3255 9.1156
# 5 -2.9461 3.3362 24.2460 -7.3255 66.1381 -4.2505
# 6 -46.3441 -6.4373 -16.6900 9.1156 -4.2505 39.0742
#
#
#
# Elastic Compliance Matrix: (Units=1/GPa)
#
#
# Indices 1 2 3 4 5 6 
#
# 1 0.017904 -0.008309 -0.003411 -0.005697 0.003126 0.020078
# 2 -0.008309 0.028475 -0.001159 -0.002988 -0.002046 -0.005184
# 3 -0.003411 -0.001159 0.005649 0.001434 -0.002159 -0.002393
# 4 -0.005697 -0.002988 0.001434 0.043510 0.003134 -0.016446
# 5 0.003126 -0.002046 -0.002159 0.003134 0.016728 0.003537
# 6 0.020078 -0.005184 -0.002393 -0.016446 0.003537 0.051752
#
#
# Mechanical properties :
#
#
# Convention : Reuss Voigt Hill
#
# Bulk Modulus (GPa) = 38.06546 74.94603 56.50575
# Shear Modulus (GPa) = 25.18494 45.20985 35.19740
#
# Velocity S-wave (km/s) = 3.18048 4.26126 3.75991
# Velocity P-wave (km/s) = 5.36433 7.36973 6.44550
#
# Compressibility (1/GPa) = 0.02627053
#
# Stress axis : x y z
#
# Youngs Moduli (GPa) = 55.85362 35.11898 177.02867
#
# Poissons Ratio (x) = 0.29180 0.60377
# Poissons Ratio (y) = 0.46409 0.20515
# Poissons Ratio (z) = 0.19049 0.04070
#
# Static dielectric constant tensor:
#      x y z
#    x 1.910530 0.093490 0.042490 
#    y 0.093490 2.144290 -0.014510 
#    z 0.042490 -0.014510 2.067160 
# 
# From -- ./inp_files/475106.got.cif
#   From: 2010.05.17/outbox.cif.g08.bks.cpg/sg2_238_cif.got.tgz:475106.got - 2010.06.03 11:33:40.
