data_PCOD9111929
_publ_section_title
;
Structure prediction by ZEFSAII (Michael W. Deem and Ramdas Pophale) SiO2 
 PCOD9111929
Probable space group: P -1
;
_chemical_formula_sum "Si O2"
_cell_formula_units_Z 12
_cell_length_a 9.008782
_cell_length_b 9.425766
_cell_length_c 11.670611
_cell_angle_alpha 85.106520
_cell_angle_beta 144.856851
_cell_angle_gamma 111.290834
_cell_volume 488.391749
_symmetry_space_group_name_H-M "P -1"
_symmetry_group_IT_number 2
_symmetry_cell_setting 'triclinic'
loop_
_space_group_symop_operation_xyz
x,y,z
-x,-y,-z
loop_
_atom_site_type_symbol
_atom_site_label
_atom_site_fract_x
_atom_site_fract_y
_atom_site_fract_z
Si Si1 0.400243 0.634786 0.417126
Si Si2 0.625304 0.184370 0.025592
Si Si3 0.826856 0.512494 0.206921
Si Si4 0.022453 0.162770 0.641283
Si Si5 0.440181 0.854307 0.245923
Si Si6 0.177158 0.012779 0.227029
O O1 0.500000 0.500000 0.500000
O O2 0.455962 0.702203 0.318188
O O3 0.610082 0.795580 0.617357
O O4 0.051934 0.566126 0.235942
O O5 0.775850 0.195458 0.996806
O O6 0.350177 0.205707 0.808408
O O7 0.778312 0.329423 0.205632
O O8 0.500000 0.000000 0.000000
O O9 0.001006 0.673278 0.385622
O O10 0.500000 0.500000 0.000000
O O11 0.759970 0.018282 0.413477
O O12 0.995121 0.089871 0.759771
O O13 0.345657 0.921281 0.291909
O O14 0.000000 0.000000 0.000000
#
# Coordination Sequence:
#
# PCOD9111929 Si02
#       6
#     2   2   2   2   2   2
#     4  11  24  42  69 104 132 171 231 275 330 394
#     4  11  25  39  65  96 132 173 224 271 331 395
#     4  10  22  43  67  90 138 178 213 274 337 394
#     4  10  20  44  62  89 132 176 215 266 339 395
#     4  11  22  42  68  93 133 173 220 280 331 391
#     4  11  22  39  69  95 131 175 218 277 334 398
#
# _framework density 24.570439
#
# number of rings (size 3 to 8) (size 9 to 14) (size 15 to 20)
#    0.000    1.333    3.333    2.500    7.000    2.000 
#    0.000    2.500    0.000    0.000    0.000    0.000 
#    0.000    0.000    0.000    0.000    0.000    0.000 
#
# Total GULP energy -66855.637561 kJ/mol
# GULP energy per Si atom -5571.303130 kJ/mol
# Density = 2.451452 g / cm^3
# Si number density = 24.570439 Si / 1000 Ang^3
#
#
#
# Elastic Constant Matrix: (Units=GPa)
#
#
# Indices 1 2 3 4 5 6 
#
# 1 90.2862 35.3259 36.3665 7.1157 -5.3013 -11.4383
# 2 35.3259 203.4915 40.2895 25.0277 -30.3625 -21.5351
# 3 36.3665 40.2895 75.7402 2.2981 -11.8802 5.8757
# 4 7.1157 25.0277 2.2981 31.2197 0.2737 -3.4807
# 5 -5.3013 -30.3625 -11.8802 0.2737 49.8800 1.6938
# 6 -11.4383 -21.5351 5.8757 -3.4807 1.6938 31.8112
#
#
#
# Elastic Compliance Matrix: (Units=1/GPa)
#
#
# Indices 1 2 3 4 5 6 
#
# 1 0.015236 -0.000276 -0.007710 -0.001950 -0.000596 0.006534
# 2 -0.000276 0.007268 -0.003406 -0.005017 0.003451 0.004717
# 3 -0.007710 -0.003406 0.019644 0.002066 0.002067 -0.008590
# 4 -0.001950 -0.005017 0.002066 0.036333 -0.002957 -0.000346
# 5 -0.000596 0.003451 0.002067 -0.002957 0.022586 0.000214
# 6 0.006534 0.004717 -0.008590 -0.000346 0.000214 0.038516
#
#
# Mechanical properties :
#
#
# Convention : Reuss Voigt Hill
#
# Bulk Modulus (GPa) = 51.64120 65.94241 58.79180
# Shear Modulus (GPa) = 29.61722 39.75123 34.68423
#
# Velocity S-wave (km/s) = 3.47565 4.02661 3.76123
# Velocity P-wave (km/s) = 6.09673 6.96524 6.54540
#
# Compressibility (1/GPa) = 0.01936438
#
# Stress axis : x y z
#
# Youngs Moduli (GPa) = 65.63484 137.59794 50.90497
#
# Poissons Ratio (x) = 0.03799 0.39247
# Poissons Ratio (y) = 0.01812 0.17337
# Poissons Ratio (z) = 0.50603 0.46863
#
# Static dielectric constant tensor:
#      x y z
#    x 2.122960 -0.035510 0.089720 
#    y -0.035510 2.002600 -0.004360 
#    z 0.089720 -0.004360 2.004850 
# 
# From -- ./inp_files/149014.got.cif
#   From: 2010.05.17/outbox.cif.g08.bks.cpg/sg2_75_cif.got.tgz:149014.got - 2010.06.03 11:33:40.
