data_PCOD9111544
_publ_section_title
;
Structure prediction by ZEFSAII (Michael W. Deem and Ramdas Pophale) SiO2 
 PCOD9111544
Probable space group: P -1
;
_chemical_formula_sum "Si O2"
_cell_formula_units_Z 16
_cell_length_a 9.928786
_cell_length_b 7.960438
_cell_length_c 9.134880
_cell_angle_alpha 108.331225
_cell_angle_beta 81.998727
_cell_angle_gamma 103.788125
_cell_volume 663.992265
_symmetry_space_group_name_H-M "P -1"
_symmetry_group_IT_number 2
_symmetry_cell_setting 'triclinic'
loop_
_space_group_symop_operation_xyz
x,y,z
-x,-y,-z
loop_
_atom_site_type_symbol
_atom_site_label
_atom_site_fract_x
_atom_site_fract_y
_atom_site_fract_z
Si Si1 0.864774 0.229431 0.799289
Si Si2 0.267547 0.928910 0.514365
Si Si3 0.120729 0.388468 0.431724
Si Si4 0.504912 0.206547 0.407349
Si Si5 0.293729 0.451466 0.022698
Si Si6 0.120196 0.102486 0.115916
Si Si7 0.819475 0.716887 0.280352
Si Si8 0.431617 0.489262 0.293078
O O1 0.797202 0.395635 0.899516
O O2 0.029869 0.280681 0.810545
O O3 0.837687 0.181921 0.617887
O O4 0.813351 0.050320 0.856150
O O5 0.392873 0.026872 0.413745
O O6 0.206412 0.081843 0.646574
O O7 0.341873 0.829630 0.598763
O O8 0.067943 0.214719 0.287788
O O9 0.168435 0.343329 0.572260
O O10 0.268763 0.476411 0.360126
O O11 0.000000 0.500000 0.500000
O O12 0.474659 0.305854 0.291766
O O13 0.487294 0.346812 0.577384
O O14 0.222295 0.254240 0.047335
O O15 0.422505 0.516945 0.130305
O O16 0.291472 0.412807 0.839627
O O17 0.000000 0.000000 0.000000
#
# Coordination Sequence:
#
# PCOD9111544 Si02
#       8
#     2   2   2   2   2   2   2   2
#     4  12  23  41  68  94 137 174 206 259 338 394
#     4  11  22  40  64  97 117 170 224 270 309 386
#     4  11  24  38  64 100 135 162 214 268 328 386
#     4  10  21  40  69  84 122 170 231 256 320 373
#     4  11  24  42  64  98 132 174 210 255 337 395
#     4  11  23  40  58  91 135 178 208 244 315 403
#     4  12  23  39  63 101 135 160 210 275 327 385
#     4  10  20  43  66  90 123 175 212 266 315 390
#
# _framework density 24.096668000000001
#
# number of rings (size 3 to 8) (size 9 to 14) (size 15 to 20)
#    0.000    1.000    5.000    3.000    1.750    0.000 
#    0.000    1.250    0.000    0.000    0.000    0.000 
#    0.000    0.000    0.000    0.000    0.000    0.000 
#
# Total GULP energy -89507.639570 kJ/mol
# GULP energy per Si atom -5594.227473 kJ/mol
# Density = 2.404182 g / cm^3
# Si number density = 24.096668 Si / 1000 Ang^3
#
#
#
# Elastic Constant Matrix: (Units=GPa)
#
#
# Indices 1 2 3 4 5 6 
#
# 1 97.1285 21.0839 30.5850 4.9936 25.3422 -34.8186
# 2 21.0839 87.7701 16.4607 3.5788 -10.4664 -40.5925
# 3 30.5850 16.4607 150.4187 6.8679 15.6114 -31.3522
# 4 4.9936 3.5788 6.8679 32.2577 8.3675 7.3534
# 5 25.3422 -10.4664 15.6114 8.3675 37.9023 -0.3215
# 6 -34.8186 -40.5925 -31.3522 7.3534 -0.3215 52.4804
#
#
#
# Elastic Compliance Matrix: (Units=1/GPa)
#
#
# Indices 1 2 3 4 5 6 
#
# 1 0.017633 0.000193 0.000237 -0.002719 -0.011129 0.012303
# 2 0.000193 0.020673 0.001099 -0.008521 0.007161 0.018012
# 3 0.000237 0.001099 0.008170 -0.002652 -0.002582 0.006244
# 4 -0.002719 -0.008521 -0.002652 0.038545 -0.008083 -0.015429
# 5 -0.011129 0.007161 -0.002582 -0.008083 0.038633 -0.002018
# 6 0.012303 0.018012 0.006244 -0.015429 -0.002018 0.047029
#
#
# Mechanical properties :
#
#
# Convention : Reuss Voigt Hill
#
# Bulk Modulus (GPa) = 20.18826 52.39739 36.29283
# Shear Modulus (GPa) = 27.15388 42.34058 34.74723
#
# Velocity S-wave (km/s) = 3.36053 4.19634 3.80148
# Velocity P-wave (km/s) = 4.84291 6.72837 5.86194
#
# Compressibility (1/GPa) = 0.04953374
#
# Stress axis : x y z
#
# Youngs Moduli (GPa) = 56.71226 48.37298 122.39751
#
# Poissons Ratio (x) = -0.00935 -0.02901
# Poissons Ratio (y) = -0.01097 -0.13447
# Poissons Ratio (z) = -0.01344 -0.05315
#
# Static dielectric constant tensor:
#      x y z
#    x 1.954780 0.049270 -0.022960 
#    y 0.049270 1.959720 -0.028040 
#    z -0.022960 -0.028040 1.928850 
# 
# From -- ./inp_files/241025.got.cif
#   From: 2010.05.17/outbox.cif.g08.bks.cpg/sg2_121_cif.got.tgz:241025.got - 2010.06.03 11:33:40.
