data_PCOD9111214
_publ_section_title
;
Structure prediction by ZEFSAII (Michael W. Deem and Ramdas Pophale) SiO2 
 PCOD9111214
Probable space group: P -1
;
_chemical_formula_sum "Si O2"
_cell_formula_units_Z 14
_cell_length_a 11.751328
_cell_length_b 9.628769
_cell_length_c 14.684420
_cell_angle_alpha 85.808436
_cell_angle_beta 138.103558
_cell_angle_gamma 61.584467
_cell_volume 669.529268
_symmetry_space_group_name_H-M "P -1"
_symmetry_group_IT_number 2
_symmetry_cell_setting 'triclinic'
loop_
_space_group_symop_operation_xyz
x,y,z
-x,-y,-z
loop_
_atom_site_type_symbol
_atom_site_label
_atom_site_fract_x
_atom_site_fract_y
_atom_site_fract_z
Si Si1 0.473190 0.672299 0.631362
Si Si2 0.251086 0.047318 0.364560
Si Si3 0.446447 0.155572 0.030972
Si Si4 0.746536 0.731174 0.898369
Si Si5 0.029017 0.145567 0.030281
Si Si6 0.247528 0.566664 0.810251
Si Si7 0.039341 0.822800 0.489290
O O1 0.509734 0.777713 0.719797
O O2 0.237753 0.721125 0.525633
O O3 0.393763 0.806600 0.486641
O O4 0.756903 0.398295 0.813555
O O5 0.059217 0.151597 0.155932
O O6 0.035260 0.224916 0.308782
O O7 0.500000 0.000000 0.500000
O O8 0.220499 0.298700 0.972150
O O9 0.364049 0.339849 0.912442
O O10 0.738888 0.970883 0.268585
O O11 0.500000 0.000000 0.000000
O O12 0.720952 0.912976 0.853450
O O13 0.000000 0.500000 0.000000
O O14 0.000000 0.000000 0.000000
O O15 0.180058 0.639391 0.660984
O O16 0.500000 0.500000 0.000000
O O17 0.000000 0.000000 0.500000
#
# Coordination Sequence:
#
# PCOD9111214 Si02
#       7
#     2   2   2   2   2   2   2
#     4  11  22  44  72  97 133 179 239 286 332 420
#     4  12  24  40  72 102 127 181 245 286 337 423
#     4  12  27  44  67 109 146 178 227 300 359 405
#     4  10  20  42  70  93 133 185 229 277 336 416
#     4  11  26  43  64 100 140 177 220 290 362 406
#     4  12  23  43  76  99 132 189 244 282 346 430
#     4  12  22  43  72 100 133 182 238 284 337 421
#
# _framework density 20.910214
#
# number of rings (size 3 to 8) (size 9 to 14) (size 15 to 20)
#    0.000    0.571    5.714    2.571    2.000    4.571 
#    2.571    0.000    0.000    0.000    0.000    0.000 
#    0.000    0.000    0.000    0.000    0.000    0.000 
#
# Total GULP energy -78072.051807 kJ/mol
# GULP energy per Si atom -5576.575129 kJ/mol
# Density = 2.086262 g / cm^3
# Si number density = 20.910214 Si / 1000 Ang^3
#
#
#
# Elastic Constant Matrix: (Units=GPa)
#
#
# Indices 1 2 3 4 5 6 
#
# 1 118.3471 34.0393 36.7053 -12.0793 -9.8177 17.7777
# 2 34.0393 117.9040 29.2477 -6.6999 -7.2338 25.3556
# 3 36.7053 29.2477 107.0099 -18.5671 -15.9657 6.8014
# 4 -12.0793 -6.6999 -18.5671 32.5841 9.1563 -12.1906
# 5 -9.8177 -7.2338 -15.9657 9.1563 48.9395 -12.3871
# 6 17.7777 25.3556 6.8014 -12.1906 -12.3871 29.9801
#
#
#
# Elastic Compliance Matrix: (Units=1/GPa)
#
#
# Indices 1 2 3 4 5 6 
#
# 1 0.010403 -0.001352 -0.002891 0.000382 -0.000217 -0.004303
# 2 -0.001352 0.011478 -0.002788 -0.003113 -0.001470 -0.010147
# 3 -0.002891 -0.002788 0.012358 0.006456 0.003146 0.005194
# 4 0.000382 -0.003113 0.006456 0.040605 -0.001627 0.016780
# 5 -0.000217 -0.001470 0.003146 -0.001627 0.024014 0.009918
# 6 -0.004303 -0.010147 0.005194 0.016780 0.009918 0.054232
#
#
# Mechanical properties :
#
#
# Convention : Reuss Voigt Hill
#
# Bulk Modulus (GPa) = 49.56265 60.36063 54.96164
# Shear Modulus (GPa) = 28.75566 38.51863 33.63714
#
# Velocity S-wave (km/s) = 3.71239 4.29662 4.01514
# Velocity P-wave (km/s) = 6.49075 7.31737 6.91642
#
# Compressibility (1/GPa) = 0.02017648
#
# Stress axis : x y z
#
# Youngs Moduli (GPa) = 96.12784 87.11972 80.91853
#
# Poissons Ratio (x) = 0.11781 0.23396
# Poissons Ratio (y) = 0.12999 0.22560
# Poissons Ratio (z) = 0.27793 0.24288
#
# Static dielectric constant tensor:
#      x y z
#    x 2.006780 -0.056270 0.030120 
#    y -0.056270 1.744890 0.018610 
#    z 0.030120 0.018610 1.815900 
# 
# From -- ./inp_files/513153.got.cif
#   From: 2010.05.17/outbox.cif.g08.bks.cpg/sg2_257_cif.got.tgz:513153.got - 2010.06.03 11:33:40.
