data_PCOD9111960
_publ_section_title
;
Structure prediction by ZEFSAII (Michael W. Deem and Ramdas Pophale) SiO2 
 PCOD9111960
Probable space group: P -1
;
_chemical_formula_sum "Si O2"
_cell_formula_units_Z 11
_cell_length_a 8.328642
_cell_length_b 8.603828
_cell_length_c 12.284484
_cell_angle_alpha 37.218534
_cell_angle_beta 57.519739
_cell_angle_gamma 75.474120
_cell_volume 421.326091
_symmetry_space_group_name_H-M "P -1"
_symmetry_group_IT_number 2
_symmetry_cell_setting 'triclinic'
loop_
_space_group_symop_operation_xyz
x,y,z
-x,-y,-z
loop_
_atom_site_type_symbol
_atom_site_label
_atom_site_fract_x
_atom_site_fract_y
_atom_site_fract_z
Si Si1 0.276880 0.901432 0.465124
Si Si2 0.762183 0.330235 0.174953
Si Si3 0.351028 0.262304 0.861798
Si Si4 0.500000 0.500000 0.500000
Si Si5 0.797298 0.557558 0.816340
Si Si6 0.769704 0.360857 0.695123
O O1 0.291541 0.921770 0.581676
O O2 0.426239 0.759017 0.441762
O O3 0.042963 0.700089 0.643533
O O4 0.283593 0.197782 0.257400
O O5 0.676932 0.539468 0.149368
O O6 0.724056 0.322909 0.065317
O O7 0.000000 0.500000 0.000000
O O8 0.280362 0.273337 0.759838
O O9 0.594624 0.406619 0.656264
O O10 0.287231 0.964619 0.099605
O O11 0.733991 0.449394 0.779163
O O12 0.000000 0.500000 0.500000
#
# Coordination Sequence:
#
# PCOD9111960 Si02
#       6
#     2   2   2   1   2   2
#     4   9  20  38  67  95 135 171 220 279 328 399
#     4   9  20  40  66  95 134 172 220 280 334 388
#     4  10  24  44  66  95 138 173 220 283 329 400
#     4  10  20  44  64  96 136 176 212 282 340 378
#     4  10  21  39  68  94 130 180 220 271 337 397
#     4  11  25  42  68 101 130 177 228 271 336 406
#
# _framework density 26.108044
#
# number of rings (size 3 to 8) (size 9 to 14) (size 15 to 20)
#    0.000    2.182    0.000    1.091   12.727    0.727 
#    3.273   10.909    0.000    0.000    0.000    0.000 
#    0.000    0.000    0.000    0.000    0.000    0.000 
#
# Total GULP energy -61286.863339 kJ/mol
# GULP energy per Si atom -5571.533031 kJ/mol
# Density = 2.604862 g / cm^3
# Si number density = 26.108044 Si / 1000 Ang^3
#
#
#
# Elastic Constant Matrix: (Units=GPa)
#
#
# Indices 1 2 3 4 5 6 
#
# 1 99.7115 36.7342 42.1739 10.0211 -5.1934 -3.4591
# 2 36.7342 115.3807 39.5386 13.8882 13.6543 -7.1893
# 3 42.1739 39.5386 85.2893 17.3749 17.6354 -4.2679
# 4 10.0211 13.8882 17.3749 48.2283 2.5212 15.5481
# 5 -5.1934 13.6543 17.6354 2.5212 53.4842 10.5061
# 6 -3.4591 -7.1893 -4.2679 15.5481 10.5061 43.3000
#
#
#
# Elastic Compliance Matrix: (Units=1/GPa)
#
#
# Indices 1 2 3 4 5 6 
#
# 1 0.014073 -0.002849 -0.006748 0.000509 0.004550 -0.001301
# 2 -0.002849 0.011277 -0.002580 -0.002540 -0.002769 0.002974
# 3 -0.006748 -0.002580 0.019137 -0.005910 -0.006957 0.004729
# 4 0.000509 -0.002540 -0.005910 0.027023 0.003642 -0.011551
# 5 0.004550 -0.002769 -0.006957 0.003642 0.023499 -0.007791
# 6 -0.001301 0.002974 0.004729 -0.011551 -0.007791 0.029989
#
#
# Mechanical properties :
#
#
# Convention : Reuss Voigt Hill
#
# Bulk Modulus (GPa) = 49.66939 59.69721 54.68330
# Shear Modulus (GPa) = 32.03850 41.13148 36.58499
#
# Velocity S-wave (km/s) = 3.50687 3.97348 3.74744
# Velocity P-wave (km/s) = 5.95511 6.63072 6.30198
#
# Compressibility (1/GPa) = 0.02013312
#
# Stress axis : x y z
#
# Youngs Moduli (GPa) = 71.05633 88.67630 52.25583
#
# Poissons Ratio (x) = 0.25264 0.35261
# Poissons Ratio (y) = 0.20244 0.13483
# Poissons Ratio (z) = 0.47947 0.22879
#
# Static dielectric constant tensor:
#      x y z
#    x 2.366800 0.010750 0.151280 
#    y 0.010750 1.913960 0.065290 
#    z 0.151280 0.065290 2.141450 
# 
# From -- ./inp_files/377466.got.cif
#   From: 2010.05.17/outbox.cif.g08.bks.cpg/sg2_189_cif.got.tgz:377466.got - 2010.06.03 11:33:40.
