data_PCOD9111086
_publ_section_title
;
Structure prediction by ZEFSAII (Michael W. Deem and Ramdas Pophale) SiO2 
 PCOD9111086
Probable space group: P -1
;
_chemical_formula_sum "Si O2"
_cell_formula_units_Z 16
_cell_length_a 8.522609
_cell_length_b 21.649604
_cell_length_c 9.597284
_cell_angle_alpha 145.622139
_cell_angle_beta 51.270951
_cell_angle_gamma 138.394868
_cell_volume 663.743988
_symmetry_space_group_name_H-M "P -1"
_symmetry_group_IT_number 2
_symmetry_cell_setting 'triclinic'
loop_
_space_group_symop_operation_xyz
x,y,z
-x,-y,-z
loop_
_atom_site_type_symbol
_atom_site_label
_atom_site_fract_x
_atom_site_fract_y
_atom_site_fract_z
Si Si1 0.301197 0.464204 0.427371
Si Si2 0.116620 0.556675 0.193892
Si Si3 0.656751 0.734055 0.169415
Si Si4 0.271485 0.909825 0.550381
Si Si5 0.016157 0.299640 0.883427
Si Si6 0.329193 0.994308 0.969673
Si Si7 0.554224 0.259328 0.197434
Si Si8 0.814441 0.886021 0.108873
O O1 0.500000 0.500000 0.500000
O O2 0.305358 0.361345 0.131345
O O3 0.375180 0.595099 0.544139
O O4 0.061411 0.423632 0.572455
O O5 0.383046 0.673422 0.243360
O O6 0.146049 0.449149 0.057067
O O7 0.000000 0.500000 0.000000
O O8 0.819081 0.748201 0.236455
O O9 0.740944 0.858695 0.259114
O O10 0.356321 0.931754 0.699212
O O11 0.113580 0.769939 0.317523
O O12 0.500000 0.000000 0.500000
O O13 0.126793 0.979442 0.737245
O O14 0.798205 0.264373 0.042013
O O15 0.060341 0.895998 0.977722
O O16 0.500000 0.000000 0.000000
O O17 0.404505 0.140925 0.164066
O O18 0.398409 0.217457 0.063062
#
# Coordination Sequence:
#
# PCOD9111086 Si02
#       8
#     2   2   2   2   2   2   2   2
#     4  11  22  43  73 101 132 189 230 286 360 408
#     4  11  24  43  70 102 140 183 242 285 348 433
#     4  12  25  45  68 104 147 181 235 300 345 422
#     4  11  23  44  74  93 133 191 225 286 366 408
#     4  11  24  44  67 101 139 180 233 296 350 419
#     4  11  24  44  67 104 138 176 238 298 346 421
#     4  10  20  42  68  98 135 180 235 286 350 427
#     4  11  23  42  68  99 137 179 233 282 350 429
#
# _framework density 24.10568
#
# number of rings (size 3 to 8) (size 9 to 14) (size 15 to 20)
#    0.000    1.000    5.000    3.375    0.000    5.500 
#    0.000    3.750    0.000    0.000    0.000    0.000 
#    0.000    0.000    0.000    0.000    0.000    0.000 
#
# Total GULP energy -89516.251565 kJ/mol
# GULP energy per Si atom -5594.765723 kJ/mol
# Density = 2.405081 g / cm^3
# Si number density = 24.105680 Si / 1000 Ang^3
#
#
#
# Elastic Constant Matrix: (Units=GPa)
#
#
# Indices 1 2 3 4 5 6 
#
# 1 150.0371 40.4055 12.5668 -19.3668 6.6727 0.1894
# 2 40.4055 120.5546 16.6204 -20.4007 -6.0194 1.5442
# 3 12.5668 16.6204 78.4117 0.0863 -1.6487 2.1914
# 4 -19.3668 -20.4007 0.0863 30.0229 -3.4446 -13.8135
# 5 6.6727 -6.0194 -1.6487 -3.4446 29.6294 -3.9806
# 6 0.1894 1.5442 2.1914 -13.8135 -3.9806 35.2026
#
#
#
# Elastic Compliance Matrix: (Units=1/GPa)
#
#
# Indices 1 2 3 4 5 6 
#
# 1 0.007878 -0.001855 -0.000952 0.004424 -0.001466 0.001668
# 2 -0.001855 0.010697 -0.001989 0.008011 0.003848 0.003243
# 3 -0.000952 -0.001989 0.013382 -0.002867 -0.000029 -0.001869
# 4 0.004424 0.008011 -0.002867 0.052600 0.009477 0.021515
# 5 -0.001466 0.003848 -0.000029 0.009477 0.037003 0.007744
# 6 0.001668 0.003243 -0.001869 0.021515 0.007744 0.037690
#
#
# Mechanical properties :
#
#
# Convention : Reuss Voigt Hill
#
# Bulk Modulus (GPa) = 44.70994 54.24320 49.47657
# Shear Modulus (GPa) = 28.36118 37.59836 32.97977
#
# Velocity S-wave (km/s) = 3.43379 3.95363 3.70284
# Velocity P-wave (km/s) = 5.85738 6.58731 6.23304
#
# Compressibility (1/GPa) = 0.02236639
#
# Stress axis : x y z
#
# Youngs Moduli (GPa) = 126.92829 93.48150 74.72714
#
# Poissons Ratio (x) = 0.17344 0.07112
# Poissons Ratio (y) = 0.23550 0.14861
# Poissons Ratio (z) = 0.12080 0.18590
#
# Static dielectric constant tensor:
#      x y z
#    x 1.923820 -0.023070 -0.066650 
#    y -0.023070 1.853760 -0.010450 
#    z -0.066650 -0.010450 2.056520 
# 
# From -- ./inp_files/222572.got.cif
#   From: 2010.05.17/outbox.cif.g08.bks.cpg/sg2_112_cif.got.tgz:222572.got - 2010.06.03 11:33:40.
