data_PCOD9111398
_publ_section_title
;
Structure prediction by ZEFSAII (Michael W. Deem and Ramdas Pophale) SiO2 
 PCOD9111398
Probable space group: P -1
;
_chemical_formula_sum "Si O2"
_cell_formula_units_Z 12
_cell_length_a 5.072996
_cell_length_b 18.570715
_cell_length_c 5.147463
_cell_angle_alpha 117.147372
_cell_angle_beta 89.563009
_cell_angle_gamma 82.554580
_cell_volume 426.650911
_symmetry_space_group_name_H-M "P -1"
_symmetry_group_IT_number 2
_symmetry_cell_setting 'triclinic'
loop_
_space_group_symop_operation_xyz
x,y,z
-x,-y,-z
loop_
_atom_site_type_symbol
_atom_site_label
_atom_site_fract_x
_atom_site_fract_y
_atom_site_fract_z
Si Si1 0.780574 0.092579 0.548888
Si Si2 0.336651 0.298601 0.521503
Si Si3 0.302698 0.050668 0.292954
Si Si4 0.564231 0.565247 0.896121
Si Si5 0.961549 0.401010 0.319594
Si Si6 0.902804 0.234104 0.141405
O O1 0.744113 0.010535 0.571020
O O2 0.479166 0.119110 0.497112
O O3 0.887646 0.153883 0.846045
O O4 0.991213 0.080490 0.290157
O O5 0.447873 0.342512 0.839408
O O6 0.609956 0.265015 0.311592
O O7 0.134998 0.378294 0.539210
O O8 0.134026 0.233616 0.356571
O O9 0.500000 0.000000 0.000000
O O10 0.500000 0.500000 0.000000
O O11 0.349301 0.571462 0.675890
O O12 0.867771 0.546102 0.767533
O O13 0.979413 0.305401 0.067031
#
# Coordination Sequence:
#
# PCOD9111398 Si02
#       6
#     2   2   2   2   2   2
#     4  10  21  39  64  87 128 167 206 266 308 376
#     4  10  22  41  61  87 126 157 209 261 308 381
#     4  10  21  39  61  95 127 160 215 254 310 380
#     4  12  24  40  64  91 122 165 206 258 319 371
#     4  10  22  42  59  88 126 153 209 261 308 376
#     4  10  20  43  61  86 127 166 202 260 323 351
#
# _framework density 28.12604
#
# number of rings (size 3 to 8) (size 9 to 14) (size 15 to 20)
#    1.000    0.667    1.667    3.000    0.000    1.333 
#    9.000    0.000    0.000    0.000    0.000    0.000 
#    0.000    0.000    0.000    0.000    0.000    0.000 
#
# Total GULP energy -66970.800571 kJ/mol
# GULP energy per Si atom -5580.900048 kJ/mol
# Density = 2.806202 g / cm^3
# Si number density = 28.126040 Si / 1000 Ang^3
#
#
#
# Elastic Constant Matrix: (Units=GPa)
#
#
# Indices 1 2 3 4 5 6 
#
# 1 268.7572 50.1150 85.6778 2.8323 13.3165 18.7754
# 2 50.1150 80.2577 -2.3486 -5.1831 15.8535 17.4082
# 3 85.6778 -2.3486 136.0213 22.0603 11.3644 15.6021
# 4 2.8323 -5.1831 22.0603 37.1359 11.9346 13.3764
# 5 13.3165 15.8535 11.3644 11.9346 61.5607 0.2762
# 6 18.7754 17.4082 15.6021 13.3764 0.2762 41.4154
#
#
#
# Elastic Compliance Matrix: (Units=1/GPa)
#
#
# Indices 1 2 3 4 5 6 
#
# 1 0.005566 -0.003525 -0.003786 0.001296 0.000151 -0.000035
# 2 -0.003525 0.018248 0.003068 0.006109 -0.005646 -0.009163
# 3 -0.003786 0.003068 0.010877 -0.004617 -0.001074 -0.002172
# 4 0.001296 0.006109 -0.004617 0.038006 -0.008308 -0.013636
# 5 0.000151 -0.005646 -0.001074 -0.008308 0.019451 0.005263
# 6 -0.000035 -0.009163 -0.002172 -0.013636 0.005263 0.033201
#
#
# Mechanical properties :
#
#
# Convention : Reuss Voigt Hill
#
# Bulk Modulus (GPa) = 38.16105 83.54717 60.85411
# Shear Modulus (GPa) = 35.07021 51.46189 43.26605
#
# Velocity S-wave (km/s) = 3.53497 4.28213 3.92636
# Velocity P-wave (km/s) = 5.50079 7.36328 6.49910
#
# Compressibility (1/GPa) = 0.02620473
#
# Stress axis : x y z
#
# Youngs Moduli (GPa) = 179.65013 54.80013 91.93581
#
# Poissons Ratio (x) = 0.19318 0.34806
# Poissons Ratio (y) = 0.63329 -0.28202
# Poissons Ratio (z) = 0.68014 -0.16810
#
# Static dielectric constant tensor:
#      x y z
#    x 2.200400 -0.139000 -0.088890 
#    y -0.139000 2.345270 0.102340 
#    z -0.088890 0.102340 2.313680 
# 
# From -- ./inp_files/11860.got.cif
#   From: 2010.05.17/outbox.cif.g08.bks.cpg/sg2_6_cif.got.tgz:11860.got - 2010.06.03 11:33:40.
