data_PCOD9111310
_publ_section_title
;
Structure prediction by ZEFSAII (Michael W. Deem and Ramdas Pophale) SiO2 
 PCOD9111310
Probable space group: P -1
;
_chemical_formula_sum "Si O2"
_cell_formula_units_Z 16
_cell_length_a 17.927897
_cell_length_b 6.658732
_cell_length_c 9.205291
_cell_angle_alpha 91.649955
_cell_angle_beta 78.926389
_cell_angle_gamma 45.758503
_cell_volume 751.603091
_symmetry_space_group_name_H-M "P -1"
_symmetry_group_IT_number 2
_symmetry_cell_setting 'triclinic'
loop_
_space_group_symop_operation_xyz
x,y,z
-x,-y,-z
loop_
_atom_site_type_symbol
_atom_site_label
_atom_site_fract_x
_atom_site_fract_y
_atom_site_fract_z
Si Si1 0.266936 0.117455 0.934397
Si Si2 0.125908 0.726719 0.967204
Si Si3 0.379119 0.676979 0.110807
Si Si4 0.410347 0.233434 0.921194
Si Si5 0.692227 0.359647 0.266320
Si Si6 0.738227 0.140071 0.563044
Si Si7 0.105704 0.863719 0.304189
Si Si8 0.081700 0.527092 0.508519
O O1 0.154307 0.436701 0.945492
O O2 0.351009 0.141752 0.899099
O O3 0.294811 0.885466 0.812212
O O4 0.286174 0.997499 0.086356
O O5 0.204505 0.703156 0.830028
O O6 0.146819 0.755713 0.124827
O O7 0.000000 0.000000 0.000000
O O8 0.363410 0.708099 0.288619
O O9 0.500000 0.500000 0.000000
O O10 0.354339 0.510316 0.045536
O O11 0.414273 0.339387 0.765348
O O12 0.500000 0.000000 0.000000
O O13 0.698927 0.320453 0.434566
O O14 0.817251 0.142932 0.623601
O O15 0.807470 0.803334 0.500074
O O16 0.098180 0.656950 0.375397
O O17 0.987437 0.200207 0.349717
O O18 0.000000 0.500000 0.500000
#
# Coordination Sequence:
#
# PCOD9111310 Si02
#       8
#     2   2   2   2   2   2   2   2
#     4  10  21  42  64  92 130 167 224 265 323 395
#     4  11  25  39  65  95 135 180 223 269 319 388
#     4  11  22  41  73  96 119 169 223 269 331 405
#     4  10  20  42  72  92 122 169 214 268 329 398
#     4  10  25  40  61 100 134 168 219 270 334 387
#     4  11  23  41  63  94 134 170 214 278 331 386
#     4  10  21  40  63  91 127 180 229 259 318 395
#     4   9  21  36  63  89 126 170 219 264 322 377
#
# _framework density 21.287832000000002
#
# number of rings (size 3 to 8) (size 9 to 14) (size 15 to 20)
#    0.000    1.750    1.250    3.000    7.000    2.500 
#    0.000    3.125    0.000    0.000    0.000    0.000 
#    0.000    0.000    0.000    0.000    0.000    0.000 
#
# Total GULP energy -89114.069486 kJ/mol
# GULP energy per Si atom -5569.629343 kJ/mol
# Density = 2.123938 g / cm^3
# Si number density = 21.287832 Si / 1000 Ang^3
#
#
#
# Elastic Constant Matrix: (Units=GPa)
#
#
# Indices 1 2 3 4 5 6 
#
# 1 73.5073 38.9689 16.0175 -7.9753 -7.1453 1.7752
# 2 38.9689 139.7106 36.3213 -29.8151 -6.1058 13.2284
# 3 16.0175 36.3213 134.1307 -29.3061 -11.3319 2.4010
# 4 -7.9753 -29.8151 -29.3061 27.2397 -4.0324 5.9686
# 5 -7.1453 -6.1058 -11.3319 -4.0324 28.3094 2.1522
# 6 1.7752 13.2284 2.4010 5.9686 2.1522 32.9996
#
#
#
# Elastic Compliance Matrix: (Units=1/GPa)
#
#
# Indices 1 2 3 4 5 6 
#
# 1 0.016294 -0.004474 -0.000657 -0.000626 0.002727 0.000900
# 2 -0.004474 0.012555 0.001277 0.016341 0.005038 -0.008169
# 3 -0.000657 0.001277 0.011219 0.015323 0.007127 -0.004529
# 4 -0.000626 0.016341 0.015323 0.079385 0.022592 -0.023463
# 5 0.002727 0.005038 0.007127 0.022592 0.043902 -0.009634
# 6 0.000900 -0.008169 -0.004529 -0.023463 -0.009634 0.038731
#
#
# Mechanical properties :
#
#
# Convention : Reuss Voigt Hill
#
# Bulk Modulus (GPa) = 30.90190 58.88487 44.89338
# Shear Modulus (GPa) = 22.66733 34.77914 28.72324
#
# Velocity S-wave (km/s) = 3.26667 4.04636 3.67724
# Velocity P-wave (km/s) = 5.36432 7.03932 6.25811
#
# Compressibility (1/GPa) = 0.03236047
#
# Stress axis : x y z
#
# Youngs Moduli (GPa) = 61.37079 79.65215 89.13234
#
# Poissons Ratio (x) = 0.35635 0.05855
# Poissons Ratio (y) = 0.27456 -0.11381
# Poissons Ratio (z) = 0.04032 -0.10171
#
# Static dielectric constant tensor:
#      x y z
#    x 1.858820 -0.078400 0.010370 
#    y -0.078400 1.892590 -0.068940 
#    z 0.010370 -0.068940 1.831590 
# 
# From -- ./inp_files/95612.got.cif
#   From: 2010.05.17/outbox.cif.g08.bks.cpg/sg2_48_cif.got.tgz:95612.got - 2010.06.03 11:33:40.
