data_PCOD9111752
_publ_section_title
;
Structure prediction by ZEFSAII (Michael W. Deem and Ramdas Pophale) SiO2 
 PCOD9111752
Probable space group: P -1
;
_chemical_formula_sum "Si O2"
_cell_formula_units_Z 14
_cell_length_a 5.074247
_cell_length_b 15.084494
_cell_length_c 8.012054
_cell_angle_alpha 102.144753
_cell_angle_beta 118.790629
_cell_angle_gamma 77.525980
_cell_volume 520.697814
_symmetry_space_group_name_H-M "P -1"
_symmetry_group_IT_number 2
_symmetry_cell_setting 'triclinic'
loop_
_space_group_symop_operation_xyz
x,y,z
-x,-y,-z
loop_
_atom_site_type_symbol
_atom_site_label
_atom_site_fract_x
_atom_site_fract_y
_atom_site_fract_z
Si Si1 0.181587 0.285138 0.450175
Si Si2 0.176021 0.468896 0.371206
Si Si3 0.430270 0.754314 0.905132
Si Si4 0.144429 0.003002 0.334826
Si Si5 0.262035 0.798531 0.246523
Si Si6 0.524825 0.926972 0.829057
Si Si7 0.898181 0.632845 0.168073
O O1 0.225257 0.359744 0.352351
O O2 0.463479 0.208833 0.538083
O O3 0.162565 0.332011 0.646302
O O4 0.869060 0.253404 0.292437
O O5 0.500000 0.500000 0.500000
O O6 0.000000 0.500000 0.500000
O O7 0.016524 0.526661 0.192408
O O8 0.601053 0.824033 0.880227
O O9 0.370759 0.797639 0.088177
O O10 0.607175 0.655116 0.969871
O O11 0.203046 0.050783 0.195807
O O12 0.831849 0.056613 0.338215
O O13 0.500000 0.000000 0.500000
O O14 0.082577 0.897968 0.260983
O O15 0.115158 0.704948 0.194699
O O16 0.500000 0.000000 0.000000
#
# Coordination Sequence:
#
# PCOD9111752 Si02
#       7
#     2   2   2   2   2   2   2
#     4  10  23  42  67  96 130 174 219 272 331 399
#     4  10  20  43  69  97 132 175 217 267 336 393
#     4  11  25  41  65  98 132 172 226 272 331 393
#     4  12  27  43  69  96 131 175 228 272 330 395
#     4  11  23  42  64  95 131 173 218 281 328 389
#     4  12  25  46  65  94 135 178 215 276 334 387
#     4  10  23  41  68  92 134 172 216 274 331 393
#
# _framework density 26.886994999999999
#
# number of rings (size 3 to 8) (size 9 to 14) (size 15 to 20)
#    0.000    1.143    2.857    2.571    6.000    1.714 
#    0.000    0.714    0.000    0.000    0.000    0.000 
#    0.000    0.000    0.000    0.000    0.000    0.000 
#
# Total GULP energy -78366.539507 kJ/mol
# GULP energy per Si atom -5597.609965 kJ/mol
# Density = 2.682580 g / cm^3
# Si number density = 26.886995 Si / 1000 Ang^3
#
#
#
# Elastic Constant Matrix: (Units=GPa)
#
#
# Indices 1 2 3 4 5 6 
#
# 1 122.0104 21.4168 22.5513 -11.7673 -0.8055 10.3260
# 2 21.4168 142.7394 19.5095 -47.2934 1.7632 8.7762
# 3 22.5513 19.5095 105.7592 -26.8613 12.7574 -11.5371
# 4 -11.7673 -47.2934 -26.8613 45.8366 -2.8637 11.7103
# 5 -0.8055 1.7632 12.7574 -2.8637 52.3796 -3.2279
# 6 10.3260 8.7762 -11.5371 11.7103 -3.2279 45.9663
#
#
#
# Elastic Compliance Matrix: (Units=1/GPa)
#
#
# Indices 1 2 3 4 5 6 
#
# 1 0.008990 -0.000429 -0.001808 0.001540 0.000508 -0.002748
# 2 -0.000429 0.012009 0.000902 0.014230 -0.000198 -0.005609
# 3 -0.001808 0.000902 0.011878 0.006948 -0.002493 0.001270
# 4 0.001540 0.014230 0.006948 0.044153 -0.000510 -0.012603
# 5 0.000508 -0.000198 -0.002493 -0.000510 0.019735 0.000814
# 6 -0.002748 -0.005609 0.001270 -0.012603 0.000814 0.027030
#
#
# Mechanical properties :
#
#
# Convention : Reuss Voigt Hill
#
# Bulk Modulus (GPa) = 33.10337 55.27378 44.18858
# Shear Modulus (GPa) = 36.62092 49.30525 42.96309
#
# Velocity S-wave (km/s) = 3.69457 4.28693 4.00173
# Velocity P-wave (km/s) = 5.52617 6.71611 6.14999
#
# Compressibility (1/GPa) = 0.03020841
#
# Stress axis : x y z
#
# Youngs Moduli (GPa) = 111.23645 83.27209 84.18672
#
# Poissons Ratio (x) = 0.03572 0.15219
# Poissons Ratio (y) = 0.04771 -0.07597
# Poissons Ratio (z) = 0.20109 -0.07514
#
# Static dielectric constant tensor:
#      x y z
#    x 2.241810 0.119120 0.081960 
#    y 0.119120 2.267130 0.025230 
#    z 0.081960 0.025230 2.220440 
# 
# From -- ./inp_files/39120.got.cif
#   From: 2010.05.17/outbox.cif.g08.bks.cpg/sg2_20_cif.got.tgz:39120.got - 2010.06.03 11:33:40.
