data_PCOD9111916
_publ_section_title
;
Structure prediction by ZEFSAII (Michael W. Deem and Ramdas Pophale) SiO2 
 PCOD9111916
Probable space group: P -1
;
_chemical_formula_sum "Si O2"
_cell_formula_units_Z 16
_cell_length_a 10.149242
_cell_length_b 8.591204
_cell_length_c 17.929552
_cell_angle_alpha 80.128394
_cell_angle_beta 68.924722
_cell_angle_gamma 31.980873
_cell_volume 743.865594
_symmetry_space_group_name_H-M "P -1"
_symmetry_group_IT_number 2
_symmetry_cell_setting 'triclinic'
loop_
_space_group_symop_operation_xyz
x,y,z
-x,-y,-z
loop_
_atom_site_type_symbol
_atom_site_label
_atom_site_fract_x
_atom_site_fract_y
_atom_site_fract_z
Si Si1 0.911935 0.884633 0.598020
Si Si2 0.817103 0.161189 0.950358
Si Si3 0.921235 0.979619 0.235748
Si Si4 0.575950 0.026272 0.778175
Si Si5 0.006153 0.252427 0.166243
Si Si6 0.340224 0.374113 0.296795
Si Si7 0.258024 0.846896 0.541036
Si Si8 0.376143 0.272836 0.466021
O O1 0.997306 0.984135 0.589830
O O2 0.173922 0.531831 0.549875
O O3 0.725941 0.993046 0.689762
O O4 0.765943 0.024250 0.537174
O O5 0.926631 0.174013 0.862925
O O6 0.500000 0.500000 0.000000
O O7 0.871280 0.938511 0.919007
O O8 0.000000 0.000000 0.000000
O O9 0.109050 0.701445 0.277554
O O10 0.924844 0.167032 0.234937
O O11 0.616020 0.211331 0.263747
O O12 0.267163 0.384383 0.820178
O O13 0.594622 0.835247 0.753676
O O14 0.763022 0.872942 0.825665
O O15 0.258525 0.385596 0.395975
O O16 0.500000 0.500000 0.500000
O O17 0.374804 0.841602 0.582064
O O18 0.500000 0.000000 0.500000
#
# Coordination Sequence:
#
# PCOD9111916 Si02
#       8
#     2   2   2   2   2   2   2   2
#     4  10  24  40  62  86 121 180 241 295 338 394
#     4  10  20  43  80 109 136 168 224 279 325 414
#     4  10  25  44  70 110 131 181 225 280 348 408
#     4  12  25  42  66  95 145 187 225 285 350 408
#     4  10  25  42  70 107 133 177 227 266 338 429
#     4  12  26  43  67  96 149 185 227 304 342 399
#     4   9  21  39  57  85 116 158 233 307 340 388
#     4  11  26  41  62  89 127 184 255 282 351 392
#
# _framework density 21.509260999999999
#
# number of rings (size 3 to 8) (size 9 to 14) (size 15 to 20)
#    0.750    0.750    0.000    3.750   10.500    5.000 
#    0.000    0.000    0.000   15.000    0.000    0.000 
#    0.000    0.000    0.000    0.000    0.000    0.000 
#
# Total GULP energy -89269.903711 kJ/mol
# GULP energy per Si atom -5579.368982 kJ/mol
# Density = 2.146030 g / cm^3
# Si number density = 21.509261 Si / 1000 Ang^3
#
#
#
# Elastic Constant Matrix: (Units=GPa)
#
#
# Indices 1 2 3 4 5 6 
#
# 1 102.9502 42.7176 7.2452 0.5611 27.2982 -13.0997
# 2 42.7176 137.1645 33.6991 7.3431 12.7437 -27.8351
# 3 7.2452 33.6991 86.2344 12.8033 15.5422 -15.4572
# 4 0.5611 7.3431 12.8033 34.6485 -3.5315 -2.1410
# 5 27.2982 12.7437 15.5422 -3.5315 36.5886 3.2633
# 6 -13.0997 -27.8351 -15.4572 -2.1410 3.2633 35.8001
#
#
#
# Elastic Compliance Matrix: (Units=1/GPa)
#
#
# Indices 1 2 3 4 5 6 
#
# 1 0.014599 -0.003082 0.003331 -0.001693 -0.011875 0.005365
# 2 -0.003082 0.010126 -0.002383 -0.000945 -0.000818 0.005735
# 3 0.003331 -0.002383 0.016126 -0.006073 -0.009703 0.006850
# 4 -0.001693 -0.000945 -0.006073 0.031928 0.007499 -0.002750
# 5 -0.011875 -0.000818 -0.009703 0.007499 0.042444 -0.012591
# 6 0.005365 0.005735 0.006850 -0.002750 -0.012591 0.038296
#
#
# Mechanical properties :
#
#
# Convention : Reuss Voigt Hill
#
# Bulk Modulus (GPa) = 27.33490 54.85254 41.09372
# Shear Modulus (GPa) = 29.41533 37.58658 33.50096
#
# Velocity S-wave (km/s) = 3.70207 4.18480 3.95082
# Velocity P-wave (km/s) = 5.56865 6.99337 6.32128
#
# Compressibility (1/GPa) = 0.03658326
#
# Stress axis : x y z
#
# Youngs Moduli (GPa) = 68.49954 98.75447 62.01233
#
# Poissons Ratio (x) = 0.30439 -0.20658
# Poissons Ratio (y) = 0.21114 0.14775
# Poissons Ratio (z) = -0.22819 0.23529
#
# Static dielectric constant tensor:
#      x y z
#    x 1.832270 0.023430 0.007360 
#    y 0.023430 1.740390 -0.030770 
#    z 0.007360 -0.030770 1.789770 
# 
# From -- ./inp_files/566729.got.cif
#   From: 2010.05.17/outbox.cif.g08.bks.cpg/sg2_284_cif.got.tgz:566729.got - 2010.06.03 11:33:40.
