data_PCOD9111866
_publ_section_title
;
Structure prediction by ZEFSAII (Michael W. Deem and Ramdas Pophale) SiO2 
 PCOD9111866
Probable space group: P -1
;
_chemical_formula_sum "Si O2"
_cell_formula_units_Z 13
_cell_length_a 18.198166
_cell_length_b 8.762671
_cell_length_c 13.180771
_cell_angle_alpha 144.374260
_cell_angle_beta 28.580640
_cell_angle_gamma 148.420771
_cell_volume 508.687168
_symmetry_space_group_name_H-M "P -1"
_symmetry_group_IT_number 2
_symmetry_cell_setting 'triclinic'
loop_
_space_group_symop_operation_xyz
x,y,z
-x,-y,-z
loop_
_atom_site_type_symbol
_atom_site_label
_atom_site_fract_x
_atom_site_fract_y
_atom_site_fract_z
Si Si1 0.164288 0.307775 0.920085
Si Si2 0.717804 0.715989 0.668710
Si Si3 0.122316 0.349664 0.364097
Si Si4 0.500000 0.000000 0.000000
Si Si5 0.918512 0.452688 0.184445
Si Si6 0.668621 0.749193 0.122160
Si Si7 0.247983 0.964910 0.468966
O O1 0.306832 0.420502 0.899804
O O2 0.242063 0.228219 0.683415
O O3 0.073694 0.500831 0.100239
O O4 0.000000 0.000000 0.000000
O O5 0.836666 0.787518 0.662326
O O6 0.824768 0.649106 0.418140
O O7 0.535461 0.400848 0.736331
O O8 0.643909 0.932874 0.845936
O O9 0.204463 0.708231 0.468800
O O10 0.922986 0.199358 0.485955
O O11 0.229720 0.314565 0.123084
O O12 0.586146 0.975175 0.767673
O O13 0.767674 0.107547 0.202310
O O14 0.000000 0.500000 0.000000
#
# Coordination Sequence:
#
# PCOD9111866 Si02
#       7
#     2   2   2   1   2   2   2
#     4  10  20  43  72  99 132 179 231 279 340 413
#     4  12  27  46  66 103 141 187 228 286 339 415
#     4  11  23  44  74  98 137 187 235 273 344 420
#     4  12  28  46  66 104 150 176 236 286 354 398
#     4  11  24  45  71 102 137 176 235 285 350 409
#     4  11  23  46  70 105 135 179 232 282 347 412
#     4  11  23  44  72 105 137 181 228 289 343 419
#
# _framework density 25.555982
#
# number of rings (size 3 to 8) (size 9 to 14) (size 15 to 20)
#    0.000    0.923    4.615    3.692    2.154    0.615 
#    2.769    1.538    0.000    0.000    0.000    0.000 
#    0.000    0.000    0.000    0.000    0.000    0.000 
#
# Total GULP energy -72627.088776 kJ/mol
# GULP energy per Si atom -5586.699137 kJ/mol
# Density = 2.549782 g / cm^3
# Si number density = 25.555982 Si / 1000 Ang^3
#
#
#
# Elastic Constant Matrix: (Units=GPa)
#
#
# Indices 1 2 3 4 5 6 
#
# 1 120.7236 20.0681 50.1552 -1.4798 -17.6138 -21.5639
# 2 20.0681 81.1490 31.7047 -11.1259 -12.3068 -7.5163
# 3 50.1552 31.7047 245.7071 -22.4044 -14.9993 -5.9461
# 4 -1.4798 -11.1259 -22.4044 32.7995 -15.0510 -6.1564
# 5 -17.6138 -12.3068 -14.9993 -15.0510 47.0238 4.7743
# 6 -21.5639 -7.5163 -5.9461 -6.1564 4.7743 46.9286
#
#
#
# Elastic Compliance Matrix: (Units=1/GPa)
#
#
# Indices 1 2 3 4 5 6 
#
# 1 0.010318 -0.000888 -0.001578 0.001316 0.003118 0.004254
# 2 -0.000888 0.014886 -0.000659 0.007531 0.005528 0.002318
# 3 -0.001578 -0.000659 0.004985 0.004111 0.002129 0.000123
# 4 0.001316 0.007531 0.004111 0.045193 0.017583 0.006471
# 5 0.003118 0.005528 0.002129 0.017583 0.030001 0.001843
# 6 0.004254 0.002318 0.000123 0.006471 0.001843 0.024312
#
#
# Mechanical properties :
#
#
# Convention : Reuss Voigt Hill
#
# Bulk Modulus (GPa) = 41.77493 72.38173 57.07833
# Shear Modulus (GPa) = 34.74064 48.39383 41.56723
#
# Velocity S-wave (km/s) = 3.69100 4.35632 4.03739
# Velocity P-wave (km/s) = 5.87763 7.32719 6.64207
#
# Compressibility (1/GPa) = 0.02393780
#
# Stress axis : x y z
#
# Youngs Moduli (GPa) = 96.92163 67.17850 200.60495
#
# Poissons Ratio (x) = 0.05963 0.31661
# Poissons Ratio (y) = 0.08603 0.13227
# Poissons Ratio (z) = 0.15297 0.04429
#
# Static dielectric constant tensor:
#      x y z
#    x 1.991910 -0.083290 0.015960 
#    y -0.083290 1.931430 0.010000 
#    z 0.015960 0.010000 1.903030 
# 
# From -- ./inp_files/158984.got.cif
#   From: 2010.05.17/outbox.cif.g08.bks.cpg/sg2_80_cif.got.tgz:158984.got - 2010.06.03 11:33:40.
