data_PCOD9111059
_publ_section_title
;
Structure prediction by ZEFSAII (Michael W. Deem and Ramdas Pophale) SiO2 
 PCOD9111059
Probable space group: P -1
;
_chemical_formula_sum "Si O2"
_cell_formula_units_Z 16
_cell_length_a 8.185839
_cell_length_b 12.047681
_cell_length_c 14.273797
_cell_angle_alpha 49.748926
_cell_angle_beta 51.565872
_cell_angle_gamma 35.880718
_cell_volume 614.366072
_symmetry_space_group_name_H-M "P -1"
_symmetry_group_IT_number 2
_symmetry_cell_setting 'triclinic'
loop_
_space_group_symop_operation_xyz
x,y,z
-x,-y,-z
loop_
_atom_site_type_symbol
_atom_site_label
_atom_site_fract_x
_atom_site_fract_y
_atom_site_fract_z
Si Si1 0.186982 0.380306 0.778894
Si Si2 0.422869 0.006173 0.787718
Si Si3 0.573046 0.452139 0.111310
Si Si4 0.712765 0.343609 0.612012
Si Si5 0.990521 0.006600 0.158627
Si Si6 0.702318 0.595849 0.605145
Si Si7 0.377858 0.251818 0.986645
Si Si8 0.772958 0.795293 0.611805
O O1 0.456904 0.356681 0.676282
O O2 0.215082 0.320175 0.909604
O O3 0.901424 0.603068 0.735092
O O4 0.236170 0.220953 0.781416
O O5 0.226455 0.961090 0.855994
O O6 0.570117 0.980018 0.652100
O O7 0.664866 0.846400 0.864180
O O8 0.824424 0.213983 0.156265
O O9 0.338402 0.499232 0.241839
O O10 0.651319 0.572225 0.058481
O O11 0.500000 0.500000 0.000000
O O12 0.577933 0.556491 0.586587
O O13 0.943777 0.261691 0.494321
O O14 0.908271 0.172272 0.713826
O O15 0.285011 0.928040 0.057147
O O16 0.619465 0.785032 0.585481
O O17 0.000000 0.500000 0.500000
#
# Coordination Sequence:
#
# PCOD9111059 Si02
#       8
#     2   2   2   2   2   2   2   2
#     4  11  25  42  66  90 137 181 215 265 333 400
#     4  12  25  41  64 103 129 171 224 271 337 392
#     4  12  22  40  71 101 125 170 225 269 336 391
#     4  10  23  46  66  95 131 180 219 267 343 387
#     4  11  23  41  71  95 132 165 223 281 328 390
#     4  10  20  42  68  96 130 168 222 278 333 384
#     4  11  25  45  66  97 134 175 217 273 339 393
#     4  11  24  44  67  96 134 170 226 277 319 401
#
# _framework density 26.043105000000001
#
# number of rings (size 3 to 8) (size 9 to 14) (size 15 to 20)
#    0.000    1.000    5.000    1.875    0.000    4.500 
#    4.500    0.000    0.000    0.000    0.000    0.000 
#    0.000    0.000    0.000    0.000    0.000    0.000 
#
# Total GULP energy -89540.744926 kJ/mol
# GULP energy per Si atom -5596.296558 kJ/mol
# Density = 2.598383 g / cm^3
# Si number density = 26.043105 Si / 1000 Ang^3
#
#
#
# Elastic Constant Matrix: (Units=GPa)
#
#
# Indices 1 2 3 4 5 6 
#
# 1 79.5168 47.6185 21.4460 7.0602 4.1202 11.5897
# 2 47.6185 137.2158 26.0835 11.1877 15.4587 29.2970
# 3 21.4460 26.0835 143.7496 28.2681 16.8427 -5.2111
# 4 7.0602 11.1877 28.2681 41.2540 -3.9050 4.0371
# 5 4.1202 15.4587 16.8427 -3.9050 46.5930 -0.3262
# 6 11.5897 29.2970 -5.2111 4.0371 -0.3262 38.8316
#
#
#
# Elastic Compliance Matrix: (Units=1/GPa)
#
#
# Indices 1 2 3 4 5 6 
#
# 1 0.016238 -0.005174 -0.001608 -0.000082 0.000847 -0.001143
# 2 -0.005174 0.011173 -0.000928 -0.001121 -0.003056 -0.006919
# 3 -0.001608 -0.000928 0.009113 -0.006332 -0.003354 0.003033
# 4 -0.000082 -0.001121 -0.006332 0.029678 0.005134 -0.003022
# 5 0.000847 -0.003056 -0.003354 0.005134 0.024053 0.001271
# 6 -0.001143 -0.006919 0.003033 -0.003022 0.001271 0.032045
#
#
# Mechanical properties :
#
#
# Convention : Reuss Voigt Hill
#
# Bulk Modulus (GPa) = 47.38588 61.19759 54.29174
# Shear Modulus (GPa) = 34.54106 43.02466 38.78286
#
# Velocity S-wave (km/s) = 3.64580 4.06896 3.86318
# Velocity P-wave (km/s) = 5.99642 6.75461 6.38678
#
# Compressibility (1/GPa) = 0.02110333
#
# Stress axis : x y z
#
# Youngs Moduli (GPa) = 61.58292 89.50366 109.73580
#
# Poissons Ratio (x) = 0.46312 0.17649
# Poissons Ratio (y) = 0.31865 0.10179
# Poissons Ratio (z) = 0.09905 0.08302
#
# Static dielectric constant tensor:
#      x y z
#    x 2.009270 0.003960 0.024430 
#    y 0.003960 2.012700 -0.029160 
#    z 0.024430 -0.029160 2.114950 
# 
# From -- ./inp_files/500137.got.cif
#   From: 2010.05.17/outbox.cif.g08.bks.cpg/sg2_251_cif.got.tgz:500137.got - 2010.06.03 11:33:40.
