data_PCOD9111955
_publ_section_title
;
Structure prediction by ZEFSAII (Michael W. Deem and Ramdas Pophale) SiO2 
 PCOD9111955
Probable space group: P -1
;
_chemical_formula_sum "Si O2"
_cell_formula_units_Z 14
_cell_length_a 9.550111
_cell_length_b 8.350652
_cell_length_c 20.842494
_cell_angle_alpha 44.004605
_cell_angle_beta 141.756849
_cell_angle_gamma 107.674166
_cell_volume 567.676786
_symmetry_space_group_name_H-M "P -1"
_symmetry_group_IT_number 2
_symmetry_cell_setting 'triclinic'
loop_
_space_group_symop_operation_xyz
x,y,z
-x,-y,-z
loop_
_atom_site_type_symbol
_atom_site_label
_atom_site_fract_x
_atom_site_fract_y
_atom_site_fract_z
Si Si1 0.920153 0.906227 0.396499
Si Si2 0.213562 0.778784 0.074262
Si Si3 0.502832 0.769838 0.431809
Si Si4 0.182878 0.100439 0.339571
Si Si5 0.687979 0.450637 0.248253
Si Si6 0.103203 0.383114 0.826970
Si Si7 0.597473 0.058969 0.797073
O O1 0.804823 0.175347 0.325164
O O2 0.101556 0.923131 0.402181
O O3 0.643809 0.950040 0.255348
O O4 0.110513 0.634560 0.592120
O O5 0.395596 0.563935 0.144595
O O6 0.386233 0.715098 0.220798
O O7 0.136284 0.092241 0.936503
O O8 0.933916 0.809154 0.980328
O O9 0.500000 0.500000 0.500000
O O10 0.502192 0.869888 0.332175
O O11 0.805162 0.628828 0.614102
O O12 0.235708 0.012495 0.309212
O O13 0.937057 0.432649 0.177373
O O14 0.500000 0.000000 0.500000
O O15 0.668301 0.671296 0.127038
#
# Coordination Sequence:
#
# PCOD9111955 Si02
#       7
#     2   2   2   2   2   2   2
#     4  10  22  44  68 100 127 171 227 272 317 401
#     4  11  25  42  63  95 143 174 210 277 336 379
#     4  11  21  40  68  97 127 172 229 261 315 398
#     4   9  22  39  69  97 128 168 213 274 326 379
#     4  10  22  40  70  96 129 170 223 275 328 381
#     4  10  20  44  64  94 133 172 215 268 331 392
#     4  11  25  44  61 101 132 174 222 269 327 389
#
# _framework density 24.661922000000001
#
# number of rings (size 3 to 8) (size 9 to 14) (size 15 to 20)
#    0.000    1.714    2.857    0.429    4.000    3.429 
#    5.143    1.429    0.000    0.000    0.000    0.000 
#    0.000    0.000    0.000    0.000    0.000    0.000 
#
# Total GULP energy -78149.342754 kJ/mol
# GULP energy per Si atom -5582.095911 kJ/mol
# Density = 2.460579 g / cm^3
# Si number density = 24.661922 Si / 1000 Ang^3
#
#
#
# Elastic Constant Matrix: (Units=GPa)
#
#
# Indices 1 2 3 4 5 6 
#
# 1 151.5886 18.2984 26.9486 -7.7180 17.9129 0.4551
# 2 18.2984 36.2088 19.1187 7.3367 5.5923 0.0525
# 3 26.9486 19.1187 48.2607 0.4468 13.8275 1.2971
# 4 -7.7180 7.3367 0.4468 28.5155 7.6326 14.8503
# 5 17.9129 5.5923 13.8275 7.6326 47.2303 2.2551
# 6 0.4551 0.0525 1.2971 14.8503 2.2551 47.4027
#
#
#
# Elastic Compliance Matrix: (Units=1/GPa)
#
#
# Indices 1 2 3 4 5 6 
#
# 1 0.007946 -0.003213 -0.002436 0.004351 -0.002564 -0.001247
# 2 -0.003213 0.039323 -0.014601 -0.013929 0.002868 0.004614
# 3 -0.002436 -0.014601 0.029847 0.005625 -0.006889 -0.002212
# 4 0.004351 -0.013929 0.005625 0.050221 -0.009025 -0.015484
# 5 -0.002564 0.002868 -0.006889 -0.009025 0.025193 0.001839
# 6 -0.001247 0.004614 -0.002212 -0.015484 0.001839 0.025927
#
#
# Mechanical properties :
#
#
# Convention : Reuss Voigt Hill
#
# Bulk Modulus (GPa) = 27.31080 40.53217 33.92148
# Shear Modulus (GPa) = 21.62980 36.07586 28.85283
#
# Velocity S-wave (km/s) = 2.96472 3.82883 3.42414
# Velocity P-wave (km/s) = 4.77677 6.00145 5.42379
#
# Compressibility (1/GPa) = 0.03661555
#
# Stress axis : x y z
#
# Youngs Moduli (GPa) = 125.84949 25.43014 33.50470
#
# Poissons Ratio (x) = 0.08171 0.08163
# Poissons Ratio (y) = 0.40436 0.48919
# Poissons Ratio (z) = 0.30662 0.37130
#
# Static dielectric constant tensor:
#      x y z
#    x 2.002170 0.016570 0.003900 
#    y 0.016570 1.981270 0.031240 
#    z 0.003900 0.031240 2.013060 
# 
# From -- ./inp_files/185166.got.cif
#   From: 2010.05.17/outbox.cif.g08.bks.cpg/sg2_93_cif.got.tgz:185166.got - 2010.06.03 11:33:40.
