data_PCOD9111082
_publ_section_title
;
Structure prediction by ZEFSAII (Michael W. Deem and Ramdas Pophale) SiO2 
 PCOD9111082
Probable space group: P -1
;
_chemical_formula_sum "Si O2"
_cell_formula_units_Z 15
_cell_length_a 8.577916
_cell_length_b 9.209451
_cell_length_c 16.460533
_cell_angle_alpha 42.520854
_cell_angle_beta 137.307780
_cell_angle_gamma 112.720351
_cell_volume 560.564096
_symmetry_space_group_name_H-M "P -1"
_symmetry_group_IT_number 2
_symmetry_cell_setting 'triclinic'
loop_
_space_group_symop_operation_xyz
x,y,z
-x,-y,-z
loop_
_atom_site_type_symbol
_atom_site_label
_atom_site_fract_x
_atom_site_fract_y
_atom_site_fract_z
Si Si1 0.427771 0.442663 0.407625
Si Si2 0.911867 0.138925 0.146988
Si Si3 0.225082 0.783543 0.765490
Si Si4 0.000000 0.500000 0.000000
Si Si5 0.657397 0.010291 0.423477
Si Si6 0.557879 0.486596 0.265703
Si Si7 0.739153 0.836371 0.110315
Si Si8 0.856692 0.672079 0.054381
O O1 0.500000 0.500000 0.500000
O O2 0.554084 0.517723 0.347703
O O3 0.140302 0.576527 0.230687
O O4 0.471968 0.172231 0.533868
O O5 0.782745 0.112131 0.191181
O O6 0.944622 0.927159 0.189925
O O7 0.721084 0.381481 0.932033
O O8 0.098632 0.263522 0.192854
O O9 0.387180 0.873668 0.730636
O O10 0.271108 0.515753 0.898565
O O11 0.946275 0.872624 0.591463
O O12 0.118120 0.327431 0.033462
O O13 0.622180 0.222948 0.381095
O O14 0.734721 0.592215 0.240926
O O15 0.745644 0.858041 0.007035
O O16 0.500000 0.000000 0.000000
#
# Coordination Sequence:
#
# PCOD9111082 Si02
#       8
#     2   2   2   1   2   2   2   2
#     4  11  25  42  63  99 136 177 224 279 344 407
#     4  10  22  40  65  96 135 167 224 277 337 402
#     4   9  20  39  67  97 122 174 231 272 338 402
#     4  10  20  42  68  98 128 174 222 276 336 404
#     4  10  21  41  67  91 132 175 224 281 330 409
#     4  11  22  44  63  96 133 175 226 284 332 407
#     4  10  23  42  65  99 136 175 222 280 339 403
#     4  10  20  44  68  94 136 175 223 277 339 403
#
# _framework density 26.758759999999999
#
# number of rings (size 3 to 8) (size 9 to 14) (size 15 to 20)
#    0.000    1.867    2.667    0.400    1.867    2.133 
#    4.800    1.333    0.000    0.000    0.000    0.000 
#    0.000    0.000    0.000    0.000    0.000    0.000 
#
# Total GULP energy -83702.404096 kJ/mol
# GULP energy per Si atom -5580.160273 kJ/mol
# Density = 2.669786 g / cm^3
# Si number density = 26.758760 Si / 1000 Ang^3
#
#
#
# Elastic Constant Matrix: (Units=GPa)
#
#
# Indices 1 2 3 4 5 6 
#
# 1 112.2209 33.0549 13.8691 13.9512 -25.6373 -13.2170
# 2 33.0549 141.0453 8.0844 15.3514 -22.9992 -22.8528
# 3 13.8691 8.0844 51.8623 7.1349 -22.3180 -8.2199
# 4 13.9512 15.3514 7.1349 50.4793 -14.1075 -17.8343
# 5 -25.6373 -22.9992 -22.3180 -14.1075 44.8325 14.0798
# 6 -13.2170 -22.8528 -8.2199 -17.8343 14.0798 56.5429
#
#
#
# Elastic Compliance Matrix: (Units=1/GPa)
#
#
# Indices 1 2 3 4 5 6 
#
# 1 0.010648 -0.001548 -0.000405 -0.000992 0.004678 0.000326
# 2 -0.001548 0.008301 0.000794 -0.000629 0.002882 0.002193
# 3 -0.000405 0.000794 0.024638 0.000082 0.012219 0.000792
# 4 -0.000992 -0.000629 0.000082 0.023645 0.004771 0.005796
# 5 0.004678 0.002882 0.012219 0.004771 0.035044 -0.003187
# 6 0.000326 0.002193 0.000792 0.005796 -0.003187 0.021385
#
#
# Mechanical properties :
#
#
# Convention : Reuss Voigt Hill
#
# Bulk Modulus (GPa) = 24.23095 46.12727 35.17911
# Shear Modulus (GPa) = 35.78218 47.04560 41.41389
#
# Velocity S-wave (km/s) = 3.66076 4.19756 3.93832
# Velocity P-wave (km/s) = 5.19069 6.38501 5.81857
#
# Compressibility (1/GPa) = 0.04126953
#
# Stress axis : x y z
#
# Youngs Moduli (GPa) = 93.91744 120.46914 40.58702
#
# Poissons Ratio (x) = 0.18654 0.01642
# Poissons Ratio (y) = 0.14543 -0.03224
# Poissons Ratio (z) = 0.03800 -0.09569
#
# Static dielectric constant tensor:
#      x y z
#    x 2.950890 0.753420 0.160500 
#    y 0.753420 2.738810 0.086750 
#    z 0.160500 0.086750 2.199240 
# 
# From -- ./inp_files/490479.got.cif
#   From: 2010.05.17/outbox.cif.g08.bks.cpg/sg2_246_cif.got.tgz:490479.got - 2010.06.03 11:33:40.
