data_PCOD9111202
_publ_section_title
;
Structure prediction by ZEFSAII (Michael W. Deem and Ramdas Pophale) SiO2 
 PCOD9111202
Probable space group: P -1
;
_chemical_formula_sum "Si O2"
_cell_formula_units_Z 13
_cell_length_a 11.989987
_cell_length_b 5.115512
_cell_length_c 12.016749
_cell_angle_alpha 87.737697
_cell_angle_beta 136.035083
_cell_angle_gamma 102.375982
_cell_volume 492.567310
_symmetry_space_group_name_H-M "P -1"
_symmetry_group_IT_number 2
_symmetry_cell_setting 'triclinic'
loop_
_space_group_symop_operation_xyz
x,y,z
-x,-y,-z
loop_
_atom_site_type_symbol
_atom_site_label
_atom_site_fract_x
_atom_site_fract_y
_atom_site_fract_z
Si Si1 0.467726 0.810823 0.372293
Si Si2 0.956274 0.436677 0.617430
Si Si3 0.874459 0.390912 0.806964
Si Si4 0.641539 0.592429 0.330553
Si Si5 0.000000 0.000000 0.000000
Si Si6 0.324811 0.125828 0.077232
Si Si7 0.172104 0.020909 0.734463
O O1 0.304169 0.572585 0.292133
O O2 0.618376 0.711578 0.432918
O O3 0.500000 0.000000 0.500000
O O4 0.411522 0.951224 0.221527
O O5 0.037202 0.188989 0.663792
O O6 0.950509 0.501369 0.744061
O O7 0.768680 0.407182 0.442557
O O8 0.073910 0.711219 0.645079
O O9 0.000000 0.500000 0.000000
O O10 0.865013 0.075024 0.815748
O O11 0.458614 0.417807 0.165563
O O12 0.720641 0.819233 0.292754
O O13 0.148898 0.105230 0.010734
O O14 0.285207 0.026707 0.924543
#
# Coordination Sequence:
#
# PCOD9111202 Si02
#       7
#     2   2   2   2   1   2   2
#     4  11  27  45  74 112 155 201 256 327 395 463
#     4  12  28  50  82 113 162 211 263 324 395 471
#     4  11  23  42  74 106 150 197 262 314 394 456
#     4  12  29  49  77 114 164 207 265 328 398 468
#     4  10  20  42  70 108 150 186 256 312 388 450
#     4  11  25  46  81 114 154 205 267 325 396 466
#     4  12  29  52  82 117 157 214 267 324 391 475
#
# _framework density 26.392330000000001
#
# number of rings (size 3 to 8) (size 9 to 14) (size 15 to 20)
#    0.000    0.615    1.538    5.077    8.615    4.308 
#    0.000    0.000    0.000    0.000    0.000    0.000 
#    0.000    0.000    0.000    0.000    0.000    0.000 
#
# Total GULP energy -72643.278620 kJ/mol
# GULP energy per Si atom -5587.944509 kJ/mol
# Density = 2.633226 g / cm^3
# Si number density = 26.392330 Si / 1000 Ang^3
#
#
#
# Elastic Constant Matrix: (Units=GPa)
#
#
# Indices 1 2 3 4 5 6 
#
# 1 187.7535 33.6867 47.9093 -0.6527 10.0771 11.2857
# 2 33.6867 82.2039 22.1895 -1.1822 11.9616 3.1228
# 3 47.9093 22.1895 127.5136 -0.4256 -12.7877 2.3992
# 4 -0.6527 -1.1822 -0.4256 50.0927 6.7429 -3.1828
# 5 10.0771 11.9616 -12.7877 6.7429 38.6833 0.3050
# 6 11.2857 3.1228 2.3992 -3.1828 0.3050 52.1087
#
#
#
# Elastic Compliance Matrix: (Units=1/GPa)
#
#
# Indices 1 2 3 4 5 6 
#
# 1 0.006381 -0.001673 -0.002277 0.000210 -0.001925 -0.001153
# 2 -0.001673 0.014215 -0.002327 0.000933 -0.004889 -0.000297
# 3 -0.002277 -0.002327 0.009557 -0.000611 0.004577 0.000128
# 4 0.000210 0.000933 -0.000611 0.020618 -0.004149 0.001210
# 5 -0.001925 -0.004889 0.004577 -0.004149 0.030100 0.000070
# 6 -0.001153 -0.000297 0.000128 0.001210 0.000070 0.019526
#
#
# Mechanical properties :
#
#
# Convention : Reuss Voigt Hill
#
# Bulk Modulus (GPa) = 56.82028 67.22689 62.02358
# Shear Modulus (GPa) = 42.08197 47.75596 44.91896
#
# Velocity S-wave (km/s) = 3.99742 4.25839 4.12997
# Velocity P-wave (km/s) = 6.54841 7.05025 6.80396
#
# Compressibility (1/GPa) = 0.01759935
#
# Stress axis : x y z
#
# Youngs Moduli (GPa) = 156.72359 70.34992 104.63335
#
# Poissons Ratio (x) = 0.11771 0.23823
# Poissons Ratio (y) = 0.26224 0.24343
# Poissons Ratio (z) = 0.35683 0.16367
#
# Static dielectric constant tensor:
#      x y z
#    x 2.021050 -0.011030 0.009940 
#    y -0.011030 2.015870 -0.012720 
#    z 0.009940 -0.012720 2.050600 
# 
# From -- ./inp_files/410399.got.cif
#   From: 2010.05.17/outbox.cif.g08.bks.cpg/sg2_206_cif.got.tgz:410399.got - 2010.06.03 11:33:40.
