data_PCOD9111154
_publ_section_title
;
Structure prediction by ZEFSAII (Michael W. Deem and Ramdas Pophale) SiO2 
 PCOD9111154
Probable space group: P -1
;
_chemical_formula_sum "Si O2"
_cell_formula_units_Z 16
_cell_length_a 14.920246
_cell_length_b 11.552811
_cell_length_c 9.150444
_cell_angle_alpha 31.626738
_cell_angle_beta 64.456010
_cell_angle_gamma 73.782895
_cell_volume 733.261606
_symmetry_space_group_name_H-M "P -1"
_symmetry_group_IT_number 2
_symmetry_cell_setting 'triclinic'
loop_
_space_group_symop_operation_xyz
x,y,z
-x,-y,-z
loop_
_atom_site_type_symbol
_atom_site_label
_atom_site_fract_x
_atom_site_fract_y
_atom_site_fract_z
Si Si1 0.455372 0.238697 0.751359
Si Si2 0.095240 0.438181 0.312758
Si Si3 0.291833 0.248724 0.090955
Si Si4 0.106603 0.352833 0.728256
Si Si5 0.195562 0.596865 0.659775
Si Si6 0.035930 0.906480 0.426157
Si Si7 0.541942 0.403390 0.218220
Si Si8 0.721114 0.218592 0.322890
O O1 0.500000 0.500000 0.500000
O O2 0.462004 0.288541 0.519495
O O3 0.350211 0.202634 0.951368
O O4 0.500000 0.000000 0.000000
O O5 0.123189 0.361892 0.535139
O O6 0.002434 0.574552 0.245778
O O7 0.050982 0.224213 0.476274
O O8 0.191304 0.597735 0.004023
O O9 0.252897 0.023683 0.446641
O O10 0.198636 0.358409 0.987061
O O11 0.376026 0.402548 0.967486
O O12 0.189121 0.537622 0.557367
O O13 0.098424 0.108414 0.068156
O O14 0.104015 0.722891 0.618120
O O15 0.285563 0.733863 0.547310
O O16 0.000000 0.000000 0.500000
O O17 0.613420 0.225408 0.321642
O O18 0.500000 0.500000 0.000000
#
# Coordination Sequence:
#
# PCOD9111154 Si02
#       8
#     2   2   2   2   2   2   2   2
#     4  10  20  42  69  97 127 175 220 269 337 407
#     4  10  23  38  60  89 129 166 212 266 325 390
#     4  10  22  41  67  91 128 168 213 274 325 405
#     4  10  21  40  59  88 127 170 212 265 326 387
#     4  10  22  38  60  94 123 163 220 268 315 389
#     4  11  21  38  64  90 123 172 220 267 322 387
#     4  10  23  41  64  98 131 165 217 272 339 407
#     4  11  21  39  61  89 128 163 214 264 331 389
#
# _framework density 21.820315999999998
#
# number of rings (size 3 to 8) (size 9 to 14) (size 15 to 20)
#    0.000    1.750    1.250    2.625    0.000    6.500 
#    0.000    3.125    0.000    0.000    0.000    0.000 
#    0.000    0.000    0.000    0.000    0.000    0.000 
#
# Total GULP energy -89115.554287 kJ/mol
# GULP energy per Si atom -5569.722143 kJ/mol
# Density = 2.177065 g / cm^3
# Si number density = 21.820316 Si / 1000 Ang^3
#
#
#
# Elastic Constant Matrix: (Units=GPa)
#
#
# Indices 1 2 3 4 5 6 
#
# 1 93.4535 52.1420 45.6173 5.4188 37.9822 14.2121
# 2 52.1420 110.0890 65.0208 4.0278 24.2926 4.4529
# 3 45.6173 65.0208 136.5946 5.0521 16.2798 3.4654
# 4 5.4188 4.0278 5.0521 35.4103 -1.0833 10.1561
# 5 37.9822 24.2926 16.2798 -1.0833 41.9872 -1.5962
# 6 14.2121 4.4529 3.4654 10.1561 -1.5962 32.3278
#
#
#
# Elastic Compliance Matrix: (Units=1/GPa)
#
#
# Indices 1 2 3 4 5 6 
#
# 1 0.023930 -0.005096 -0.003167 -0.000226 -0.017868 -0.010290
# 2 -0.005096 0.015003 -0.005199 -0.000470 -0.002037 0.000779
# 3 -0.003167 -0.005199 0.010637 -0.000758 0.001778 0.001294
# 4 -0.000226 -0.000470 -0.000758 0.031197 0.001214 -0.009496
# 5 -0.017868 -0.002037 0.001778 0.001214 0.040865 0.009581
# 6 -0.010290 0.000779 0.001294 -0.009496 0.009581 0.038667
#
#
# Mechanical properties :
#
#
# Convention : Reuss Voigt Hill
#
# Bulk Modulus (GPa) = 44.16022 73.96637 59.06330
# Shear Modulus (GPa) = 25.67101 33.76885 29.71993
#
# Velocity S-wave (km/s) = 3.43370 3.93821 3.69457
# Velocity P-wave (km/s) = 6.00020 7.39262 6.73250
#
# Compressibility (1/GPa) = 0.02264482
#
# Stress axis : x y z
#
# Youngs Moduli (GPa) = 41.78909 66.65128 94.01367
#
# Poissons Ratio (x) = 0.33968 0.29771
# Poissons Ratio (y) = 0.21298 0.48882
# Poissons Ratio (z) = 0.13233 0.34655
#
# Static dielectric constant tensor:
#      x y z
#    x 1.834440 -0.022730 0.019950 
#    y -0.022730 1.888440 -0.086880 
#    z 0.019950 -0.086880 1.850520 
# 
# From -- ./inp_files/306069.got.cif
#   From: 2010.05.17/outbox.cif.g08.bks.cpg/sg2_154_cif.got.tgz:306069.got - 2010.06.03 11:33:40.
