data_PCOD9111749
_publ_section_title
;
Structure prediction by ZEFSAII (Michael W. Deem and Ramdas Pophale) SiO2 
 PCOD9111749
Probable space group: P -1
;
_chemical_formula_sum "Si O2"
_cell_formula_units_Z 16
_cell_length_a 9.447201
_cell_length_b 7.917310
_cell_length_c 14.054896
_cell_angle_alpha 101.683959
_cell_angle_beta 122.767841
_cell_angle_gamma 113.473091
_cell_volume 681.354008
_symmetry_space_group_name_H-M "P -1"
_symmetry_group_IT_number 2
_symmetry_cell_setting 'triclinic'
loop_
_space_group_symop_operation_xyz
x,y,z
-x,-y,-z
loop_
_atom_site_type_symbol
_atom_site_label
_atom_site_fract_x
_atom_site_fract_y
_atom_site_fract_z
Si Si1 0.496182 0.398905 0.388249
Si Si2 0.573203 0.048993 0.673579
Si Si3 0.382961 0.438346 0.156769
Si Si4 0.040294 0.552347 0.249836
Si Si5 0.037167 0.366957 0.425929
Si Si6 0.743230 0.313271 0.958395
Si Si7 0.420578 0.619399 0.930264
Si Si8 0.776430 0.939270 0.379665
O O1 0.500000 0.500000 0.500000
O O2 0.458269 0.173920 0.367298
O O3 0.345793 0.376706 0.247084
O O4 0.736226 0.569686 0.455669
O O5 0.259095 0.780329 0.324449
O O6 0.352836 0.019937 0.588215
O O7 0.671869 0.155656 0.826049
O O8 0.226919 0.471492 0.048424
O O9 0.437775 0.297189 0.103670
O O10 0.602510 0.688785 0.258843
O O11 0.062076 0.446995 0.336909
O O12 0.952464 0.402175 0.105656
O O13 0.836285 0.546716 0.200421
O O14 0.000000 0.500000 0.500000
O O15 0.847447 0.112845 0.341471
O O16 0.569727 0.221412 0.970678
O O17 0.500000 0.500000 0.000000
O O18 0.000000 0.000000 0.500000
#
# Coordination Sequence:
#
# PCOD9111749 Si02
#       8
#     2   2   2   2   2   2   2   2
#     4  12  28  43  68 104 148 184 239 289 353 419
#     4  11  24  45  70 105 140 189 229 293 359 409
#     4  10  20  43  69  96 142 180 233 290 343 413
#     4  10  23  40  73 102 144 176 235 283 357 418
#     4  12  25  45  69 100 141 188 234 296 350 408
#     4   8  20  41  71  97 134 185 228 285 354 405
#     4   8  17  37  69  97 129 179 226 284 342 410
#     4  11  24  41  70  97 132 188 236 279 347 416
#
# _framework density 23.482654
#
# number of rings (size 3 to 8) (size 9 to 14) (size 15 to 20)
#    0.750    1.000    2.500    1.125    3.500    2.500 
#    0.000    8.750    0.000    0.000    0.000    0.000 
#    0.000    0.000    0.000    0.000    0.000    0.000 
#
# Total GULP energy -89280.394565 kJ/mol
# GULP energy per Si atom -5580.024660 kJ/mol
# Density = 2.342921 g / cm^3
# Si number density = 23.482654 Si / 1000 Ang^3
#
#
#
# Elastic Constant Matrix: (Units=GPa)
#
#
# Indices 1 2 3 4 5 6 
#
# 1 88.1708 28.6306 45.8154 -2.8770 -14.7969 -7.3968
# 2 28.6306 75.4713 39.1175 -4.0957 -6.7257 9.2033
# 3 45.8154 39.1175 121.2310 -26.6496 -16.7967 -3.7545
# 4 -2.8770 -4.0957 -26.6496 31.3931 -5.8307 -5.9179
# 5 -14.7969 -6.7257 -16.7967 -5.8307 54.8754 2.5555
# 6 -7.3968 9.2033 -3.7545 -5.9179 2.5555 31.2047
#
#
#
# Elastic Compliance Matrix: (Units=1/GPa)
#
#
# Indices 1 2 3 4 5 6 
#
# 1 0.015618 -0.003876 -0.004716 -0.002019 0.001904 0.003739
# 2 -0.003876 0.018367 -0.005778 -0.004464 -0.000673 -0.007823
# 3 -0.004716 -0.005778 0.015616 0.013712 0.004036 0.004735
# 4 -0.002019 -0.004464 0.013712 0.046124 0.007512 0.010620
# 5 0.001904 -0.000673 0.004036 0.007512 0.020647 0.000869
# 6 0.003739 -0.007823 0.004735 0.010620 0.000869 0.037752
#
#
# Mechanical properties :
#
#
# Convention : Reuss Voigt Hill
#
# Bulk Modulus (GPa) = 47.93886 56.88890 52.41388
# Shear Modulus (GPa) = 26.34081 34.91529 30.62805
#
# Velocity S-wave (km/s) = 3.35283 3.86016 3.61541
# Velocity P-wave (km/s) = 5.95378 6.64427 6.30848
#
# Compressibility (1/GPa) = 0.02085991
#
# Stress axis : x y z
#
# Youngs Moduli (GPa) = 64.02792 54.44459 64.03865
#
# Poissons Ratio (x) = 0.21105 0.30199
# Poissons Ratio (y) = 0.24820 0.37003
# Poissons Ratio (z) = 0.30194 0.31460
#
# Static dielectric constant tensor:
#      x y z
#    x 1.985840 -0.023330 -0.007880 
#    y -0.023330 1.856320 -0.006790 
#    z -0.007880 -0.006790 1.962220 
# 
# From -- ./inp_files/382709.got.cif
#   From: 2010.05.17/outbox.cif.g08.bks.cpg/sg2_192_cif.got.tgz:382709.got - 2010.06.03 11:33:40.
