data_PCOD9111732
_publ_section_title
;
Structure prediction by ZEFSAII (Michael W. Deem and Ramdas Pophale) SiO2 
 PCOD9111732
Probable space group: P -1
;
_chemical_formula_sum "Si O2"
_cell_formula_units_Z 10
_cell_length_a 12.423372
_cell_length_b 15.189370
_cell_length_c 16.203710
_cell_angle_alpha 162.234921
_cell_angle_beta 26.822927
_cell_angle_gamma 152.675166
_cell_volume 404.124003
_symmetry_space_group_name_H-M "P -1"
_symmetry_group_IT_number 2
_symmetry_cell_setting 'triclinic'
loop_
_space_group_symop_operation_xyz
x,y,z
-x,-y,-z
loop_
_atom_site_type_symbol
_atom_site_label
_atom_site_fract_x
_atom_site_fract_y
_atom_site_fract_z
Si Si1 0.852820 0.863690 0.364591
Si Si2 0.675256 0.171910 0.910105
Si Si3 0.177919 0.871807 0.920425
Si Si4 0.659358 0.812471 0.274981
Si Si5 0.764733 0.480143 0.588793
O O1 0.789502 0.957241 0.400767
O O2 0.137404 0.855279 0.170075
O O3 0.805455 0.096239 0.670435
O O4 0.691277 0.525142 0.201597
O O5 0.410366 0.914858 0.862520
O O6 0.174369 0.214279 0.228659
O O7 0.883591 0.711420 0.988532
O O8 0.265562 0.781484 0.691211
O O9 0.450976 0.541121 0.216299
O O10 0.500000 0.000000 0.500000
O O11 0.000000 0.500000 0.500000
#
# Coordination Sequence:
#
# PCOD9111732 Si02
#       5
#     2   2   2   2   2
#     4  10  22  41  68  96 132 174 223 272 330 397
#     4  10  20  43  69  93 131 178 218 276 333 384
#     4  12  25  43  71  98 133 179 223 275 339 391
#     4  12  26  43  70 104 134 180 225 274 336 407
#     4  12  26  46  64  98 141 177 222 276 330 400
#
# _framework density 24.744879999999998
#
# number of rings (size 3 to 8) (size 9 to 14) (size 15 to 20)
#    0.000    0.800    6.000    0.600    0.000    4.800 
#    0.000    0.000    0.000    9.600    0.000    0.000 
#    0.000    0.000    0.000    0.000    0.000    0.000 
#
# Total GULP energy -55744.426662 kJ/mol
# GULP energy per Si atom -5574.442666 kJ/mol
# Density = 2.468856 g / cm^3
# Si number density = 24.744880 Si / 1000 Ang^3
#
#
#
# Elastic Constant Matrix: (Units=GPa)
#
#
# Indices 1 2 3 4 5 6 
#
# 1 157.8162 29.4781 25.3016 -7.8779 -11.7534 30.0125
# 2 29.4781 118.4519 25.1930 -34.8044 -7.9003 22.6171
# 3 25.3016 25.1930 76.4379 -6.5340 -1.6981 6.1123
# 4 -7.8779 -34.8044 -6.5340 39.0632 11.1933 -0.6924
# 5 -11.7534 -7.9003 -1.6981 11.1933 29.4136 -7.6895
# 6 30.0125 22.6171 6.1123 -0.6924 -7.6895 43.2314
#
#
#
# Elastic Compliance Matrix: (Units=1/GPa)
#
#
# Indices 1 2 3 4 5 6 
#
# 1 0.007739 -0.000429 -0.001992 0.000323 0.001540 -0.004588
# 2 -0.000429 0.014029 -0.002905 0.012734 -0.003248 -0.007005
# 3 -0.001992 -0.002905 0.014593 -0.000430 -0.000370 0.000767
# 4 0.000323 0.012734 -0.000430 0.040885 -0.014313 -0.008716
# 5 0.001540 -0.003248 -0.000370 -0.014313 0.041201 0.007781
# 6 -0.004588 -0.007005 0.000767 -0.008716 0.007781 0.031117
#
#
# Mechanical properties :
#
#
# Convention : Reuss Voigt Hill
#
# Bulk Modulus (GPa) = 38.89587 56.96129 47.92858
# Shear Modulus (GPa) = 29.62322 40.52383 35.07353
#
# Velocity S-wave (km/s) = 3.46373 4.05120 3.76893
# Velocity P-wave (km/s) = 5.63467 6.70465 6.19281
#
# Compressibility (1/GPa) = 0.02570967
#
# Stress axis : x y z
#
# Youngs Moduli (GPa) = 129.21245 71.27912 68.52545
#
# Poissons Ratio (x) = 0.03056 0.13649
# Poissons Ratio (y) = 0.05540 0.19910
# Poissons Ratio (z) = 0.25736 0.20710
#
# Static dielectric constant tensor:
#      x y z
#    x 1.878240 -0.054210 0.007110 
#    y -0.054210 1.910590 0.002740 
#    z 0.007110 0.002740 1.855320 
# 
# From -- ./inp_files/33141.got.cif
#   From: 2010.05.17/outbox.cif.g08.bks.cpg/sg2_17_cif.got.tgz:33141.got - 2010.06.03 11:33:40.
