data_PCOD9111935
_publ_section_title
;
Structure prediction by ZEFSAII (Michael W. Deem and Ramdas Pophale) SiO2 
 PCOD9111935
Probable space group: P -1
;
_chemical_formula_sum "Si O2"
_cell_formula_units_Z 15
_cell_length_a 11.788137
_cell_length_b 11.540274
_cell_length_c 7.691167
_cell_angle_alpha 51.574597
_cell_angle_beta 51.968650
_cell_angle_gamma 83.079318
_cell_volume 584.361705
_symmetry_space_group_name_H-M "P -1"
_symmetry_group_IT_number 2
_symmetry_cell_setting 'triclinic'
loop_
_space_group_symop_operation_xyz
x,y,z
-x,-y,-z
loop_
_atom_site_type_symbol
_atom_site_label
_atom_site_fract_x
_atom_site_fract_y
_atom_site_fract_z
Si Si1 0.500000 0.000000 0.000000
Si Si2 0.897953 0.021379 0.414489
Si Si3 0.658542 0.974024 0.175484
Si Si4 0.247480 0.421633 0.126192
Si Si5 0.955686 0.644805 0.947898
Si Si6 0.547493 0.741580 0.976168
Si Si7 0.658955 0.225226 0.178830
Si Si8 0.831798 0.757774 0.266776
O O1 0.334703 0.972672 0.077042
O O2 0.480216 0.812351 0.129694
O O3 0.729091 0.881116 0.662178
O O4 0.000000 0.000000 0.500000
O O5 0.890612 0.193848 0.294973
O O6 0.015838 0.075674 0.087211
O O7 0.465675 0.905074 0.449046
O O8 0.696611 0.821250 0.311084
O O9 0.738908 0.123829 0.093821
O O10 0.416168 0.418511 0.915815
O O11 0.185544 0.325702 0.454225
O O12 0.127506 0.333218 0.167465
O O13 0.252426 0.600608 0.979550
O O14 0.837397 0.631190 0.232676
O O15 0.000000 0.500000 0.000000
O O16 0.445236 0.740428 0.905828
#
# Coordination Sequence:
#
# PCOD9111935 Si02
#       8
#     1   2   2   2   2   2   2   2
#     4  10  22  38  68 102 130 182 226 290 342 404
#     4  10  21  45  70  99 139 181 236 292 335 418
#     4  10  20  44  63 102 136 175 248 267 353 413
#     4  12  23  47  71 101 149 180 230 291 361 415
#     4  10  25  47  66 103 139 182 234 292 350 408
#     4  11  21  43  69 100 138 179 233 283 348 409
#     4  10  24  40  69 103 142 181 222 299 336 418
#     4  10  24  45  72 105 133 192 235 282 358 417
#
# _framework density 25.669034
#
# number of rings (size 3 to 8) (size 9 to 14) (size 15 to 20)
#    0.800    0.800    2.667    2.000    0.000    4.267 
#   12.000    1.333    0.000    0.000    0.000    0.000 
#    0.000    0.000    0.000    0.000    0.000    0.000 
#
# Total GULP energy -83540.526326 kJ/mol
# GULP energy per Si atom -5569.368422 kJ/mol
# Density = 2.561061 g / cm^3
# Si number density = 25.669034 Si / 1000 Ang^3
#
#
#
# Elastic Constant Matrix: (Units=GPa)
#
#
# Indices 1 2 3 4 5 6 
#
# 1 85.9222 29.4432 3.8468 8.6181 10.6367 -7.6368
# 2 29.4432 203.3065 17.5834 -3.2339 18.6176 5.4285
# 3 3.8468 17.5834 35.6009 6.2247 14.8206 7.3404
# 4 8.6181 -3.2339 6.2247 40.0491 8.1810 3.7512
# 5 10.6367 18.6176 14.8206 8.1810 22.3277 -10.8706
# 6 -7.6368 5.4285 7.3404 3.7512 -10.8706 47.1743
#
#
#
# Elastic Compliance Matrix: (Units=1/GPa)
#
#
# Indices 1 2 3 4 5 6 
#
# 1 0.013034 -0.001699 0.001278 -0.002433 -0.004089 0.001358
# 2 -0.001699 0.005833 -0.000034 0.002330 -0.006121 -0.002537
# 3 0.001278 -0.000034 0.048663 0.002389 -0.042165 -0.017268
# 4 -0.002433 0.002330 0.002389 0.029385 -0.016644 -0.007206
# 5 -0.004089 -0.006121 -0.042165 -0.016644 0.101131 0.031231
# 6 0.001358 -0.002537 -0.017268 -0.007206 0.031231 0.032166
#
#
# Mechanical properties :
#
#
# Convention : Reuss Voigt Hill
#
# Bulk Modulus (GPa) = 15.00997 47.39738 31.20367
# Shear Modulus (GPa) = 19.73725 40.17396 29.95560
#
# Velocity S-wave (km/s) = 2.77594 3.96039 3.41984
# Velocity P-wave (km/s) = 4.01679 6.27836 5.27032
#
# Compressibility (1/GPa) = 0.06662240
#
# Stress axis : x y z
#
# Youngs Moduli (GPa) = 76.72142 171.44172 20.54930
#
# Poissons Ratio (x) = 0.29122 -0.02627
# Poissons Ratio (y) = 0.13032 0.00069
# Poissons Ratio (z) = -0.09806 0.00576
#
# Static dielectric constant tensor:
#      x y z
#    x 0.173080 -0.801030 -0.847700 
#    y -0.801030 1.793080 -0.284870 
#    z -0.847700 -0.284870 1.743320 
# 
# From -- ./inp_files/256220.got.cif
#   From: 2010.05.17/outbox.cif.g08.bks.cpg/sg2_129_cif.got.tgz:256220.got - 2010.06.03 11:33:40.
