data_PCOD9111077
_publ_section_title
;
Structure prediction by ZEFSAII (Michael W. Deem and Ramdas Pophale) SiO2 
 PCOD9111077
Probable space group: P -1
;
_chemical_formula_sum "Si O2"
_cell_formula_units_Z 14
_cell_length_a 8.726140
_cell_length_b 9.893613
_cell_length_c 24.494123
_cell_angle_alpha 34.290037
_cell_angle_beta 39.764951
_cell_angle_gamma 30.272037
_cell_volume 589.144018
_symmetry_space_group_name_H-M "P -1"
_symmetry_group_IT_number 2
_symmetry_cell_setting 'triclinic'
loop_
_space_group_symop_operation_xyz
x,y,z
-x,-y,-z
loop_
_atom_site_type_symbol
_atom_site_label
_atom_site_fract_x
_atom_site_fract_y
_atom_site_fract_z
Si Si1 0.152757 0.149062 0.061154
Si Si2 0.572799 0.071672 0.676762
Si Si3 0.181224 0.582249 0.042644
Si Si4 0.436654 0.986213 0.619930
Si Si5 0.762186 0.300273 0.719014
Si Si6 0.419621 0.102158 0.826550
Si Si7 0.214443 0.774187 0.566936
O O1 0.151834 0.940077 0.175674
O O2 0.000000 0.500000 0.000000
O O3 0.970349 0.190105 0.043041
O O4 0.500000 0.000000 0.000000
O O5 0.431134 0.043823 0.778672
O O6 0.437559 0.426476 0.599417
O O7 0.477096 0.015055 0.664414
O O8 0.946001 0.841350 0.656948
O O9 0.910145 0.742609 0.108153
O O10 0.304797 0.236359 0.110934
O O11 0.500000 0.500000 0.000000
O O12 0.612039 0.632713 0.674398
O O13 0.589590 0.119599 0.504112
O O14 0.075569 0.177582 0.643871
O O15 0.525953 0.305564 0.743259
O O16 0.000000 0.000000 0.500000
#
# Coordination Sequence:
#
# PCOD9111077 Si02
#       7
#     2   2   2   2   2   2   2
#     4  12  23  46  71  95 134 189 230 268 348 411
#     4  11  23  43  69  99 135 179 222 282 342 403
#     4  12  26  47  69 100 139 180 232 289 336 410
#     4  11  23  41  69 102 129 177 232 279 324 409
#     4  12  24  42  69  99 138 175 230 279 334 410
#     4  12  26  47  67 101 143 179 219 286 359 395
#     4  10  20  42  68  97 135 176 224 278 339 400
#
# _framework density 23.763289
#
# number of rings (size 3 to 8) (size 9 to 14) (size 15 to 20)
#    0.000    0.571    2.857    7.286    2.000    0.000 
#    0.000    4.286    0.000    0.000    0.000    0.000 
#    0.000    0.000    0.000    0.000    0.000    0.000 
#
# Total GULP energy -78391.909925 kJ/mol
# GULP energy per Si atom -5599.422138 kJ/mol
# Density = 2.370920 g / cm^3
# Si number density = 23.763289 Si / 1000 Ang^3
#
#
#
# Elastic Constant Matrix: (Units=GPa)
#
#
# Indices 1 2 3 4 5 6 
#
# 1 72.0279 13.3376 17.4119 14.9706 -11.6142 -11.8122
# 2 13.3376 175.5293 34.4791 4.8780 -17.3161 -3.0468
# 3 17.4119 34.4791 61.3121 11.5675 -20.2249 7.2650
# 4 14.9706 4.8780 11.5675 56.8033 -7.0990 -14.7448
# 5 -11.6142 -17.3161 -20.2249 -7.0990 34.1571 -2.0550
# 6 -11.8122 -3.0468 7.2650 -14.7448 -2.0550 34.8347
#
#
#
# Elastic Compliance Matrix: (Units=1/GPa)
#
#
# Indices 1 2 3 4 5 6 
#
# 1 0.016724 0.000005 -0.004076 -0.001597 0.003307 0.006041
# 2 0.000005 0.006549 -0.003549 0.000797 0.001491 0.001740
# 3 -0.004076 -0.003549 0.024548 -0.004489 0.009928 -0.008126
# 4 -0.001597 0.000797 -0.004489 0.021699 0.002302 0.009785
# 5 0.003307 0.001491 0.009928 0.002302 0.037657 0.002377
# 6 0.006041 0.001740 -0.008126 0.009785 0.002377 0.036884
#
#
# Mechanical properties :
#
#
# Convention : Reuss Voigt Hill
#
# Bulk Modulus (GPa) = 30.69237 48.81405 39.75321
# Shear Modulus (GPa) = 29.38409 41.40174 35.39291
#
# Velocity S-wave (km/s) = 3.52025 4.17856 3.86345
# Velocity P-wave (km/s) = 5.42833 6.62321 6.05532
#
# Compressibility (1/GPa) = 0.03258139
#
# Stress axis : x y z
#
# Youngs Moduli (GPa) = 59.79576 152.69700 40.73620
#
# Poissons Ratio (x) = -0.00082 0.16604
# Poissons Ratio (y) = -0.00032 0.14458
# Poissons Ratio (z) = 0.24372 0.54195
#
# Static dielectric constant tensor:
#      x y z
#    x 1.957090 0.033840 0.008950 
#    y 0.033840 1.892450 -0.013790 
#    z 0.008950 -0.013790 1.979090 
# 
# From -- ./inp_files/616458.got.cif
#   From: 2010.05.17/outbox.cif.g08.bks.cpg/sg2_309_cif.got.tgz:616458.got - 2010.06.03 11:33:40.
