data_PCOD9111083
_publ_section_title
;
Structure prediction by ZEFSAII (Michael W. Deem and Ramdas Pophale) SiO2 
 PCOD9111083
Probable space group: P -1
;
_chemical_formula_sum "Si O2"
_cell_formula_units_Z 15
_cell_length_a 14.016006
_cell_length_b 11.918515
_cell_length_c 9.489215
_cell_angle_alpha 143.153638
_cell_angle_beta 66.426505
_cell_angle_gamma 130.095659
_cell_volume 703.746903
_symmetry_space_group_name_H-M "P -1"
_symmetry_group_IT_number 2
_symmetry_cell_setting 'triclinic'
loop_
_space_group_symop_operation_xyz
x,y,z
-x,-y,-z
loop_
_atom_site_type_symbol
_atom_site_label
_atom_site_fract_x
_atom_site_fract_y
_atom_site_fract_z
Si Si1 0.686988 0.811651 0.633437
Si Si2 0.607256 0.426499 0.505019
Si Si3 0.000000 0.500000 0.500000
Si Si4 0.641172 0.572920 0.945693
Si Si5 0.767555 0.267115 0.183856
Si Si6 0.174889 0.981490 0.531977
Si Si7 0.191751 0.571911 0.203964
Si Si8 0.080481 0.399507 0.813287
O O1 0.676834 0.609045 0.520292
O O2 0.543953 0.714434 0.571361
O O3 0.772058 0.901851 0.534276
O O4 0.736308 0.021320 0.921473
O O5 0.644277 0.564543 0.767332
O O6 0.650605 0.258182 0.310089
O O7 0.110522 0.589993 0.643604
O O8 0.096795 0.499072 0.319599
O O9 0.679711 0.406089 0.809653
O O10 0.500000 0.500000 0.000000
O O11 0.753619 0.823650 0.194603
O O12 0.804135 0.404306 0.153069
O O13 0.212349 0.804814 0.367496
O O14 0.019628 0.826060 0.448238
O O15 0.127374 0.386528 0.926182
O O16 0.000000 0.500000 0.000000
#
# Coordination Sequence:
#
# PCOD9111083 Si02
#       8
#     2   2   1   2   2   2   2   2
#     4  11  24  46  71  93 138 177 233 282 333 400
#     4  11  27  45  65 105 132 180 234 280 334 407
#     4  12  22  42  70 100 140 176 222 282 338 410
#     4  12  27  46  67  98 144 180 227 282 338 407
#     4  12  23  45  70  97 138 179 223 287 340 400
#     4  11  23  45  70 104 131 183 227 279 344 404
#     4  11  24  45  70 100 139 180 227 280 340 410
#     4  10  20  42  68  98 131 171 231 272 335 413
#
# _framework density 21.314478999999999
#
# number of rings (size 3 to 8) (size 9 to 14) (size 15 to 20)
#    0.000    0.800    8.000    0.400    3.733    1.067 
#    4.800    2.000    0.000    0.000    0.000    0.000 
#    0.000    0.000    0.000    0.000    0.000    0.000 
#
# Total GULP energy -83512.247705 kJ/mol
# GULP energy per Si atom -5567.483180 kJ/mol
# Density = 2.126597 g / cm^3
# Si number density = 21.314479 Si / 1000 Ang^3
#
#
#
# Elastic Constant Matrix: (Units=GPa)
#
#
# Indices 1 2 3 4 5 6 
#
# 1 -175.5198 723.4306 -655.1782 -723.4776 -253.7272 540.9096
# 2 723.4306-1894.8137 1753.7922 1884.8124 699.7574-1466.3733
# 3 -655.1782 1753.7922-1536.7973-1739.6047 -610.6179 1328.3945
# 4 -723.4776 1884.8124-1739.6047-1821.4024 -681.0348 1437.3976
# 5 -253.7272 699.7574 -610.6179 -681.0348 -218.2499 513.3026
# 6 540.9096-1466.3733 1328.3945 1437.3976 513.3026-1099.5980
#
#
#
# Elastic Compliance Matrix: (Units=1/GPa)
#
#
# Indices 1 2 3 4 5 6 
#
# 1 0.011895 0.002158 0.000946 0.004812 0.000985 0.010867
# 2 0.002158 0.034652 0.012980 0.016672 -0.022522 -0.018188
# 3 0.000946 0.012980 0.020549 0.005892 -0.015562 0.008419
# 4 0.004812 0.016672 0.005892 0.028166 -0.000992 0.023608
# 5 0.000985 -0.022522 -0.015562 -0.000992 0.069375 0.042807
# 6 0.010867 -0.018188 0.008419 0.023608 0.042807 0.089705
#
#
# Mechanical properties :
#
#
# Convention : Reuss Voigt Hill
#
# Bulk Modulus (GPa) = 10.07430 4.10649 7.09040
# Shear Modulus (GPa) = 19.58772 -989.79509 -485.10369
#
# Velocity S-wave (km/s) = 3.03477 -21.57278 -15.10257
# Velocity P-wave (km/s) = 4.12511 24.87132 17.34310
#
# Compressibility (1/GPa) = 0.09926245
#
# Stress axis : x y z
#
# Youngs Moduli (GPa) = 84.06966 28.85862 48.66353
#
# Poissons Ratio (x) = -0.06227 -0.04603
# Poissons Ratio (y) = -0.18141 -0.63163
# Poissons Ratio (z) = -0.07952 -0.37457
#
# Static dielectric constant tensor:
#      x y z
#    x 1.775870 0.004380 -0.015950 
#    y 0.004380 1.867630 -0.007310 
#    z -0.015950 -0.007310 1.790970 
# 
# From -- ./inp_files/256145.got.cif
#   From: 2010.05.17/outbox.cif.g08.bks.cpg/sg2_129_cif.got.tgz:256145.got - 2010.06.03 11:33:40.
