data_PCOD9111591
_publ_section_title
;
Structure prediction by ZEFSAII (Michael W. Deem and Ramdas Pophale) SiO2 
 PCOD9111591
Probable space group: P -1
;
_chemical_formula_sum "Si O2"
_cell_formula_units_Z 15
_cell_length_a 9.850784
_cell_length_b 6.955885
_cell_length_c 12.491904
_cell_angle_alpha 47.679218
_cell_angle_beta 90.584842
_cell_angle_gamma 100.321562
_cell_volume 615.425619
_symmetry_space_group_name_H-M "P -1"
_symmetry_group_IT_number 2
_symmetry_cell_setting 'triclinic'
loop_
_space_group_symop_operation_xyz
x,y,z
-x,-y,-z
loop_
_atom_site_type_symbol
_atom_site_label
_atom_site_fract_x
_atom_site_fract_y
_atom_site_fract_z
Si Si1 0.782909 0.895444 0.413624
Si Si2 0.643245 0.998069 0.563438
Si Si3 0.884675 0.348731 0.900402
Si Si4 0.589213 0.371756 0.831567
Si Si5 0.505730 0.906110 0.285544
Si Si6 0.967481 0.871837 0.833841
Si Si7 0.091634 0.588948 0.360138
Si Si8 0.500000 0.500000 0.000000
O O1 0.766664 0.076669 0.449005
O O2 0.638889 0.841849 0.368213
O O3 0.809035 0.615006 0.558393
O O4 0.907227 0.029870 0.285910
O O5 0.644703 0.693256 0.704266
O O6 0.500000 0.000000 0.500000
O O7 0.627160 0.158156 0.610200
O O8 0.721575 0.247628 0.907834
O O9 0.960124 0.442794 0.752883
O O10 0.884008 0.590106 0.893308
O O11 0.963052 0.163928 0.038352
O O12 0.523315 0.248595 0.767413
O O13 0.484711 0.351431 0.937376
O O14 0.537063 0.226653 0.152604
O O15 0.874316 0.088236 0.754331
O O16 0.000000 0.500000 0.500000
#
# Coordination Sequence:
#
# PCOD9111591 Si02
#       8
#     2   2   2   2   2   2   2   1
#     4  10  20  43  66  98 132 172 222 276 331 394
#     4   9  20  39  59  94 130 168 219 262 330 395
#     4  11  23  45  65  95 133 176 221 273 333 390
#     4  11  22  41  63  97 134 171 213 273 331 402
#     4  10  22  40  66  96 135 172 215 274 333 402
#     4  10  24  43  68  90 131 177 225 278 324 388
#     4  10  22  42  64  97 127 169 225 271 329 391
#     4  10  22  40  62  96 130 172 224 258 330 396
#
# _framework density 24.373374999999999
#
# number of rings (size 3 to 8) (size 9 to 14) (size 15 to 20)
#    0.000    1.867    1.333    1.600    0.000    6.400 
#    4.800   13.333    0.000    0.000    0.000    0.000 
#    0.000    0.000    0.000    0.000    0.000    0.000 
#
# Total GULP energy -83508.840051 kJ/mol
# GULP energy per Si atom -5567.256003 kJ/mol
# Density = 2.431790 g / cm^3
# Si number density = 24.373375 Si / 1000 Ang^3
#
#
#
# Elastic Constant Matrix: (Units=GPa)
#
#
# Indices 1 2 3 4 5 6 
#
# 1 56.0706 20.4554 20.8683 -0.8234 19.5013 -19.6221
# 2 20.4554 120.7336 28.0409 35.1671 -6.9480 -28.1617
# 3 20.8683 28.0409 119.9806 5.4551 29.8250 -15.9279
# 4 -0.8234 35.1671 5.4551 44.2403 -7.4452 -9.7231
# 5 19.5013 -6.9480 29.8250 -7.4452 31.1154 0.1738
# 6 -19.6221 -28.1617 -15.9279 -9.7231 0.1738 27.6265
#
#
#
# Elastic Compliance Matrix: (Units=1/GPa)
#
#
# Indices 1 2 3 4 5 6 
#
# 1 0.036142 -0.003976 0.004620 0.004427 -0.027053 0.026009
# 2 -0.003976 0.013993 -0.002876 -0.008271 0.006356 0.006831
# 3 0.004620 -0.002876 0.013383 -0.000277 -0.016477 0.008072
# 4 0.004427 -0.008271 -0.000277 0.031002 0.003032 0.005445
# 5 -0.027053 0.006356 -0.016477 0.003032 0.067153 -0.021592
# 6 0.026009 0.006831 0.008072 0.005445 -0.021592 0.068339
#
#
# Mechanical properties :
#
#
# Convention : Reuss Voigt Hill
#
# Bulk Modulus (GPa) = 16.93376 48.39044 32.66210
# Shear Modulus (GPa) = 19.67254 35.75777 27.71516
#
# Velocity S-wave (km/s) = 2.84409 3.83441 3.37576
# Velocity P-wave (km/s) = 4.21282 6.28494 5.35016
#
# Compressibility (1/GPa) = 0.05905363
#
# Stress axis : x y z
#
# Youngs Moduli (GPa) = 27.66864 71.46673 74.71959
#
# Poissons Ratio (x) = 0.28415 -0.34517
# Poissons Ratio (y) = 0.11001 0.21487
# Poissons Ratio (z) = -0.12782 0.20552
#
# Static dielectric constant tensor:
#      x y z
#    x 1.834880 0.033360 -0.077350 
#    y 0.033360 1.952010 0.024170 
#    z -0.077350 0.024170 1.991860 
# 
# From -- ./inp_files/93667.got.cif
#   From: 2010.05.17/outbox.cif.g08.bks.cpg/sg2_47_cif.got.tgz:93667.got - 2010.06.03 11:33:40.
