data_PCOD9111087
_publ_section_title
;
Structure prediction by ZEFSAII (Michael W. Deem and Ramdas Pophale) SiO2 
 PCOD9111087
Probable space group: P -1
;
_chemical_formula_sum "Si O2"
_cell_formula_units_Z 16
_cell_length_a 13.437527
_cell_length_b 15.263198
_cell_length_c 10.141002
_cell_angle_alpha 130.357427
_cell_angle_beta 97.993767
_cell_angle_gamma 41.502949
_cell_volume 765.158825
_symmetry_space_group_name_H-M "P -1"
_symmetry_group_IT_number 2
_symmetry_cell_setting 'triclinic'
loop_
_space_group_symop_operation_xyz
x,y,z
-x,-y,-z
loop_
_atom_site_type_symbol
_atom_site_label
_atom_site_fract_x
_atom_site_fract_y
_atom_site_fract_z
Si Si1 0.080136 0.332690 0.537219
Si Si2 0.274156 0.901341 0.127290
Si Si3 0.924079 0.787855 0.842139
Si Si4 0.575580 0.853617 0.494643
Si Si5 0.691141 0.497499 0.218720
Si Si6 0.669106 0.861506 0.007793
Si Si7 0.968431 0.041847 0.690669
Si Si8 0.435142 0.562686 0.394575
O O1 0.064415 0.326514 0.372661
O O2 0.196739 0.327788 0.605121
O O3 0.226683 0.076062 0.348125
O O4 0.844006 0.587777 0.784066
O O5 0.158569 0.932879 0.237143
O O6 0.167309 0.018986 0.077188
O O7 0.490599 0.627231 0.856583
O O8 0.143977 0.609034 0.756816
O O9 0.773482 0.881298 0.012593
O O10 0.571174 0.721438 0.347308
O O11 0.500000 0.000000 0.500000
O O12 0.442595 0.016963 0.756353
O O13 0.550449 0.550604 0.326631
O O14 0.830581 0.290407 0.938671
O O15 0.500000 0.000000 0.000000
O O16 0.191449 0.822798 0.587287
O O17 0.000000 0.000000 0.500000
O O18 0.500000 0.500000 0.500000
#
# Coordination Sequence:
#
# PCOD9111087 Si02
#       8
#     2   2   2   2   2   2   2   2
#     4  10  23  43  65  98 144 170 223 284 336 400
#     4   9  23  40  67  99 134 170 223 287 334 401
#     4  10  20  42  68  98 137 169 221 290 338 390
#     4  12  28  44  65 104 144 184 229 276 343 421
#     4  11  25  44  69  98 138 176 225 288 334 408
#     4  12  22  40  71  97 128 186 227 270 345 405
#     4  11  26  46  68  97 136 184 226 279 352 414
#     4  11  24  43  71 103 130 173 233 283 347 401
#
# _framework density 20.910691
#
# number of rings (size 3 to 8) (size 9 to 14) (size 15 to 20)
#    0.750    0.500    2.500    2.625    3.500    9.500 
#    0.000    0.000    0.000    0.000    0.000    0.000 
#    0.000    0.000    0.000    0.000    0.000    0.000 
#
# Total GULP energy -89197.967845 kJ/mol
# GULP energy per Si atom -5574.872990 kJ/mol
# Density = 2.086310 g / cm^3
# Si number density = 20.910691 Si / 1000 Ang^3
#
#
#
# Elastic Constant Matrix: (Units=GPa)
#
#
# Indices 1 2 3 4 5 6 
#
# 1 38.7918 1.5258 32.1237 0.2586 10.9066 19.3434
# 2 1.5258 40.2820 63.7273 -22.5060 10.4136 26.7013
# 3 32.1237 63.7273 143.4361 11.6137 -0.6740 20.8737
# 4 0.2586 -22.5060 11.6137 21.6388 6.3987 1.3176
# 5 10.9066 10.4136 -0.6740 6.3987 28.1939 6.8772
# 6 19.3434 26.7013 20.8737 1.3176 6.8772 32.3246
#
#
#
# Elastic Compliance Matrix: (Units=1/GPa)
#
#
# Indices 1 2 3 4 5 6 
#
# 1 0.024476 -0.016286 0.003830 -0.019648 0.001895 -0.003269
# 2 -0.016286 -0.011741 0.008929 -0.021316 0.012804 0.011823
# 3 0.003830 0.008929 0.002966 0.009559 -0.004174 -0.011085
# 4 -0.019648 -0.021316 0.009559 0.015802 0.006978 0.021064
# 5 0.001895 0.012804 -0.004174 0.006978 0.032266 -0.016164
# 6 -0.003269 0.011823 -0.011085 0.021064 -0.016164 0.032865
#
#
# Mechanical properties :
#
#
# Convention : Reuss Voigt Hill
#
# Bulk Modulus (GPa) = 115.64334 46.36261 81.00298
# Shear Modulus (GPa) = 46.91757 24.77367 35.84562
#
# Velocity S-wave (km/s) = 4.74192 3.44574 4.14481
# Velocity P-wave (km/s) = 9.24146 6.16852 7.85669
#
# Compressibility (1/GPa) = 0.00864728
#
# Stress axis : x y z
#
# Youngs Moduli (GPa) = 40.85592 -85.16914 337.11537
#
# Poissons Ratio (x) = -1.38707 -1.29103
# Poissons Ratio (y) = 0.66538 -3.01027
# Poissons Ratio (z) = -0.15646 0.76052
#
# Static dielectric constant tensor:
#      x y z
#    x 1.788860 0.017480 0.040000 
#    y 0.017480 1.785550 0.051700 
#    z 0.040000 0.051700 1.771500 
# 
# From -- ./inp_files/313899.got.cif
#   From: 2010.05.17/outbox.cif.g08.bks.cpg/sg2_157_cif.got.tgz:313899.got - 2010.06.03 11:33:40.
