data_PCOD9111922
_publ_section_title
;
Structure prediction by ZEFSAII (Michael W. Deem and Ramdas Pophale) SiO2 
 PCOD9111922
Probable space group: P -1
;
_chemical_formula_sum "Si O2"
_cell_formula_units_Z 15
_cell_length_a 14.135974
_cell_length_b 15.458217
_cell_length_c 8.906893
_cell_angle_alpha 138.631738
_cell_angle_beta 71.094671
_cell_angle_gamma 141.570622
_cell_volume 612.691166
_symmetry_space_group_name_H-M "P -1"
_symmetry_group_IT_number 2
_symmetry_cell_setting 'triclinic'
loop_
_space_group_symop_operation_xyz
x,y,z
-x,-y,-z
loop_
_atom_site_type_symbol
_atom_site_label
_atom_site_fract_x
_atom_site_fract_y
_atom_site_fract_z
Si Si1 0.707363 0.267797 0.936230
Si Si2 0.810578 0.671195 0.451678
Si Si3 0.770783 0.861056 0.183398
Si Si4 0.602809 0.940566 0.370734
Si Si5 0.294248 0.502797 0.211695
Si Si6 0.518811 0.761747 0.712684
Si Si7 0.500000 0.000000 0.000000
Si Si8 0.842499 0.961059 0.631907
O O1 0.503052 0.087820 0.730721
O O2 0.764593 0.209136 0.727007
O O3 0.827730 0.538992 0.223584
O O4 0.670395 0.184097 0.015256
O O5 0.627084 0.474500 0.403911
O O6 0.795481 0.757069 0.435823
O O7 0.029804 0.946399 0.760286
O O8 0.672970 0.880293 0.194143
O O9 0.817394 0.944811 0.444720
O O10 0.656691 0.594405 0.902503
O O11 0.435952 0.713868 0.284403
O O12 0.366131 0.656464 0.528200
O O13 0.065661 0.247296 0.946245
O O14 0.686709 0.868868 0.686760
O O15 0.605572 0.994793 0.029265
#
# Coordination Sequence:
#
# PCOD9111922 Si02
#       8
#     2   2   2   2   2   2   1   2
#     4  10  21  37  64  85 128 162 212 256 307 374
#     4  10  23  40  59  92 126 163 204 262 308 374
#     4  11  22  38  64  92 128 159 208 261 315 362
#     4  11  21  38  62  97 118 169 208 260 309 366
#     4  11  22  39  66  93 127 159 213 259 303 380
#     4  11  23  42  64  87 129 168 200 264 315 369
#     4  10  20  44  60  88 126 166 206 250 316 374
#     4  11  22  40  64  96 121 168 205 257 316 369
#
# _framework density 24.482154999999999
#
# number of rings (size 3 to 8) (size 9 to 14) (size 15 to 20)
#    0.000    1.333    2.667    4.000    1.867    2.667 
#    4.800    6.000    0.000    0.000    0.000    0.000 
#    0.000    0.000    0.000    0.000    0.000    0.000 
#
# Total GULP energy -83559.196197 kJ/mol
# GULP energy per Si atom -5570.613080 kJ/mol
# Density = 2.442643 g / cm^3
# Si number density = 24.482155 Si / 1000 Ang^3
#
#
#
# Elastic Constant Matrix: (Units=GPa)
#
#
# Indices 1 2 3 4 5 6 
#
# 1 83.9686 26.3936 10.3079 11.7964 -12.5270 7.0522
# 2 26.3936 98.0269 18.9631 9.4715 -1.7439 -0.3425
# 3 10.3079 18.9631 39.4646 18.5772 3.1334 -7.2810
# 4 11.7964 9.4715 18.5772 30.0237 -7.4329 -0.3622
# 5 -12.5270 -1.7439 3.1334 -7.4329 31.9918 4.0880
# 6 7.0522 -0.3425 -7.2810 -0.3622 4.0880 34.5096
#
#
#
# Elastic Compliance Matrix: (Units=1/GPa)
#
#
# Indices 1 2 3 4 5 6 
#
# 1 0.014757 -0.003170 -0.002895 -0.001552 0.006090 -0.004396
# 2 -0.003170 0.012027 -0.005449 0.000868 0.000200 -0.000397
# 3 -0.002895 -0.005449 0.045372 -0.028538 -0.013970 0.011466
# 4 -0.001552 0.000868 -0.028538 0.055164 0.015947 -0.007005
# 5 0.006090 0.000200 -0.013970 0.015947 0.039844 -0.008743
# 6 -0.004396 -0.000397 0.011466 -0.007005 -0.008743 0.033253
#
#
# Mechanical properties :
#
#
# Convention : Reuss Voigt Hill
#
# Bulk Modulus (GPa) = 20.35514 36.97660 28.66587
# Shear Modulus (GPa) = 20.84888 30.35804 25.60346
#
# Velocity S-wave (km/s) = 2.92138 3.52519 3.23739
# Velocity P-wave (km/s) = 4.43977 5.63077 5.07036
#
# Compressibility (1/GPa) = 0.04912765
#
# Stress axis : x y z
#
# Youngs Moduli (GPa) = 67.76495 83.14444 22.04021
#
# Poissons Ratio (x) = 0.26359 0.06381
# Poissons Ratio (y) = 0.21483 0.12009
# Poissons Ratio (z) = 0.19618 0.45303
#
# Static dielectric constant tensor:
#      x y z
#    x 1.968680 0.040380 0.022850 
#    y 0.040380 1.933590 -0.018460 
#    z 0.022850 -0.018460 2.001660 
# 
# From -- ./inp_files/212769.got.cif
#   From: 2010.05.17/outbox.cif.g08.bks.cpg/sg2_107_cif.got.tgz:212769.got - 2010.06.03 11:33:40.
