data_PCOD9111220
_publ_section_title
;
Structure prediction by ZEFSAII (Michael W. Deem and Ramdas Pophale) SiO2 
 PCOD9111220
Probable space group: P -1
;
_chemical_formula_sum "Si O2"
_cell_formula_units_Z 16
_cell_length_a 14.709210
_cell_length_b 11.385913
_cell_length_c 27.334787
_cell_angle_alpha 148.543282
_cell_angle_beta 18.044992
_cell_angle_gamma 151.048804
_cell_volume 679.653812
_symmetry_space_group_name_H-M "P -1"
_symmetry_group_IT_number 2
_symmetry_cell_setting 'triclinic'
loop_
_space_group_symop_operation_xyz
x,y,z
-x,-y,-z
loop_
_atom_site_type_symbol
_atom_site_label
_atom_site_fract_x
_atom_site_fract_y
_atom_site_fract_z
Si Si1 0.999031 0.640365 0.600082
Si Si2 0.802654 0.670987 0.555873
Si Si3 0.694416 0.979119 0.845649
Si Si4 0.350652 0.313709 0.871943
Si Si5 0.709816 0.361251 0.899483
Si Si6 0.289891 0.834952 0.909635
Si Si7 0.578491 0.906468 0.593266
Si Si8 0.171607 0.435337 0.598864
O O1 0.676010 0.498957 0.746225
O O2 0.000000 0.500000 0.500000
O O3 0.265443 0.590566 0.477766
O O4 0.966488 0.889978 0.691953
O O5 0.508677 0.750750 0.731922
O O6 0.966194 0.676713 0.422128
O O7 0.074249 0.889089 0.524331
O O8 0.833248 0.229266 0.832216
O O9 0.425361 0.797480 0.880522
O O10 0.500000 0.000000 0.000000
O O11 0.371584 0.050726 0.769330
O O12 0.325221 0.417328 0.975243
O O13 0.065629 0.293159 0.973462
O O14 0.930398 0.426189 0.762220
O O15 0.389844 0.129939 0.964551
O O16 0.399298 0.718731 0.575655
O O17 0.636717 0.725959 0.538301
#
# Coordination Sequence:
#
# PCOD9111220 Si02
#       8
#     2   2   2   2   2   2   2   2
#     4  11  21  44  69  98 128 175 225 277 328 395
#     4  11  23  43  72  94 134 182 226 273 333 399
#     4  10  20  42  70  94 138 171 215 278 339 385
#     4  11  25  42  70 100 137 173 225 273 340 399
#     4  10  23  43  67  99 138 178 213 281 334 395
#     4  10  23  41  67 101 131 176 224 268 335 403
#     4  10  24  42  66  97 131 176 227 273 326 396
#     4  11  24  43  71  96 136 178 228 272 335 396
#
# _framework density 23.541397
#
# number of rings (size 3 to 8) (size 9 to 14) (size 15 to 20)
#    0.750    0.750    3.750    0.375    5.250    4.000 
#    0.000    3.125    0.000    5.250    0.000    0.000 
#    0.000    0.000    0.000    0.000    0.000    0.000 
#
# Total GULP energy -89261.533837 kJ/mol
# GULP energy per Si atom -5578.845865 kJ/mol
# Density = 2.348782 g / cm^3
# Si number density = 23.541397 Si / 1000 Ang^3
#
#
#
# Elastic Constant Matrix: (Units=GPa)
#
#
# Indices 1 2 3 4 5 6 
#
# 1 73.0050 18.9945 31.6463 4.6930 24.7349 0.4620
# 2 18.9945 47.7081 23.1382 17.8358 -8.8350 0.7192
# 3 31.6463 23.1382 107.1950 26.5709 12.4077 -0.4647
# 4 4.6930 17.8358 26.5709 36.5944 -6.0006 -7.1643
# 5 24.7349 -8.8350 12.4077 -6.0006 42.3845 -3.3880
# 6 0.4620 0.7192 -0.4647 -7.1643 -3.3880 24.8492
#
#
#
# Elastic Compliance Matrix: (Units=1/GPa)
#
#
# Indices 1 2 3 4 5 6 
#
# 1 0.022670 -0.010889 -0.003192 0.002056 -0.014397 -0.001536
# 2 -0.010889 0.033061 -0.002527 -0.011357 0.012186 -0.002415
# 3 -0.003192 -0.002527 0.013664 -0.009555 -0.004252 -0.002946
# 4 0.002056 -0.011357 -0.009555 0.043222 0.006424 0.013449
# 5 -0.014397 0.012186 -0.004252 0.006424 0.037230 0.006764
# 6 -0.001536 -0.002415 -0.002946 0.013449 0.006764 0.045086
#
#
# Mechanical properties :
#
#
# Convention : Reuss Voigt Hill
#
# Bulk Modulus (GPa) = 27.64161 41.71845 34.68003
# Shear Modulus (GPa) = 20.81511 31.04089 25.92800
#
# Velocity S-wave (km/s) = 2.97676 3.63515 3.32230
# Velocity P-wave (km/s) = 4.85613 5.94801 5.42959
#
# Compressibility (1/GPa) = 0.03617735
#
# Stress axis : x y z
#
# Youngs Moduli (GPa) = 44.11117 30.24732 73.18245
#
# Poissons Ratio (x) = 0.32938 0.23361
# Poissons Ratio (y) = 0.48035 0.18496
# Poissons Ratio (z) = 0.14081 0.07645
#
# Static dielectric constant tensor:
#      x y z
#    x 1.905030 -0.022210 -0.044330 
#    y -0.022210 1.942200 0.015370 
#    z -0.044330 0.015370 1.897450 
# 
# From -- ./inp_files/619420.got.cif
#   From: 2010.05.17/outbox.cif.g08.bks.cpg/sg2_310_cif.got.tgz:619420.got - 2010.06.03 11:33:40.
