data_PCOD9111030
_publ_section_title
;
Structure prediction by ZEFSAII (Michael W. Deem and Ramdas Pophale) SiO2 
 PCOD9111030
Probable space group: P -1
;
_chemical_formula_sum "Si O2"
_cell_formula_units_Z 15
_cell_length_a 18.540940
_cell_length_b 10.663177
_cell_length_c 21.757238
_cell_angle_alpha 158.208488
_cell_angle_beta 23.857587
_cell_angle_gamma 144.154299
_cell_volume 624.160513
_symmetry_space_group_name_H-M "P -1"
_symmetry_group_IT_number 2
_symmetry_cell_setting 'triclinic'
loop_
_space_group_symop_operation_xyz
x,y,z
-x,-y,-z
loop_
_atom_site_type_symbol
_atom_site_label
_atom_site_fract_x
_atom_site_fract_y
_atom_site_fract_z
Si Si1 0.000000 0.500000 0.000000
Si Si2 0.264384 0.964120 0.039042
Si Si3 0.661064 0.432708 0.513098
Si Si4 0.736176 0.763229 0.428765
Si Si5 0.704644 0.990809 0.102425
Si Si6 0.625473 0.642274 0.768893
Si Si7 0.314008 0.311689 0.898781
Si Si8 0.049525 0.225075 0.619679
O O1 0.862837 0.300209 0.981760
O O2 0.821166 0.767876 0.297595
O O3 0.475996 0.731288 0.776449
O O4 0.247911 0.124656 0.056544
O O5 0.231844 0.250326 0.248073
O O6 0.698111 0.413360 0.548394
O O7 0.829723 0.534889 0.395133
O O8 0.636120 0.070041 0.342635
O O9 0.778019 0.338357 0.213241
O O10 0.516828 0.897759 0.665625
O O11 0.829679 0.934373 0.487780
O O12 0.767493 0.718874 0.983982
O O13 0.486450 0.474869 0.838901
O O14 0.500000 0.000000 0.000000
O O15 0.147548 0.556140 0.101925
O O16 0.000000 0.000000 0.500000
#
# Coordination Sequence:
#
# PCOD9111030 Si02
#       8
#     1   2   2   2   2   2   2   2
#     4  10  22  34  68  94 122 174 224 254 312 394
#     4  10  21  43  67  98 133 180 213 268 330 402
#     4  11  22  43  67  95 136 175 222 270 329 393
#     4  10  21  41  65  95 134 174 218 263 327 402
#     4  10  20  42  68  93 130 174 219 264 327 396
#     4  10  24  42  64  96 134 172 216 275 341 388
#     4  12  24  41  69 101 127 174 228 278 323 394
#     4  12  25  41  67  99 132 177 221 274 329 387
#
# _framework density 24.03228
#
# number of rings (size 3 to 8) (size 9 to 14) (size 15 to 20)
#    0.000    1.333    2.667    4.000    5.600    0.533 
#    2.400    0.000    0.000    4.000    0.000    0.000 
#    0.000    0.000    0.000    0.000    0.000    0.000 
#
# Total GULP energy -83642.419220 kJ/mol
# GULP energy per Si atom -5576.161281 kJ/mol
# Density = 2.397758 g / cm^3
# Si number density = 24.032280 Si / 1000 Ang^3
#
#
#
# Elastic Constant Matrix: (Units=GPa)
#
#
# Indices 1 2 3 4 5 6 
#
# 1 130.6973 36.2827 15.7132 9.7333 31.1062 29.0423
# 2 36.2827 60.6071 1.8820 14.1456 7.0943 33.3801
# 3 15.7132 1.8820 24.6650 3.2925 0.8950 4.6299
# 4 9.7333 14.1456 3.2925 25.8805 5.0258 -2.0318
# 5 31.1062 7.0943 0.8950 5.0258 22.5236 0.6241
# 6 29.0423 33.3801 4.6299 -2.0318 0.6241 40.3751
#
#
#
# Elastic Compliance Matrix: (Units=1/GPa)
#
#
# Indices 1 2 3 4 5 6 
#
# 1 0.016087 -0.001952 -0.007604 -0.000645 -0.020912 -0.008795
# 2 -0.001952 0.045665 0.008858 -0.027448 -0.004844 -0.038672
# 3 -0.007604 0.008858 0.047261 -0.010235 0.008336 -0.007917
# 4 -0.000645 -0.027448 -0.010235 0.058062 -0.003769 0.027310
# 5 -0.020912 -0.004844 0.008336 -0.003769 0.074850 0.016744
# 6 -0.008795 -0.038672 -0.007917 0.027310 0.016744 0.065090
#
#
# Mechanical properties :
#
#
# Convention : Reuss Voigt Hill
#
# Bulk Modulus (GPa) = 9.29209 35.96949 22.63079
# Shear Modulus (GPa) = 14.52296 28.56195 21.54246
#
# Velocity S-wave (km/s) = 2.46094 3.45118 2.99724
# Velocity P-wave (km/s) = 3.45686 5.55702 4.62765
#
# Compressibility (1/GPa) = 0.10761836
#
# Stress axis : x y z
#
# Youngs Moduli (GPa) = 62.16300 21.89838 21.15902
#
# Poissons Ratio (x) = 0.04274 0.16088
# Poissons Ratio (y) = 0.12134 -0.18742
# Poissons Ratio (z) = 0.47266 -0.19397
#
# Static dielectric constant tensor:
#      x y z
#    x 1.961550 -0.050280 0.010930 
#    y -0.050280 1.886220 0.009520 
#    z 0.010930 0.009520 1.931710 
# 
# From -- ./inp_files/613755.got.cif
#   From: 2010.05.17/outbox.cif.g08.bks.cpg/sg2_307_cif.got.tgz:613755.got - 2010.06.03 11:33:40.
