data_PCOD9111928
_publ_section_title
;
Structure prediction by ZEFSAII (Michael W. Deem and Ramdas Pophale) SiO2 
 PCOD9111928
Probable space group: P -1
;
_chemical_formula_sum "Si O2"
_cell_formula_units_Z 14
_cell_length_a 7.169087
_cell_length_b 15.569694
_cell_length_c 18.049871
_cell_angle_alpha 157.727310
_cell_angle_beta 79.468973
_cell_angle_gamma 113.083567
_cell_volume 601.562808
_symmetry_space_group_name_H-M "P -1"
_symmetry_group_IT_number 2
_symmetry_cell_setting 'triclinic'
loop_
_space_group_symop_operation_xyz
x,y,z
-x,-y,-z
loop_
_atom_site_type_symbol
_atom_site_label
_atom_site_fract_x
_atom_site_fract_y
_atom_site_fract_z
Si Si1 0.308259 0.815205 0.258052
Si Si2 0.315195 0.176677 0.280265
Si Si3 0.031905 0.697618 0.590252
Si Si4 0.203060 0.633118 0.807959
Si Si5 0.247877 0.603497 0.248569
Si Si6 0.843239 0.889783 0.595706
Si Si7 0.640692 0.807285 0.128786
O O1 0.177284 0.626388 0.188716
O O2 0.399872 0.689570 0.094791
O O3 0.557671 0.088357 0.488228
O O4 0.183113 0.933078 0.320569
O O5 0.500000 0.500000 0.500000
O O6 0.070495 0.130926 0.240844
O O7 0.285604 0.129904 0.333826
O O8 0.363165 0.970267 0.073499
O O9 0.878345 0.487342 0.365221
O O10 0.000000 0.500000 0.500000
O O11 0.288335 0.940640 0.731757
O O12 0.271917 0.435486 0.677141
O O13 0.975635 0.549617 0.804649
O O14 0.364890 0.441345 0.106001
O O15 0.120307 0.040132 0.715050
#
# Coordination Sequence:
#
# PCOD9111928 Si02
#       7
#     2   2   2   2   2   2   2
#     4  11  24  39  64  97 122 167 217 252 306 383
#     4  10  22  40  62  88 125 165 208 258 313 374
#     4  10  22  38  62  91 118 164 206 254 318 370
#     4  10  20  44  62  86 133 163 201 266 314 367
#     4  11  21  42  64  90 128 168 206 260 318 361
#     4  10  23  40  63  92 126 165 210 260 311 370
#     4  10  21  44  60  89 135 159 205 267 307 370
#
# _framework density 23.272715999999999
#
# number of rings (size 3 to 8) (size 9 to 14) (size 15 to 20)
#    0.000    2.000    5.714    0.429    2.000    5.143 
#    2.571    0.000    0.000    0.000    0.000    0.000 
#    0.000    0.000    0.000    0.000    0.000    0.000 
#
# Total GULP energy -78204.654122 kJ/mol
# GULP energy per Si atom -5586.046723 kJ/mol
# Density = 2.321975 g / cm^3
# Si number density = 23.272716 Si / 1000 Ang^3
#
#
#
# Elastic Constant Matrix: (Units=GPa)
#
#
# Indices 1 2 3 4 5 6 
#
# 1 64.3697 41.8475 10.7348 1.1389 -24.7741 -6.9577
# 2 41.8475 110.2875 15.5650 13.5699 -14.7097 -19.3063
# 3 10.7348 15.5650 113.1333 -8.7406 -28.2074 0.0199
# 4 1.1389 13.5699 -8.7406 23.1230 10.3550 -11.6699
# 5 -24.7741 -14.7097 -28.2074 10.3550 35.6954 10.1281
# 6 -6.9577 -19.3063 0.0199 -11.6699 10.1281 28.9873
#
#
#
# Elastic Compliance Matrix: (Units=1/GPa)
#
#
# Indices 1 2 3 4 5 6 
#
# 1 0.031102 -0.009162 0.004728 -0.016147 0.030737 -0.015880
# 2 -0.009162 0.014094 -0.002114 -0.003945 -0.002959 0.006635
# 3 0.004728 -0.002114 0.012247 -0.005682 0.016058 -0.008179
# 4 -0.016147 -0.003945 -0.005682 0.099972 -0.062051 0.055428
# 5 0.030737 -0.002959 0.016058 -0.062051 0.093661 -0.052310
# 6 -0.015880 0.006635 -0.008179 0.055428 -0.052310 0.075703
#
#
# Mechanical properties :
#
#
# Convention : Reuss Voigt Hill
#
# Bulk Modulus (GPa) = 22.54849 47.12056 34.83452
# Shear Modulus (GPa) = 14.09813 32.20401 23.15107
#
# Velocity S-wave (km/s) = 2.46393 3.72394 3.15742
# Velocity P-wave (km/s) = 4.21953 6.22747 5.31911
#
# Compressibility (1/GPa) = 0.04434888
#
# Stress axis : x y z
#
# Youngs Moduli (GPa) = 32.15197 70.95084 81.64977
#
# Poissons Ratio (x) = 0.65008 -0.38606
# Poissons Ratio (y) = 0.29459 0.17257
# Poissons Ratio (z) = -0.15202 0.14996
#
# Static dielectric constant tensor:
#      x y z
#    x 1.890480 -0.011550 0.027450 
#    y -0.011550 1.895870 0.008790 
#    z 0.027450 0.008790 1.935980 
# 
# From -- ./inp_files/534158.got.cif
#   From: 2010.05.17/outbox.cif.g08.bks.cpg/sg2_268_cif.got.tgz:534158.got - 2010.06.03 11:33:40.
