data_PCOD9111641
_publ_section_title
;
Structure prediction by ZEFSAII (Michael W. Deem and Ramdas Pophale) SiO2 
 PCOD9111641
Probable space group: P -1
;
_chemical_formula_sum "Si O2"
_cell_formula_units_Z 13
_cell_length_a 8.599086
_cell_length_b 12.170997
_cell_length_c 11.625404
_cell_angle_alpha 123.023183
_cell_angle_beta 142.480301
_cell_angle_gamma 48.399159
_cell_volume 553.672382
_symmetry_space_group_name_H-M "P -1"
_symmetry_group_IT_number 2
_symmetry_cell_setting 'triclinic'
loop_
_space_group_symop_operation_xyz
x,y,z
-x,-y,-z
loop_
_atom_site_type_symbol
_atom_site_label
_atom_site_fract_x
_atom_site_fract_y
_atom_site_fract_z
Si Si1 0.360666 0.019103 0.198606
Si Si2 0.230241 0.154669 0.963117
Si Si3 0.317342 0.815908 0.475094
Si Si4 0.500000 0.500000 0.000000
Si Si5 0.836340 0.187530 0.135206
Si Si6 0.663559 0.570855 0.371909
Si Si7 0.412274 0.690010 0.713663
O O1 0.642416 0.038700 0.396234
O O2 0.146903 0.069822 0.209219
O O3 0.191545 0.135847 0.064710
O O4 0.387014 0.867991 0.077802
O O5 0.970012 0.166725 0.741946
O O6 0.307635 0.290048 0.074972
O O7 0.500000 0.000000 0.000000
O O8 0.566975 0.715702 0.475566
O O9 0.353089 0.737346 0.574393
O O10 0.725887 0.350719 0.115246
O O11 0.495779 0.596267 0.168248
O O12 0.819710 0.199395 0.269488
O O13 0.580119 0.464647 0.341454
O O14 0.000000 0.500000 0.500000
#
# Coordination Sequence:
#
# PCOD9111641 Si02
#       7
#     2   2   2   1   2   2   2
#     4  10  22  42  68  95 137 171 230 281 331 401
#     4  11  23  44  63  96 134 176 227 272 330 394
#     4  11  24  41  70  99 133 180 219 275 344 396
#     4  10  22  40  66  90 134 168 212 268 336 386
#     4  10  20  43  67  98 134 180 221 284 333 398
#     4  11  24  45  68 103 132 172 224 277 337 407
#     4  10  23  41  67  98 137 171 223 278 332 406
#
# _framework density 23.479589000000001
#
# number of rings (size 3 to 8) (size 9 to 14) (size 15 to 20)
#    0.000    1.538    1.538    3.231    0.000    6.769 
#    2.769    6.923    0.000    0.000    0.000    0.000 
#    0.000    0.000    0.000    0.000    0.000    0.000 
#
# Total GULP energy -72434.326768 kJ/mol
# GULP energy per Si atom -5571.871290 kJ/mol
# Density = 2.342615 g / cm^3
# Si number density = 23.479589 Si / 1000 Ang^3
#
#
#
# Elastic Constant Matrix: (Units=GPa)
#
#
# Indices 1 2 3 4 5 6 
#
# 1 82.5762 -0.3590 39.3475 -6.8578 -22.4211 -12.6795
# 2 -0.3590 57.3815 21.3977 14.0622 12.2223 3.1846
# 3 39.3475 21.3977 164.7563 1.4026 0.1314 7.3325
# 4 -6.8578 14.0622 1.4026 36.6408 2.5353 3.6603
# 5 -22.4211 12.2223 0.1314 2.5353 49.0076 18.4113
# 6 -12.6795 3.1846 7.3325 3.6603 18.4113 35.2546
#
#
#
# Elastic Compliance Matrix: (Units=1/GPa)
#
#
# Indices 1 2 3 4 5 6 
#
# 1 0.016467 -0.000586 -0.004028 0.002701 0.006341 0.003222
# 2 -0.000586 0.021592 -0.002699 -0.008113 -0.006148 0.002453
# 3 -0.004028 -0.002699 0.007500 0.000277 -0.000192 -0.002693
# 4 0.002701 -0.008113 0.000277 0.031010 0.002793 -0.003032
# 5 0.006341 -0.006148 -0.000192 0.002793 0.029514 -0.012828
# 6 0.003222 0.002453 -0.002693 -0.003032 -0.012828 0.036876
#
#
# Mechanical properties :
#
#
# Convention : Reuss Voigt Hill
#
# Bulk Modulus (GPa) = 32.32944 47.27626 39.80285
# Shear Modulus (GPa) = 29.78018 40.46914 35.12466
#
# Velocity S-wave (km/s) = 3.56524 4.15612 3.87197
# Velocity P-wave (km/s) = 5.54500 6.57342 6.08099
#
# Compressibility (1/GPa) = 0.03093156
#
# Stress axis : x y z
#
# Youngs Moduli (GPa) = 60.72569 46.31438 133.33670
#
# Poissons Ratio (x) = 0.02715 0.53709
# Poissons Ratio (y) = 0.03559 0.35993
# Poissons Ratio (z) = 0.24461 0.12502
#
# Static dielectric constant tensor:
#      x y z
#    x 1.952140 -0.007880 0.027350 
#    y -0.007880 1.888430 0.053810 
#    z 0.027350 0.053810 1.876980 
# 
# From -- ./inp_files/385915.got.cif
#   From: 2010.05.17/outbox.cif.g08.bks.cpg/sg2_193_cif.got.tgz:385915.got - 2010.06.03 11:33:40.
