data_PCOD9111806
_publ_section_title
;
Structure prediction by ZEFSAII (Michael W. Deem and Ramdas Pophale) SiO2 
 PCOD9111806
Probable space group: P -1
;
_chemical_formula_sum "Si O2"
_cell_formula_units_Z 14
_cell_length_a 10.431475
_cell_length_b 18.163667
_cell_length_c 12.597422
_cell_angle_alpha 152.963546
_cell_angle_beta 146.326160
_cell_angle_gamma 46.246236
_cell_volume 589.767019
_symmetry_space_group_name_H-M "P -1"
_symmetry_group_IT_number 2
_symmetry_cell_setting 'triclinic'
loop_
_space_group_symop_operation_xyz
x,y,z
-x,-y,-z
loop_
_atom_site_type_symbol
_atom_site_label
_atom_site_fract_x
_atom_site_fract_y
_atom_site_fract_z
Si Si1 0.417892 0.418249 0.225682
Si Si2 0.938024 0.164741 0.620093
Si Si3 0.837956 0.009545 0.140443
Si Si4 0.862172 0.256834 0.279532
Si Si5 0.460263 0.679638 0.403741
Si Si6 0.737731 0.124218 0.797146
Si Si7 0.784006 0.488637 0.250443
O O1 0.500000 0.500000 0.500000
O O2 0.620946 0.325163 0.205312
O O3 0.401296 0.557465 0.306558
O O4 0.173109 0.292072 0.912509
O O5 0.789223 0.104847 0.334485
O O6 0.776778 0.253733 0.698160
O O7 0.000000 0.000000 0.500000
O O8 0.858818 0.133515 0.215495
O O9 0.091108 0.958622 0.263006
O O10 0.653912 0.841931 0.775766
O O11 0.083528 0.410165 0.627213
O O12 0.867696 0.165752 0.053730
O O13 0.585142 0.580615 0.276855
O O14 0.500000 0.000000 0.500000
O O15 0.692473 0.293203 0.932395
O O16 0.000000 0.500000 0.500000
#
# Coordination Sequence:
#
# PCOD9111806 Si02
#       7
#     2   2   2   2   2   2   2
#     4  12  24  45  73  97 140 184 233 297 354 417
#     4  12  28  48  69 104 140 184 246 295 351 422
#     4  12  24  43  73 102 142 188 236 292 354 417
#     4  11  22  44  70 104 140 186 234 282 357 417
#     4  12  23  44  73  99 142 186 234 285 355 416
#     4  11  22  41  68 102 146 183 231 287 346 418
#     4  10  20  43  70  99 140 186 226 284 349 424
#
# _framework density 23.738187
#
# number of rings (size 3 to 8) (size 9 to 14) (size 15 to 20)
#    0.000    0.571    5.714    4.714    0.000    0.000 
#    0.000    2.143    0.000    0.000    0.000    0.000 
#    0.000    0.000    0.000    0.000    0.000    0.000 
#
# Total GULP energy -78475.472832 kJ/mol
# GULP energy per Si atom -5605.390917 kJ/mol
# Density = 2.368416 g / cm^3
# Si number density = 23.738187 Si / 1000 Ang^3
#
#
#
# Elastic Constant Matrix: (Units=GPa)
#
#
# Indices 1 2 3 4 5 6 
#
# 1 111.4711 60.8977 46.4639 13.8658 19.7680 -12.8549
# 2 60.8977 155.9112 44.1263 37.6382 25.3586 -9.1571
# 3 46.4639 44.1263 149.2021 28.9085 48.6660 3.4526
# 4 13.8658 37.6382 28.9085 34.7843 6.4504 8.0884
# 5 19.7680 25.3586 48.6660 6.4504 62.2978 -0.3687
# 6 -12.8549 -9.1571 3.4526 8.0884 -0.3687 65.5957
#
#
#
# Elastic Compliance Matrix: (Units=1/GPa)
#
#
# Indices 1 2 3 4 5 6 
#
# 1 0.012619 -0.004408 -0.003010 0.001832 -0.000037 0.001790
# 2 -0.004408 0.011070 0.001123 -0.011090 -0.002825 0.001974
# 3 -0.003010 0.001123 0.011309 -0.008002 -0.007508 -0.000084
# 4 0.001832 -0.011090 -0.008002 0.047220 0.005256 -0.006561
# 5 -0.000037 -0.002825 -0.007508 0.005256 0.022532 -0.000528
# 6 0.001790 0.001974 -0.000084 -0.006561 -0.000528 0.016682
#
#
# Mechanical properties :
#
#
# Convention : Reuss Voigt Hill
#
# Bulk Modulus (GPa) = 44.62600 79.95113 62.28857
# Shear Modulus (GPa) = 35.33785 50.20865 42.77325
#
# Velocity S-wave (km/s) = 3.86249 4.60401 4.24946
# Velocity P-wave (km/s) = 6.22349 7.87503 7.09746
#
# Compressibility (1/GPa) = 0.02240846
#
# Stress axis : x y z
#
# Youngs Moduli (GPa) = 79.24588 90.33087 88.42496
#
# Poissons Ratio (x) = 0.39817 0.26618
# Poissons Ratio (y) = 0.34931 -0.09932
# Poissons Ratio (z) = 0.23855 -0.10146
#
# Static dielectric constant tensor:
#      x y z
#    x 1.970160 0.012780 -0.065600 
#    y 0.012780 1.906630 -0.039750 
#    z -0.065600 -0.039750 1.924300 
# 
# From -- ./inp_files/524165.got.cif
#   From: 2010.05.17/outbox.cif.g08.bks.cpg/sg2_263_cif.got.tgz:524165.got - 2010.06.03 11:33:40.
