data_PCOD9111145
_publ_section_title
;
Structure prediction by ZEFSAII (Michael W. Deem and Ramdas Pophale) SiO2 
 PCOD9111145
Probable space group: P -1
;
_chemical_formula_sum "Si O2"
_cell_formula_units_Z 16
_cell_length_a 11.407955
_cell_length_b 6.619275
_cell_length_c 15.516041
_cell_angle_alpha 53.574021
_cell_angle_beta 118.003641
_cell_angle_gamma 85.632717
_cell_volume 721.023970
_symmetry_space_group_name_H-M "P -1"
_symmetry_group_IT_number 2
_symmetry_cell_setting 'triclinic'
loop_
_space_group_symop_operation_xyz
x,y,z
-x,-y,-z
loop_
_atom_site_type_symbol
_atom_site_label
_atom_site_fract_x
_atom_site_fract_y
_atom_site_fract_z
Si Si1 0.956336 0.440179 0.258629
Si Si2 0.260342 0.790698 0.132031
Si Si3 0.544169 0.529681 0.412362
Si Si4 0.236028 0.823632 0.562012
Si Si5 0.381459 0.178766 0.992628
Si Si6 0.403035 0.933953 0.749399
Si Si7 0.870906 0.645119 0.347621
Si Si8 0.028144 0.641859 0.054606
O O1 0.936735 0.659013 0.274454
O O2 0.021742 0.499163 0.179119
O O3 0.779222 0.528043 0.156990
O O4 0.077726 0.126661 0.418966
O O5 0.397568 0.591143 0.290790
O O6 0.190164 0.623234 0.101344
O O7 0.322034 0.958935 0.053900
O O8 0.114291 0.031094 0.073501
O O9 0.500000 0.500000 0.500000
O O10 0.683861 0.256170 0.483786
O O11 0.574575 0.800018 0.343884
O O12 0.199788 0.567146 0.633660
O O13 0.351792 0.820474 0.676743
O O14 0.459191 0.229560 0.091863
O O15 0.500000 0.000000 0.000000
O O16 0.258211 0.061141 0.731238
O O17 0.000000 0.500000 0.500000
O O18 0.000000 0.500000 0.000000
#
# Coordination Sequence:
#
# PCOD9111145 Si02
#       8
#     2   2   2   2   2   2   2   2
#     4  11  23  40  68  98 128 172 223 262 326 400
#     4   9  22  43  63  92 129 169 212 265 324 381
#     4  10  24  40  66  91 129 174 215 266 330 385
#     4  11  25  42  64 101 131 165 226 271 328 395
#     4  10  20  42  69  96 132 173 216 263 332 393
#     4  10  22  42  66  93 132 171 209 277 325 382
#     4  11  22  42  66  94 135 168 213 277 332 384
#     4  10  23  43  65  93 131 168 218 273 320 384
#
# _framework density 22.190664999999999
#
# number of rings (size 3 to 8) (size 9 to 14) (size 15 to 20)
#    0.000    1.750    2.500    0.375    3.500    3.500 
#    6.750    0.625    0.000    0.000    0.000    0.000 
#    0.000    0.000    0.000    0.000    0.000    0.000 
#
# Total GULP energy -89279.749420 kJ/mol
# GULP energy per Si atom -5579.984339 kJ/mol
# Density = 2.214016 g / cm^3
# Si number density = 22.190665 Si / 1000 Ang^3
#
#
#
# Elastic Constant Matrix: (Units=GPa)
#
#
# Indices 1 2 3 4 5 6 
#
# 1 108.9640 41.8370 38.3249 21.4189 3.5427 -5.1780
# 2 41.8370 101.4242 31.8338 39.4790 2.4838 12.1912
# 3 38.3249 31.8338 96.5566 26.6730 11.9584 1.2157
# 4 21.4189 39.4790 26.6730 34.6844 -2.2980 4.5578
# 5 3.5427 2.4838 11.9584 -2.2980 35.5847 14.9643
# 6 -5.1780 12.1912 1.2157 4.5578 14.9643 36.5487
#
#
#
# Elastic Compliance Matrix: (Units=1/GPa)
#
#
# Indices 1 2 3 4 5 6 
#
# 1 0.012307 -0.004074 -0.003025 -0.001285 -0.001717 0.004066
# 2 -0.004074 0.019544 0.000778 -0.019796 -0.000654 -0.004386
# 3 -0.003025 0.000778 0.015359 -0.011701 -0.006981 0.003119
# 4 -0.001285 -0.019796 -0.011701 0.062727 0.011981 -0.005917
# 5 -0.001717 -0.000654 -0.006981 0.011981 0.038631 -0.017104
# 6 0.004066 -0.004386 0.003119 -0.005917 -0.017104 0.037037
#
#
# Mechanical properties :
#
#
# Convention : Reuss Voigt Hill
#
# Bulk Modulus (GPa) = 28.92861 58.99291 43.96076
# Shear Modulus (GPa) = 23.83565 34.36016 29.09791
#
# Velocity S-wave (km/s) = 3.28095 3.93925 3.62507
# Velocity P-wave (km/s) = 5.23617 6.87986 6.11351
#
# Compressibility (1/GPa) = 0.03456786
#
# Stress axis : x y z
#
# Youngs Moduli (GPa) = 81.25348 51.16549 65.11013
#
# Poissons Ratio (x) = 0.20843 0.19699
# Poissons Ratio (y) = 0.33100 -0.05065
# Poissons Ratio (z) = 0.24583 -0.03981
#
# Static dielectric constant tensor:
#      x y z
#    x 1.856230 -0.001110 -0.003760 
#    y -0.001110 1.822570 -0.014990 
#    z -0.003760 -0.014990 1.869060 
# 
# From -- ./inp_files/510753.got.cif
#   From: 2010.05.17/outbox.cif.g08.bks.cpg/sg2_256_cif.got.tgz:510753.got - 2010.06.03 11:33:40.
