data_PCOD9111174
_publ_section_title
;
Structure prediction by ZEFSAII (Michael W. Deem and Ramdas Pophale) SiO2 
 PCOD9111174
Probable space group: P -1
;
_chemical_formula_sum "Si O2"
_cell_formula_units_Z 16
_cell_length_a 8.261459
_cell_length_b 8.991971
_cell_length_c 11.929372
_cell_angle_alpha 61.551960
_cell_angle_beta 106.292633
_cell_angle_gamma 113.401241
_cell_volume 710.498357
_symmetry_space_group_name_H-M "P -1"
_symmetry_group_IT_number 2
_symmetry_cell_setting 'triclinic'
loop_
_space_group_symop_operation_xyz
x,y,z
-x,-y,-z
loop_
_atom_site_type_symbol
_atom_site_label
_atom_site_fract_x
_atom_site_fract_y
_atom_site_fract_z
Si Si1 0.076380 0.966408 0.409031
Si Si2 0.721367 0.872101 0.245575
Si Si3 0.190176 0.151600 0.983704
Si Si4 0.465138 0.181535 0.394312
Si Si5 0.290030 0.491354 0.554572
Si Si6 0.029541 0.584985 0.627581
Si Si7 0.458527 0.831180 0.837217
Si Si8 0.866661 0.479416 0.084727
O O1 0.101352 0.774028 0.507379
O O2 0.927079 0.952440 0.293325
O O3 0.253978 0.124374 0.364410
O O4 0.000000 0.000000 0.500000
O O5 0.722151 0.839984 0.125104
O O6 0.652578 0.684322 0.363510
O O7 0.616450 0.004958 0.215666
O O8 0.159825 0.334787 0.950766
O O9 0.337886 0.116091 0.105635
O O10 0.000000 0.000000 0.000000
O O11 0.552417 0.335520 0.443667
O O12 0.550005 0.229309 0.271776
O O13 0.500000 0.000000 0.500000
O O14 0.142200 0.471191 0.632296
O O15 0.176612 0.492812 0.420468
O O16 0.059589 0.593170 0.763124
O O17 0.323041 0.662024 0.933308
O O18 0.000000 0.500000 0.000000
#
# Coordination Sequence:
#
# PCOD9111174 Si02
#       8
#     2   2   2   2   2   2   2   2
#     4  11  23  41  70 103 140 180 228 289 354 416
#     4  11  23  45  67  97 141 184 229 284 349 417
#     4  12  26  46  70 100 135 186 233 291 351 413
#     4  12  22  41  70 103 138 179 232 291 353 411
#     4  10  21  40  73 100 136 180 225 284 350 406
#     4  10  20  42  70 100 138 179 225 282 349 414
#     4  12  26  46  70 102 138 186 237 291 342 419
#     4  12  25  46  72 104 140 186 236 289 350 418
#
# _framework density 22.519404999999999
#
# number of rings (size 3 to 8) (size 9 to 14) (size 15 to 20)
#    0.000    0.750    3.750    3.750    0.000    2.000 
#    0.000    9.375    0.000    0.000    0.000    0.000 
#    0.000    0.000    0.000    0.000    0.000    0.000 
#
# Total GULP energy -89553.997426 kJ/mol
# GULP energy per Si atom -5597.124839 kJ/mol
# Density = 2.246815 g / cm^3
# Si number density = 22.519405 Si / 1000 Ang^3
#
#
#
# Elastic Constant Matrix: (Units=GPa)
#
#
# Indices 1 2 3 4 5 6 
#
# 1 114.4447 69.6981 40.1427 -4.3783 -1.4376 8.3333
# 2 69.6981 161.1091 19.7233 -11.2649 22.2484 17.7891
# 3 40.1427 19.7233 68.4816 17.1430 5.9157 8.3629
# 4 -4.3783 -11.2649 17.1430 38.3027 -5.5341 3.9684
# 5 -1.4376 22.2484 5.9157 -5.5341 43.0275 8.9038
# 6 8.3333 17.7891 8.3629 3.9684 8.9038 44.5702
#
#
#
# Elastic Compliance Matrix: (Units=1/GPa)
#
#
# Indices 1 2 3 4 5 6 
#
# 1 0.016111 -0.006223 -0.009377 0.005082 0.005777 -0.000376
# 2 -0.006223 0.009722 0.001242 0.001110 -0.004832 -0.002083
# 3 -0.009377 0.001242 0.023292 -0.011823 -0.005479 -0.000966
# 4 0.005082 0.001110 -0.011823 0.033562 0.006244 -0.003410
# 5 0.005777 -0.004832 -0.005479 0.006244 0.028389 -0.004351
# 6 -0.000376 -0.002083 -0.000966 -0.003410 -0.004351 0.024692
#
#
# Mechanical properties :
#
#
# Convention : Reuss Voigt Hill
#
# Bulk Modulus (GPa) = 48.99818 67.01819 58.00819
# Shear Modulus (GPa) = 29.19055 39.47816 34.33435
#
# Velocity S-wave (km/s) = 3.60424 4.19151 3.90892
# Velocity P-wave (km/s) = 6.25509 7.29725 6.79618
#
# Compressibility (1/GPa) = 0.02040892
#
# Stress axis : x y z
#
# Youngs Moduli (GPa) = 62.06924 102.86027 42.93244
#
# Poissons Ratio (x) = 0.64008 0.40258
# Poissons Ratio (y) = 0.38625 -0.05331
# Poissons Ratio (z) = 0.58203 -0.12772
#
# Static dielectric constant tensor:
#      x y z
#    x 1.918170 0.013060 0.061840 
#    y 0.013060 1.904880 -0.019520 
#    z 0.061840 -0.019520 1.957450 
# 
# From -- ./inp_files/352104.got.cif
#   From: 2010.05.17/outbox.cif.g08.bks.cpg/sg2_177_cif.got.tgz:352104.got - 2010.06.03 11:33:40.
