data_PCOD9111260
_publ_section_title
;
Structure prediction by ZEFSAII (Michael W. Deem and Ramdas Pophale) SiO2 
 PCOD9111260
Probable space group: P -1
;
_chemical_formula_sum "Si O2"
_cell_formula_units_Z 14
_cell_length_a 8.209045
_cell_length_b 5.110812
_cell_length_c 20.310949
_cell_angle_alpha 127.125812
_cell_angle_beta 54.196667
_cell_angle_gamma 116.341879
_cell_volume 545.593713
_symmetry_space_group_name_H-M "P -1"
_symmetry_group_IT_number 2
_symmetry_cell_setting 'triclinic'
loop_
_space_group_symop_operation_xyz
x,y,z
-x,-y,-z
loop_
_atom_site_type_symbol
_atom_site_label
_atom_site_fract_x
_atom_site_fract_y
_atom_site_fract_z
Si Si1 0.080349 0.381224 0.032153
Si Si2 0.357832 0.639762 0.479965
Si Si3 0.500688 0.378660 0.076620
Si Si4 0.735783 0.236786 0.340504
Si Si5 0.501929 0.592863 0.252439
Si Si6 0.747814 0.886520 0.671686
Si Si7 0.048612 0.571200 0.211371
O O1 0.010004 0.561015 0.140997
O O2 0.325341 0.423891 0.979264
O O3 0.000000 0.500000 0.000000
O O4 0.000000 0.000000 0.000000
O O5 0.531531 0.402742 0.403812
O O6 0.219970 0.635560 0.576611
O O7 0.222878 0.450052 0.424946
O O8 0.500000 0.000000 0.500000
O O9 0.575085 0.476047 0.147784
O O10 0.270703 0.452230 0.142836
O O11 0.500000 0.000000 0.000000
O O12 0.892576 0.347204 0.261959
O O13 0.658792 0.846198 0.295139
O O14 0.432487 0.261634 0.259173
O O15 0.321226 0.816037 0.311412
O O16 0.919790 0.069712 0.706811
#
# Coordination Sequence:
#
# PCOD9111260 Si02
#       7
#     2   2   2   2   2   2   2
#     4  12  27  47  74 103 140 195 250 300 355 440
#     4  10  20  42  71 103 144 194 243 291 363 444
#     4  11  24  46  73 103 150 191 243 309 375 427
#     4  10  22  42  71 102 146 189 246 299 357 443
#     4  10  21  40  65  98 133 191 238 287 352 434
#     4  10  22  41  68  99 144 185 232 295 363 426
#     4  11  25  47  69 111 148 191 246 309 377 431
#
# _framework density 25.660118000000001
#
# number of rings (size 3 to 8) (size 9 to 14) (size 15 to 20)
#    0.000    1.429    1.429    3.000    0.000    7.429 
#   10.286    0.714    0.000    0.000    0.000    0.000 
#    0.000    0.000    0.000    0.000    0.000    0.000 
#
# Total GULP energy -78276.048486 kJ/mol
# GULP energy per Si atom -5591.146320 kJ/mol
# Density = 2.560171 g / cm^3
# Si number density = 25.660118 Si / 1000 Ang^3
#
#
#
# Elastic Constant Matrix: (Units=GPa)
#
#
# Indices 1 2 3 4 5 6 
#
# 1 83.4094 32.8495 66.6883 -3.0296 0.5018 2.1704
# 2 32.8495 123.0186 14.9307 0.9834 8.5640 6.5534
# 3 66.6883 14.9307 126.2213 -14.7583 29.9489 3.6389
# 4 -3.0296 0.9834 -14.7583 63.4244 10.3727 6.5102
# 5 0.5018 8.5640 29.9489 10.3727 75.9425 6.2708
# 6 2.1704 6.5534 3.6389 6.5102 6.2708 32.3312
#
#
#
# Elastic Compliance Matrix: (Units=1/GPa)
#
#
# Indices 1 2 3 4 5 6 
#
# 1 0.026193 -0.005623 -0.015214 -0.003373 0.006886 0.000438
# 2 -0.005623 0.009551 0.002423 0.000628 -0.001951 -0.001579
# 3 -0.015214 0.002423 0.018146 0.004850 -0.007913 -0.000954
# 4 -0.003373 0.000628 0.004850 0.017728 -0.004117 -0.003218
# 5 0.006886 -0.001951 -0.007913 -0.004117 0.017164 -0.001676
# 6 0.000438 -0.001579 -0.000954 -0.003218 -0.001676 0.032301
#
#
# Mechanical properties :
#
#
# Convention : Reuss Voigt Hill
#
# Bulk Modulus (GPa) = 58.61198 62.39849 60.50524
# Shear Modulus (GPa) = 30.56244 48.88501 39.72373
#
# Velocity S-wave (km/s) = 3.45490 4.36948 3.93882
# Velocity P-wave (km/s) = 6.22948 7.05879 6.65706
#
# Compressibility (1/GPa) = 0.01706136
#
# Stress axis : x y z
#
# Youngs Moduli (GPa) = 38.17852 104.69805 55.10718
#
# Poissons Ratio (x) = 0.58875 0.83842
# Poissons Ratio (y) = 0.21469 -0.13353
# Poissons Ratio (z) = 0.58086 -0.25370
#
# Static dielectric constant tensor:
#      x y z
#    x 2.190050 0.024030 0.029040 
#    y 0.024030 1.952190 0.011740 
#    z 0.029040 0.011740 2.016650 
# 
# From -- ./inp_files/585909.got.cif
#   From: 2010.05.17/outbox.cif.g08.bks.cpg/sg2_293_cif.got.tgz:585909.got - 2010.06.03 11:33:40.
