data_PCOD9111191
_publ_section_title
;
Structure prediction by ZEFSAII (Michael W. Deem and Ramdas Pophale) SiO2 
 PCOD9111191
Probable space group: P -1
;
_chemical_formula_sum "Si O2"
_cell_formula_units_Z 16
_cell_length_a 9.084791
_cell_length_b 5.488945
_cell_length_c 15.608689
_cell_angle_alpha 98.837068
_cell_angle_beta 108.885948
_cell_angle_gamma 79.581360
_cell_volume 720.506077
_symmetry_space_group_name_H-M "P -1"
_symmetry_group_IT_number 2
_symmetry_cell_setting 'triclinic'
loop_
_space_group_symop_operation_xyz
x,y,z
-x,-y,-z
loop_
_atom_site_type_symbol
_atom_site_label
_atom_site_fract_x
_atom_site_fract_y
_atom_site_fract_z
Si Si1 0.690163 0.990758 0.528583
Si Si2 0.564024 0.337493 0.256532
Si Si3 0.647297 0.473293 0.459770
Si Si4 0.480278 0.650512 0.093334
Si Si5 0.219348 0.061668 0.819766
Si Si6 0.176228 0.030000 0.012791
Si Si7 0.243019 0.258691 0.196676
Si Si8 0.865021 0.175427 0.735146
O O1 0.745640 0.696784 0.510662
O O2 0.500000 0.000000 0.500000
O O3 0.722009 0.185875 0.471385
O O4 0.768936 0.093730 0.631846
O O5 0.594742 0.498412 0.352855
O O6 0.483705 0.488803 0.169917
O O7 0.427361 0.176098 0.248387
O O8 0.717914 0.180583 0.237208
O O9 0.500000 0.500000 0.500000
O O10 0.633788 0.785487 0.142605
O O11 0.316986 0.828808 0.063032
O O12 0.500000 0.500000 0.000000
O O13 0.051310 0.174777 0.757086
O O14 0.193999 0.025766 0.914263
O O15 0.204829 0.265835 0.088320
O O16 0.000000 0.000000 0.000000
O O17 0.198847 0.538505 0.238296
O O18 0.155053 0.043861 0.211419
#
# Coordination Sequence:
#
# PCOD9111191 Si02
#       8
#     2   2   2   2   2   2   2   2
#     4  10  20  42  70 104 140 180 240 309 371 430
#     4  12  26  46  76 106 146 199 249 309 380 449
#     4  10  22  41  73 106 139 180 247 309 366 439
#     4  12  26  48  75 105 154 206 249 304 377 454
#     4  12  28  46  68 108 156 198 247 308 383 451
#     4  12  25  47  70 110 148 196 259 311 358 438
#     4  12  25  45  73 108 146 197 255 304 367 434
#     4  12  27  46  75 112 150 193 250 318 372 447
#
# _framework density 22.206610999999999
#
# number of rings (size 3 to 8) (size 9 to 14) (size 15 to 20)
#    0.000    0.500    3.750    5.625    5.250    0.500 
#    0.000    1.250    0.000    0.000    0.000    0.000 
#    0.000    0.000    0.000    0.000    0.000    0.000 
#
# Total GULP energy -89337.267113 kJ/mol
# GULP energy per Si atom -5583.579195 kJ/mol
# Density = 2.215607 g / cm^3
# Si number density = 22.206611 Si / 1000 Ang^3
#
#
#
# Elastic Constant Matrix: (Units=GPa)
#
#
# Indices 1 2 3 4 5 6 
#
# 1 118.2249 39.7821 35.0413 7.3479 6.6206 -20.5448
# 2 39.7821 100.7058 40.5774 17.5186 24.2755 31.6273
# 3 35.0413 40.5774 156.8518 25.9620 6.2133 -11.8191
# 4 7.3479 17.5186 25.9620 38.8537 -4.5595 -5.0337
# 5 6.6206 24.2755 6.2133 -4.5595 -10.3946 -41.1322
# 6 -20.5448 31.6273 -11.8191 -5.0337 -41.1322 -7.5955
#
#
#
# Elastic Compliance Matrix: (Units=1/GPa)
#
#
# Indices 1 2 3 4 5 6 
#
# 1 0.010384 -0.002431 -0.001160 -0.000667 -0.006992 0.001902
# 2 -0.002431 0.008950 -0.001711 -0.001120 0.008230 0.002677
# 3 -0.001160 -0.001711 0.008026 -0.004534 -0.002710 0.001203
# 4 -0.000667 -0.001120 -0.004534 0.028632 -0.001966 -0.004130
# 5 -0.006992 0.008230 -0.002710 -0.001966 0.015394 -0.024661
# 6 0.001902 0.002677 0.001203 -0.004130 -0.024661 0.008758
#
#
# Mechanical properties :
#
#
# Convention : Reuss Voigt Hill
#
# Bulk Modulus (GPa) = 59.68372 67.39825 63.54099
# Shear Modulus (GPa) = 51.90345 21.53150 36.71747
#
# Velocity S-wave (km/s) = 4.83981 3.11722 4.07067
# Velocity P-wave (km/s) = 7.62670 6.58578 7.12527
#
# Compressibility (1/GPa) = 0.01675499
#
# Stress axis : x y z
#
# Youngs Moduli (GPa) = 96.30383 111.73353 124.59747
#
# Poissons Ratio (x) = 0.27157 0.14458
# Poissons Ratio (y) = 0.23407 0.21323
# Poissons Ratio (z) = 0.11175 0.19122
#
# Static dielectric constant tensor:
#      x y z
#    x 2.063110 0.121040 0.027190 
#    y 0.121040 2.037320 0.012170 
#    z 0.027190 0.012170 1.828820 
# 
# From -- ./inp_files/53749.got.cif
#   From: 2010.05.17/outbox.cif.g08.bks.cpg/sg2_27_cif.got.tgz:53749.got - 2010.06.03 11:33:40.
