data_PCOD9111839
_publ_section_title
;
Structure prediction by ZEFSAII (Michael W. Deem and Ramdas Pophale) SiO2 
 PCOD9111839
Probable space group: P -1
;
_chemical_formula_sum "Si O2"
_cell_formula_units_Z 16
_cell_length_a 11.687053
_cell_length_b 8.919801
_cell_length_c 15.034652
_cell_angle_alpha 45.228490
_cell_angle_beta 115.049514
_cell_angle_gamma 141.224342
_cell_volume 668.419493
_symmetry_space_group_name_H-M "P -1"
_symmetry_group_IT_number 2
_symmetry_cell_setting 'triclinic'
loop_
_space_group_symop_operation_xyz
x,y,z
-x,-y,-z
loop_
_atom_site_type_symbol
_atom_site_label
_atom_site_fract_x
_atom_site_fract_y
_atom_site_fract_z
Si Si1 0.821480 0.227432 0.775603
Si Si2 0.464415 0.606498 0.143410
Si Si3 0.792578 0.838695 0.603635
Si Si4 0.875568 0.247079 0.986144
Si Si5 0.799865 0.646749 0.495526
Si Si6 0.593299 0.368665 0.171190
Si Si7 0.425582 0.041098 0.539958
Si Si8 0.876105 0.835022 0.916380
O O1 0.830876 0.447707 0.626940
O O2 0.595151 0.885930 0.847001
O O3 0.912033 0.131104 0.801701
O O4 0.899115 0.360932 0.844989
O O5 0.372381 0.481845 0.262313
O O6 0.532729 0.463433 0.186521
O O7 0.285419 0.434138 0.094574
O O8 0.652109 0.981346 0.044719
O O9 0.784551 0.771405 0.525539
O O10 0.746179 0.027041 0.517677
O O11 0.005631 0.053535 0.616674
O O12 0.946184 0.092922 0.069671
O O13 0.000000 0.500000 0.000000
O O14 0.605180 0.406428 0.478092
O O15 0.625324 0.183029 0.304485
O O16 0.771270 0.658801 0.049257
O O17 0.500000 0.000000 0.500000
#
# Coordination Sequence:
#
# PCOD9111839 Si02
#       8
#     2   2   2   2   2   2   2   2
#     4  10  21  45  68  96 135 176 229 274 334 409
#     4  11  23  45  67 100 139 171 227 286 333 404
#     4  11  25  47  70  96 142 184 225 284 338 405
#     4  12  27  40  64 107 134 174 224 278 344 410
#     4  10  26  46  70  99 137 186 229 274 351 404
#     4  10  20  43  71  98 135 182 223 280 339 396
#     4  11  23  43  70 107 134 178 236 284 333 398
#     4  11  23  43  73  96 135 184 221 276 348 399
#
# _framework density 23.937062000000001
#
# number of rings (size 3 to 8) (size 9 to 14) (size 15 to 20)
#    0.000    1.250    3.750    1.500    3.500    4.000 
#    2.250    0.000    0.000    0.000    0.000    0.000 
#    0.000    0.000    0.000    0.000    0.000    0.000 
#
# Total GULP energy -89579.264949 kJ/mol
# GULP energy per Si atom -5598.704059 kJ/mol
# Density = 2.388258 g / cm^3
# Si number density = 23.937062 Si / 1000 Ang^3
#
#
#
# Elastic Constant Matrix: (Units=GPa)
#
#
# Indices 1 2 3 4 5 6 
#
# 1 95.4229 5.7442 17.1688 -4.8830 -14.5771 7.2110
# 2 5.7442 118.5469 0.4775 1.8781 -18.4497 1.5590
# 3 17.1688 0.4775 41.5328 1.3370 -7.8162 6.7121
# 4 -4.8830 1.8781 1.3370 24.7662 1.5525 -1.2478
# 5 -14.5771 -18.4497 -7.8162 1.5525 29.0889 -3.7700
# 6 7.2110 1.5590 6.7121 -1.2478 -3.7700 36.3152
#
#
#
# Elastic Compliance Matrix: (Units=1/GPa)
#
#
# Indices 1 2 3 4 5 6 
#
# 1 0.012126 0.000161 -0.003998 0.002236 0.004844 -0.001096
# 2 0.000161 0.009440 0.001070 -0.001144 0.006416 -0.000008
# 3 -0.003998 0.001070 0.027510 -0.002907 0.005724 -0.003842
# 4 0.002236 -0.001144 -0.002907 0.041280 -0.002420 0.001310
# 5 0.004844 0.006416 0.005724 -0.002420 0.042809 0.002066
# 6 -0.001096 -0.000008 -0.003842 0.001310 0.002066 0.028724
#
#
# Mechanical properties :
#
#
# Convention : Reuss Voigt Hill
#
# Bulk Modulus (GPa) = 22.96546 33.58706 28.27626
# Shear Modulus (GPa) = 27.48215 33.50818 30.49517
#
# Velocity S-wave (km/s) = 3.39204 3.74551 3.57315
# Velocity P-wave (km/s) = 4.99561 5.72425 5.37230
#
# Compressibility (1/GPa) = 0.04354365
#
# Stress axis : x y z
#
# Youngs Moduli (GPa) = 82.46442 105.93099 36.35097
#
# Poissons Ratio (x) = -0.01709 0.14533
# Poissons Ratio (y) = -0.01330 -0.03891
# Poissons Ratio (z) = 0.32969 -0.11339
#
# Static dielectric constant tensor:
#      x y z
#    x 1.880540 -0.006940 0.022680 
#    y -0.006940 1.931970 -0.022250 
#    z 0.022680 -0.022250 1.936590 
# 
# From -- ./inp_files/306156.got.cif
#   From: 2010.05.17/outbox.cif.g08.bks.cpg/sg2_154_cif.got.tgz:306156.got - 2010.06.03 11:33:40.
