data_PCOD9111136
_publ_section_title
;
Structure prediction by ZEFSAII (Michael W. Deem and Ramdas Pophale) SiO2 
 PCOD9111136
Probable space group: P -1
;
_chemical_formula_sum "Si O2"
_cell_formula_units_Z 16
_cell_length_a 6.080255
_cell_length_b 15.197937
_cell_length_c 16.238407
_cell_angle_alpha 147.096153
_cell_angle_beta 112.175487
_cell_angle_gamma 54.390502
_cell_volume 641.283284
_symmetry_space_group_name_H-M "P -1"
_symmetry_group_IT_number 2
_symmetry_cell_setting 'triclinic'
loop_
_space_group_symop_operation_xyz
x,y,z
-x,-y,-z
loop_
_atom_site_type_symbol
_atom_site_label
_atom_site_fract_x
_atom_site_fract_y
_atom_site_fract_z
Si Si1 0.735058 0.754016 0.653793
Si Si2 0.336037 0.049823 0.600377
Si Si3 0.454820 0.360988 0.709335
Si Si4 0.636357 0.386525 0.595136
Si Si5 0.078491 0.464351 0.886924
Si Si6 0.192610 0.144438 0.936796
Si Si7 0.126199 0.395176 0.266539
Si Si8 0.128004 0.058306 0.313948
O O1 0.576085 0.667192 0.515583
O O2 0.884129 0.635293 0.662816
O O3 0.919874 0.797118 0.653096
O O4 0.487417 0.961298 0.812749
O O5 0.088006 0.265155 0.725228
O O6 0.500000 0.000000 0.500000
O O7 0.327395 0.860034 0.456846
O O8 0.548487 0.040449 0.692433
O O9 0.552042 0.460534 0.735590
O O10 0.372656 0.404510 0.829021
O O11 0.149008 0.433728 0.683699
O O12 0.641361 0.553382 0.678261
O O13 0.930701 0.189527 0.463651
O O14 0.000000 0.500000 0.000000
O O15 0.876039 0.669044 0.978027
O O16 0.179551 0.209522 0.079722
O O17 0.963545 0.088757 0.839657
#
# Coordination Sequence:
#
# PCOD9111136 Si02
#       8
#     2   2   2   2   2   2   2   2
#     4  11  23  41  69  98 138 179 227 274 335 398
#     4  10  20  42  69  94 130 173 225 279 337 395
#     4  10  22  42  66 102 135 170 225 278 332 400
#     4  11  22  40  69  97 137 174 226 275 335 393
#     4  10  22  41  70  94 130 174 222 274 337 402
#     4  10  25  42  64  98 137 179 221 276 342 402
#     4  11  23  42  67 101 137 180 223 275 335 405
#     4  11  23  42  67  95 138 177 222 284 331 400
#
# _framework density 24.94997
#
# number of rings (size 3 to 8) (size 9 to 14) (size 15 to 20)
#    0.000    1.500    2.500    1.500    1.750    7.000 
#    0.000    7.500    0.000    0.000    0.000    0.000 
#    0.000    0.000    0.000    0.000    0.000    0.000 
#
# Total GULP energy -89255.667720 kJ/mol
# GULP energy per Si atom -5578.479232 kJ/mol
# Density = 2.489318 g / cm^3
# Si number density = 24.949970 Si / 1000 Ang^3
#
#
#
# Elastic Constant Matrix: (Units=GPa)
#
#
# Indices 1 2 3 4 5 6 
#
# 1 82.9665 48.3147 58.0496 -4.2481 -2.7396 23.3552
# 2 48.3147 131.9794 31.9994 -5.9448 -0.0677 32.6213
# 3 58.0496 31.9994 139.7471 -3.6149 2.4934 2.1235
# 4 -4.2481 -5.9448 -3.6149 52.5816 8.7762 -14.4774
# 5 -2.7396 -0.0677 2.4934 8.7762 37.5394 2.3484
# 6 23.3552 32.6213 2.1235 -14.4774 2.3484 48.5066
#
#
#
# Elastic Compliance Matrix: (Units=1/GPa)
#
#
# Indices 1 2 3 4 5 6 
#
# 1 0.022935 -0.004306 -0.008524 -0.002123 0.003264 -0.008565
# 2 -0.004306 0.010548 -0.000569 -0.000665 0.000224 -0.005204
# 3 -0.008524 -0.000569 0.010834 0.001588 -0.002001 0.004583
# 4 -0.002123 -0.000665 0.001588 0.022162 -0.005962 0.008303
# 5 0.003264 0.000224 -0.002001 -0.005962 0.028705 -0.004804
# 6 -0.008565 -0.005204 0.004583 0.008303 -0.004804 0.030750
#
#
# Mechanical properties :
#
#
# Convention : Reuss Voigt Hill
#
# Bulk Modulus (GPa) = 57.08022 70.15783 63.61902
# Shear Modulus (GPa) = 31.53183 42.14747 36.83965
#
# Velocity S-wave (km/s) = 3.55886 4.11454 3.84675
# Velocity P-wave (km/s) = 6.30990 7.12412 6.72933
#
# Compressibility (1/GPa) = 0.01751920
#
# Stress axis : x y z
#
# Youngs Moduli (GPa) = 43.60159 94.80708 92.30303
#
# Poissons Ratio (x) = 0.40825 0.78679
# Poissons Ratio (y) = 0.18775 0.05248
# Poissons Ratio (z) = 0.37166 0.05391
#
# Static dielectric constant tensor:
#      x y z
#    x 2.009190 -0.008760 -0.006810 
#    y -0.008760 2.098200 0.072770 
#    z -0.006810 0.072770 2.087900 
# 
# From -- ./inp_files/550193.got.cif
#   From: 2010.05.17/outbox.cif.g08.bks.cpg/sg2_276_cif.got.tgz:550193.got - 2010.06.03 11:33:40.
