data_PCOD9111737
_publ_section_title
;
Structure prediction by ZEFSAII (Michael W. Deem and Ramdas Pophale) SiO2 
 PCOD9111737
Probable space group: P -1
;
_chemical_formula_sum "Si O2"
_cell_formula_units_Z 14
_cell_length_a 7.018856
_cell_length_b 10.646274
_cell_length_c 9.356525
_cell_angle_alpha 77.091608
_cell_angle_beta 47.258517
_cell_angle_gamma 78.514950
_cell_volume 499.402446
_symmetry_space_group_name_H-M "P -1"
_symmetry_group_IT_number 2
_symmetry_cell_setting 'triclinic'
loop_
_space_group_symop_operation_xyz
x,y,z
-x,-y,-z
loop_
_atom_site_type_symbol
_atom_site_label
_atom_site_fract_x
_atom_site_fract_y
_atom_site_fract_z
Si Si1 0.972642 0.725788 0.166078
Si Si2 0.078027 0.455008 0.288731
Si Si3 0.268908 0.275780 0.001784
Si Si4 0.698529 0.093416 0.949303
Si Si5 0.565778 0.973957 0.637279
Si Si6 0.207138 0.773469 0.573843
Si Si7 0.509402 0.695622 0.716710
O O1 0.014421 0.853696 0.205607
O O2 0.235651 0.705123 0.939363
O O3 0.751357 0.728025 0.156739
O O4 0.966572 0.599914 0.298177
O O5 0.181178 0.411658 0.087575
O O6 0.314965 0.425166 0.283710
O O7 0.869295 0.348254 0.448502
O O8 0.540800 0.225883 0.941444
O O9 0.045451 0.189766 0.205308
O O10 0.679798 0.031357 0.132567
O O11 0.500000 0.000000 0.000000
O O12 0.662692 0.823714 0.645721
O O13 0.500000 0.000000 0.500000
O O14 0.730305 0.093595 0.566716
O O15 0.424693 0.717286 0.590458
#
# Coordination Sequence:
#
# PCOD9111737 Si02
#       7
#     2   2   2   2   2   2   2
#     4  10  18  31  47  72 107 129 169 209 254 305
#     4  10  17  26  49  79 102 128 159 215 268 288
#     4   9  19  30  50  78 101 133 165 210 262 293
#     4  11  23  36  51  74 106 142 170 201 252 307
#     4   9  16  33  52  74 102 133 170 212 249 290
#     4   8  17  27  46  74 101 123 163 214 253 293
#     4   9  16  25  44  72 102 128 156 204 254 297
#
# _framework density 28.033507
#
# number of rings (size 3 to 8) (size 9 to 14) (size 15 to 20)
#    0.857    1.714    2.857    1.714    0.000    2.857 
#    0.000    0.000    0.000    0.857    0.000    5.000 
#    0.000    0.000    0.000    0.000    0.000    0.000 
#
# Total GULP energy -78133.211164 kJ/mol
# GULP energy per Si atom -5580.943655 kJ/mol
# Density = 2.796970 g / cm^3
# Si number density = 28.033507 Si / 1000 Ang^3
#
#
#
# Elastic Constant Matrix: (Units=GPa)
#
#
# Indices 1 2 3 4 5 6 
#
# 1 146.6297 43.0850 22.6076 -4.8116 18.5691 -14.9065
# 2 43.0850 86.0806 24.0039 -25.1304 -6.8763 -2.0478
# 3 22.6076 24.0039 111.1466 -12.1097 -5.1694 -1.7077
# 4 -4.8116 -25.1304 -12.1097 41.3712 10.1348 1.4284
# 5 18.5691 -6.8763 -5.1694 10.1348 34.5806 -8.2688
# 6 -14.9065 -2.0478 -1.7077 1.4284 -8.2688 49.7747
#
#
#
# Elastic Compliance Matrix: (Units=1/GPa)
#
#
# Indices 1 2 3 4 5 6 
#
# 1 0.009304 -0.005035 -0.001146 -0.001029 -0.005470 0.001661
# 2 -0.005035 0.017385 -0.001639 0.008725 0.003224 -0.000564
# 3 -0.001146 -0.001639 0.009802 0.001401 0.001371 0.000113
# 4 -0.001029 0.008725 0.001401 0.031606 -0.007247 -0.002012
# 5 -0.005470 0.003224 0.001371 -0.007247 0.035954 0.004722
# 6 0.001661 -0.000564 0.000113 -0.002012 0.004722 0.021411
#
#
# Mechanical properties :
#
#
# Convention : Reuss Voigt Hill
#
# Bulk Modulus (GPa) = 47.95703 58.13887 53.04795
# Shear Modulus (GPa) = 33.77165 42.08933 37.93049
#
# Velocity S-wave (km/s) = 3.47463 3.87899 3.68236
# Velocity P-wave (km/s) = 5.76555 6.39110 6.08637
#
# Compressibility (1/GPa) = 0.02085200
#
# Stress axis : x y z
#
# Youngs Moduli (GPa) = 107.48267 57.51952 102.01729
#
# Poissons Ratio (x) = 0.28962 0.11692
# Poissons Ratio (y) = 0.54118 0.16717
# Poissons Ratio (z) = 0.12318 0.09425
#
# Static dielectric constant tensor:
#      x y z
#    x 2.155180 0.120390 -0.026200 
#    y 0.120390 2.310360 0.129670 
#    z -0.026200 0.129670 2.212530 
# 
# From -- ./inp_files/386812.got.cif
#   From: 2010.05.17/outbox.cif.g08.bks.cpg/sg2_194_cif.got.tgz:386812.got - 2010.06.03 11:33:40.
