data_PCOD9111157
_publ_section_title
;
Structure prediction by ZEFSAII (Michael W. Deem and Ramdas Pophale) SiO2 
 PCOD9111157
Probable space group: P -1
;
_chemical_formula_sum "Si O2"
_cell_formula_units_Z 10
_cell_length_a 11.847708
_cell_length_b 8.432011
_cell_length_c 10.749907
_cell_angle_alpha 116.921761
_cell_angle_beta 38.752118
_cell_angle_gamma 142.255263
_cell_volume 371.951820
_symmetry_space_group_name_H-M "P -1"
_symmetry_group_IT_number 2
_symmetry_cell_setting 'triclinic'
loop_
_space_group_symop_operation_xyz
x,y,z
-x,-y,-z
loop_
_atom_site_type_symbol
_atom_site_label
_atom_site_fract_x
_atom_site_fract_y
_atom_site_fract_z
Si Si1 0.830442 0.604597 0.678046
Si Si2 0.179210 0.444673 0.716534
Si Si3 0.188709 0.093978 0.992831
Si Si4 0.245782 0.658879 0.109573
Si Si5 0.636919 0.786540 0.638487
O O1 0.532610 0.333800 0.765604
O O2 0.854113 0.468207 0.712354
O O3 0.823342 0.768816 0.837629
O O4 0.085685 0.871916 0.464271
O O5 0.457653 0.724694 0.653385
O O6 0.280425 0.348976 0.518642
O O7 0.023499 0.476699 0.784949
O O8 0.954375 0.189602 0.920296
O O9 0.000000 0.000000 0.000000
O O10 0.419868 0.629110 0.885590
O O11 0.500000 0.000000 0.000000
#
# Coordination Sequence:
#
# PCOD9111157 Si02
#       5
#     2   2   2   2   2
#     4  10  23  44  66 103 136 179 235 278 342 414
#     4  10  22  46  69 103 136 181 234 279 349 408
#     4  10  20  42  69  97 141 180 224 289 340 404
#     4  12  24  44  69 101 145 176 224 293 340 403
#     4  10  24  45  70 101 137 183 230 280 342 414
#
# _framework density 26.885204000000002
#
# number of rings (size 3 to 8) (size 9 to 14) (size 15 to 20)
#    0.000    1.600    2.000    1.800    0.000    2.400 
#   10.800    2.000    0.000    0.000    0.000    0.000 
#    0.000    0.000    0.000    0.000    0.000    0.000 
#
# Total GULP energy -56058.609507 kJ/mol
# GULP energy per Si atom -5605.860951 kJ/mol
# Density = 2.682401 g / cm^3
# Si number density = 26.885204 Si / 1000 Ang^3
#
#
#
# Elastic Constant Matrix: (Units=GPa)
#
#
# Indices 1 2 3 4 5 6 
#
# 1 212.7185 11.5206 62.0986 -23.4480 -10.1337 26.0004
# 2 11.5206 75.9139 19.8819 -9.6078 -3.3231 21.6215
# 3 62.0986 19.8819 168.9629 1.0817 13.4753 17.5950
# 4 -23.4480 -9.6078 1.0817 47.5128 7.9959 -14.1080
# 5 -10.1337 -3.3231 13.4753 7.9959 39.3047 -15.1200
# 6 26.0004 21.6215 17.5950 -14.1080 -15.1200 39.7808
#
#
#
# Elastic Compliance Matrix: (Units=1/GPa)
#
#
# Indices 1 2 3 4 5 6 
#
# 1 0.005826 0.000564 -0.002099 0.002272 0.001044 -0.001983
# 2 0.000564 0.015947 -0.001028 0.001205 -0.001799 -0.008838
# 3 -0.002099 -0.001028 0.007543 -0.001785 -0.004258 -0.003657
# 4 0.002272 0.001205 -0.001785 0.024711 -0.001026 0.007023
# 5 0.001044 -0.001799 -0.004258 -0.001026 0.032708 0.014247
# 6 -0.001983 -0.008838 -0.003657 0.007023 0.014247 0.040760
#
#
# Mechanical properties :
#
#
# Convention : Reuss Voigt Hill
#
# Bulk Modulus (GPa) = 41.33890 71.62194 56.48042
# Shear Modulus (GPa) = 35.54072 49.59261 42.56666
#
# Velocity S-wave (km/s) = 3.63980 4.29955 3.98336
# Velocity P-wave (km/s) = 5.75097 7.16560 6.49690
#
# Compressibility (1/GPa) = 0.02419029
#
# Stress axis : x y z
#
# Youngs Moduli (GPa) = 171.64950 62.70636 132.58137
#
# Poissons Ratio (x) = -0.03535 0.27826
# Poissons Ratio (y) = -0.09675 0.13624
# Poissons Ratio (z) = 0.36026 0.06444
#
# Static dielectric constant tensor:
#      x y z
#    x 2.060860 -0.040780 -0.023490 
#    y -0.040780 2.115990 0.099750 
#    z -0.023490 0.099750 2.213060 
# 
# From -- ./inp_files/155850.got.cif
#   From: 2010.05.17/outbox.cif.g08.bks.cpg/sg2_78_cif.got.tgz:155850.got - 2010.06.03 11:33:40.
