data_PCOD9111360
_publ_section_title
;
Structure prediction by ZEFSAII (Michael W. Deem and Ramdas Pophale) SiO2 
 PCOD9111360
Probable space group: P -1
;
_chemical_formula_sum "Si O2"
_cell_formula_units_Z 11
_cell_length_a 5.106510
_cell_length_b 8.686574
_cell_length_c 16.356840
_cell_angle_alpha 137.882749
_cell_angle_beta 116.369119
_cell_angle_gamma 82.081813
_cell_volume 413.182727
_symmetry_space_group_name_H-M "P -1"
_symmetry_group_IT_number 2
_symmetry_cell_setting 'triclinic'
loop_
_space_group_symop_operation_xyz
x,y,z
-x,-y,-z
loop_
_atom_site_type_symbol
_atom_site_label
_atom_site_fract_x
_atom_site_fract_y
_atom_site_fract_z
Si Si1 0.643675 0.459114 0.917899
Si Si2 0.571285 0.261003 0.574025
Si Si3 0.425193 0.071557 0.303784
Si Si4 0.813566 0.436863 0.277130
Si Si5 0.151457 0.055778 0.952056
Si Si6 0.000000 0.500000 0.500000
O O1 0.505637 0.178827 0.762506
O O2 0.500000 0.500000 0.000000
O O3 0.643921 0.668210 0.935436
O O4 0.000000 0.500000 0.000000
O O5 0.398362 0.199906 0.437141
O O6 0.411280 0.430850 0.664411
O O7 0.939549 0.395552 0.685809
O O8 0.500000 0.000000 0.500000
O O9 0.705936 0.245860 0.360912
O O10 0.133925 0.998578 0.173996
O O11 0.050961 0.465965 0.396903
O O12 0.703434 0.155054 0.132001
O O13 0.000000 0.000000 0.000000
#
# Coordination Sequence:
#
# PCOD9111360 Si02
#       6
#     2   2   2   2   2   1
#     4  10  23  46  72 106 151 204 252 306 376 460
#     4  11  25  44  71 105 143 194 245 319 370 444
#     4  10  23  46  76 107 153 195 257 311 390 451
#     4  11  23  43  70 103 145 186 251 303 379 438
#     4  11  25  46  76 115 154 204 255 317 383 467
#     4  10  20  42  74 110 138 198 246 326 372 448
#
# _framework density 26.622602000000001
#
# number of rings (size 3 to 8) (size 9 to 14) (size 15 to 20)
#    0.000    1.455    0.000    3.818    2.545    8.727 
#    6.545    7.273    4.000    0.000    0.000    0.000 
#    0.000    0.000    0.000    0.000    0.000    0.000 
#
# Total GULP energy -61374.826993 kJ/mol
# GULP energy per Si atom -5579.529727 kJ/mol
# Density = 2.656201 g / cm^3
# Si number density = 26.622602 Si / 1000 Ang^3
#
#
#
# Elastic Constant Matrix: (Units=GPa)
#
#
# Indices 1 2 3 4 5 6 
#
# 1 139.6244 35.3062 50.4668 23.8036 -34.9681 16.4762
# 2 35.3062 146.5709 31.1004 21.9528 -17.8002 -4.6053
# 3 50.4668 31.1004 171.6505 27.5556 -29.5181 11.1320
# 4 23.8036 21.9528 27.5556 63.5707 14.6348 2.8922
# 5 -34.9681 -17.8002 -29.5181 14.6348 52.3120 5.4335
# 6 16.4762 -4.6053 11.1320 2.8922 5.4335 35.3262
#
#
#
# Elastic Compliance Matrix: (Units=1/GPa)
#
#
# Indices 1 2 3 4 5 6 
#
# 1 0.011672 -0.000908 -0.000236 -0.005888 0.009682 -0.006495
# 2 -0.000908 0.007902 -0.000356 -0.002883 0.002541 0.001411
# 3 -0.000236 -0.000356 0.007818 -0.004346 0.005651 -0.002914
# 4 -0.005888 -0.002883 -0.004346 0.023969 -0.014491 0.004006
# 5 0.009682 0.002541 0.005651 -0.014491 0.034747 -0.010123
# 6 -0.006495 0.001411 -0.002914 0.004006 -0.010123 0.033668
#
#
# Mechanical properties :
#
#
# Convention : Reuss Voigt Hill
#
# Bulk Modulus (GPa) = 40.99739 76.84361 58.92050
# Shear Modulus (GPa) = 38.19535 52.97327 45.58431
#
# Velocity S-wave (km/s) = 3.79185 4.46554 4.14241
# Velocity P-wave (km/s) = 5.88249 7.45082 6.71262
#
# Compressibility (1/GPa) = 0.02439179
#
# Stress axis : x y z
#
# Youngs Moduli (GPa) = 85.67548 126.55475 127.90854
#
# Poissons Ratio (x) = 0.11489 0.03015
# Poissons Ratio (y) = 0.07778 0.04559
# Poissons Ratio (z) = 0.02019 0.04511
#
# Static dielectric constant tensor:
#      x y z
#    x -1.555460 0.693600 -1.043850 
#    y 0.693600 2.146000 0.146460 
#    z -1.043850 0.146460 1.664310 
# 
# From -- ./inp_files/103957.got.cif
#   From: 2010.05.17/outbox.cif.g08.bks.cpg/sg2_52_cif.got.tgz:103957.got - 2010.06.03 11:33:40.
