data_PCOD9111424
_publ_section_title
;
Structure prediction by ZEFSAII (Michael W. Deem and Ramdas Pophale) SiO2 
 PCOD9111424
Probable space group: P -1
;
_chemical_formula_sum "Si O2"
_cell_formula_units_Z 16
_cell_length_a 16.379181
_cell_length_b 7.177903
_cell_length_c 15.715352
_cell_angle_alpha 54.938128
_cell_angle_beta 25.696184
_cell_angle_gamma 68.325149
_cell_volume 595.750563
_symmetry_space_group_name_H-M "P -1"
_symmetry_group_IT_number 2
_symmetry_cell_setting 'triclinic'
loop_
_space_group_symop_operation_xyz
x,y,z
-x,-y,-z
loop_
_atom_site_type_symbol
_atom_site_label
_atom_site_fract_x
_atom_site_fract_y
_atom_site_fract_z
Si Si1 0.739045 0.952305 0.683371
Si Si2 0.374214 0.717424 0.758620
Si Si3 0.136159 0.531102 0.485211
Si Si4 0.240451 0.615122 0.718053
Si Si5 0.211721 0.080253 0.589528
Si Si6 0.831320 0.909313 0.107983
Si Si7 0.793386 0.818914 0.859386
Si Si8 0.300207 0.774703 0.085099
O O1 0.227582 0.762526 0.403267
O O2 0.719377 0.823976 0.829406
O O3 0.535860 0.806397 0.855916
O O4 0.960638 0.998089 0.423729
O O5 0.342518 0.697104 0.692966
O O6 0.615195 0.807878 0.529151
O O7 0.708316 0.082987 0.179962
O O8 0.253424 0.450668 0.987736
O O9 0.884126 0.397340 0.758683
O O10 0.225785 0.326560 0.465450
O O11 0.211156 0.654380 0.291467
O O12 0.285328 0.390577 0.697166
O O13 0.262293 0.845854 0.575250
O O14 0.000000 0.500000 0.000000
O O15 0.975719 0.963955 0.874592
O O16 0.000000 0.000000 0.000000
O O17 0.692790 0.949971 0.983592
#
# Coordination Sequence:
#
# PCOD9111424 Si02
#       8
#     2   2   2   2   2   2   2   2
#     4  10  20  43  62  96 134 174 216 265 327 387
#     4  12  23  43  70  97 132 178 217 275 342 388
#     4  10  21  39  65  98 130 170 221 267 319 390
#     4  10  23  42  66  95 133 169 219 278 324 405
#     4  11  23  42  66  97 133 173 222 275 332 400
#     4  11  24  43  65  92 133 172 218 277 329 396
#     4  10  22  37  68  94 132 170 217 268 319 394
#     4  10  21  39  66  93 134 176 210 269 327 381
#
# _framework density 26.856877000000001
#
# number of rings (size 3 to 8) (size 9 to 14) (size 15 to 20)
#    0.000    1.500    2.500    4.125    3.500    0.500 
#    0.000   13.750    0.000    0.000    0.000    0.000 
#    0.000    0.000    0.000    0.000    0.000    0.000 
#
# Total GULP energy -89608.313202 kJ/mol
# GULP energy per Si atom -5600.519575 kJ/mol
# Density = 2.679575 g / cm^3
# Si number density = 26.856877 Si / 1000 Ang^3
#
#
#
# Elastic Constant Matrix: (Units=GPa)
#
#
# Indices 1 2 3 4 5 6 
#
# 1 83.2274 58.6834 40.5625 -4.8859 -25.8870 -12.0941
# 2 58.6834 232.0777 43.2050 -22.0134 6.2768 -11.6457
# 3 40.5625 43.2050 105.7420 10.6504 -32.1811 -17.4516
# 4 -4.8859 -22.0134 10.6504 47.8711 -12.3851 3.5205
# 5 -25.8870 6.2768 -32.1811 -12.3851 52.3327 4.7190
# 6 -12.0941 -11.6457 -17.4516 3.5205 4.7190 31.4750
#
#
#
# Elastic Compliance Matrix: (Units=1/GPa)
#
#
# Indices 1 2 3 4 5 6 
#
# 1 0.019829 -0.004299 -0.002969 0.002814 0.008919 0.002731
# 2 -0.004299 0.006074 -0.002208 0.001899 -0.003738 -0.000281
# 3 -0.002969 -0.002208 0.014761 -0.003312 0.006584 0.005610
# 4 0.002814 0.001899 -0.003312 0.024400 0.005224 -0.003565
# 5 0.008919 -0.003738 0.006584 0.005224 0.029187 0.000734
# 6 0.002731 -0.000281 0.005610 -0.003565 0.000734 0.036116
#
#
# Mechanical properties :
#
#
# Convention : Reuss Voigt Hill
#
# Bulk Modulus (GPa) = 46.05373 78.43876 62.24624
# Shear Modulus (GPa) = 31.93746 44.90886 38.42316
#
# Velocity S-wave (km/s) = 3.45218 4.09364 3.78651
# Velocity P-wave (km/s) = 5.75110 7.18425 6.50725
#
# Compressibility (1/GPa) = 0.02171377
#
# Stress axis : x y z
#
# Youngs Moduli (GPa) = 50.43110 164.63403 67.74598
#
# Poissons Ratio (x) = 0.70770 0.20111
# Poissons Ratio (y) = 0.21678 0.14959
# Poissons Ratio (z) = 0.14971 0.36352
#
# Static dielectric constant tensor:
#      x y z
#    x 2.116980 0.017470 0.031300 
#    y 0.017470 2.129540 -0.005660 
#    z 0.031300 -0.005660 2.128190 
# 
# From -- ./inp_files/601109.got.cif
#   From: 2010.05.17/outbox.cif.g08.bks.cpg/sg2_301_cif.got.tgz:601109.got - 2010.06.03 11:33:40.
