data_PCOD9111906
_publ_section_title
;
Structure prediction by ZEFSAII (Michael W. Deem and Ramdas Pophale) SiO2 
 PCOD9111906
Probable space group: P -1
;
_chemical_formula_sum "Si O2"
_cell_formula_units_Z 14
_cell_length_a 10.360353
_cell_length_b 7.503824
_cell_length_c 7.069665
_cell_angle_alpha 79.408708
_cell_angle_beta 113.271446
_cell_angle_gamma 78.202987
_cell_volume 472.356714
_symmetry_space_group_name_H-M "P -1"
_symmetry_group_IT_number 2
_symmetry_cell_setting 'triclinic'
loop_
_space_group_symop_operation_xyz
x,y,z
-x,-y,-z
loop_
_atom_site_type_symbol
_atom_site_label
_atom_site_fract_x
_atom_site_fract_y
_atom_site_fract_z
Si Si1 0.269328 0.718754 0.364826
Si Si2 0.216353 0.253179 0.565867
Si Si3 0.091001 0.105670 0.198897
Si Si4 0.491639 0.270700 0.941642
Si Si5 0.063440 0.405054 0.800556
Si Si6 0.559693 0.619507 0.718910
Si Si7 0.189679 0.748195 0.753635
O O1 0.154622 0.904101 0.170407
O O2 0.433448 0.736225 0.482142
O O3 0.311353 0.526135 0.299267
O O4 0.206135 0.734935 0.539211
O O5 0.381980 0.214225 0.745810
O O6 0.127404 0.247719 0.707391
O O7 0.096458 0.453935 0.382218
O O8 0.218718 0.120349 0.415846
O O9 0.059432 0.288756 0.009641
O O10 0.959008 0.120379 0.265475
O O11 0.481518 0.478846 0.808520
O O12 0.425215 0.257808 0.115899
O O13 0.668907 0.200152 0.090354
O O14 0.169948 0.540948 0.836743
#
# Coordination Sequence:
#
# PCOD9111906 Si02
#       7
#     2   2   2   2   2   2   2
#     4  10  21  43  74 107 142 193 249 307 358 431
#     4  10  21  43  73 104 146 197 239 301 367 446
#     4  11  24  47  71 110 152 190 237 307 374 437
#     4  10  20  43  75 105 137 191 254 300 351 439
#     4  10  22  45  71 104 145 202 250 287 363 446
#     4   9  20  42  71 103 139 191 252 296 358 437
#     4  10  21  44  75 104 144 193 249 297 354 447
#
# _framework density 29.638617
#
# number of rings (size 3 to 8) (size 9 to 14) (size 15 to 20)
#    0.000    2.000    0.000    4.714    0.000    0.000 
#   38.571    4.286    0.000    8.571    0.000    4.000 
#    0.000    0.000    0.000    0.000    0.000    0.000 
#
# Total GULP energy -78244.625921 kJ/mol
# GULP energy per Si atom -5588.901852 kJ/mol
# Density = 2.957116 g / cm^3
# Si number density = 29.638617 Si / 1000 Ang^3
#
#
#
# Elastic Constant Matrix: (Units=GPa)
#
#
# Indices 1 2 3 4 5 6 
#
# 1 155.8163 73.9510 90.3970 8.0959 -10.3118 -21.0806
# 2 73.9510 162.8045 44.6440 -18.8124 -12.2227 -25.4286
# 3 90.3970 44.6440 199.9419 16.2414 7.2010 -15.3933
# 4 8.0959 -18.8124 16.2414 40.2701 -6.2221 -4.6311
# 5 -10.3118 -12.2227 7.2010 -6.2221 57.9392 17.4305
# 6 -21.0806 -25.4286 -15.3933 -4.6311 17.4305 43.5717
#
#
#
# Elastic Compliance Matrix: (Units=1/GPa)
#
#
# Indices 1 2 3 4 5 6 
#
# 1 0.010768 -0.003874 -0.003791 -0.002174 0.001048 0.000959
# 2 -0.003874 0.009391 -0.000579 0.005961 0.000898 0.003676
# 3 -0.003791 -0.000579 0.007220 -0.002657 -0.002283 0.001010
# 4 -0.002174 0.005961 -0.002657 0.030036 0.003431 0.003308
# 5 0.001048 0.000898 -0.002283 0.003431 0.020588 -0.007647
# 6 0.000959 0.003676 0.001010 0.003308 -0.007647 0.029328
#
#
# Mechanical properties :
#
#
# Convention : Reuss Voigt Hill
#
# Bulk Modulus (GPa) = 91.81044 104.06074 97.93559
# Shear Modulus (GPa) = 39.23119 48.99424 44.11271
#
# Velocity S-wave (km/s) = 3.64215 4.07019 3.86210
# Velocity P-wave (km/s) = 6.98075 7.56800 7.28030
#
# Compressibility (1/GPa) = 0.01089201
#
# Stress axis : x y z
#
# Youngs Moduli (GPa) = 92.87037 106.48151 138.49842
#
# Poissons Ratio (x) = 0.41254 0.52498
# Poissons Ratio (y) = 0.35981 0.08017
# Poissons Ratio (z) = 0.35203 0.06163
#
# Static dielectric constant tensor:
#      x y z
#    x 2.346100 0.109820 0.035060 
#    y 0.109820 2.419710 0.016070 
#    z 0.035060 0.016070 2.451320 
# 
# From -- ./inp_files/259616.got.cif
#   From: 2010.05.17/outbox.cif.g08.bks.cpg/sg2_130_cif.got.tgz:259616.got - 2010.06.03 11:33:40.
