data_PCOD9111805
_publ_section_title
;
Structure prediction by ZEFSAII (Michael W. Deem and Ramdas Pophale) SiO2 
 PCOD9111805
Probable space group: P -1
;
_chemical_formula_sum "Si O2"
_cell_formula_units_Z 16
_cell_length_a 5.409326
_cell_length_b 18.164601
_cell_length_c 18.609153
_cell_angle_alpha 148.811647
_cell_angle_beta 59.836852
_cell_angle_gamma 132.491690
_cell_volume 684.473748
_symmetry_space_group_name_H-M "P -1"
_symmetry_group_IT_number 2
_symmetry_cell_setting 'triclinic'
loop_
_space_group_symop_operation_xyz
x,y,z
-x,-y,-z
loop_
_atom_site_type_symbol
_atom_site_label
_atom_site_fract_x
_atom_site_fract_y
_atom_site_fract_z
Si Si1 0.181848 0.264142 0.552429
Si Si2 0.262918 0.942306 0.914047
Si Si3 0.317395 0.366022 0.771776
Si Si4 0.672353 0.908287 0.362586
Si Si5 0.053978 0.507541 0.724777
Si Si6 0.943098 0.550071 0.627661
Si Si7 0.302776 0.785886 0.034811
Si Si8 0.462670 0.297615 0.923348
O O1 0.119038 0.310151 0.679662
O O2 0.974424 0.318413 0.580320
O O3 0.565785 0.396896 0.580302
O O4 0.033424 0.066922 0.411615
O O5 0.032539 0.739806 0.769870
O O6 0.500000 0.000000 0.000000
O O7 0.500876 0.037589 0.889872
O O8 0.000000 0.000000 0.000000
O O9 0.274837 0.206145 0.685404
O O10 0.699644 0.480810 0.778260
O O11 0.300442 0.497433 0.934747
O O12 0.469102 0.787232 0.224065
O O13 0.500000 0.000000 0.500000
O O14 0.295870 0.647480 0.865388
O O15 0.174438 0.567307 0.676452
O O16 0.000000 0.500000 0.500000
O O17 0.478517 0.775456 0.072931
O O18 0.920958 0.743897 0.067647
#
# Coordination Sequence:
#
# PCOD9111805 Si02
#       8
#     2   2   2   2   2   2   2   2
#     4  11  23  44  72  95 146 191 232 295 376 424
#     4  12  25  45  76 107 144 192 250 297 359 429
#     4  10  22  44  71 101 135 187 239 294 353 433
#     4  12  26  46  70 108 142 188 241 301 370 444
#     4  10  20  43  70  99 139 186 233 293 363 419
#     4  11  27  44  69 106 146 191 238 297 365 437
#     4  11  23  45  74 107 142 186 246 305 351 428
#     4  11  26  45  76 105 143 187 243 300 364 428
#
# _framework density 23.375623999999998
#
# number of rings (size 3 to 8) (size 9 to 14) (size 15 to 20)
#    0.000    1.000    3.750    2.250    3.500    3.500 
#    0.000    2.500    0.000    0.000    0.000    0.000 
#    0.000    0.000    0.000    0.000    0.000    0.000 
#
# Total GULP energy -89338.956451 kJ/mol
# GULP energy per Si atom -5583.684778 kJ/mol
# Density = 2.332242 g / cm^3
# Si number density = 23.375624 Si / 1000 Ang^3
#
#
#
# Elastic Constant Matrix: (Units=GPa)
#
#
# Indices 1 2 3 4 5 6 
#
# 1 88.4197 38.7786 41.5971 -2.6904 -11.5354 -19.1414
# 2 38.7786 136.5258 86.8979 10.3891 -4.2858 -20.5598
# 3 41.5971 86.8979 173.9451 5.5359 0.2699 -14.4975
# 4 -2.6904 10.3891 5.5359 44.6789 0.9400 -2.2274
# 5 -11.5354 -4.2858 0.2699 0.9400 19.0408 9.5925
# 6 -19.1414 -20.5598 -14.4975 -2.2274 9.5925 51.3492
#
#
#
# Elastic Compliance Matrix: (Units=1/GPa)
#
#
# Indices 1 2 3 4 5 6 
#
# 1 0.014960 -0.002299 -0.002264 0.001704 0.007101 0.002764
# 2 -0.002299 0.011694 -0.005037 -0.002127 0.000278 0.002259
# 3 -0.002264 -0.005037 0.008822 0.000005 -0.002698 0.000134
# 4 0.001704 -0.002127 0.000005 0.023050 -0.001082 0.000987
# 5 0.007101 0.000278 -0.002698 -0.001082 0.061810 -0.009597
# 6 0.002764 0.002259 0.000134 0.000987 -0.009597 0.023283
#
#
# Mechanical properties :
#
#
# Convention : Reuss Voigt Hill
#
# Bulk Modulus (GPa) = 61.43719 81.49310 71.46515
# Shear Modulus (GPa) = 29.71885 38.45490 34.08688
#
# Velocity S-wave (km/s) = 3.56948 4.06037 3.82281
# Velocity P-wave (km/s) = 6.58239 7.54455 7.07983
#
# Compressibility (1/GPa) = 0.01627679
#
# Stress axis : x y z
#
# Youngs Moduli (GPa) = 66.84687 85.51228 113.35518
#
# Poissons Ratio (x) = 0.19656 0.25663
# Poissons Ratio (y) = 0.15365 0.57095
# Poissons Ratio (z) = 0.15134 0.43071
#
# Static dielectric constant tensor:
#      x y z
#    x 1.996160 0.078990 0.010250 
#    y 0.078990 2.011740 0.011830 
#    z 0.010250 0.011830 1.915480 
# 
# From -- ./inp_files/289040.got.cif
#   From: 2010.05.17/outbox.cif.g08.bks.cpg/sg2_145_cif.got.tgz:289040.got - 2010.06.03 11:33:40.
