data_PCOD9111284
_publ_section_title
;
Structure prediction by ZEFSAII (Michael W. Deem and Ramdas Pophale) SiO2 
 PCOD9111284
Probable space group: P -1
;
_chemical_formula_sum "Si O2"
_cell_formula_units_Z 11
_cell_length_a 8.575477
_cell_length_b 8.573263
_cell_length_c 12.364526
_cell_angle_alpha 128.786377
_cell_angle_beta 139.640980
_cell_angle_gamma 75.619834
_cell_volume 408.934105
_symmetry_space_group_name_H-M "P -1"
_symmetry_group_IT_number 2
_symmetry_cell_setting 'triclinic'
loop_
_space_group_symop_operation_xyz
x,y,z
-x,-y,-z
loop_
_atom_site_type_symbol
_atom_site_label
_atom_site_fract_x
_atom_site_fract_y
_atom_site_fract_z
Si Si1 0.748251 0.758635 0.751482
Si Si2 0.328617 0.322647 0.741483
Si Si3 0.500000 0.000000 0.000000
Si Si4 0.675084 0.116752 0.534818
Si Si5 0.046860 0.575260 0.680617
Si Si6 0.754006 0.669956 0.963650
O O1 0.499871 0.796444 0.592344
O O2 0.831232 0.622963 0.649502
O O3 0.741943 0.657185 0.822491
O O4 0.000000 0.000000 0.000000
O O5 0.058560 0.350367 0.629806
O O6 0.292568 0.075572 0.601213
O O7 0.500000 0.500000 0.000000
O O8 0.501621 0.452694 0.783723
O O9 0.681669 0.189954 0.083503
O O10 0.707365 0.888137 0.056866
O O11 0.967440 0.288764 0.813237
O O12 0.500000 0.000000 0.500000
O O13 0.000000 0.500000 0.500000
#
# Coordination Sequence:
#
# PCOD9111284 Si02
#       6
#     2   2   1   2   2   2
#     4  12  23  48  80 106 152 202 246 312 377 442
#     4  11  27  49  73 110 151 191 252 318 371 446
#     4  10  20  42  72 100 144 194 234 304 364 434
#     4  12  25  48  77 110 150 196 249 310 376 445
#     4  11  23  46  72 105 146 195 244 302 373 446
#     4  11  26  48  77 106 155 197 252 307 382 446
#
# _framework density 26.8992
#
# number of rings (size 3 to 8) (size 9 to 14) (size 15 to 20)
#    0.000    0.727    3.636    3.273    2.545    1.455 
#    6.545    8.182    0.000    0.000    0.000    0.000 
#    0.000    0.000    0.000    0.000    0.000    0.000 
#
# Total GULP energy -61311.434557 kJ/mol
# GULP energy per Si atom -5573.766778 kJ/mol
# Density = 2.683798 g / cm^3
# Si number density = 26.899200 Si / 1000 Ang^3
#
#
#
# Elastic Constant Matrix: (Units=GPa)
#
#
# Indices 1 2 3 4 5 6 
#
# 1 165.7590 99.2088 74.6075 -16.8118 -11.4021 -19.0724
# 2 99.2088 201.1379 92.9443 -6.1535 -1.3867 -39.1914
# 3 74.6075 92.9443 152.1349 -18.4140 -12.0083 -23.4960
# 4 -16.8118 -6.1535 -18.4140 53.6095 3.8183 7.3012
# 5 -11.4021 -1.3867 -12.0083 3.8183 54.4164 4.7338
# 6 -19.0724 -39.1914 -23.4960 7.3012 4.7338 80.5252
#
#
#
# Elastic Compliance Matrix: (Units=1/GPa)
#
#
# Indices 1 2 3 4 5 6 
#
# 1 0.009410 -0.003685 -0.002110 0.001766 0.001325 -0.000418
# 2 -0.003685 0.008868 -0.003509 -0.001601 -0.001439 0.002649
# 3 -0.002110 -0.003509 0.010221 0.002273 0.001523 0.000479
# 4 0.001766 -0.001601 0.002273 0.020038 -0.000446 -0.001489
# 5 0.001325 -0.001439 0.001523 -0.000446 0.019074 -0.001023
# 6 -0.000418 0.002649 0.000479 -0.001489 -0.001023 0.013944
#
#
# Mechanical properties :
#
#
# Convention : Reuss Voigt Hill
#
# Bulk Modulus (GPa) = 101.09523 116.95033 109.02278
# Shear Modulus (GPa) = 48.32838 54.52831 51.42835
#
# Velocity S-wave (km/s) = 4.24329 4.50726 4.37726
# Velocity P-wave (km/s) = 7.85314 8.40588 8.13421
#
# Compressibility (1/GPa) = 0.00989166
#
# Stress axis : x y z
#
# Youngs Moduli (GPa) = 106.27047 112.76665 97.84018
#
# Poissons Ratio (x) = 0.41551 0.20643
# Poissons Ratio (y) = 0.39158 0.34331
# Poissons Ratio (z) = 0.22421 0.39568
#
# Static dielectric constant tensor:
#      x y z
#    x 2.108790 0.011360 0.008160 
#    y 0.011360 2.156060 -0.100410 
#    z 0.008160 -0.100410 2.208730 
# 
# From -- ./inp_files/380755.got.cif
#   From: 2010.05.17/outbox.cif.g08.bks.cpg/sg2_191_cif.got.tgz:380755.got - 2010.06.03 11:33:40.
