data_PCOD9111286
_publ_section_title
;
Structure prediction by ZEFSAII (Michael W. Deem and Ramdas Pophale) SiO2 
 PCOD9111286
Probable space group: P -1
;
_chemical_formula_sum "Si O2"
_cell_formula_units_Z 16
_cell_length_a 18.620416
_cell_length_b 21.063093
_cell_length_c 6.384044
_cell_angle_alpha 69.050163
_cell_angle_beta 112.982303
_cell_angle_gamma 160.344763
_cell_volume 774.927349
_symmetry_space_group_name_H-M "P -1"
_symmetry_group_IT_number 2
_symmetry_cell_setting 'triclinic'
loop_
_space_group_symop_operation_xyz
x,y,z
-x,-y,-z
loop_
_atom_site_type_symbol
_atom_site_label
_atom_site_fract_x
_atom_site_fract_y
_atom_site_fract_z
Si Si1 0.765093 0.031391 0.829147
Si Si2 0.153587 0.115305 0.342755
Si Si3 0.054709 0.301753 0.196683
Si Si4 0.403542 0.484309 0.538776
Si Si5 0.099179 0.192546 0.876562
Si Si6 0.101165 0.586102 0.766280
Si Si7 0.708053 0.396860 0.171998
Si Si8 0.911057 0.273561 0.458597
O O1 0.966895 0.152106 0.829782
O O2 0.762541 0.102089 0.627595
O O3 0.544280 0.810552 0.815941
O O4 0.836760 0.103255 0.063038
O O5 0.400719 0.303531 0.465608
O O6 0.052927 0.975234 0.251358
O O7 0.000000 0.000000 0.500000
O O8 0.147906 0.182166 0.134925
O O9 0.194177 0.349674 0.360569
O O10 0.981274 0.289030 0.317905
O O11 0.211005 0.474330 0.025685
O O12 0.500000 0.500000 0.500000
O O13 0.318594 0.389867 0.776253
O O14 0.245462 0.635972 0.858445
O O15 0.191761 0.736450 0.690446
O O16 0.000000 0.500000 0.500000
O O17 0.000000 0.500000 0.000000
O O18 0.865617 0.529697 0.394746
#
# Coordination Sequence:
#
# PCOD9111286 Si02
#       8
#     2   2   2   2   2   2   2   2
#     4  11  25  41  64  98 132 170 223 276 329 399
#     4  11  25  42  63  93 121 165 223 270 326 404
#     4  11  24  41  64  96 130 170 220 275 328 405
#     4  12  24  42  66  88 128 174 214 269 339 387
#     4  11  25  42  61  90 129 167 214 277 330 392
#     4  10  20  42  72 101 141 184 229 282 347 417
#     4  10  24  41  68  97 131 179 217 272 340 397
#     4  10  22  44  66  95 136 172 224 270 335 403
#
# _framework density 20.647095
#
# number of rings (size 3 to 8) (size 9 to 14) (size 15 to 20)
#    0.000    1.250    3.750    1.125    3.500    1.500 
#    0.000    0.625    0.000    0.000    0.000    0.000 
#    0.000    0.000    0.000    0.000    0.000    0.000 
#
# Total GULP energy -89176.773783 kJ/mol
# GULP energy per Si atom -5573.548361 kJ/mol
# Density = 2.060010 g / cm^3
# Si number density = 20.647095 Si / 1000 Ang^3
#
#
#
# Elastic Constant Matrix: (Units=GPa)
#
#
# Indices 1 2 3 4 5 6 
#
# 1 83.5078 -29.2716 8.4095 -2.7983 -10.9942 -4.3061
# 2 -29.2716 75.8398 7.0992 -2.7983 -13.7714 -5.4399
# 3 8.4095 7.0992 73.1680 -7.3683 -6.4141 -3.6172
# 4 -2.7983 -2.7983 -7.3683 14.4064 -2.2911 -8.3239
# 5 -10.9942 -13.7714 -6.4141 -2.2911 39.9049 -4.2295
# 6 -4.3061 -5.4399 -3.6172 -8.3239 -4.2295 23.4361
#
#
#
# Elastic Compliance Matrix: (Units=1/GPa)
#
#
# Indices 1 2 3 4 5 6 
#
# 1 0.018263 0.010510 -0.000027 0.014831 0.010886 0.013023
# 2 0.010510 0.021303 0.000368 0.017337 0.012937 0.015425
# 3 -0.000027 0.000368 0.015766 0.013475 0.004283 0.008073
# 4 0.014831 0.017337 0.013475 0.118543 0.024916 0.055429
# 5 0.010886 0.012937 0.004283 0.024916 0.036886 0.021170
# 6 0.013023 0.015425 0.008073 0.055429 0.021170 0.073396
#
#
# Mechanical properties :
#
#
# Convention : Reuss Voigt Hill
#
# Bulk Modulus (GPa) = 12.98150 22.77665 17.87908
# Shear Modulus (GPa) = 17.35299 31.96805 24.66052
#
# Velocity S-wave (km/s) = 2.90221 3.93912 3.45973
# Velocity P-wave (km/s) = 4.18705 5.63421 4.96365
#
# Compressibility (1/GPa) = 0.07703268
#
# Stress axis : x y z
#
# Youngs Moduli (GPa) = 54.75464 46.94213 63.42680
#
# Poissons Ratio (x) = -0.49335 0.00172
# Poissons Ratio (y) = -0.57545 -0.02332
# Poissons Ratio (z) = 0.00149 -0.01726
#
# Static dielectric constant tensor:
#      x y z
#    x 1.670570 -0.023300 0.005180 
#    y -0.023300 1.718140 0.019130 
#    z 0.005180 0.019130 1.830260 
# 
# From -- ./inp_files/47673.got.cif
#   From: 2010.05.17/outbox.cif.g08.bks.cpg/sg2_24_cif.got.tgz:47673.got - 2010.06.03 11:33:40.
