data_PCOD9111265
_publ_section_title
;
Structure prediction by ZEFSAII (Michael W. Deem and Ramdas Pophale) SiO2 
 PCOD9111265
Probable space group: P -1
;
_chemical_formula_sum "Si O2"
_cell_formula_units_Z 16
_cell_length_a 13.833358
_cell_length_b 6.534460
_cell_length_c 9.601333
_cell_angle_alpha 109.305693
_cell_angle_beta 95.360266
_cell_angle_gamma 100.246648
_cell_volume 795.129404
_symmetry_space_group_name_H-M "P -1"
_symmetry_group_IT_number 2
_symmetry_cell_setting 'triclinic'
loop_
_space_group_symop_operation_xyz
x,y,z
-x,-y,-z
loop_
_atom_site_type_symbol
_atom_site_label
_atom_site_fract_x
_atom_site_fract_y
_atom_site_fract_z
Si Si1 0.404843 0.398864 0.867784
Si Si2 0.103777 0.473491 0.439420
Si Si3 0.814075 0.232176 0.743078
Si Si4 0.315843 0.541330 0.616926
Si Si5 0.361524 0.204396 0.332634
Si Si6 0.084849 0.050390 0.136284
Si Si7 0.732652 0.651657 0.907852
Si Si8 0.454850 0.970511 0.641499
O O1 0.359193 0.541964 0.779160
O O2 0.434785 0.196057 0.747112
O O3 0.500000 0.500000 0.000000
O O4 0.316987 0.318229 0.947786
O O5 0.147146 0.672829 0.381103
O O6 0.196161 0.470605 0.557645
O O7 0.083015 0.248611 0.291334
O O8 0.000000 0.500000 0.500000
O O9 0.774057 0.428801 0.856306
O O10 0.726462 0.008868 0.687996
O O11 0.903282 0.164042 0.824240
O O12 0.366333 0.368108 0.500255
O O13 0.356496 0.778584 0.603129
O O14 0.340998 0.351269 0.232762
O O15 0.458019 0.115169 0.287051
O O16 0.181844 0.139450 0.075458
O O17 0.000000 0.000000 0.000000
O O18 0.500000 0.000000 0.500000
#
# Coordination Sequence:
#
# PCOD9111265 Si02
#       8
#     2   2   2   2   2   2   2   2
#     4  12  28  43  64 105 142 176 228 283 342 401
#     4  11  25  43  68 103 135 175 233 288 335 407
#     4  10  20  42  71  90 134 178 225 272 346 391
#     4  12  25  44  68  99 138 179 235 275 336 416
#     4  11  21  42  70  97 129 180 230 271 331 417
#     4  10  23  43  67  98 130 177 229 278 345 409
#     4  10  23  41  66  94 135 174 225 278 335 404
#     4  12  26  40  72  97 133 184 222 275 342 403
#
# _framework density 20.122512
#
# number of rings (size 3 to 8) (size 9 to 14) (size 15 to 20)
#    0.000    1.000    5.000    2.625    1.750    9.500 
#    0.000    0.000    0.000    0.000    0.000    0.000 
#    0.000    0.000    0.000    0.000    0.000    0.000 
#
# Total GULP energy -89302.912582 kJ/mol
# GULP energy per Si atom -5581.432036 kJ/mol
# Density = 2.007671 g / cm^3
# Si number density = 20.122512 Si / 1000 Ang^3
#
#
#
# Elastic Constant Matrix: (Units=GPa)
#
#
# Indices 1 2 3 4 5 6 
#
# 1 120.6357 36.0155 60.5460 -11.1206 -6.7549 -9.5564
# 2 36.0155 96.2557 49.7146 -8.8963 0.2600 -18.3247
# 3 60.5460 49.7146 111.5310 -20.3994 1.6501 -3.2762
# 4 -11.1206 -8.8963 -20.3994 27.4470 -1.1351 4.2038
# 5 -6.7549 0.2600 1.6501 -1.1351 46.2016 -9.6938
# 6 -9.5564 -18.3247 -3.2762 4.2038 -9.6938 29.2285
#
#
#
# Elastic Compliance Matrix: (Units=1/GPa)
#
#
# Indices 1 2 3 4 5 6 
#
# 1 0.012037 -0.000568 -0.006294 -0.000461 0.002788 0.003865
# 2 -0.000568 0.015838 -0.006778 -0.001564 0.002111 0.009909
# 3 -0.006294 -0.006778 0.016834 0.008658 -0.002643 -0.006542
# 4 -0.000461 -0.001564 0.008658 0.043156 -0.000692 -0.006598
# 5 0.002788 0.002111 -0.002643 -0.000692 0.024231 0.010074
# 6 0.003865 0.009909 -0.006542 -0.006598 0.010074 0.045246
#
#
# Mechanical properties :
#
#
# Convention : Reuss Voigt Hill
#
# Bulk Modulus (GPa) = 57.36753 68.99716 63.18234
# Shear Modulus (GPa) = 26.25592 32.71850 29.48721
#
# Velocity S-wave (km/s) = 3.61613 4.03670 3.83219
# Velocity P-wave (km/s) = 6.78278 7.48930 7.14478
#
# Compressibility (1/GPa) = 0.01743146
#
# Stress axis : x y z
#
# Youngs Moduli (GPa) = 83.07437 63.13789 59.40222
#
# Poissons Ratio (x) = 0.03584 0.37386
# Poissons Ratio (y) = 0.04716 0.40263
# Poissons Ratio (z) = 0.52284 0.42795
#
# Static dielectric constant tensor:
#      x y z
#    x 1.796070 -0.028810 0.109160 
#    y -0.028810 1.738160 -0.042550 
#    z 0.109160 -0.042550 1.773930 
# 
# From -- ./inp_files/141583.got.cif
#   From: 2010.05.17/outbox.cif.g08.bks.cpg/sg2_71_cif.got.tgz:141583.got - 2010.06.03 11:33:40.
