data_PCOD9111569
_publ_section_title
;
Structure prediction by ZEFSAII (Michael W. Deem and Ramdas Pophale) SiO2 
 PCOD9111569
Probable space group: P -1
;
_chemical_formula_sum "Si O2"
_cell_formula_units_Z 16
_cell_length_a 14.609314
_cell_length_b 12.573786
_cell_length_c 9.528070
_cell_angle_alpha 105.648583
_cell_angle_beta 44.902058
_cell_angle_gamma 138.848243
_cell_volume 669.439336
_symmetry_space_group_name_H-M "P -1"
_symmetry_group_IT_number 2
_symmetry_cell_setting 'triclinic'
loop_
_space_group_symop_operation_xyz
x,y,z
-x,-y,-z
loop_
_atom_site_type_symbol
_atom_site_label
_atom_site_fract_x
_atom_site_fract_y
_atom_site_fract_z
Si Si1 0.067744 0.172819 0.450087
Si Si2 0.184781 0.583828 0.492945
Si Si3 0.888528 0.101327 0.313336
Si Si4 0.207849 0.529548 0.149653
Si Si5 0.434976 0.368048 0.317558
Si Si6 0.155850 0.232674 0.822885
Si Si7 0.006051 0.702137 0.199397
Si Si8 0.497556 0.983779 0.663918
O O1 0.326265 0.352991 0.296145
O O2 0.008339 0.149458 0.345027
O O3 0.943740 0.177126 0.683815
O O4 0.000000 0.000000 0.500000
O O5 0.225916 0.532383 0.299066
O O6 0.361762 0.808772 0.363334
O O7 0.922329 0.446301 0.720618
O O8 0.184676 0.517392 0.614133
O O9 0.630319 0.965447 0.554922
O O10 0.028200 0.314502 0.207619
O O11 0.944464 0.068725 0.102613
O O12 0.447672 0.663102 0.869020
O O13 0.251511 0.220873 0.590681
O O14 0.626670 0.583658 0.251325
O O15 0.087196 0.290442 0.823695
O O16 0.238914 0.807113 0.937126
O O17 0.500000 0.000000 0.500000
#
# Coordination Sequence:
#
# PCOD9111569 Si02
#       8
#     2   2   2   2   2   2   2   2
#     4  11  25  42  63  98 133 179 230 284 330 398
#     4  10  22  41  68 101 135 174 226 281 339 405
#     4  10  20  43  66  93 137 174 223 287 334 395
#     4   9  19  39  65  98 130 171 229 280 334 407
#     4   9  20  39  62  90 126 174 223 267 332 396
#     4   9  19  40  65  91 130 176 223 276 331 406
#     4  11  23  45  69  99 138 174 228 279 337 409
#     4  11  24  43  70 102 139 178 217 279 350 405
#
# _framework density 23.900597000000001
#
# number of rings (size 3 to 8) (size 9 to 14) (size 15 to 20)
#    0.000    2.000    2.500    0.000    1.750    4.000 
#    4.500    2.500    0.000    0.000    0.000    0.000 
#    0.000    0.000    0.000    0.000    0.000    0.000 
#
# Total GULP energy -89337.619981 kJ/mol
# GULP energy per Si atom -5583.601249 kJ/mol
# Density = 2.384620 g / cm^3
# Si number density = 23.900597 Si / 1000 Ang^3
#
#
#
# Elastic Constant Matrix: (Units=GPa)
#
#
# Indices 1 2 3 4 5 6 
#
# 1 114.4817 2.6835 54.2091 11.5041 3.6824 20.7046
# 2 2.6835 53.4736 12.1276 20.4653 -10.8621 8.9504
# 3 54.2091 12.1276 130.4515 28.9486 -13.4541 -2.0048
# 4 11.5041 20.4653 28.9486 35.1164 -0.8227 -0.9738
# 5 3.6824 -10.8621 -13.4541 -0.8227 36.8024 0.2434
# 6 20.7046 8.9504 -2.0048 -0.9738 0.2434 32.9822
#
#
#
# Elastic Compliance Matrix: (Units=1/GPa)
#
#
# Indices 1 2 3 4 5 6 
#
# 1 0.013399 0.002030 -0.005983 -0.000966 -0.002889 -0.009333
# 2 0.002030 0.028716 0.001325 -0.018562 0.008405 -0.009596
# 3 -0.005983 0.001325 0.012641 -0.009000 0.005384 0.003859
# 4 -0.000966 -0.018562 -0.009000 0.047032 -0.007664 0.006542
# 5 -0.002889 0.008405 0.005384 -0.007664 0.031743 -0.000601
# 6 -0.009333 -0.009596 0.003859 0.006542 -0.000601 0.039214
#
#
# Mechanical properties :
#
#
# Convention : Reuss Voigt Hill
#
# Bulk Modulus (GPa) = 20.20259 48.49414 34.34836
# Shear Modulus (GPa) = 25.70693 36.27264 30.98979
#
# Velocity S-wave (km/s) = 3.28316 3.89992 3.60476
# Velocity P-wave (km/s) = 4.77946 6.37285 5.63278
#
# Compressibility (1/GPa) = 0.04949860
#
# Stress axis : x y z
#
# Youngs Moduli (GPa) = 74.63484 34.82384 79.11031
#
# Poissons Ratio (x) = -0.07068 0.47335
# Poissons Ratio (y) = -0.15149 -0.10486
# Poissons Ratio (z) = 0.44657 -0.04616
#
# Static dielectric constant tensor:
#      x y z
#    x 1.943340 -0.060300 -0.006170 
#    y -0.060300 1.994830 -0.030170 
#    z -0.006170 -0.030170 1.975330 
# 
# From -- ./inp_files/315382.got.cif
#   From: 2010.05.17/outbox.cif.g08.bks.cpg/sg2_158_cif.got.tgz:315382.got - 2010.06.03 11:33:40.
