data_PCOD9111943
_publ_section_title
;
Structure prediction by ZEFSAII (Michael W. Deem and Ramdas Pophale) SiO2 
 PCOD9111943
Probable space group: P -1
;
_chemical_formula_sum "Si O2"
_cell_formula_units_Z 16
_cell_length_a 8.546119
_cell_length_b 14.839424
_cell_length_c 5.190547
_cell_angle_alpha 106.476844
_cell_angle_beta 95.460154
_cell_angle_gamma 80.020634
_cell_volume 620.942250
_symmetry_space_group_name_H-M "P -1"
_symmetry_group_IT_number 2
_symmetry_cell_setting 'triclinic'
loop_
_space_group_symop_operation_xyz
x,y,z
-x,-y,-z
loop_
_atom_site_type_symbol
_atom_site_label
_atom_site_fract_x
_atom_site_fract_y
_atom_site_fract_z
Si Si1 0.593284 0.554131 0.863515
Si Si2 0.634007 0.710144 0.387910
Si Si3 0.998564 0.132666 0.406439
Si Si4 0.612673 0.281779 0.272426
Si Si5 0.259921 0.981247 0.593364
Si Si6 0.122628 0.422967 0.311569
Si Si7 0.537566 0.874783 0.195539
Si Si8 0.048323 0.745351 0.981663
O O1 0.466409 0.608237 0.693165
O O2 0.760341 0.509576 0.740377
O O3 0.500000 0.500000 0.000000
O O4 0.651843 0.640153 0.095988
O O5 0.445387 0.724625 0.447573
O O6 0.755556 0.654242 0.565343
O O7 0.655778 0.812150 0.367936
O O8 0.041256 0.181560 0.187549
O O9 0.129225 0.047362 0.455997
O O10 0.835093 0.087018 0.311512
O O11 0.959827 0.206118 0.699924
O O12 0.779780 0.272754 0.148148
O O13 0.518767 0.200559 0.069984
O O14 0.360811 0.047106 0.828114
O O15 0.386422 0.924971 0.371248
O O16 0.000000 0.500000 0.500000
O O17 0.022518 0.352956 0.088655
#
# Coordination Sequence:
#
# PCOD9111943 Si02
#       8
#     2   2   2   2   2   2   2   2
#     4  10  25  45  72 100 141 185 244 306 363 444
#     4  10  23  44  69  96 142 187 238 295 372 430
#     4  11  26  47  68 105 145 197 235 306 373 423
#     4  10  23  41  68 100 136 195 239 293 372 430
#     4  10  22  41  70  98 143 183 252 297 357 436
#     4  11  28  45  71 109 140 191 243 301 366 443
#     4  10  20  44  64 101 131 190 239 300 353 433
#     4  12  27  47  74 102 153 189 242 301 371 438
#
# _framework density 25.767289999999999
#
# number of rings (size 3 to 8) (size 9 to 14) (size 15 to 20)
#    0.000    1.500    1.250    1.500   12.250    3.500 
#    4.500    1.875    0.000    0.000    0.000    0.000 
#    0.000    0.000    0.000    0.000    0.000    0.000 
#
# Total GULP energy -89402.963095 kJ/mol
# GULP energy per Si atom -5587.685193 kJ/mol
# Density = 2.570864 g / cm^3
# Si number density = 25.767290 Si / 1000 Ang^3
#
#
#
# Elastic Constant Matrix: (Units=GPa)
#
#
# Indices 1 2 3 4 5 6 
#
# 1 135.9790 51.4001 24.2491 16.9739 -18.4192 12.7139
# 2 51.4001 86.4354 12.4479 11.1023 -2.4386 20.5371
# 3 24.2491 12.4479 41.4169 -1.9614 -11.2084 1.0549
# 4 16.9739 11.1023 -1.9614 29.5689 -5.1938 -4.7677
# 5 -18.4192 -2.4386 -11.2084 -5.1938 35.5283 8.7751
# 6 12.7139 20.5371 1.0549 -4.7677 8.7751 52.8461
#
#
#
# Elastic Compliance Matrix: (Units=1/GPa)
#
#
# Indices 1 2 3 4 5 6 
#
# 1 0.011235 -0.004984 -0.004178 -0.004442 0.003944 -0.001738
# 2 -0.004984 0.016771 -0.002650 -0.004772 -0.001626 -0.005426
# 3 -0.004178 -0.002650 0.029827 0.006878 0.007881 0.000752
# 4 -0.004442 -0.004772 0.006878 0.040248 0.004002 0.005753
# 5 0.003944 -0.001626 0.007881 0.004002 0.034598 -0.005858
# 6 -0.001738 -0.005426 0.000752 0.005753 -0.005858 0.022927
#
#
# Mechanical properties :
#
#
# Convention : Reuss Voigt Hill
#
# Bulk Modulus (GPa) = 29.23379 48.89173 39.06276
# Shear Modulus (GPa) = 26.22825 35.30427 30.76626
#
# Velocity S-wave (km/s) = 3.19390 3.70553 3.45919
# Velocity P-wave (km/s) = 4.99713 6.10929 5.58098
#
# Compressibility (1/GPa) = 0.03420699
#
# Stress axis : x y z
#
# Youngs Moduli (GPa) = 89.01146 59.62561 33.52639
#
# Poissons Ratio (x) = 0.29718 0.14009
# Poissons Ratio (y) = 0.44365 0.08886
# Poissons Ratio (z) = 0.37193 0.15803
#
# Static dielectric constant tensor:
#      x y z
#    x 2.157080 0.031820 0.118220 
#    y 0.031820 2.098640 0.004990 
#    z 0.118220 0.004990 2.217160 
# 
# From -- ./inp_files/39835.got.cif
#   From: 2010.05.17/outbox.cif.g08.bks.cpg/sg2_20_cif.got.tgz:39835.got - 2010.06.03 11:33:40.
