data_PCOD9111003
_publ_section_title
;
Structure prediction by ZEFSAII (Michael W. Deem and Ramdas Pophale) SiO2 
 PCOD9111003
Probable space group: P -1
;
_chemical_formula_sum "Si O2"
_cell_formula_units_Z 12
_cell_length_a 5.002541
_cell_length_b 5.633900
_cell_length_c 20.392246
_cell_angle_alpha 106.633303
_cell_angle_beta 105.201345
_cell_angle_gamma 110.451777
_cell_volume 472.106828
_symmetry_space_group_name_H-M "P -1"
_symmetry_group_IT_number 2
_symmetry_cell_setting 'triclinic'
loop_
_space_group_symop_operation_xyz
x,y,z
-x,-y,-z
loop_
_atom_site_type_symbol
_atom_site_label
_atom_site_fract_x
_atom_site_fract_y
_atom_site_fract_z
Si Si1 0.811694 0.456267 0.330990
Si Si2 0.965151 0.686956 0.917088
Si Si3 0.772649 0.088651 0.720168
Si Si4 0.612797 0.664528 0.220145
Si Si5 0.415020 0.411159 0.413343
Si Si6 0.156743 0.267540 0.942001
O O1 0.865298 0.613789 0.277398
O O2 0.695247 0.579967 0.393513
O O3 0.108975 0.432590 0.373102
O O4 0.505587 0.168370 0.274230
O O5 0.603612 0.562900 0.862944
O O6 0.025545 0.417081 0.894862
O O7 0.031203 0.770955 0.004411
O O8 0.147194 0.967447 0.909491
O O9 0.623195 0.298980 0.743299
O O10 0.086559 0.080337 0.770553
O O11 0.665534 0.911581 0.630357
O O12 0.500000 0.500000 0.500000
O O13 0.500000 0.500000 0.000000
#
# Coordination Sequence:
#
# PCOD9111003 Si02
#       6
#     2   2   2   2   2   2
#     4  10  22  40  62  93 129 164 220 274 326 404
#     4  10  25  39  68  96 133 174 228 271 341 399
#     4  10  23  41  62  91 132 163 219 276 320 413
#     4  12  24  41  64  97 127 177 216 275 340 395
#     4  10  20  42  68  88 130 177 211 278 341 391
#     4  10  22  46  64 100 131 174 226 279 323 412
#
# _framework density 25.417974999999998
#
# number of rings (size 3 to 8) (size 9 to 14) (size 15 to 20)
#    1.000    0.667    1.667    2.000    4.667    0.000 
#    0.000    5.000    0.000    0.000    0.000    0.000 
#    0.000    0.000    0.000    0.000    0.000    0.000 
#
# Total GULP energy -66811.478520 kJ/mol
# GULP energy per Si atom -5567.623210 kJ/mol
# Density = 2.536012 g / cm^3
# Si number density = 25.417975 Si / 1000 Ang^3
#
#
#
# Elastic Constant Matrix: (Units=GPa)
#
#
# Indices 1 2 3 4 5 6 
#
# 1 177.4887 24.3437 47.2143 -6.5842 12.7886 -8.1535
# 2 24.3437 126.2665 45.6811 -9.7593 13.1556 -5.8936
# 3 47.2143 45.6811 114.3014 -9.1765 14.0488 -13.0704
# 4 -6.5842 -9.7593 -9.1765 39.0171 1.8337 4.4371
# 5 12.7886 13.1556 14.0488 1.8337 39.8262 4.8175
# 6 -8.1535 -5.8936 -13.0704 4.4371 4.8175 25.8299
#
#
#
# Elastic Compliance Matrix: (Units=1/GPa)
#
#
# Indices 1 2 3 4 5 6 
#
# 1 0.006422 -0.000200 -0.002255 0.000451 -0.001344 0.001013
# 2 -0.000200 0.009507 -0.003270 0.001608 -0.002064 0.000560
# 3 -0.002255 -0.003270 0.012038 0.001209 -0.003103 0.005004
# 4 0.000451 0.001608 0.001209 0.026840 -0.001961 -0.003123
# 5 -0.001344 -0.002064 -0.003103 -0.001961 0.028303 -0.007408
# 6 0.001013 0.000560 0.005004 -0.003123 -0.007408 0.043613
#
#
# Mechanical properties :
#
#
# Convention : Reuss Voigt Hill
#
# Bulk Modulus (GPa) = 60.54746 72.50389 66.52568
# Shear Modulus (GPa) = 34.79978 40.98914 37.89446
#
# Velocity S-wave (km/s) = 3.70415 4.02008 3.86535
# Velocity P-wave (km/s) = 6.49359 7.08058 6.79343
#
# Compressibility (1/GPa) = 0.01651597
#
# Stress axis : x y z
#
# Youngs Moduli (GPa) = 155.72286 105.18702 83.06983
#
# Poissons Ratio (x) = 0.02103 0.18736
# Poissons Ratio (y) = 0.03113 0.27163
# Poissons Ratio (z) = 0.35122 0.34396
#
# Static dielectric constant tensor:
#      x y z
#    x 2.139620 -0.028600 -0.032000 
#    y -0.028600 2.290680 0.006420 
#    z -0.032000 0.006420 1.991920 
# 
# From -- ./inp_files/101922.got.cif
#   From: 2010.05.17/outbox.cif.g08.bks.cpg/sg2_51_cif.got.tgz:101922.got - 2010.06.03 11:33:40.
