data_PCOD9111811
_publ_section_title
;
Structure prediction by ZEFSAII (Michael W. Deem and Ramdas Pophale) SiO2 
 PCOD9111811
Probable space group: P -1
;
_chemical_formula_sum "Si O2"
_cell_formula_units_Z 14
_cell_length_a 12.770542
_cell_length_b 8.136253
_cell_length_c 8.752637
_cell_angle_alpha 43.605368
_cell_angle_beta 103.142363
_cell_angle_gamma 103.541614
_cell_volume 607.519004
_symmetry_space_group_name_H-M "P -1"
_symmetry_group_IT_number 2
_symmetry_cell_setting 'triclinic'
loop_
_space_group_symop_operation_xyz
x,y,z
-x,-y,-z
loop_
_atom_site_type_symbol
_atom_site_label
_atom_site_fract_x
_atom_site_fract_y
_atom_site_fract_z
Si Si1 0.225161 0.249552 0.958562
Si Si2 0.660424 0.121056 0.957363
Si Si3 0.939181 0.413412 0.385397
Si Si4 0.946164 0.881771 0.788153
Si Si5 0.878272 0.398579 0.918524
Si Si6 0.478511 0.124834 0.654738
Si Si7 0.424096 0.298524 0.201296
O O1 0.177373 0.486709 0.722312
O O2 0.115117 0.096426 0.083927
O O3 0.305223 0.308997 0.086988
O O4 0.289402 0.101395 0.959869
O O5 0.758762 0.325115 0.872504
O O6 0.567413 0.210995 0.756192
O O7 0.612531 0.024739 0.169801
O O8 0.000000 0.500000 0.500000
O O9 0.026743 0.529564 0.217612
O O10 0.927509 0.132016 0.539373
O O11 0.888266 0.634852 0.866202
O O12 0.072894 0.842616 0.843171
O O13 0.436983 0.294273 0.393059
O O14 0.540166 0.945391 0.693007
O O15 0.500000 0.500000 0.000000
#
# Coordination Sequence:
#
# PCOD9111811 Si02
#       7
#     2   2   2   2   2   2   2
#     4  10  23  41  63  97 133 176 221 279 338 407
#     4  10  20  43  71 101 138 171 230 287 345 402
#     4  11  22  39  65  96 135 180 223 277 341 403
#     4  10  22  42  61  98 136 176 221 274 332 416
#     4  10  22  40  66  96 135 173 223 279 335 404
#     4   9  22  43  68  99 133 174 226 289 340 407
#     4  10  22  42  66  97 133 176 225 281 344 410
#
# _framework density 23.044546
#
# number of rings (size 3 to 8) (size 9 to 14) (size 15 to 20)
#    0.000    2.000    0.000    2.143    2.000    6.857 
#   10.286    7.857    0.000    0.000    0.000    0.000 
#    0.000    0.000    0.000    0.000    0.000    0.000 
#
# Total GULP energy -78047.710455 kJ/mol
# GULP energy per Si atom -5574.836461 kJ/mol
# Density = 2.299210 g / cm^3
# Si number density = 23.044546 Si / 1000 Ang^3
#
#
#
# Elastic Constant Matrix: (Units=GPa)
#
#
# Indices 1 2 3 4 5 6 
#
# 1 113.1347 41.1340 30.6256 11.4884 19.4331 3.0861
# 2 41.1340 82.2034 45.2715 13.6236 18.1716 -0.0450
# 3 30.6256 45.2715 107.5659 22.1823 22.7438 4.7970
# 4 11.4884 13.6236 22.1823 32.2957 -8.7338 -5.2512
# 5 19.4331 18.1716 22.7438 -8.7338 35.5496 0.6555
# 6 3.0861 -0.0450 4.7970 -5.2512 0.6555 38.6001
#
#
#
# Elastic Compliance Matrix: (Units=1/GPa)
#
#
# Indices 1 2 3 4 5 6 
#
# 1 0.011688 -0.004163 0.000703 -0.004719 -0.005841 -0.001569
# 2 -0.004163 0.018790 -0.004584 -0.004741 -0.005568 0.000374
# 3 0.000703 -0.004584 0.016451 -0.013411 -0.011792 -0.003730
# 4 -0.004719 -0.004741 -0.013411 0.052381 0.026291 0.008718
# 5 -0.005841 -0.005568 -0.011792 0.026291 0.048085 0.004686
# 6 -0.001569 0.000374 -0.003730 0.008718 0.004686 0.027603
#
#
# Mechanical properties :
#
#
# Convention : Reuss Voigt Hill
#
# Bulk Modulus (GPa) = 32.42682 59.66293 46.04487
# Shear Modulus (GPa) = 24.83026 33.68063 29.25545
#
# Velocity S-wave (km/s) = 3.28607 3.82716 3.56689
# Velocity P-wave (km/s) = 5.33850 6.74359 6.08176
#
# Compressibility (1/GPa) = 0.03083867
#
# Stress axis : x y z
#
# Youngs Moduli (GPa) = 85.55999 53.22099 60.78542
#
# Poissons Ratio (x) = 0.22156 -0.04270
# Poissons Ratio (y) = 0.35619 0.27867
# Poissons Ratio (z) = -0.06011 0.24399
#
# Static dielectric constant tensor:
#      x y z
#    x 2.313470 0.003860 0.594770 
#    y 0.003860 1.973460 0.157540 
#    z 0.594770 0.157540 2.830630 
# 
# From -- ./inp_files/241815.got.cif
#   From: 2010.05.17/outbox.cif.g08.bks.cpg/sg2_121_cif.got.tgz:241815.got - 2010.06.03 11:33:40.
