data_PCOD9111039
_publ_section_title
;
Structure prediction by ZEFSAII (Michael W. Deem and Ramdas Pophale) SiO2 
 PCOD9111039
Probable space group: P -1
;
_chemical_formula_sum "Si O2"
_cell_formula_units_Z 14
_cell_length_a 18.994088
_cell_length_b 13.045095
_cell_length_c 6.503532
_cell_angle_alpha 96.175172
_cell_angle_beta 81.372108
_cell_angle_gamma 156.613984
_cell_volume 630.516019
_symmetry_space_group_name_H-M "P -1"
_symmetry_group_IT_number 2
_symmetry_cell_setting 'triclinic'
loop_
_space_group_symop_operation_xyz
x,y,z
-x,-y,-z
loop_
_atom_site_type_symbol
_atom_site_label
_atom_site_fract_x
_atom_site_fract_y
_atom_site_fract_z
Si Si1 0.966866 0.303229 0.976932
Si Si2 0.878291 0.894227 0.702571
Si Si3 0.646974 0.766039 0.889205
Si Si4 0.139598 0.666107 0.295524
Si Si5 0.202973 0.447785 0.796915
Si Si6 0.575196 0.345498 0.917790
Si Si7 0.482108 0.100662 0.519434
O O1 0.073391 0.475944 0.168835
O O2 0.886547 0.285872 0.865329
O O3 0.109454 0.432856 0.804012
O O4 0.801073 0.008013 0.030718
O O5 0.758474 0.840396 0.697792
O O6 0.731905 0.623137 0.804845
O O7 0.000000 0.000000 0.500000
O O8 0.040284 0.151588 0.829422
O O9 0.500000 0.500000 0.000000
O O10 0.534601 0.722393 0.897620
O O11 0.000000 0.500000 0.500000
O O12 0.328311 0.915731 0.379454
O O13 0.333787 0.606497 0.583669
O O14 0.325389 0.606334 0.977525
O O15 0.456356 0.127210 0.752529
O O16 0.500000 0.000000 0.500000
#
# Coordination Sequence:
#
# PCOD9111039 Si02
#       7
#     2   2   2   2   2   2   2
#     4  10  22  41  62  90 126 168 212 264 315 383
#     4  10  20  42  68  94 129 169 214 266 321 391
#     4   9  20  38  66  92 127 166 207 260 322 380
#     4  11  23  40  63  87 125 170 215 263 318 374
#     4  11  23  40  66  93 128 167 216 263 328 380
#     4  11  22  41  67  95 133 169 210 270 323 383
#     4  12  25  39  63  97 130 169 220 265 318 385
#
# _framework density 22.204037
#
# number of rings (size 3 to 8) (size 9 to 14) (size 15 to 20)
#    0.000    1.429    1.429    3.857    0.000    4.571 
#    0.000    0.714   15.714    0.000    0.000    0.000 
#    0.000    0.000    0.000    0.000    0.000    0.000 
#
# Total GULP energy -77940.933096 kJ/mol
# GULP energy per Si atom -5567.209507 kJ/mol
# Density = 2.215350 g / cm^3
# Si number density = 22.204037 Si / 1000 Ang^3
#
#
#
# Elastic Constant Matrix: (Units=GPa)
#
#
# Indices 1 2 3 4 5 6 
#
# 1 101.4463 34.9935 28.4482 2.7919 -12.6257 18.2975
# 2 34.9935 122.7866 28.9322 4.2992 -5.7480 7.4693
# 3 28.4482 28.9322 60.5018 6.4614 -14.4638 5.5842
# 4 2.7919 4.2992 6.4614 41.9773 10.1945 -4.1709
# 5 -12.6257 -5.7480 -14.4638 10.1945 29.8854 -4.2520
# 6 18.2975 7.4693 5.5842 -4.1709 -4.2520 35.7124
#
#
#
# Elastic Compliance Matrix: (Units=1/GPa)
#
#
# Indices 1 2 3 4 5 6 
#
# 1 0.013086 -0.002347 -0.003675 -0.001328 0.002977 -0.005440
# 2 -0.002347 0.009666 -0.003707 -0.000067 -0.000955 -0.000361
# 3 -0.003675 -0.003707 0.023258 -0.005628 0.010862 -0.000343
# 4 -0.001328 -0.000067 -0.005628 0.028135 -0.012414 0.003382
# 5 0.002977 -0.000955 0.010862 -0.012414 0.044138 0.000781
# 6 -0.005440 -0.000361 -0.000343 0.003382 0.000781 0.031406
#
#
# Mechanical properties :
#
#
# Convention : Reuss Voigt Hill
#
# Bulk Modulus (GPa) = 37.65991 52.16474 44.91233
# Shear Modulus (GPa) = 28.09041 34.33906 31.21474
#
# Velocity S-wave (km/s) = 3.56069 3.93685 3.75349
# Velocity P-wave (km/s) = 5.82257 6.64902 6.24947
#
# Compressibility (1/GPa) = 0.02655343
#
# Stress axis : x y z
#
# Youngs Moduli (GPa) = 76.41910 103.45520 42.99524
#
# Poissons Ratio (x) = 0.24277 0.15801
# Poissons Ratio (y) = 0.17933 0.15937
# Poissons Ratio (z) = 0.28085 0.38347
#
# Static dielectric constant tensor:
#      x y z
#    x 1.810200 -0.017350 0.088220 
#    y -0.017350 1.839700 -0.014690 
#    z 0.088220 -0.014690 1.554100 
# 
# From -- ./inp_files/60354.got.cif
#   From: 2010.05.17/outbox.cif.g08.bks.cpg/sg2_31_cif.got.tgz:60354.got - 2010.06.03 11:33:40.
