data_PCOD9111119
_publ_section_title
;
Structure prediction by ZEFSAII (Michael W. Deem and Ramdas Pophale) SiO2 
 PCOD9111119
Probable space group: P -1
;
_chemical_formula_sum "Si O2"
_cell_formula_units_Z 16
_cell_length_a 9.398665
_cell_length_b 12.248408
_cell_length_c 9.767679
_cell_angle_alpha 65.832324
_cell_angle_beta 44.702687
_cell_angle_gamma 92.596308
_cell_volume 614.629466
_symmetry_space_group_name_H-M "P -1"
_symmetry_group_IT_number 2
_symmetry_cell_setting 'triclinic'
loop_
_space_group_symop_operation_xyz
x,y,z
-x,-y,-z
loop_
_atom_site_type_symbol
_atom_site_label
_atom_site_fract_x
_atom_site_fract_y
_atom_site_fract_z
Si Si1 0.181875 0.560516 0.009027
Si Si2 0.196263 0.539146 0.460173
Si Si3 0.330276 0.360697 0.601591
Si Si4 0.699349 0.039641 0.957219
Si Si5 0.127627 0.999017 0.587128
Si Si6 0.717204 0.914357 0.274764
Si Si7 0.444270 0.758746 0.977467
Si Si8 0.034233 0.300190 0.090090
O O1 0.359737 0.652001 0.961749
O O2 0.925001 0.462453 0.312889
O O3 0.142238 0.656738 0.880162
O O4 0.215810 0.444359 0.971539
O O5 0.245354 0.415638 0.507861
O O6 0.421934 0.681099 0.176187
O O7 0.000000 0.500000 0.500000
O O8 0.500000 0.500000 0.500000
O O9 0.390628 0.251140 0.560253
O O10 0.138576 0.273239 0.895289
O O11 0.918960 0.029405 0.754262
O O12 0.702391 0.890141 0.699161
O O13 0.738948 0.186728 0.910011
O O14 0.603856 0.944052 0.207329
O O15 0.288985 0.034483 0.595947
O O16 0.044998 0.837887 0.695915
O O17 0.000000 0.000000 0.000000
O O18 0.500000 0.000000 0.000000
#
# Coordination Sequence:
#
# PCOD9111119 Si02
#       8
#     2   2   2   2   2   2   2   2
#     4   9  21  41  71 107 150 195 243 312 369 439
#     4   9  22  43  70  99 149 198 238 297 374 438
#     4  11  23  40  72 103 141 189 247 308 360 439
#     4  11  26  46  76 107 154 197 238 308 383 442
#     4  11  25  46  78 111 146 194 254 308 365 447
#     4  10  22  44  73 107 142 191 249 304 369 437
#     4  11  25  45  74 112 145 198 250 305 374 441
#     4  10  20  42  69 108 147 189 250 309 369 439
#
# _framework density 26.031941
#
# number of rings (size 3 to 8) (size 9 to 14) (size 15 to 20)
#    0.000    1.750    2.500    0.750   12.250    3.500 
#    2.250    1.875    0.000    0.000    0.000    0.000 
#    0.000    0.000    0.000    0.000    0.000    0.000 
#
# Total GULP energy -89492.067428 kJ/mol
# GULP energy per Si atom -5593.254214 kJ/mol
# Density = 2.597269 g / cm^3
# Si number density = 26.031941 Si / 1000 Ang^3
#
#
#
# Elastic Constant Matrix: (Units=GPa)
#
#
# Indices 1 2 3 4 5 6 
#
# 1 118.5856 40.2216 50.0542 -0.3264 19.3871 2.4365
# 2 40.2216 147.3729 28.4407 -18.9130 3.4175 -3.9953
# 3 50.0542 28.4407 152.3221 -5.1456 12.9573 -14.9159
# 4 -0.3264 -18.9130 -5.1456 50.1116 -7.1216 1.1169
# 5 19.3871 3.4175 12.9573 -7.1216 46.8422 7.9480
# 6 2.4365 -3.9953 -14.9159 1.1169 7.9480 32.1981
#
#
#
# Elastic Compliance Matrix: (Units=1/GPa)
#
#
# Indices 1 2 3 4 5 6 
#
# 1 0.011268 -0.002656 -0.003126 -0.001721 -0.003581 -0.001687
# 2 -0.002656 0.008003 -0.000549 0.003082 0.001038 0.000576
# 3 -0.003126 -0.000549 0.008277 0.000288 -0.001659 0.004402
# 4 -0.001721 0.003082 0.000288 0.021714 0.003890 -0.001067
# 5 -0.003581 0.001038 -0.001659 0.003890 0.024935 -0.006659
# 6 -0.001687 0.000576 0.004402 -0.001067 -0.006659 0.034977
#
#
# Mechanical properties :
#
#
# Convention : Reuss Voigt Hill
#
# Bulk Modulus (GPa) = 67.17432 72.85707 70.01569
# Shear Modulus (GPa) = 39.43317 45.80132 42.61724
#
# Velocity S-wave (km/s) = 3.89626 4.19910 4.05052
# Velocity P-wave (km/s) = 6.78983 7.18041 6.98785
#
# Compressibility (1/GPa) = 0.01488664
#
# Stress axis : x y z
#
# Youngs Moduli (GPa) = 88.74591 124.94732 120.82224
#
# Poissons Ratio (x) = 0.33182 0.37764
# Poissons Ratio (y) = 0.23568 0.06638
# Poissons Ratio (z) = 0.27739 0.06865
#
# Static dielectric constant tensor:
#      x y z
#    x 2.113820 0.000870 -0.070580 
#    y 0.000870 2.048760 0.037830 
#    z -0.070580 0.037830 2.175770 
# 
# From -- ./inp_files/257500.got.cif
#   From: 2010.05.17/outbox.cif.g08.bks.cpg/sg2_129_cif.got.tgz:257500.got - 2010.06.03 11:33:40.
