data_PCOD9111386
_publ_section_title
;
Structure prediction by ZEFSAII (Michael W. Deem and Ramdas Pophale) SiO2 
 PCOD9111386
Probable space group: P -1
;
_chemical_formula_sum "Si O2"
_cell_formula_units_Z 16
_cell_length_a 10.272695
_cell_length_b 8.452336
_cell_length_c 11.856523
_cell_angle_alpha 63.670007
_cell_angle_beta 100.237946
_cell_angle_gamma 53.378870
_cell_volume 583.991838
_symmetry_space_group_name_H-M "P -1"
_symmetry_group_IT_number 2
_symmetry_cell_setting 'triclinic'
loop_
_space_group_symop_operation_xyz
x,y,z
-x,-y,-z
loop_
_atom_site_type_symbol
_atom_site_label
_atom_site_fract_x
_atom_site_fract_y
_atom_site_fract_z
Si Si1 0.230138 0.692888 0.153097
Si Si2 0.201241 0.899720 0.515637
Si Si3 0.965775 0.317193 0.693656
Si Si4 0.320153 0.827839 0.311055
Si Si5 0.631323 0.218290 0.179385
Si Si6 0.638975 0.790906 0.327362
Si Si7 0.116207 0.568783 0.977341
Si Si8 0.867073 0.522449 0.230234
O O1 0.351737 0.730441 0.216204
O O2 0.212832 0.594252 0.293913
O O3 0.249765 0.534233 0.102943
O O4 0.000000 0.000000 0.000000
O O5 0.317996 0.733084 0.466576
O O6 0.349526 0.758772 0.691529
O O7 0.000000 0.000000 0.500000
O O8 0.089254 0.202683 0.381288
O O9 0.086107 0.318656 0.799238
O O10 0.842524 0.556100 0.508216
O O11 0.134119 0.016491 0.760392
O O12 0.548180 0.126935 0.674982
O O13 0.078211 0.111411 0.178053
O O14 0.599596 0.037968 0.226041
O O15 0.500000 0.500000 0.000000
O O16 0.710189 0.636305 0.268505
O O17 0.225362 0.434146 0.916934
O O18 0.000000 0.500000 0.000000
#
# Coordination Sequence:
#
# PCOD9111386 Si02
#       8
#     2   2   2   2   2   2   2   2
#     4  10  22  44  71 111 156 201 264 329 413 465
#     4  11  22  46  74 109 155 220 278 322 395 494
#     4  11  20  44  81 107 158 220 262 323 407 487
#     4  10  25  43  72 114 157 213 270 332 393 485
#     4  11  24  47  76 121 164 208 272 346 402 475
#     4  11  23  47  78 117 160 212 272 328 406 491
#     4  10  20  43  76 107 147 208 264 330 403 480
#     4  10  20  42  78 106 142 215 274 309 398 492
#
# _framework density 27.397642999999999
#
# number of rings (size 3 to 8) (size 9 to 14) (size 15 to 20)
#    0.000    1.500    3.750    1.500    0.000    1.000 
#   11.250    2.500    0.000    0.000    0.000    0.000 
#    0.000    0.000    0.000    0.250    0.000    0.000 
#
# Total GULP energy -89355.411298 kJ/mol
# GULP energy per Si atom -5584.713206 kJ/mol
# Density = 2.733528 g / cm^3
# Si number density = 27.397643 Si / 1000 Ang^3
#
#
#
# Elastic Constant Matrix: (Units=GPa)
#
#
# Indices 1 2 3 4 5 6 
#
# 1 114.8418 21.3072 34.4800 16.3248 -2.3221 28.5174
# 2 21.3072 201.5063 72.1982 43.2119 6.2974 1.3766
# 3 34.4800 72.1982 184.6088 15.7189 18.9840 16.9447
# 4 16.3248 43.2119 15.7189 54.2159 -2.7225 2.5625
# 5 -2.3221 6.2974 18.9840 -2.7225 44.2030 3.9449
# 6 28.5174 1.3766 16.9447 2.5625 3.9449 41.2787
#
#
#
# Elastic Compliance Matrix: (Units=1/GPa)
#
#
# Indices 1 2 3 4 5 6 
#
# 1 0.011337 -0.000200 -0.001337 -0.002436 0.001699 -0.007287
# 2 -0.000200 0.006841 -0.002297 -0.004803 -0.000401 0.001190
# 3 -0.001337 -0.002297 0.006965 0.000161 -0.002580 -0.001622
# 4 -0.002436 -0.004803 0.000161 0.023047 0.001892 0.000166
# 5 0.001699 -0.000401 -0.002580 0.001892 0.024220 -0.002533
# 6 -0.007287 0.001190 -0.001622 0.000166 -0.002533 0.030118
#
#
# Mechanical properties :
#
#
# Convention : Reuss Voigt Hill
#
# Bulk Modulus (GPa) = 57.22982 84.10310 70.66646
# Shear Modulus (GPa) = 43.09531 52.80430 47.94980
#
# Velocity S-wave (km/s) = 3.97035 4.39490 4.18801
# Velocity P-wave (km/s) = 6.47705 7.51780 7.01675
#
# Compressibility (1/GPa) = 0.01747341
#
# Stress axis : x y z
#
# Youngs Moduli (GPa) = 88.20995 146.17443 143.56503
#
# Poissons Ratio (x) = 0.02930 0.19200
# Poissons Ratio (y) = 0.01768 0.32979
# Poissons Ratio (z) = 0.11797 0.33578
#
# Static dielectric constant tensor:
#      x y z
#    x 2.242050 -0.039000 -0.076180 
#    y -0.039000 2.291920 -0.059800 
#    z -0.076180 -0.059800 2.232970 
# 
# From -- ./inp_files/406106.got.cif
#   From: 2010.05.17/outbox.cif.g08.bks.cpg/sg2_204_cif.got.tgz:406106.got - 2010.06.03 11:33:40.
