data_PCOD9111632
_publ_section_title
;
Structure prediction by ZEFSAII (Michael W. Deem and Ramdas Pophale) SiO2 
 PCOD9111632
Probable space group: P -1
;
_chemical_formula_sum "Si O2"
_cell_formula_units_Z 16
_cell_length_a 21.215809
_cell_length_b 25.115565
_cell_length_c 9.406641
_cell_angle_alpha 27.571601
_cell_angle_beta 142.915062
_cell_angle_gamma 162.499038
_cell_volume 655.496155
_symmetry_space_group_name_H-M "P -1"
_symmetry_group_IT_number 2
_symmetry_cell_setting 'triclinic'
loop_
_space_group_symop_operation_xyz
x,y,z
-x,-y,-z
loop_
_atom_site_type_symbol
_atom_site_label
_atom_site_fract_x
_atom_site_fract_y
_atom_site_fract_z
Si Si1 0.305628 0.240930 0.603152
Si Si2 0.152229 0.044028 0.102577
Si Si3 0.682572 0.265754 0.134639
Si Si4 0.623564 0.824289 0.532321
Si Si5 0.854742 0.462365 0.270175
Si Si6 0.677595 0.506046 0.468110
Si Si7 0.992962 0.832625 0.790209
Si Si8 0.493031 0.957935 0.925233
O O1 0.544298 0.466375 0.420680
O O2 0.198474 0.259870 0.332178
O O3 0.137110 0.983871 0.834964
O O4 0.290253 0.208671 0.820084
O O5 0.942088 0.759647 0.353717
O O6 0.313868 0.138347 0.282239
O O7 0.000000 0.000000 0.000000
O O8 0.869794 0.469485 0.109062
O O9 0.716600 0.266187 0.027969
O O10 0.500000 0.000000 0.500000
O O11 0.584663 0.297998 0.862374
O O12 0.401830 0.561766 0.677601
O O13 0.618476 0.954871 0.170136
O O14 0.823400 0.954609 0.500995
O O15 0.000000 0.500000 0.500000
O O16 0.610283 0.180815 0.535647
O O17 0.905294 0.626773 0.058617
O O18 0.500000 0.000000 0.000000
#
# Coordination Sequence:
#
# PCOD9111632 Si02
#       8
#     2   2   2   2   2   2   2   2
#     4  10  24  44  67 100 138 176 235 282 335 414
#     4  12  25  43  66 101 137 177 232 281 339 412
#     4   9  21  40  67  94 130 173 223 273 336 419
#     4  10  21  44  66  92 141 174 217 286 341 405
#     4  11  21  38  69  90 122 176 218 266 348 395
#     4  10  24  45  70  95 138 185 220 285 354 397
#     4  10  20  43  67  95 134 175 228 284 329 415
#     4  10  22  41  62  97 132 167 220 282 337 407
#
# _framework density 24.408992000000001
#
# number of rings (size 3 to 8) (size 9 to 14) (size 15 to 20)
#    0.000    1.750    2.500    0.750    1.750    5.000 
#    2.250    1.875    0.000    0.000    0.000    0.000 
#    0.000    0.000    0.000    0.000    0.000    0.000 
#
# Total GULP energy -89197.778815 kJ/mol
# GULP energy per Si atom -5574.861176 kJ/mol
# Density = 2.435344 g / cm^3
# Si number density = 24.408992 Si / 1000 Ang^3
#
#
#
# Elastic Constant Matrix: (Units=GPa)
#
#
# Indices 1 2 3 4 5 6 
#
# 1 104.5672 63.4223 18.2878 5.0988 -0.6405 -44.5823
# 2 63.4223 148.4308 56.7853 22.5027 -4.5067 -45.1021
# 3 18.2878 56.7853 72.3737 2.5271 3.1549 -20.3459
# 4 5.0988 22.5027 2.5271 34.6655 -9.7525 -8.4970
# 5 -0.6405 -4.5067 3.1549 -9.7525 40.7472 1.8140
# 6 -44.5823 -45.1021 -20.3459 -8.4970 1.8140 52.6575
#
#
#
# Elastic Compliance Matrix: (Units=1/GPa)
#
#
# Indices 1 2 3 4 5 6 
#
# 1 0.017145 -0.005595 0.003188 0.003642 -0.000239 0.011551
# 2 -0.005595 0.014585 -0.008912 -0.007118 0.000371 0.003151
# 3 0.003188 -0.008912 0.021038 0.004265 -0.001719 0.003942
# 4 0.003642 -0.007118 0.004265 0.035689 0.007297 0.004142
# 5 -0.000239 0.000371 -0.001719 0.007297 0.026471 -0.000283
# 6 0.011551 0.003151 0.003942 0.004142 -0.000283 0.033670
#
#
# Mechanical properties :
#
#
# Convention : Reuss Voigt Hill
#
# Bulk Modulus (GPa) = 33.18834 66.92914 50.05874
# Shear Modulus (GPa) = 27.58175 38.07246 32.82711
#
# Velocity S-wave (km/s) = 3.36517 3.95368 3.67124
# Velocity P-wave (km/s) = 5.35961 6.95137 6.20673
#
# Compressibility (1/GPa) = 0.03013107
#
# Stress axis : x y z
#
# Youngs Moduli (GPa) = 58.32632 68.56435 47.53292
#
# Poissons Ratio (x) = 0.38361 -0.15154
# Poissons Ratio (y) = 0.32633 0.42360
# Poissons Ratio (z) = -0.18595 0.61102
#
# Static dielectric constant tensor:
#      x y z
#    x 2.002300 -0.025180 -0.075110 
#    y -0.025180 1.973640 0.043240 
#    z -0.075110 0.043240 1.900260 
# 
# From -- ./inp_files/349972.got.cif
#   From: 2010.05.17/outbox.cif.g08.bks.cpg/sg2_175_cif.got.tgz:349972.got - 2010.06.03 11:33:40.
