data_PCOD9111499
_publ_section_title
;
Structure prediction by ZEFSAII (Michael W. Deem and Ramdas Pophale) SiO2 
 PCOD9111499
Probable space group: P -1
;
_chemical_formula_sum "Si O2"
_cell_formula_units_Z 16
_cell_length_a 10.581956
_cell_length_b 11.783361
_cell_length_c 7.927280
_cell_angle_alpha 83.300499
_cell_angle_beta 115.386085
_cell_angle_gamma 116.429545
_cell_volume 796.311789
_symmetry_space_group_name_H-M "P -1"
_symmetry_group_IT_number 2
_symmetry_cell_setting 'triclinic'
loop_
_space_group_symop_operation_xyz
x,y,z
-x,-y,-z
loop_
_atom_site_type_symbol
_atom_site_label
_atom_site_fract_x
_atom_site_fract_y
_atom_site_fract_z
Si Si1 0.201690 0.629137 0.936587
Si Si2 0.035038 0.123470 0.106919
Si Si3 0.431634 0.031174 0.219446
Si Si4 0.460047 0.165256 0.869197
Si Si5 0.846896 0.867910 0.487237
Si Si6 0.003835 0.657287 0.133184
Si Si7 0.263985 0.861759 0.439429
Si Si8 0.098228 0.813888 0.668251
O O1 0.130526 0.480916 0.878466
O O2 0.159133 0.710051 0.759533
O O3 0.386079 0.700682 0.060229
O O4 0.108962 0.640807 0.046492
O O5 0.900462 0.117073 0.164950
O O6 0.167776 0.137741 0.316984
O O7 0.062568 0.245000 0.987799
O O8 0.000000 0.000000 0.000000
O O9 0.567643 0.121966 0.409507
O O10 0.482665 0.929064 0.179518
O O11 0.289251 0.947445 0.273923
O O12 0.416510 0.112936 0.043853
O O13 0.310183 0.165305 0.694470
O O14 0.920340 0.767122 0.516509
O O15 0.795692 0.097591 0.433895
O O16 0.127428 0.725643 0.339598
O O17 0.000000 0.000000 0.500000
#
# Coordination Sequence:
#
# PCOD9111499 Si02
#       8
#     2   2   2   2   2   2   2   2
#     4  10  20  43  65  90 130 173 224 267 324 375
#     4   9  22  39  61  96 129 167 214 267 324 390
#     4  10  23  33  61  94 134 165 212 280 329 378
#     4  11  21  40  63  91 132 174 212 276 326 384
#     4  10  23  36  61  94 128 174 207 260 337 389
#     4  10  22  37  68  95 125 173 222 271 314 393
#     4  11  20  37  60  99 129 164 219 270 330 384
#     4   9  21  39  62  92 131 171 211 264 326 388
#
# _framework density 20.092631999999998
#
# number of rings (size 3 to 8) (size 9 to 14) (size 15 to 20)
#    0.750    1.250    2.500    0.750    7.000    0.500 
#    0.000    1.250    0.000    0.750    0.000    0.000 
#    0.000    1.000    0.000    0.000    0.000    0.000 
#
# Total GULP energy -89144.763579 kJ/mol
# GULP energy per Si atom -5571.547724 kJ/mol
# Density = 2.004690 g / cm^3
# Si number density = 20.092632 Si / 1000 Ang^3
#
#
#
# Elastic Constant Matrix: (Units=GPa)
#
#
# Indices 1 2 3 4 5 6 
#
# 1 69.0471 45.5740 46.6212 -5.8124 7.2636 10.3027
# 2 45.5740 137.5578 69.6914 16.8534 17.7142 15.6704
# 3 46.6212 69.6914 142.7132 0.8327 18.7418 13.9945
# 4 -5.8124 16.8534 0.8327 21.2019 6.8995 6.5380
# 5 7.2636 17.7142 18.7418 6.8995 45.8752 5.4089
# 6 10.3027 15.6704 13.9945 6.5380 5.4089 27.0712
#
#
#
# Elastic Compliance Matrix: (Units=1/GPa)
#
#
# Indices 1 2 3 4 5 6 
#
# 1 0.023867 -0.006931 -0.003734 0.014512 -0.001000 -0.006446
# 2 -0.006931 0.013133 -0.004022 -0.012048 -0.000534 0.000131
# 3 -0.003734 -0.004022 0.010697 0.003190 -0.002463 -0.002059
# 4 0.014512 -0.012048 0.003190 0.067631 -0.007344 -0.015064
# 5 -0.001000 -0.000534 -0.002463 -0.007344 0.024408 -0.001140
# 6 -0.006446 0.000131 -0.002059 -0.015064 -0.001140 0.044248
#
#
# Mechanical properties :
#
#
# Convention : Reuss Voigt Hill
#
# Bulk Modulus (GPa) = 54.56731 74.78793 64.67762
# Shear Modulus (GPa) = 22.78259 31.32510 27.05384
#
# Velocity S-wave (km/s) = 3.37096 3.95274 3.67339
# Velocity P-wave (km/s) = 6.50907 7.62461 7.08882
#
# Compressibility (1/GPa) = 0.01832599
#
# Stress axis : x y z
#
# Youngs Moduli (GPa) = 41.89875 76.14139 93.47982
#
# Poissons Ratio (x) = 0.52771 0.34902
# Poissons Ratio (y) = 0.29039 0.37595
# Poissons Ratio (z) = 0.15643 0.30622
#
# Static dielectric constant tensor:
#      x y z
#    x 1.801630 -0.014790 0.017370 
#    y -0.014790 1.726170 -0.013530 
#    z 0.017370 -0.013530 1.791410 
# 
# From -- ./inp_files/304877.got.cif
#   From: 2010.05.17/outbox.cif.g08.bks.cpg/sg2_153_cif.got.tgz:304877.got - 2010.06.03 11:33:40.
