data_PCOD9111594
_publ_section_title
;
Structure prediction by ZEFSAII (Michael W. Deem and Ramdas Pophale) SiO2 
 PCOD9111594
Probable space group: P -1
;
_chemical_formula_sum "Si O2"
_cell_formula_units_Z 14
_cell_length_a 14.786471
_cell_length_b 12.808656
_cell_length_c 10.230489
_cell_angle_alpha 52.381779
_cell_angle_beta 138.364738
_cell_angle_gamma 150.742433
_cell_volume 623.961385
_symmetry_space_group_name_H-M "P -1"
_symmetry_group_IT_number 2
_symmetry_cell_setting 'triclinic'
loop_
_space_group_symop_operation_xyz
x,y,z
-x,-y,-z
loop_
_atom_site_type_symbol
_atom_site_label
_atom_site_fract_x
_atom_site_fract_y
_atom_site_fract_z
Si Si1 0.012124 0.485238 0.675735
Si Si2 0.751009 0.740428 0.074795
Si Si3 0.881795 0.028941 0.480889
Si Si4 0.030103 0.835535 0.063376
Si Si5 0.413096 0.948000 0.800071
Si Si6 0.798997 0.396559 0.767346
Si Si7 0.831937 0.700796 0.665607
O O1 0.911053 0.266077 0.759807
O O2 0.000000 0.500000 0.500000
O O3 0.888616 0.480049 0.653372
O O4 0.274017 0.708875 0.811683
O O5 0.871903 0.765443 0.062538
O O6 0.905459 0.834232 0.298416
O O7 0.500000 0.500000 0.000000
O O8 0.768857 0.909319 0.933470
O O9 0.964818 0.131218 0.347482
O O10 0.747589 0.047610 0.381080
O O11 0.745675 0.786297 0.506520
O O12 0.904257 0.733930 0.866941
O O13 0.613462 0.141906 0.774581
O O14 0.500000 0.000000 0.000000
O O15 0.716886 0.477227 0.665641
O O16 0.000000 0.500000 0.000000
#
# Coordination Sequence:
#
# PCOD9111594 Si02
#       7
#     2   2   2   2   2   2   2
#     4  12  26  46  68 102 145 184 247 299 348 431
#     4  10  23  47  70  99 143 186 228 293 360 426
#     4  10  22  43  69 102 140 178 235 290 354 424
#     4  10  22  43  69  98 139 180 235 289 354 424
#     4  12  24  44  76 100 141 191 234 298 359 419
#     4  12  23  45  71 100 138 187 239 294 362 426
#     4  10  20  43  66  99 139 171 229 299 340 422
#
# _framework density 22.437286
#
# number of rings (size 3 to 8) (size 9 to 14) (size 15 to 20)
#    0.000    1.143    4.286    0.857    0.000    2.286 
#   23.143    0.000    0.000    0.000    0.000    0.000 
#    0.000    0.000    0.000    0.000    0.000    0.000 
#
# Total GULP energy -78163.974587 kJ/mol
# GULP energy per Si atom -5583.141042 kJ/mol
# Density = 2.238622 g / cm^3
# Si number density = 22.437286 Si / 1000 Ang^3
#
#
#
# Elastic Constant Matrix: (Units=GPa)
#
#
# Indices 1 2 3 4 5 6 
#
# 1 84.1844 41.7102 24.5412 -0.2683 -22.2646 1.9763
# 2 41.7102 144.2657 17.9283 -4.0456 3.4715 2.0041
# 3 24.5412 17.9283 69.0125 -1.4198 -21.1865 1.1732
# 4 -0.2683 -4.0456 -1.4198 31.1121 -5.2080 0.5758
# 5 -22.2646 3.4715 -21.1865 -5.2080 47.7509 -5.4985
# 6 1.9763 2.0041 1.1732 0.5758 -5.4985 39.9135
#
#
#
# Elastic Compliance Matrix: (Units=1/GPa)
#
#
# Indices 1 2 3 4 5 6 
#
# 1 0.016853 -0.004717 -0.002557 0.000610 0.007186 0.000459
# 2 -0.004717 0.008606 -0.001638 0.000416 -0.003581 -0.000650
# 3 -0.002557 -0.001638 0.018064 0.001784 0.007211 0.000645
# 4 0.000610 0.000416 0.001784 0.033061 0.004659 0.000061
# 5 0.007186 -0.003581 0.007211 0.004659 0.028662 0.003493
# 6 0.000459 -0.000650 0.000645 0.000061 0.003493 0.025525
#
#
# Mechanical properties :
#
#
# Convention : Reuss Voigt Hill
#
# Bulk Modulus (GPa) = 38.91180 51.75800 45.33490
# Shear Modulus (GPa) = 31.81425 37.97415 34.89420
#
# Velocity S-wave (km/s) = 3.76961 4.11841 3.94787
# Velocity P-wave (km/s) = 6.02717 6.76262 6.40546
#
# Compressibility (1/GPa) = 0.02569915
#
# Stress axis : x y z
#
# Youngs Moduli (GPa) = 59.33774 116.20000 55.35775
#
# Poissons Ratio (x) = 0.54810 0.14154
# Poissons Ratio (y) = 0.27989 0.09068
# Poissons Ratio (z) = 0.15172 0.19035
#
# Static dielectric constant tensor:
#      x y z
#    x 1.844000 -0.022380 0.040950 
#    y -0.022380 1.864030 -0.015220 
#    z 0.040950 -0.015220 1.786060 
# 
# From -- ./inp_files/306818.got.cif
#   From: 2010.05.17/outbox.cif.g08.bks.cpg/sg2_154_cif.got.tgz:306818.got - 2010.06.03 11:33:40.
