data_PCOD9111968
_publ_section_title
;
Structure prediction by ZEFSAII (Michael W. Deem and Ramdas Pophale) SiO2 
 PCOD9111968
Probable space group: P -1
;
_chemical_formula_sum "Si O2"
_cell_formula_units_Z 12
_cell_length_a 8.208000
_cell_length_b 18.995046
_cell_length_c 11.003732
_cell_angle_alpha 147.706857
_cell_angle_beta 120.705783
_cell_angle_gamma 38.736652
_cell_volume 513.629005
_symmetry_space_group_name_H-M "P -1"
_symmetry_group_IT_number 2
_symmetry_cell_setting 'triclinic'
loop_
_space_group_symop_operation_xyz
x,y,z
-x,-y,-z
loop_
_atom_site_type_symbol
_atom_site_label
_atom_site_fract_x
_atom_site_fract_y
_atom_site_fract_z
Si Si1 0.333595 0.823687 0.406329
Si Si2 0.142983 0.835495 0.916782
Si Si3 0.259402 0.071026 0.919312
Si Si4 0.822251 0.461136 0.904743
Si Si5 0.135742 0.552120 0.841014
Si Si6 0.196358 0.538790 0.364324
O O1 0.512400 0.638957 0.304326
O O2 0.390421 0.937640 0.652473
O O3 0.506684 0.682742 0.147558
O O4 0.000000 0.000000 0.500000
O O5 0.160266 0.674676 0.643669
O O6 0.479565 0.693746 0.855347
O O7 0.930362 0.941846 0.106003
O O8 0.000000 0.000000 0.000000
O O9 0.027445 0.299812 0.117279
O O10 0.500000 0.000000 0.000000
O O11 0.841764 0.378540 0.664068
O O12 0.934930 0.341110 0.899519
O O13 0.000000 0.500000 0.000000
O O14 0.016779 0.467470 0.691847
#
# Coordination Sequence:
#
# PCOD9111968 Si02
#       6
#     2   2   2   2   2   2
#     4  10  22  41  64 101 140 173 226 277 341 403
#     4  11  25  40  63  95 134 178 222 275 333 410
#     4  12  25  42  67 102 138 176 233 279 344 408
#     4   8  18  41  65  90 129 172 218 269 334 392
#     4   9  22  42  69  97 131 178 219 287 337 391
#     4  10  20  44  65  92 131 175 226 267 340 403
#
# _framework density 23.363167000000001
#
# number of rings (size 3 to 8) (size 9 to 14) (size 15 to 20)
#    1.000    1.000    0.000    3.000    0.000    6.000 
#    6.000    1.667    0.000    0.000    0.000    0.000 
#    0.000    0.000    0.000    0.000    0.000    0.000 
#
# Total GULP energy -66866.209386 kJ/mol
# GULP energy per Si atom -5572.184115 kJ/mol
# Density = 2.330999 g / cm^3
# Si number density = 23.363167 Si / 1000 Ang^3
#
#
#
# Elastic Constant Matrix: (Units=GPa)
#
#
# Indices 1 2 3 4 5 6 
#
# 1 84.0968 48.2138 9.7575 21.2331 -7.7208 0.5693
# 2 48.2138 183.6699 22.4797 26.3176 0.2410 0.1895
# 3 9.7575 22.4797 52.7747 -0.2170 -6.0612 -1.7495
# 4 21.2331 26.3176 -0.2170 44.2505 -2.9035 2.1744
# 5 -7.7208 0.2410 -6.0612 -2.9035 24.0107 -0.8098
# 6 0.5693 0.1895 -1.7495 2.1744 -0.8098 42.8952
#
#
#
# Elastic Compliance Matrix: (Units=1/GPa)
#
#
# Indices 1 2 3 4 5 6 
#
# 1 0.015568 -0.003203 -0.001058 -0.005305 0.004133 0.000111
# 2 -0.003203 0.007011 -0.002647 -0.002784 -0.002105 0.000005
# 3 -0.001058 -0.002647 0.020918 0.002490 0.005297 0.000853
# 4 -0.005305 -0.002784 0.002490 0.027011 0.002179 -0.001144
# 5 0.004133 -0.002105 0.005297 0.002179 0.044629 0.000903
# 6 0.000111 0.000005 0.000853 -0.001144 0.000903 0.023421
#
#
# Mechanical properties :
#
#
# Convention : Reuss Voigt Hill
#
# Bulk Modulus (GPa) = 33.68991 53.49370 43.59180
# Shear Modulus (GPa) = 30.81317 38.23730 34.52524
#
# Velocity S-wave (km/s) = 3.63558 4.04994 3.84834
# Velocity P-wave (km/s) = 5.66345 6.69445 6.20041
#
# Compressibility (1/GPa) = 0.02968248
#
# Stress axis : x y z
#
# Youngs Moduli (GPa) = 64.23448 142.63377 47.80458
#
# Poissons Ratio (x) = 0.45680 0.05056
# Poissons Ratio (y) = 0.20572 0.12655
# Poissons Ratio (z) = 0.06793 0.37759
#
# Static dielectric constant tensor:
#      x y z
#    x 1.887810 -0.022650 -0.003650 
#    y -0.022650 1.933390 -0.022340 
#    z -0.003650 -0.022340 1.893640 
# 
# From -- ./inp_files/405706.got.cif
#   From: 2010.05.17/outbox.cif.g08.bks.cpg/sg2_203_cif.got.tgz:405706.got - 2010.06.03 11:33:40.
