data_PCOD9111079
_publ_section_title
;
Structure prediction by ZEFSAII (Michael W. Deem and Ramdas Pophale) SiO2 
 PCOD9111079
Probable space group: P -1
;
_chemical_formula_sum "Si O2"
_cell_formula_units_Z 16
_cell_length_a 12.285440
_cell_length_b 11.921105
_cell_length_c 9.997405
_cell_angle_alpha 52.821358
_cell_angle_beta 129.531683
_cell_angle_gamma 96.697463
_cell_volume 809.676602
_symmetry_space_group_name_H-M "P -1"
_symmetry_group_IT_number 2
_symmetry_cell_setting 'triclinic'
loop_
_space_group_symop_operation_xyz
x,y,z
-x,-y,-z
loop_
_atom_site_type_symbol
_atom_site_label
_atom_site_fract_x
_atom_site_fract_y
_atom_site_fract_z
Si Si1 0.976608 0.344472 0.074285
Si Si2 0.900615 0.192794 0.628492
Si Si3 0.087492 0.126452 0.069037
Si Si4 0.438727 0.906795 0.422476
Si Si5 0.950750 0.877809 0.469585
Si Si6 0.393190 0.940827 0.046563
Si Si7 0.616906 0.385384 0.783163
Si Si8 0.536777 0.407824 0.234477
O O1 0.063293 0.248349 0.079289
O O2 0.057818 0.233920 0.342407
O O3 0.794284 0.368635 0.913571
O O4 0.000000 0.500000 0.000000
O O5 0.724429 0.303549 0.455781
O O6 0.919236 0.219575 0.468496
O O7 0.969184 0.001191 0.826669
O O8 0.002324 0.220619 0.803026
O O9 0.255596 0.001844 0.242354
O O10 0.448554 0.922242 0.258803
O O11 0.513690 0.729046 0.663872
O O12 0.500000 0.000000 0.500000
O O13 0.000000 0.000000 0.500000
O O14 0.789177 0.946944 0.209521
O O15 0.396775 0.776120 0.125287
O O16 0.500000 0.000000 0.000000
O O17 0.500000 0.500000 0.500000
O O18 0.544186 0.461246 0.812405
O O19 0.500000 0.500000 0.000000
#
# Coordination Sequence:
#
# PCOD9111079 Si02
#       8
#     2   2   2   2   2   2   2   2
#     4  12  28  43  70 105 143 184 229 292 357 412
#     4  10  20  42  68  98 127 182 231 281 334 409
#     4  10  21  41  70  94 130 175 232 277 346 399
#     4  11  26  45  68  98 141 182 233 294 345 419
#     4  12  23  45  72 101 138 181 245 285 336 420
#     4  12  28  46  74 105 139 190 240 295 352 417
#     4  12  25  47  69 100 149 188 233 286 356 428
#     4  11  25  40  69 100 139 184 225 280 360 418
#
# _framework density 19.760975999999999
#
# number of rings (size 3 to 8) (size 9 to 14) (size 15 to 20)
#    0.000    0.750    5.000    1.500    8.750    0.000 
#    0.000    0.625    0.000    0.000    0.000    0.000 
#    0.000    0.000    0.000    0.000    0.000    0.000 
#
# Total GULP energy -89152.394460 kJ/mol
# GULP energy per Si atom -5572.024654 kJ/mol
# Density = 1.971600 g / cm^3
# Si number density = 19.760976 Si / 1000 Ang^3
#
#
#
# Elastic Constant Matrix: (Units=GPa)
#
#
# Indices 1 2 3 4 5 6 
#
# 1 96.0981 58.1055 23.9339 3.2724 -22.0024 -5.1348
# 2 58.1055 140.7696 37.1267 -2.8776 -32.6435 -2.7026
# 3 23.9339 37.1267 104.2253 2.8459 -23.4489 7.1270
# 4 3.2724 -2.8776 2.8459 29.6909 -8.7759 -4.2874
# 5 -22.0024 -32.6435 -23.4489 -8.7759 42.5165 5.9203
# 6 -5.1348 -2.7026 7.1270 -4.2874 5.9203 39.8329
#
#
#
# Elastic Compliance Matrix: (Units=1/GPa)
#
#
# Indices 1 2 3 4 5 6 
#
# 1 0.014425 -0.005085 -0.000956 -0.001036 0.002656 0.001179
# 2 -0.005085 0.010999 -0.001560 0.003439 0.005677 -0.000104
# 3 -0.000956 -0.001560 0.011757 -0.000083 0.005209 -0.003116
# 4 -0.001036 0.003439 -0.000083 0.037303 0.009377 0.002736
# 5 0.002656 0.005677 0.005209 0.009377 0.034667 -0.004348
# 6 0.001179 -0.000104 -0.003116 0.002736 -0.004348 0.026748
#
#
# Mechanical properties :
#
#
# Convention : Reuss Voigt Hill
#
# Bulk Modulus (GPa) = 45.49707 64.38057 54.93882
# Shear Modulus (GPa) = 31.56038 37.20318 34.38178
#
# Velocity S-wave (km/s) = 4.00072 4.34367 4.17572
# Velocity P-wave (km/s) = 6.66443 7.60309 7.14918
#
# Compressibility (1/GPa) = 0.02197944
#
# Stress axis : x y z
#
# Youngs Moduli (GPa) = 69.32436 90.91829 85.05600
#
# Poissons Ratio (x) = 0.46229 0.08132
# Poissons Ratio (y) = 0.35250 0.13267
# Poissons Ratio (z) = 0.06628 0.14182
#
# Static dielectric constant tensor:
#      x y z
#    x 4.286570 -0.050870 0.481210 
#    y -0.050870 1.747750 -0.033350 
#    z 0.481210 -0.033350 1.842530 
# 
# From -- ./inp_files/262141.got.cif
#   From: 2010.05.17/outbox.cif.g08.bks.cpg/sg2_132_cif.got.tgz:262141.got - 2010.06.03 11:33:40.
