data_PCOD9111247
_publ_section_title
;
Structure prediction by ZEFSAII (Michael W. Deem and Ramdas Pophale) SiO2 
 PCOD9111247
Probable space group: P -1
;
_chemical_formula_sum "Si O2"
_cell_formula_units_Z 16
_cell_length_a 11.842574
_cell_length_b 12.066361
_cell_length_c 11.286899
_cell_angle_alpha 37.943338
_cell_angle_beta 81.069843
_cell_angle_gamma 108.616505
_cell_volume 672.612821
_symmetry_space_group_name_H-M "P -1"
_symmetry_group_IT_number 2
_symmetry_cell_setting 'triclinic'
loop_
_space_group_symop_operation_xyz
x,y,z
-x,-y,-z
loop_
_atom_site_type_symbol
_atom_site_label
_atom_site_fract_x
_atom_site_fract_y
_atom_site_fract_z
Si Si1 0.370291 0.891081 0.510350
Si Si2 0.755190 0.817355 0.432044
Si Si3 0.784424 0.863919 0.916052
Si Si4 0.394281 0.995534 0.814266
Si Si5 0.022763 0.457247 0.399778
Si Si6 0.482963 0.651282 0.288677
Si Si7 0.119805 0.391600 0.853056
Si Si8 0.306878 0.231189 0.252872
O O1 0.218287 0.577101 0.794460
O O2 0.500000 0.000000 0.500000
O O3 0.480450 0.986699 0.293764
O O4 0.295607 0.002180 0.445370
O O5 0.686778 0.577524 0.563212
O O6 0.757455 0.771973 0.608466
O O7 0.637910 0.857541 0.383039
O O8 0.937277 0.100530 0.138898
O O9 0.766727 0.794643 0.839054
O O10 0.629999 0.802625 0.040305
O O11 0.782373 0.674156 0.149429
O O12 0.948821 0.172386 0.643582
O O13 0.478735 0.142970 0.801514
O O14 0.211433 0.702913 0.116154
O O15 0.000000 0.500000 0.500000
O O16 0.903023 0.455594 0.348088
O O17 0.500000 0.500000 0.500000
O O18 0.500000 0.500000 0.000000
#
# Coordination Sequence:
#
# PCOD9111247 Si02
#       8
#     2   2   2   2   2   2   2   2
#     4  12  24  45  72 103 138 190 235 287 356 419
#     4  10  22  42  68 103 140 189 231 295 353 416
#     4  12  24  45  70 102 145 186 232 298 348 423
#     4  10  22  43  71 101 143 185 236 288 358 424
#     4  11  24  47  68 106 147 184 234 298 350 419
#     4  10  20  42  70  98 140 184 232 288 353 417
#     4  11  26  45  71 105 139 189 238 285 364 414
#     4  12  24  42  71 101 144 179 244 294 346 421
#
# _framework density 23.787832000000002
#
# number of rings (size 3 to 8) (size 9 to 14) (size 15 to 20)
#    0.000    1.000    5.000    2.250    0.000    3.500 
#    2.250    1.250    0.000    0.000    0.000    0.000 
#    0.000    0.000    0.000    0.000    0.000    0.000 
#
# Total GULP energy -89464.808021 kJ/mol
# GULP energy per Si atom -5591.550501 kJ/mol
# Density = 2.373369 g / cm^3
# Si number density = 23.787832 Si / 1000 Ang^3
#
#
#
# Elastic Constant Matrix: (Units=GPa)
#
#
# Indices 1 2 3 4 5 6 
#
# 1 63.6529 27.6519 13.1860 -10.7080 9.7304 8.6996
# 2 27.6519 165.5636 36.0311 -23.9885 -8.3384 12.5837
# 3 13.1860 36.0311 79.3990 -33.2508 -6.3891 9.3362
# 4 -10.7080 -23.9885 -33.2508 48.6141 2.8011 -0.0602
# 5 9.7304 -8.3384 -6.3891 2.8011 42.0042 -6.5631
# 6 8.6996 12.5837 9.3362 -0.0602 -6.5631 17.0514
#
#
#
# Elastic Compliance Matrix: (Units=1/GPa)
#
#
# Indices 1 2 3 4 5 6 
#
# 1 0.019933 -0.002309 0.000014 0.003654 -0.007064 -0.011179
# 2 -0.002309 0.007348 -0.001750 0.001850 0.001161 -0.002833
# 3 0.000014 -0.001750 0.019823 0.012666 0.000353 -0.009389
# 4 0.003654 0.001850 0.012666 0.031072 -0.002336 -0.010954
# 5 -0.007064 0.001161 0.000353 -0.002336 0.027963 0.013309
# 6 -0.011179 -0.002833 -0.009389 -0.010954 0.013309 0.076666
#
#
# Mechanical properties :
#
#
# Convention : Reuss Voigt Hill
#
# Bulk Modulus (GPa) = 25.63146 51.37260 38.50203
# Shear Modulus (GPa) = 24.52186 36.98372 30.75279
#
# Velocity S-wave (km/s) = 3.21418 3.94729 3.59945
# Velocity P-wave (km/s) = 4.95712 6.51290 5.78752
#
# Compressibility (1/GPa) = 0.03901455
#
# Stress axis : x y z
#
# Youngs Moduli (GPa) = 50.16858 136.08596 50.44617
#
# Poissons Ratio (x) = 0.31419 -0.00069
# Poissons Ratio (y) = 0.11583 0.08827
# Poissons Ratio (z) = -0.00069 0.23811
#
# Static dielectric constant tensor:
#      x y z
#    x 1.883710 0.060370 0.087730 
#    y 0.060370 1.890830 0.007390 
#    z 0.087730 0.007390 1.937970 
# 
# From -- ./inp_files/427401.got.cif
#   From: 2010.05.17/outbox.cif.g08.bks.cpg/sg2_214_cif.got.tgz:427401.got - 2010.06.03 11:33:40.
