data_PCOD9111155
_publ_section_title
;
Structure prediction by ZEFSAII (Michael W. Deem and Ramdas Pophale) SiO2 
 PCOD9111155
Probable space group: P -1
;
_chemical_formula_sum "Si O2"
_cell_formula_units_Z 16
_cell_length_a 11.850561
_cell_length_b 11.167411
_cell_length_c 10.729184
_cell_angle_alpha 113.953238
_cell_angle_beta 48.933112
_cell_angle_gamma 76.913632
_cell_volume 683.263803
_symmetry_space_group_name_H-M "P -1"
_symmetry_group_IT_number 2
_symmetry_cell_setting 'triclinic'
loop_
_space_group_symop_operation_xyz
x,y,z
-x,-y,-z
loop_
_atom_site_type_symbol
_atom_site_label
_atom_site_fract_x
_atom_site_fract_y
_atom_site_fract_z
Si Si1 0.117868 0.437864 0.576161
Si Si2 0.044091 0.610409 0.943415
Si Si3 0.880850 0.314074 0.710382
Si Si4 0.557304 0.575796 0.282636
Si Si5 0.335531 0.988154 0.650607
Si Si6 0.325897 0.937175 0.191065
Si Si7 0.568034 0.034623 0.146064
Si Si8 0.648454 0.513066 0.729980
O O1 0.000338 0.601653 0.829392
O O2 0.344170 0.253369 0.394383
O O3 0.182247 0.482831 0.431368
O O4 0.989294 0.386491 0.633158
O O5 0.284450 0.504981 0.750562
O O6 0.000000 0.500000 0.000000
O O7 0.881787 0.829578 0.182090
O O8 0.743352 0.367691 0.710756
O O9 0.088379 0.092893 0.485860
O O10 0.723563 0.442779 0.993056
O O11 0.425485 0.792535 0.457853
O O12 0.404286 0.546470 0.373812
O O13 0.326129 0.995409 0.812095
O O14 0.500000 0.000000 0.500000
O O15 0.489534 0.933132 0.142515
O O16 0.312133 0.999908 0.083801
O O17 0.438248 0.726304 0.013340
#
# Coordination Sequence:
#
# PCOD9111155 Si02
#       8
#     2   2   2   2   2   2   2   2
#     4  10  20  42  69  97 129 169 222 276 312 388
#     4  12  23  42  68  97 126 171 223 269 319 390
#     4  11  23  42  70  93 134 173 230 267 313 400
#     4  12  27  45  61 102 140 172 213 272 336 390
#     4  12  24  39  70  94 131 174 217 274 321 393
#     4   9  22  39  66  96 128 171 214 275 321 379
#     4   9  19  40  64 100 130 158 223 278 320 370
#     4  11  26  42  66  98 138 173 213 272 340 382
#
# _framework density 23.417014999999999
#
# number of rings (size 3 to 8) (size 9 to 14) (size 15 to 20)
#    0.000    1.250    3.750    1.500    7.000    2.000 
#    0.000    0.625    0.000    0.000    0.000    0.000 
#    0.000    0.000    0.000    0.000    0.000    0.000 
#
# Total GULP energy -89444.848824 kJ/mol
# GULP energy per Si atom -5590.303052 kJ/mol
# Density = 2.336372 g / cm^3
# Si number density = 23.417015 Si / 1000 Ang^3
#
#
#
# Elastic Constant Matrix: (Units=GPa)
#
#
# Indices 1 2 3 4 5 6 
#
# 1 61.0154 2.2258 0.0481 -0.6793 11.6490 6.8484
# 2 2.2258 53.9080 20.8184 3.4721 3.9726 5.8537
# 3 0.0481 20.8184 87.9570 16.6399 17.0751 1.2256
# 4 -0.6793 3.4721 16.6399 32.6130 1.3553 6.9858
# 5 11.6490 3.9726 17.0751 1.3553 27.5762 3.9208
# 6 6.8484 5.8537 1.2256 6.9858 3.9208 35.8133
#
#
#
# Elastic Compliance Matrix: (Units=1/GPa)
#
#
# Indices 1 2 3 4 5 6 
#
# 1 0.018303 -0.000533 0.001679 0.000497 -0.008342 -0.002654
# 2 -0.000533 0.020845 -0.005287 0.001168 0.000930 -0.003454
# 3 0.001679 -0.005287 0.015940 -0.007678 -0.009805 0.002569
# 4 0.000497 0.001168 -0.007678 0.035905 0.003668 -0.007428
# 5 -0.008342 0.000930 -0.009805 0.003668 0.046111 -0.003985
# 6 -0.002654 -0.003454 0.002569 -0.007428 -0.003985 0.030792
#
#
# Mechanical properties :
#
#
# Convention : Reuss Voigt Hill
#
# Bulk Modulus (GPa) = 21.36498 27.67391 24.51944
# Shear Modulus (GPa) = 26.07148 31.18636 28.62892
#
# Velocity S-wave (km/s) = 3.34032 3.65332 3.50032
# Velocity P-wave (km/s) = 4.90107 5.44419 5.17975
#
# Compressibility (1/GPa) = 0.04680557
#
# Stress axis : x y z
#
# Youngs Moduli (GPa) = 54.63464 47.97277 62.73601
#
# Poissons Ratio (x) = 0.02557 -0.10530
# Poissons Ratio (y) = 0.02912 0.33168
# Poissons Ratio (z) = -0.09170 0.25363
#
# Static dielectric constant tensor:
#      x y z
#    x 1.900690 -0.011650 -0.009510 
#    y -0.011650 1.897180 -0.015140 
#    z -0.009510 -0.015140 1.941040 
# 
# From -- ./inp_files/428448.got.cif
#   From: 2010.05.17/outbox.cif.g08.bks.cpg/sg2_215_cif.got.tgz:428448.got - 2010.06.03 11:33:40.
