data_PCOD9111673
_publ_section_title
;
Structure prediction by ZEFSAII (Michael W. Deem and Ramdas Pophale) SiO2 
 PCOD9111673
Probable space group: P -1
;
_chemical_formula_sum "Si O2"
_cell_formula_units_Z 16
_cell_length_a 18.180255
_cell_length_b 9.013424
_cell_length_c 7.198818
_cell_angle_alpha 51.269549
_cell_angle_beta 83.101103
_cell_angle_gamma 117.106461
_cell_volume 665.246209
_symmetry_space_group_name_H-M "P -1"
_symmetry_group_IT_number 2
_symmetry_cell_setting 'triclinic'
loop_
_space_group_symop_operation_xyz
x,y,z
-x,-y,-z
loop_
_atom_site_type_symbol
_atom_site_label
_atom_site_fract_x
_atom_site_fract_y
_atom_site_fract_z
Si Si1 0.345851 0.499006 0.430313
Si Si2 0.422382 0.432376 0.798741
Si Si3 0.909469 0.485433 0.583662
Si Si4 0.818369 0.062282 0.228738
Si Si5 0.677965 0.445956 0.019841
Si Si6 0.635535 0.962495 0.406347
Si Si7 0.909963 0.859955 0.493732
Si Si8 0.310887 0.872111 0.178822
O O1 0.422530 0.517222 0.521168
O O2 0.244369 0.188497 0.696803
O O3 0.371579 0.578276 0.143348
O O4 0.329025 0.682853 0.363660
O O5 0.529638 0.668481 0.673433
O O6 0.339750 0.422080 0.930655
O O7 0.382767 0.148569 0.041413
O O8 0.929836 0.743902 0.412754
O O9 0.809423 0.295843 0.632623
O O10 0.000000 0.500000 0.500000
O O11 0.872251 0.334979 0.908379
O O12 0.727216 0.993883 0.428729
O O13 0.899958 0.063289 0.285191
O O14 0.796770 0.621247 0.797465
O O15 0.631878 0.167685 0.324684
O O16 0.663491 0.050118 0.110113
O O17 0.000000 0.000000 0.500000
#
# Coordination Sequence:
#
# PCOD9111673 Si02
#       8
#     2   2   2   2   2   2   2   2
#     4  10  21  43  66  89 140 181 205 276 344 370
#     4  12  23  40  71 101 129 184 230 266 328 410
#     4  11  22  41  66  95 129 173 221 281 337 391
#     4  10  20  44  68  89 133 180 207 275 345 380
#     4  10  23  45  64  98 143 168 227 287 320 399
#     4  10  20  43  68  91 139 179 215 279 340 383
#     4  11  24  44  65  91 133 180 218 277 340 394
#     4  10  21  41  61  98 135 168 230 276 324 407
#
# _framework density 24.051245000000002
#
# number of rings (size 3 to 8) (size 9 to 14) (size 15 to 20)
#    0.000    1.500    7.500    0.750    1.750    3.000 
#    9.000    2.500    0.000    0.000    0.000    0.000 
#    0.000    0.000    0.000    0.000    0.000    0.000 
#
# Total GULP energy -89432.252478 kJ/mol
# GULP energy per Si atom -5589.515780 kJ/mol
# Density = 2.399650 g / cm^3
# Si number density = 24.051245 Si / 1000 Ang^3
#
#
#
# Elastic Constant Matrix: (Units=GPa)
#
#
# Indices 1 2 3 4 5 6 
#
# 1 128.3350 5.5798 19.1515 0.9358 15.1987 1.4322
# 2 5.5798 60.8816 10.5047 -5.6628 3.7812 -8.1197
# 3 19.1515 10.5047 42.0065 -3.1969 14.7116 -6.9694
# 4 0.9358 -5.6628 -3.1969 21.0925 -8.8608 8.1554
# 5 15.1987 3.7812 14.7116 -8.8608 47.3044 -8.1935
# 6 1.4322 -8.1197 -6.9694 8.1554 -8.1935 40.0109
#
#
#
# Elastic Compliance Matrix: (Units=1/GPa)
#
#
# Indices 1 2 3 4 5 6 
#
# 1 0.008588 -0.000356 -0.003369 -0.001461 -0.002149 -0.001109
# 2 -0.000356 0.017738 -0.003959 0.003690 0.001032 0.002382
# 3 -0.003369 -0.003959 0.029355 -0.000736 -0.007335 0.003078
# 4 -0.001461 0.003690 -0.000736 0.055654 0.009310 -0.008764
# 5 -0.002149 0.001032 -0.007335 0.009310 0.026202 0.002477
# 6 -0.001109 0.002382 0.003078 -0.008764 0.002477 0.028346
#
#
# Mechanical properties :
#
#
# Convention : Reuss Voigt Hill
#
# Bulk Modulus (GPa) = 24.80535 33.52167 29.16351
# Shear Modulus (GPa) = 25.68205 34.74735 30.21470
#
# Velocity S-wave (km/s) = 3.27127 3.80507 3.54823
# Velocity P-wave (km/s) = 4.96027 5.76824 5.37945
#
# Compressibility (1/GPa) = 0.04031388
#
# Stress axis : x y z
#
# Youngs Moduli (GPa) = 116.44368 56.37659 34.06523
#
# Poissons Ratio (x) = 0.02008 0.11476
# Poissons Ratio (y) = 0.04147 0.13485
# Poissons Ratio (z) = 0.39229 0.22317
#
# Static dielectric constant tensor:
#      x y z
#    x 1.953530 -0.010320 0.013750 
#    y -0.010320 1.945970 0.051270 
#    z 0.013750 0.051270 1.942840 
# 
# From -- ./inp_files/328420.got.cif
#   From: 2010.05.17/outbox.cif.g08.bks.cpg/sg2_165_cif.got.tgz:328420.got - 2010.06.03 11:33:40.
