data_PCOD9111907
_publ_section_title
;
Structure prediction by ZEFSAII (Michael W. Deem and Ramdas Pophale) SiO2 
 PCOD9111907
Probable space group: P -1
;
_chemical_formula_sum "Si O2"
_cell_formula_units_Z 10
_cell_length_a 14.241057
_cell_length_b 5.089243
_cell_length_c 11.935740
_cell_angle_alpha 64.024490
_cell_angle_beta 150.281739
_cell_angle_gamma 121.545992
_cell_volume 365.190885
_symmetry_space_group_name_H-M "P -1"
_symmetry_group_IT_number 2
_symmetry_cell_setting 'triclinic'
loop_
_space_group_symop_operation_xyz
x,y,z
-x,-y,-z
loop_
_atom_site_type_symbol
_atom_site_label
_atom_site_fract_x
_atom_site_fract_y
_atom_site_fract_z
Si Si1 0.309154 0.613901 0.293579
Si Si2 0.509980 0.309971 0.304371
Si Si3 0.029655 0.036111 0.693177
Si Si4 0.891871 0.595525 0.077392
Si Si5 0.334943 0.175660 0.799908
O O1 0.500000 0.500000 0.500000
O O2 0.318174 0.657780 0.429070
O O3 0.121800 0.380531 0.076712
O O4 0.375029 0.952181 0.241663
O O5 0.345410 0.477054 0.130119
O O6 0.605884 0.488259 0.259809
O O7 0.235549 0.210525 0.809382
O O8 0.006368 0.149081 0.772810
O O9 0.846642 0.037173 0.425307
O O10 0.042019 0.695112 0.773288
O O11 0.500000 0.000000 0.000000
#
# Coordination Sequence:
#
# PCOD9111907 Si02
#       5
#     2   2   2   2   2
#     4   9  20  40  75 104 141 190 237 301 357 418
#     4  10  20  43  75 105 141 192 241 287 363 426
#     4  11  26  47  71 108 150 187 236 299 358 426
#     4  11  21  46  71 103 147 186 233 303 355 419
#     4  11  25  48  74 108 146 192 240 292 361 436
#
# _framework density 27.382939
#
# number of rings (size 3 to 8) (size 9 to 14) (size 15 to 20)
#    0.000    1.600    4.000    0.000    0.000    4.000 
#   18.000    2.000    0.000    0.000    0.000    0.000 
#    0.000    0.000    0.000    0.000    0.000    0.000 
#
# Total GULP energy -55928.664703 kJ/mol
# GULP energy per Si atom -5592.866470 kJ/mol
# Density = 2.732061 g / cm^3
# Si number density = 27.382939 Si / 1000 Ang^3
#
#
#
# Elastic Constant Matrix: (Units=GPa)
#
#
# Indices 1 2 3 4 5 6 
#
# 1 129.2367 79.6844 32.1742 -11.6034 -12.4033 9.7118
# 2 79.6844 134.4500 50.2102 -25.0151 -17.0721 -8.5360
# 3 32.1742 50.2102 186.7516 7.6987 -9.3599 -22.5338
# 4 -11.6034 -25.0151 7.6987 56.4972 -10.4669 -8.9506
# 5 -12.4033 -17.0721 -9.3599 -10.4669 29.0897 0.3044
# 6 9.7118 -8.5360 -22.5338 -8.9506 0.3044 57.3871
#
#
#
# Elastic Compliance Matrix: (Units=1/GPa)
#
#
# Indices 1 2 3 4 5 6 
#
# 1 0.012947 -0.007953 -0.000480 -0.001348 0.000254 -0.003774
# 2 -0.007953 0.015679 -0.002297 0.007690 0.007798 0.003934
# 3 -0.000480 -0.002297 0.006356 -0.001695 -0.000138 0.001972
# 4 -0.001348 0.007690 -0.001695 0.023971 0.011973 0.004382
# 5 0.000254 0.007798 -0.000138 0.011973 0.043296 0.002700
# 6 -0.003774 0.003934 0.001972 0.004382 0.002700 0.020093
#
#
# Mechanical properties :
#
#
# Convention : Reuss Voigt Hill
#
# Bulk Modulus (GPa) = 73.94063 86.06398 80.00230
# Shear Modulus (GPa) = 33.71340 47.81944 40.76642
#
# Velocity S-wave (km/s) = 3.51263 4.18344 3.86262
# Velocity P-wave (km/s) = 6.59640 7.40492 7.01232
#
# Compressibility (1/GPa) = 0.01352436
#
# Stress axis : x y z
#
# Youngs Moduli (GPa) = 77.23527 63.77794 157.33791
#
# Poissons Ratio (x) = 0.50720 0.07546
# Poissons Ratio (y) = 0.61422 0.36140
# Poissons Ratio (z) = 0.03704 0.14650
#
# Static dielectric constant tensor:
#      x y z
#    x 2.273150 -0.005200 -0.051440 
#    y -0.005200 2.108580 0.086580 
#    z -0.051440 0.086580 2.199880 
# 
# From -- ./inp_files/441790.got.cif
#   From: 2010.05.17/outbox.cif.g08.bks.cpg/sg2_221_cif.got.tgz:441790.got - 2010.06.03 11:33:40.
