data_PCOD9111827
_publ_section_title
;
Structure prediction by ZEFSAII (Michael W. Deem and Ramdas Pophale) SiO2 
 PCOD9111827
Probable space group: P -1
;
_chemical_formula_sum "Si O2"
_cell_formula_units_Z 16
_cell_length_a 7.401912
_cell_length_b 11.609636
_cell_length_c 17.058279
_cell_angle_alpha 34.671453
_cell_angle_beta 113.360553
_cell_angle_gamma 128.418064
_cell_volume 631.412548
_symmetry_space_group_name_H-M "P -1"
_symmetry_group_IT_number 2
_symmetry_cell_setting 'triclinic'
loop_
_space_group_symop_operation_xyz
x,y,z
-x,-y,-z
loop_
_atom_site_type_symbol
_atom_site_label
_atom_site_fract_x
_atom_site_fract_y
_atom_site_fract_z
Si Si1 0.909230 0.156920 0.541816
Si Si2 0.302880 0.916221 0.298590
Si Si3 0.042267 0.264191 0.850847
Si Si4 0.291365 0.898979 0.629796
Si Si5 0.592888 0.645025 0.014363
Si Si6 0.565210 0.490665 0.341824
Si Si7 0.351091 0.660149 0.308255
Si Si8 0.200382 0.371233 0.212895
O O1 0.886877 0.234970 0.581548
O O2 0.175718 0.366103 0.447203
O O3 0.760203 0.155541 0.441365
O O4 0.846251 0.883868 0.683691
O O5 0.513293 0.111107 0.284015
O O6 0.378377 0.778629 0.331288
O O7 0.254742 0.072074 0.144655
O O8 0.239670 0.402393 0.877023
O O9 0.183122 0.400861 0.718356
O O10 0.802389 0.261789 0.812081
O O11 0.000000 0.000000 0.000000
O O12 0.420674 0.196231 0.494351
O O13 0.048516 0.727312 0.732450
O O14 0.348847 0.571149 0.058937
O O15 0.500000 0.500000 0.000000
O O16 0.582266 0.681305 0.301917
O O17 0.395091 0.492424 0.246743
#
# Coordination Sequence:
#
# PCOD9111827 Si02
#       8
#     2   2   2   2   2   2   2   2
#     4  11  21  42  71  94 134 178 227 282 335 398
#     4  12  26  40  64 104 140 173 229 277 340 411
#     4  11  25  47  69  96 137 186 226 270 347 406
#     4  11  22  43  68 103 130 179 227 280 341 387
#     4  11  24  44  66  99 136 178 226 280 332 406
#     4  10  22  43  72 101 133 176 232 280 329 410
#     4  12  24  45  69 103 135 179 226 282 345 402
#     4  10  20  43  71  94 136 173 226 283 326 398
#
# _framework density 25.340011000000001
#
# number of rings (size 3 to 8) (size 9 to 14) (size 15 to 20)
#    0.000    1.000    5.000    2.250    1.750    1.500 
#    4.500    0.000    0.000    0.000    0.000    0.000 
#    0.000    0.000    0.000    0.000    0.000    0.000 
#
# Total GULP energy -89267.424767 kJ/mol
# GULP energy per Si atom -5579.214048 kJ/mol
# Density = 2.528234 g / cm^3
# Si number density = 25.340011 Si / 1000 Ang^3
#
#
#
# Elastic Constant Matrix: (Units=GPa)
#
#
# Indices 1 2 3 4 5 6 
#
# 1 78.8067 -0.6995 40.9536 7.2298 -1.6191 -17.3390
# 2 -0.6995 96.8814 21.5999 1.6235 10.0927 -30.7690
# 3 40.9536 21.5999 114.9479 16.8732 -5.1936 -5.9803
# 4 7.2298 1.6235 16.8732 36.0532 -1.6631 -6.4885
# 5 -1.6191 10.0927 -5.1936 -1.6631 26.6622 -5.3204
# 6 -17.3390 -30.7690 -5.9803 -6.4885 -5.3204 45.6819
#
#
#
# Elastic Compliance Matrix: (Units=1/GPa)
#
#
# Indices 1 2 3 4 5 6 
#
# 1 0.018375 0.004675 -0.007106 0.001106 -0.000106 0.009338
# 2 0.004675 0.015349 -0.004480 0.002335 -0.003979 0.011394
# 3 -0.007106 -0.004480 0.012689 -0.004999 0.002532 -0.004468
# 4 0.001106 0.002335 -0.004999 0.030867 0.001307 0.005875
# 5 -0.000106 -0.003979 0.002532 0.001307 0.040073 0.002464
# 6 0.009338 0.011394 -0.004468 0.005875 0.002464 0.033646
#
#
# Mechanical properties :
#
#
# Convention : Reuss Voigt Hill
#
# Bulk Modulus (GPa) = 30.68375 46.03822 38.36099
# Shear Modulus (GPa) = 28.46045 36.93160 32.69603
#
# Velocity S-wave (km/s) = 3.35497 3.82179 3.59596
# Velocity P-wave (km/s) = 5.20988 6.13860 5.69321
#
# Compressibility (1/GPa) = 0.03259054
#
# Stress axis : x y z
#
# Youngs Moduli (GPa) = 54.42314 65.15277 78.80875
#
# Poissons Ratio (x) = -0.30460 0.56004
# Poissons Ratio (y) = -0.25443 0.35303
# Poissons Ratio (z) = 0.38675 0.29185
#
# Static dielectric constant tensor:
#      x y z
#    x 2.120600 -0.044370 -0.070210 
#    y -0.044370 2.019920 0.008520 
#    z -0.070210 0.008520 2.135200 
# 
# From -- ./inp_files/208250.got.cif
#   From: 2010.05.17/outbox.cif.g08.bks.cpg/sg2_105_cif.got.tgz:208250.got - 2010.06.03 11:33:40.
