data_PCOD9111388
_publ_section_title
;
Structure prediction by ZEFSAII (Michael W. Deem and Ramdas Pophale) SiO2 
 PCOD9111388
Probable space group: P -1
;
_chemical_formula_sum "Si O2"
_cell_formula_units_Z 12
_cell_length_a 10.093172
_cell_length_b 5.062173
_cell_length_c 11.992362
_cell_angle_alpha 68.267244
_cell_angle_beta 81.629936
_cell_angle_gamma 116.310800
_cell_volume 473.613892
_symmetry_space_group_name_H-M "P -1"
_symmetry_group_IT_number 2
_symmetry_cell_setting 'triclinic'
loop_
_space_group_symop_operation_xyz
x,y,z
-x,-y,-z
loop_
_atom_site_type_symbol
_atom_site_label
_atom_site_fract_x
_atom_site_fract_y
_atom_site_fract_z
Si Si1 0.145182 0.172503 0.094735
Si Si2 0.284699 0.544039 0.796837
Si Si3 0.028468 0.626516 0.746305
Si Si4 0.809757 0.648551 0.612285
Si Si5 0.353509 0.117344 0.233934
Si Si6 0.616980 0.402316 0.453600
O O1 0.176748 0.282277 0.946218
O O2 0.058961 0.324065 0.147864
O O3 0.283609 0.733207 0.265977
O O4 0.312883 0.295730 0.114847
O O5 0.463912 0.739194 0.788539
O O6 0.300468 0.406331 0.699506
O O7 0.208960 0.756317 0.734256
O O8 0.987315 0.770252 0.618716
O O9 0.956591 0.226866 0.806847
O O10 0.736903 0.843232 0.652875
O O11 0.755050 0.534383 0.509327
O O12 0.500000 0.500000 0.500000
O O13 0.500000 0.000000 0.500000
#
# Coordination Sequence:
#
# PCOD9111388 Si02
#       6
#     2   2   2   2   2   2
#     4  10  23  42  60  92 126 159 196 249 305 360
#     4  12  23  39  66  93 119 164 204 245 304 357
#     4  10  24  40  64  88 128 157 196 253 301 362
#     4  10  20  43  58  88 123 160 194 249 304 346
#     4  10  21  38  65  86 122 157 202 248 294 357
#     4  12  24  40  63  89 122 156 204 256 290 354
#
# _framework density 25.337094
#
# number of rings (size 3 to 8) (size 9 to 14) (size 15 to 20)
#    0.000    1.333    3.333    1.500    0.000    6.000 
#    0.000    5.000    0.000    8.000    0.000    0.000 
#    0.000    0.000    0.000    0.000    0.000    0.000 
#
# Total GULP energy -67068.598821 kJ/mol
# GULP energy per Si atom -5589.049902 kJ/mol
# Density = 2.527943 g / cm^3
# Si number density = 25.337094 Si / 1000 Ang^3
#
#
#
# Elastic Constant Matrix: (Units=GPa)
#
#
# Indices 1 2 3 4 5 6 
#
# 1 144.1481 33.3606 -59.9992 64.9262 25.2130 46.4004
# 2 33.3606 114.6016 -26.8795 38.7895 -4.6244 -5.1832
# 3 -59.9992 -26.8795 -6.1322 105.8880 33.1845 53.7157
# 4 64.9262 38.7895 105.8880 -20.9464 -6.4083 -25.8196
# 5 25.2130 -4.6244 33.1845 -6.4083 47.5762 13.4301
# 6 46.4004 -5.1832 53.7157 -25.8196 13.4301 34.1957
#
#
#
# Elastic Compliance Matrix: (Units=1/GPa)
#
#
# Indices 1 2 3 4 5 6 
#
# 1 0.006038 -0.003668 -0.002194 0.003730 -0.000924 -0.002123
# 2 -0.003668 0.010789 -0.000829 -0.002603 0.001733 0.005268
# 3 -0.002194 -0.000829 0.003699 0.007131 -0.001374 0.002965
# 4 0.003730 -0.002603 0.007131 0.007747 -0.003497 -0.009434
# 5 -0.000924 0.001733 -0.001374 -0.003497 0.024600 -0.008626
# 6 -0.002123 0.005268 0.002965 -0.009434 -0.008626 0.024530
#
#
# Mechanical properties :
#
#
# Convention : Reuss Voigt Hill
#
# Bulk Modulus (GPa) = 139.97622 16.17572 78.07597
# Shear Modulus (GPa) = 53.66766 32.57416 43.12091
#
# Velocity S-wave (km/s) = 4.60732 3.58946 4.12987
# Velocity P-wave (km/s) = 9.14706 4.85562 7.32277
#
# Compressibility (1/GPa) = 0.00714407
#
# Stress axis : x y z
#
# Youngs Moduli (GPa) = 165.61851 92.69063 270.31020
#
# Poissons Ratio (x) = 0.33999 0.59315
# Poissons Ratio (y) = 0.60749 0.22398
# Poissons Ratio (z) = 0.36342 0.07680
#
# Static dielectric constant tensor:
#      x y z
#    x 2.450410 0.235570 0.016620 
#    y 0.235570 2.103250 -0.007300 
#    z 0.016620 -0.007300 2.018200 
# 
# From -- ./inp_files/408489.got.cif
#   From: 2010.05.17/outbox.cif.g08.bks.cpg/sg2_205_cif.got.tgz:408489.got - 2010.06.03 11:33:40.
