data_PCOD9111417
_publ_section_title
;
Structure prediction by ZEFSAII (Michael W. Deem and Ramdas Pophale) SiO2 
 PCOD9111417
Probable space group: P -1
;
_chemical_formula_sum "Si O2"
_cell_formula_units_Z 16
_cell_length_a 21.544968
_cell_length_b 15.080319
_cell_length_c 6.863490
_cell_angle_alpha 83.133927
_cell_angle_beta 110.515500
_cell_angle_gamma 157.825276
_cell_volume 642.208583
_symmetry_space_group_name_H-M "P -1"
_symmetry_group_IT_number 2
_symmetry_cell_setting 'triclinic'
loop_
_space_group_symop_operation_xyz
x,y,z
-x,-y,-z
loop_
_atom_site_type_symbol
_atom_site_label
_atom_site_fract_x
_atom_site_fract_y
_atom_site_fract_z
Si Si1 0.614784 0.010297 0.749060
Si Si2 0.009450 0.104892 0.601529
Si Si3 0.800239 0.148869 0.580390
Si Si4 0.752427 0.354011 0.557516
Si Si5 0.560624 0.399095 0.940096
Si Si6 0.267014 0.225311 0.234071
Si Si7 0.814190 0.005208 0.132318
Si Si8 0.233300 0.725590 0.761003
O O1 0.724779 0.071589 0.736384
O O2 0.702029 0.215152 0.698564
O O3 0.363383 0.700496 0.507509
O O4 0.673386 0.091249 0.017026
O O5 0.891700 0.029167 0.364547
O O6 0.261992 0.443416 0.832716
O O7 0.000000 0.000000 0.500000
O O8 0.885786 0.943705 0.713074
O O9 0.821544 0.273723 0.470801
O O10 0.039360 0.422231 0.730007
O O11 0.615608 0.861518 0.337956
O O12 0.652686 0.198637 0.277749
O O13 0.004130 0.687566 0.728016
O O14 0.695717 0.647758 0.911856
O O15 0.420641 0.262162 0.995772
O O16 0.500000 0.500000 0.500000
O O17 0.183377 0.033810 0.069223
#
# Coordination Sequence:
#
# PCOD9111417 Si02
#       8
#     2   2   2   2   2   2   2   2
#     4  10  22  40  64  95 135 177 226 278 336 406
#     4  12  27  47  74 103 138 186 227 291 348 406
#     4  10  23  39  63  98 131 173 230 276 334 405
#     4  10  23  40  65  97 134 177 225 281 335 401
#     4  12  25  48  71 101 144 181 235 287 343 414
#     4  12  26  48  74 103 141 182 227 288 348 414
#     4  12  26  48  71 104 142 181 237 283 344 417
#     4  10  20  43  62  92 134 177 221 281 338 397
#
# _framework density 24.914024999999999
#
# number of rings (size 3 to 8) (size 9 to 14) (size 15 to 20)
#    0.000    1.000    3.750    2.250    3.500    2.000 
#    2.250    0.000    0.000    0.000    0.000    0.000 
#    0.000    0.000    0.000    0.000    0.000    0.000 
#
# Total GULP energy -89503.655695 kJ/mol
# GULP energy per Si atom -5593.978481 kJ/mol
# Density = 2.485732 g / cm^3
# Si number density = 24.914025 Si / 1000 Ang^3
#
#
#
# Elastic Constant Matrix: (Units=GPa)
#
#
# Indices 1 2 3 4 5 6 
#
# 1 59.9680 38.5710 13.8644 -11.6981 -10.7866 26.6852
# 2 38.5710 102.5694 32.8236 -11.2701 -6.3333 26.8022
# 3 13.8644 32.8236 113.2577 -9.4175 -21.8590 14.0460
# 4 -11.6981 -11.2701 -9.4175 36.8188 2.2975 -8.6140
# 5 -10.7866 -6.3333 -21.8590 2.2975 45.0314 -1.2897
# 6 26.6852 26.8022 14.0460 -8.6140 -1.2897 46.6259
#
#
#
# Elastic Compliance Matrix: (Units=1/GPa)
#
#
# Indices 1 2 3 4 5 6 
#
# 1 0.027840 -0.007193 0.001555 0.004016 0.005881 -0.011363
# 2 -0.007193 0.014222 -0.003066 0.000653 -0.001332 -0.003051
# 3 0.001555 -0.003066 0.010885 0.001559 0.005089 -0.001978
# 4 0.004016 0.000653 0.001559 0.029556 0.000370 0.002327
# 5 0.005881 -0.001332 0.005089 0.000370 0.025784 -0.003352
# 6 -0.011363 -0.003051 -0.001978 0.002327 -0.003352 0.030637
#
#
# Mechanical properties :
#
#
# Convention : Reuss Voigt Hill
#
# Bulk Modulus (GPa) = 28.13781 49.59034 38.86408
# Shear Modulus (GPa) = 29.73023 38.39761 34.06392
#
# Velocity S-wave (km/s) = 3.45818 3.93008 3.70166
# Velocity P-wave (km/s) = 5.22148 6.36724 5.82261
#
# Compressibility (1/GPa) = 0.03553937
#
# Stress axis : x y z
#
# Youngs Moduli (GPa) = 35.91907 70.31148 91.87287
#
# Poissons Ratio (x) = 0.50578 -0.14285
# Poissons Ratio (y) = 0.25838 0.28164
# Poissons Ratio (z) = -0.05585 0.21554
#
# Static dielectric constant tensor:
#      x y z
#    x 2.048660 0.046190 0.054010 
#    y 0.046190 2.000820 0.018050 
#    z 0.054010 0.018050 1.994380 
# 
# From -- ./inp_files/124815.got.cif
#   From: 2010.05.17/outbox.cif.g08.bks.cpg/sg2_63_cif.got.tgz:124815.got - 2010.06.03 11:33:40.
