data_PCOD9111809
_publ_section_title
;
Structure prediction by ZEFSAII (Michael W. Deem and Ramdas Pophale) SiO2 
 PCOD9111809
Probable space group: P -1
;
_chemical_formula_sum "Si O2"
_cell_formula_units_Z 12
_cell_length_a 6.968616
_cell_length_b 14.313095
_cell_length_c 14.909333
_cell_angle_alpha 160.637600
_cell_angle_beta 80.673544
_cell_angle_gamma 108.017919
_cell_volume 427.305342
_symmetry_space_group_name_H-M "P -1"
_symmetry_group_IT_number 2
_symmetry_cell_setting 'triclinic'
loop_
_space_group_symop_operation_xyz
x,y,z
-x,-y,-z
loop_
_atom_site_type_symbol
_atom_site_label
_atom_site_fract_x
_atom_site_fract_y
_atom_site_fract_z
Si Si1 0.872183 0.775060 0.222517
Si Si2 0.088678 0.890503 0.135299
Si Si3 0.416585 0.443199 0.193925
Si Si4 0.803005 0.624285 0.679011
Si Si5 0.171343 0.543602 0.666698
Si Si6 0.512858 0.128063 0.747711
O O1 0.040722 0.764646 0.126247
O O2 0.717405 0.913278 0.315235
O O3 0.701790 0.410342 0.931552
O O4 0.000000 0.000000 0.500000
O O5 0.841914 0.727788 0.967260
O O6 0.161273 0.262076 0.473255
O O7 0.224432 0.830818 0.991765
O O8 0.391809 0.407045 0.270082
O O9 0.508864 0.792488 0.458513
O O10 0.522778 0.262465 0.968656
O O11 0.720596 0.458309 0.438574
O O12 0.924299 0.446556 0.558256
O O13 0.000000 0.000000 0.000000
#
# Coordination Sequence:
#
# PCOD9111809 Si02
#       6
#     2   2   2   2   2   2
#     4  10  22  41  63  86 115 159 202 238 290 353
#     4  10  19  32  50  77 115 149 187 239 287 331
#     4  10  19  34  54  82 126 151 184 247 292 338
#     4  10  17  26  50  82 114 151 192 229 284 352
#     4  10  18  28  45  80 118 143 188 242 279 339
#     4  10  23  39  58  88 123 150 191 247 293 336
#
# _framework density 28.082961999999998
#
# number of rings (size 3 to 8) (size 9 to 14) (size 15 to 20)
#    0.000    2.000    3.333    4.000    2.333    7.333 
#    0.000   13.333    0.000    0.000    0.000    7.000 
#    0.000    0.000    0.000    0.000    0.000    0.000 
#
# Total GULP energy -67226.735081 kJ/mol
# GULP energy per Si atom -5602.227923 kJ/mol
# Density = 2.801904 g / cm^3
# Si number density = 28.082962 Si / 1000 Ang^3
#
#
#
# Elastic Constant Matrix: (Units=GPa)
#
#
# Indices 1 2 3 4 5 6 
#
# 1 75.5978 37.1364 21.8154 -1.6297 23.1054 -3.8906
# 2 37.1364 160.9236 26.7103 -39.2654 10.4943 12.7311
# 3 21.8154 26.7103 106.7874 -12.4632 -1.1546 7.2949
# 4 -1.6297 -39.2654 -12.4632 66.8377 6.9051 1.6394
# 5 23.1054 10.4943 -1.1546 6.9051 34.6014 2.4902
# 6 -3.8906 12.7311 7.2949 1.6394 2.4902 51.9257
#
#
#
# Elastic Compliance Matrix: (Units=1/GPa)
#
#
# Indices 1 2 3 4 5 6 
#
# 1 0.020111 -0.003807 -0.003680 -0.001239 -0.012409 0.003591
# 2 -0.003807 0.008686 -0.000650 0.005047 -0.000945 -0.002438
# 3 -0.003680 -0.000650 0.010577 0.001246 0.002887 -0.001780
# 4 -0.001239 0.005047 0.001246 0.018613 -0.004240 -0.001890
# 5 -0.012409 -0.000945 0.002887 -0.004240 0.038619 -0.002822
# 6 0.003591 -0.002438 -0.001780 -0.001890 -0.002822 0.020570
#
#
# Mechanical properties :
#
#
# Convention : Reuss Voigt Hill
#
# Bulk Modulus (GPa) = 43.29002 57.18143 50.23573
# Shear Modulus (GPa) = 35.42319 47.84940 41.63630
#
# Velocity S-wave (km/s) = 3.55544 4.13226 3.85465
# Velocity P-wave (km/s) = 5.68361 6.57064 6.14315
#
# Compressibility (1/GPa) = 0.02310001
#
# Stress axis : x y z
#
# Youngs Moduli (GPa) = 49.72444 115.12190 94.54489
#
# Poissons Ratio (x) = 0.43831 0.34794
# Poissons Ratio (y) = 0.18932 0.06142
# Poissons Ratio (z) = 0.18299 0.07479
#
# Static dielectric constant tensor:
#      x y z
#    x 2.244810 -0.038930 0.030070 
#    y -0.038930 2.222440 -0.082200 
#    z 0.030070 -0.082200 2.151140 
# 
# From -- ./inp_files/140399.got.cif
#   From: 2010.05.17/outbox.cif.g08.bks.cpg/sg2_71_cif.got.tgz:140399.got - 2010.06.03 11:33:40.
