data_PCOD9111275
_publ_section_title
;
Structure prediction by ZEFSAII (Michael W. Deem and Ramdas Pophale) SiO2 
 PCOD9111275
Probable space group: P -1
;
_chemical_formula_sum "Si O2"
_cell_formula_units_Z 16
_cell_length_a 12.435651
_cell_length_b 7.998118
_cell_length_c 7.679523
_cell_angle_alpha 77.758269
_cell_angle_beta 50.973863
_cell_angle_gamma 77.696924
_cell_volume 576.693574
_symmetry_space_group_name_H-M "P -1"
_symmetry_group_IT_number 2
_symmetry_cell_setting 'triclinic'
loop_
_space_group_symop_operation_xyz
x,y,z
-x,-y,-z
loop_
_atom_site_type_symbol
_atom_site_label
_atom_site_fract_x
_atom_site_fract_y
_atom_site_fract_z
Si Si1 0.687543 0.675097 0.285895
Si Si2 0.982799 0.354785 0.303762
Si Si3 0.090711 0.104327 0.513762
Si Si4 0.050210 0.252600 0.864473
Si Si5 0.705929 0.304750 0.486653
Si Si6 0.399223 0.771945 0.731095
Si Si7 0.596866 0.596526 0.053113
Si Si8 0.414468 0.100255 0.219348
O O1 0.781824 0.782186 0.281379
O O2 0.738305 0.478539 0.315641
O O3 0.532346 0.692976 0.504586
O O4 0.688701 0.693152 0.075417
O O5 0.989282 0.555943 0.215145
O O6 0.828164 0.298396 0.504330
O O7 0.073890 0.287906 0.390206
O O8 0.013014 0.262800 0.103957
O O9 0.016556 0.124997 0.774258
O O10 0.256857 0.045502 0.379275
O O11 0.000000 0.000000 0.500000
O O12 0.701850 0.185678 0.341175
O O13 0.560877 0.346212 0.729025
O O14 0.361653 0.607998 0.921040
O O15 0.469525 0.914640 0.740007
O O16 0.607025 0.692734 0.839777
O O17 0.500000 0.000000 0.000000
#
# Coordination Sequence:
#
# PCOD9111275 Si02
#       8
#     2   2   2   2   2   2   2   2
#     4   8  14  33  62  90 121 146 199 261 330 373
#     4  10  22  41  71 102 128 168 223 277 342 397
#     4  12  28  46  64  93 142 188 222 268 327 402
#     4  10  20  42  71  99 126 169 222 285 331 394
#     4   8  17  33  62  98 121 146 198 269 327 386
#     4   9  17  37  63  92 119 155 202 265 331 379
#     4   9  18  35  65  93 121 158 200 271 330 383
#     4  12  26  41  58  91 130 174 222 261 315 385
#
# _framework density 27.744371000000001
#
# number of rings (size 3 to 8) (size 9 to 14) (size 15 to 20)
#    0.000    2.250    1.250    3.000    1.750    2.500 
#    0.000    3.750    0.000    0.000    0.000    0.000 
#    0.000    0.000    0.000    0.000    0.000    0.000 
#
# Total GULP energy -89245.375780 kJ/mol
# GULP energy per Si atom -5577.835986 kJ/mol
# Density = 2.768122 g / cm^3
# Si number density = 27.744371 Si / 1000 Ang^3
#
#
#
# Elastic Constant Matrix: (Units=GPa)
#
#
# Indices 1 2 3 4 5 6 
#
# 1 113.8049 29.3761 15.6436 17.2354 21.7906 13.4681
# 2 29.3761 94.2546 7.6584 4.1601 9.2381 13.8123
# 3 15.6436 7.6584 69.2677 17.2065 7.0578 5.9145
# 4 17.2354 4.1601 17.2065 34.1607 5.7900 19.9430
# 5 21.7906 9.2381 7.0578 5.7900 40.9192 4.1171
# 6 13.4681 13.8123 5.9145 19.9430 4.1171 53.9852
#
#
#
# Elastic Compliance Matrix: (Units=1/GPa)
#
#
# Indices 1 2 3 4 5 6 
#
# 1 0.011103 -0.002754 -0.000720 -0.004044 -0.004580 -0.000143
# 2 -0.002754 0.011997 -0.000919 0.002374 -0.001110 -0.003074
# 3 -0.000720 -0.000919 0.016888 -0.008972 -0.001251 0.001974
# 4 -0.004044 0.002374 -0.008972 0.044547 -0.001634 -0.014947
# 5 -0.004580 -0.001110 -0.001251 -0.001634 0.027569 0.000065
# 6 -0.000143 -0.003074 0.001974 -0.014947 0.000065 0.024646
#
#
# Mechanical properties :
#
#
# Convention : Reuss Voigt Hill
#
# Bulk Modulus (GPa) = 32.04617 42.52036 37.28326
# Shear Modulus (GPa) = 32.06443 40.78961 36.42702
#
# Velocity S-wave (km/s) = 3.40326 3.83847 3.62740
# Velocity P-wave (km/s) = 5.19793 5.91643 5.56878
#
# Compressibility (1/GPa) = 0.03120498
#
# Stress axis : x y z
#
# Youngs Moduli (GPa) = 90.06497 83.35457 59.21200
#
# Poissons Ratio (x) = 0.22952 0.04261
# Poissons Ratio (y) = 0.24800 0.05439
# Poissons Ratio (z) = 0.06481 0.07657
#
# Static dielectric constant tensor:
#      x y z
#    x 2.325790 -0.029360 -0.077640 
#    y -0.029360 2.283150 -0.033410 
#    z -0.077640 -0.033410 2.195430 
# 
# From -- ./inp_files/243888.got.cif
#   From: 2010.05.17/outbox.cif.g08.bks.cpg/sg2_122_cif.got.tgz:243888.got - 2010.06.03 11:33:40.
