data_PCOD9111007
_publ_section_title
;
Structure prediction by ZEFSAII (Michael W. Deem and Ramdas Pophale) SiO2 
 PCOD9111007
Probable space group: P -1
;
_chemical_formula_sum "Si O2"
_cell_formula_units_Z 16
_cell_length_a 9.407773
_cell_length_b 13.739029
_cell_length_c 8.744337
_cell_angle_alpha 70.659978
_cell_angle_beta 134.613426
_cell_angle_gamma 117.326934
_cell_volume 714.714961
_symmetry_space_group_name_H-M "P -1"
_symmetry_group_IT_number 2
_symmetry_cell_setting 'triclinic'
loop_
_space_group_symop_operation_xyz
x,y,z
-x,-y,-z
loop_
_atom_site_type_symbol
_atom_site_label
_atom_site_fract_x
_atom_site_fract_y
_atom_site_fract_z
Si Si1 0.392027 0.579344 0.454689
Si Si2 0.735599 0.901730 0.284313
Si Si3 0.468773 0.513608 0.143899
Si Si4 0.692261 0.234118 0.871095
Si Si5 0.040142 0.838144 0.128781
Si Si6 0.927606 0.405656 0.191708
Si Si7 0.893341 0.712250 0.383126
Si Si8 0.087846 0.038848 0.280799
O O1 0.500000 0.500000 0.500000
O O2 0.501452 0.590291 0.695728
O O3 0.427105 0.690471 0.336840
O O4 0.143016 0.508913 0.300879
O O5 0.483074 0.845822 0.107901
O O6 0.861059 0.816219 0.389198
O O7 0.775488 0.937853 0.473031
O O8 0.848911 0.995554 0.197252
O O9 0.670352 0.617375 0.288245
O O10 0.500000 0.500000 0.000000
O O11 0.259138 0.543950 0.992193
O O12 0.776296 0.180843 0.823140
O O13 0.887732 0.316987 0.071131
O O14 0.938402 0.740878 0.223486
O O15 0.115452 0.943738 0.243039
O O16 0.891173 0.863109 0.872618
O O17 0.936613 0.334861 0.386224
#
# Coordination Sequence:
#
# PCOD9111007 Si02
#       8
#     2   2   2   2   2   2   2   2
#     4  11  24  42  62  94 133 168 217 260 307 372
#     4  10  20  42  68  89 125 170 209 255 324 393
#     4  11  25  39  62  91 131 178 206 261 319 365
#     4  12  23  38  65  98 123 167 218 261 307 379
#     4  10  23  39  63  96 124 162 209 271 322 370
#     4  11  23  42  64  90 133 176 213 253 313 378
#     4  10  22  42  63  93 130 167 221 251 310 387
#     4   9  21  44  65  88 127 168 198 270 335 374
#
# _framework density 22.386548999999999
#
# number of rings (size 3 to 8) (size 9 to 14) (size 15 to 20)
#    0.000    1.500    2.500    1.875    3.500    3.000 
#    0.000    0.000    0.000    0.000    0.000    0.000 
#    0.000    0.000    0.000    0.000    0.000    0.000 
#
# Total GULP energy -89298.696592 kJ/mol
# GULP energy per Si atom -5581.168537 kJ/mol
# Density = 2.233560 g / cm^3
# Si number density = 22.386549 Si / 1000 Ang^3
#
#
#
# Elastic Constant Matrix: (Units=GPa)
#
#
# Indices 1 2 3 4 5 6 
#
# 1 100.4912 24.6698 33.1764 -0.7868 -9.5454 -0.4592
# 2 24.6698 38.2084 16.6116 -3.3613 -1.6612 8.0739
# 3 33.1764 16.6116 96.4240 -11.4865 -9.9427 6.4996
# 4 -0.7868 -3.3613 -11.4865 23.7112 3.6404 -12.4017
# 5 -9.5454 -1.6612 -9.9427 3.6404 44.6664 -0.4309
# 6 -0.4592 8.0739 6.4996 -12.4017 -0.4309 36.9337
#
#
#
# Elastic Compliance Matrix: (Units=1/GPa)
#
#
# Indices 1 2 3 4 5 6 
#
# 1 0.013051 -0.007431 -0.003323 -0.001543 0.001917 0.001876
# 2 -0.007431 0.033656 -0.002921 -0.000446 -0.001019 -0.007097
# 3 -0.003323 -0.002921 0.012829 0.005566 0.001585 0.000227
# 4 -0.001543 -0.000446 0.005566 0.054321 -0.003368 0.017300
# 5 0.001917 -0.001019 0.001585 -0.003368 0.023379 -0.000891
# 6 0.001876 -0.007097 0.000227 0.017300 -0.000891 0.034409
#
#
# Mechanical properties :
#
#
# Convention : Reuss Voigt Hill
#
# Bulk Modulus (GPa) = 31.06930 42.67100 36.87015
# Shear Modulus (GPa) = 23.84100 31.77332 27.80716
#
# Velocity S-wave (km/s) = 3.26693 3.77145 3.52822
# Velocity P-wave (km/s) = 5.30463 6.16989 5.75355
#
# Compressibility (1/GPa) = 0.03218611
#
# Stress axis : x y z
#
# Youngs Moduli (GPa) = 76.62336 29.71219 77.95073
#
# Poissons Ratio (x) = 0.22078 0.25902
# Poissons Ratio (y) = 0.56935 0.22772
# Poissons Ratio (z) = 0.25461 0.08680
#
# Static dielectric constant tensor:
#      x y z
#    x 1.814950 0.004040 -0.000430 
#    y 0.004040 1.895650 0.017350 
#    z -0.000430 0.017350 1.794780 
# 
# From -- ./inp_files/141629.got.cif
#   From: 2010.05.17/outbox.cif.g08.bks.cpg/sg2_71_cif.got.tgz:141629.got - 2010.06.03 11:33:40.
