data_PCOD9111459
_publ_section_title
;
Structure prediction by ZEFSAII (Michael W. Deem and Ramdas Pophale) SiO2 
 PCOD9111459
Probable space group: P -1
;
_chemical_formula_sum "Si O2"
_cell_formula_units_Z 16
_cell_length_a 16.388406
_cell_length_b 8.803170
_cell_length_c 15.837172
_cell_angle_alpha 51.723429
_cell_angle_beta 24.996073
_cell_angle_gamma 47.428958
_cell_volume 710.861789
_symmetry_space_group_name_H-M "P -1"
_symmetry_group_IT_number 2
_symmetry_cell_setting 'triclinic'
loop_
_space_group_symop_operation_xyz
x,y,z
-x,-y,-z
loop_
_atom_site_type_symbol
_atom_site_label
_atom_site_fract_x
_atom_site_fract_y
_atom_site_fract_z
Si Si1 0.392340 0.929580 0.338287
Si Si2 0.416425 0.635741 0.163976
Si Si3 0.556227 0.686450 0.422784
Si Si4 0.868344 0.886062 0.045289
Si Si5 0.722598 0.665426 0.989501
Si Si6 0.627109 0.204382 0.025867
Si Si7 0.092774 0.807879 0.542463
Si Si8 0.724988 0.235976 0.196593
O O1 0.418008 0.880936 0.429837
O O2 0.206911 0.883080 0.484442
O O3 0.420669 0.147680 0.224897
O O4 0.594164 0.775036 0.154044
O O5 0.554202 0.412811 0.076567
O O6 0.260142 0.639591 0.384472
O O7 0.569485 0.737203 0.028462
O O8 0.302828 0.758371 0.145815
O O9 0.500000 0.500000 0.500000
O O10 0.493127 0.699206 0.574805
O O11 0.782908 0.696652 0.194270
O O12 0.792360 0.021753 0.985726
O O13 0.760548 0.043328 0.168501
O O14 0.106632 0.817859 0.867709
O O15 0.922888 0.721929 0.766736
O O16 0.759802 0.424110 0.049864
O O17 0.000000 0.000000 0.500000
#
# Coordination Sequence:
#
# PCOD9111459 Si02
#       8
#     2   2   2   2   2   2   2   2
#     4  10  23  41  62  90 125 161 203 253 307 364
#     4  10  22  41  67  88 124 161 206 254 307 366
#     4  11  23  40  63  91 124 161 205 251 307 363
#     4  10  24  42  63  90 126 164 204 254 304 369
#     4  11  22  41  65  89 126 164 205 252 305 366
#     4  10  20  43  64  90 124 162 200 260 312 355
#     4  11  24  41  64  94 122 165 208 249 307 369
#     4  11  23  42  63  92 123 165 208 250 308 366
#
# _framework density 22.507891000000001
#
# number of rings (size 3 to 8) (size 9 to 14) (size 15 to 20)
#    0.000    1.500    2.500    1.875    1.750    5.500 
#    9.000    6.875    0.000    0.000    0.000    0.000 
#    0.000    0.000    0.000    0.000    0.000    0.000 
#
# Total GULP energy -89423.082285 kJ/mol
# GULP energy per Si atom -5588.942643 kJ/mol
# Density = 2.245666 g / cm^3
# Si number density = 22.507891 Si / 1000 Ang^3
#
#
#
# Elastic Constant Matrix: (Units=GPa)
#
#
# Indices 1 2 3 4 5 6 
#
# 1 92.0034 12.4380 45.0977 -2.9202 -6.1188 -3.8072
# 2 12.4380 39.8208 6.3129 -15.5008 1.4556 6.9045
# 3 45.0977 6.3129 109.1138 -16.8999 -0.2605 2.1565
# 4 -2.9202 -15.5008 -16.8999 27.1267 0.0125 -1.2791
# 5 -6.1188 1.4556 -0.2605 0.0125 25.9201 -5.6018
# 6 -3.8072 6.9045 2.1565 -1.2791 -5.6018 37.4198
#
#
#
# Elastic Compliance Matrix: (Units=1/GPa)
#
#
# Indices 1 2 3 4 5 6 
#
# 1 0.015607 -0.007190 -0.007135 -0.006696 0.004845 0.003822
# 2 -0.007190 0.037111 0.004510 0.022873 -0.005448 -0.007873
# 3 -0.007135 0.004510 0.013455 0.010082 -0.002312 -0.002335
# 4 -0.006696 0.022873 0.010082 0.055301 -0.003686 -0.004144
# 5 0.004845 -0.005448 -0.002312 -0.003686 0.041682 0.007745
# 6 0.003822 -0.007873 -0.002335 -0.004144 0.007745 0.029718
#
#
# Mechanical properties :
#
#
# Convention : Reuss Voigt Hill
#
# Bulk Modulus (GPa) = 21.48601 40.95946 31.22274
# Shear Modulus (GPa) = 21.92804 29.89929 25.91367
#
# Velocity S-wave (km/s) = 3.12466 3.64866 3.39678
# Velocity P-wave (km/s) = 4.75234 5.99897 5.41167
#
# Compressibility (1/GPa) = 0.04654190
#
# Stress axis : x y z
#
# Youngs Moduli (GPa) = 64.07532 26.94619 74.32091
#
# Poissons Ratio (x) = 0.19374 0.53031
# Poissons Ratio (y) = 0.46068 -0.33516
# Poissons Ratio (z) = 0.45720 -0.12152
#
# Static dielectric constant tensor:
#      x y z
#    x 1.850600 -0.031910 0.010450 
#    y -0.031910 1.852510 -0.006320 
#    z 0.010450 -0.006320 1.841280 
# 
# From -- ./inp_files/68465.got.cif
#   From: 2010.05.17/outbox.cif.g08.bks.cpg/sg2_35_cif.got.tgz:68465.got - 2010.06.03 11:33:40.
