data_PCOD9111680
_publ_section_title
;
Structure prediction by ZEFSAII (Michael W. Deem and Ramdas Pophale) SiO2 
 PCOD9111680
Probable space group: P -1
;
_chemical_formula_sum "Si O2"
_cell_formula_units_Z 10
_cell_length_a 11.797158
_cell_length_b 12.015361
_cell_length_c 5.353739
_cell_angle_alpha 104.735329
_cell_angle_beta 50.387472
_cell_angle_gamma 134.971017
_cell_volume 385.849074
_symmetry_space_group_name_H-M "P -1"
_symmetry_group_IT_number 2
_symmetry_cell_setting 'triclinic'
loop_
_space_group_symop_operation_xyz
x,y,z
-x,-y,-z
loop_
_atom_site_type_symbol
_atom_site_label
_atom_site_fract_x
_atom_site_fract_y
_atom_site_fract_z
Si Si1 0.459599 0.614683 0.570933
Si Si2 0.014208 0.341733 0.209490
Si Si3 0.830014 0.653050 0.508087
Si Si4 0.462451 0.902903 0.249657
Si Si5 0.249096 0.144267 0.310370
O O1 0.500000 0.500000 0.500000
O O2 0.341985 0.544855 0.429029
O O3 0.667811 0.800600 0.483806
O O4 0.249613 0.536818 0.979949
O O5 0.789635 0.277700 0.479420
O O6 0.022067 0.281997 0.426739
O O7 0.033293 0.270180 0.898435
O O8 0.705514 0.699699 0.752381
O O9 0.500000 0.000000 0.500000
O O10 0.624029 0.888436 0.002999
O O11 0.500000 0.000000 0.000000
O O12 0.000000 0.000000 0.500000
#
# Coordination Sequence:
#
# PCOD9111680 Si02
#       5
#     2   2   2   2   2
#     4   8  20  39  68  97 130 165 215 268 322 379
#     4  10  20  43  68  93 134 168 212 264 328 378
#     4   9  21  42  70  96 129 164 218 266 319 386
#     4  12  27  45  64  96 137 173 212 273 325 379
#     4  11  22  42  68  98 129 174 220 262 324 387
#
# _framework density 25.916868000000001
#
# number of rings (size 3 to 8) (size 9 to 14) (size 15 to 20)
#    1.200    0.800    0.000    3.600    0.000    5.600 
#    3.600    5.000    0.000    0.000    0.000    0.000 
#    0.000    0.000    0.000    0.000    0.000    0.000 
#
# Total GULP energy -55723.891480 kJ/mol
# GULP energy per Si atom -5572.389148 kJ/mol
# Density = 2.585788 g / cm^3
# Si number density = 25.916868 Si / 1000 Ang^3
#
#
#
# Elastic Constant Matrix: (Units=GPa)
#
#
# Indices 1 2 3 4 5 6 
#
# 1 170.0759 65.7978 109.8380 18.7139 -25.2506 21.0593
# 2 65.7978 104.5998 73.5909 17.2943 -14.0161 30.4580
# 3 109.8380 73.5909 178.2642 29.1203 -34.4892 24.5243
# 4 18.7139 17.2943 29.1203 49.3898 8.3531 -12.8769
# 5 -25.2506 -14.0161 -34.4892 8.3531 67.7843 -1.4056
# 6 21.0593 30.4580 24.5243 -12.8769 -1.4056 39.9215
#
#
#
# Elastic Compliance Matrix: (Units=1/GPa)
#
#
# Indices 1 2 3 4 5 6 
#
# 1 0.010366 -0.002756 -0.005025 -0.000211 0.000754 -0.000320
# 2 -0.002756 0.018609 -0.002283 -0.008148 0.002376 -0.013886
# 3 -0.005025 -0.002283 0.012371 -0.006742 0.004673 -0.005217
# 4 -0.000211 -0.008148 -0.006742 0.034194 -0.008968 0.021183
# 5 0.000754 0.002376 0.004673 -0.008968 0.018856 -0.007310
# 6 -0.000320 -0.013886 -0.005217 0.021183 -0.007310 0.045592
#
#
# Mechanical properties :
#
#
# Convention : Reuss Voigt Hill
#
# Bulk Modulus (GPa) = 47.12925 105.71037 76.41981
# Shear Modulus (GPa) = 29.90603 45.00000 37.45302
#
# Velocity S-wave (km/s) = 3.40063 4.17144 3.80560
# Velocity P-wave (km/s) = 5.80028 8.00487 6.99004
#
# Compressibility (1/GPa) = 0.02121824
#
# Stress axis : x y z
#
# Youngs Moduli (GPa) = 96.46944 53.73714 80.83222
#
# Poissons Ratio (x) = 0.14812 0.40616
# Poissons Ratio (y) = 0.26591 0.18453
# Poissons Ratio (z) = 0.48473 0.12268
#
# Static dielectric constant tensor:
#      x y z
#    x 1.952960 -0.124970 0.061460 
#    y -0.124970 2.068070 -0.144960 
#    z 0.061460 -0.144960 2.102610 
# 
# From -- ./inp_files/71598.got.cif
#   From: 2010.05.17/outbox.cif.g08.bks.cpg/sg2_36_cif.got.tgz:71598.got - 2010.06.03 11:33:40.
