data_PCOD9111276
_publ_section_title
;
Structure prediction by ZEFSAII (Michael W. Deem and Ramdas Pophale) SiO2 
 PCOD9111276
Probable space group: P -1
;
_chemical_formula_sum "Si O2"
_cell_formula_units_Z 16
_cell_length_a 9.129320
_cell_length_b 12.260203
_cell_length_c 27.886580
_cell_angle_alpha 28.005779
_cell_angle_beta 152.177392
_cell_angle_gamma 146.292944
_cell_volume 665.241725
_symmetry_space_group_name_H-M "P -1"
_symmetry_group_IT_number 2
_symmetry_cell_setting 'triclinic'
loop_
_space_group_symop_operation_xyz
x,y,z
-x,-y,-z
loop_
_atom_site_type_symbol
_atom_site_label
_atom_site_fract_x
_atom_site_fract_y
_atom_site_fract_z
Si Si1 0.100197 0.934800 0.002082
Si Si2 0.553688 0.239976 0.180980
Si Si3 0.557002 0.719695 0.695007
Si Si4 0.098448 0.166858 0.528575
Si Si5 0.178556 0.237373 0.823618
Si Si6 0.213229 0.490401 0.245245
Si Si7 0.906491 0.755874 0.872437
Si Si8 0.355558 0.496268 0.395468
O O1 0.766371 0.836719 0.914026
O O2 0.293818 0.149650 0.941790
O O3 0.303296 0.740085 0.146504
O O4 0.000000 0.000000 0.000000
O O5 0.432463 0.298442 0.175150
O O6 0.824522 0.440342 0.156574
O O7 0.753440 0.040225 0.326893
O O8 0.401425 0.457062 0.774949
O O9 0.672924 0.694179 0.684819
O O10 0.850656 0.821342 0.776238
O O11 0.278998 0.862859 0.562816
O O12 0.212250 0.242902 0.477743
O O13 0.282713 0.399485 0.522262
O O14 0.864189 0.333571 0.711768
O O15 0.098929 0.995387 0.862535
O O16 0.334683 0.496929 0.332165
O O17 0.000000 0.500000 0.000000
#
# Coordination Sequence:
#
# PCOD9111276 Si02
#       8
#     2   2   2   2   2   2   2   2
#     4  11  21  39  69  96 126 172 228 280 335 397
#     4  11  23  44  68  99 134 178 225 280 341 405
#     4  11  26  44  66 104 141 179 227 281 341 403
#     4  10  21  43  72  96 129 180 231 276 334 411
#     4  10  21  46  68  98 134 182 227 274 344 401
#     4  12  25  42  63 103 141 176 223 282 344 405
#     4  11  24  43  68  98 133 176 230 278 333 407
#     4  10  20  42  71  99 127 173 238 276 333 409
#
# _framework density 24.051409
#
# number of rings (size 3 to 8) (size 9 to 14) (size 15 to 20)
#    0.000    1.250    3.750    3.375    0.000    5.000 
#    4.500    0.000    0.000    0.000    0.000    0.000 
#    0.000    0.000    0.000    0.000    0.000    0.000 
#
# Total GULP energy -89482.790194 kJ/mol
# GULP energy per Si atom -5592.674387 kJ/mol
# Density = 2.399667 g / cm^3
# Si number density = 24.051409 Si / 1000 Ang^3
#
#
#
# Elastic Constant Matrix: (Units=GPa)
#
#
# Indices 1 2 3 4 5 6 
#
# 1 128.9473 20.5479 46.9469 2.6940 -7.3840 -32.2034
# 2 20.5479 63.2093 19.2512 -8.1312 -12.7128 -15.6871
# 3 46.9469 19.2512 109.3839 1.6786 -25.8228 -26.7098
# 4 2.6940 -8.1312 1.6786 35.7915 -2.5979 -8.5118
# 5 -7.3840 -12.7128 -25.8228 -2.5979 43.0809 -2.8114
# 6 -32.2034 -15.6871 -26.7098 -8.5118 -2.8114 43.0426
#
#
#
# Elastic Compliance Matrix: (Units=1/GPa)
#
#
# Indices 1 2 3 4 5 6 
#
# 1 0.010385 -0.000973 -0.002838 0.000517 0.000199 0.005769
# 2 -0.000973 0.020649 0.000639 0.007443 0.007355 0.009147
# 3 -0.002838 0.000639 0.014267 0.002236 0.008910 0.007987
# 4 0.000517 0.007443 0.002236 0.032648 0.006335 0.011357
# 5 0.000199 0.007355 0.008910 0.006335 0.031903 0.011695
# 6 0.005769 0.009147 0.007987 0.011357 0.011695 0.038849
#
#
# Mechanical properties :
#
#
# Convention : Reuss Voigt Hill
#
# Bulk Modulus (GPa) = 25.66933 52.78137 39.22535
# Shear Modulus (GPa) = 29.75667 38.70266 34.22966
#
# Velocity S-wave (km/s) = 3.52122 4.01579 3.77661
# Velocity P-wave (km/s) = 5.21803 6.59507 5.94654
#
# Compressibility (1/GPa) = 0.03895699
#
# Stress axis : x y z
#
# Youngs Moduli (GPa) = 96.29421 48.42848 70.09129
#
# Poissons Ratio (x) = 0.04713 0.19892
# Poissons Ratio (y) = 0.09371 -0.04480
# Poissons Ratio (z) = 0.27328 -0.03096
#
# Static dielectric constant tensor:
#      x y z
#    x 1.902600 0.017170 0.001850 
#    y 0.017170 2.039960 -0.012700 
#    z 0.001850 -0.012700 1.952550 
# 
# From -- ./inp_files/617040.got.cif
#   From: 2010.05.17/outbox.cif.g08.bks.cpg/sg2_309_cif.got.tgz:617040.got - 2010.06.03 11:33:40.
