data_PCOD9111305
_publ_section_title
;
Structure prediction by ZEFSAII (Michael W. Deem and Ramdas Pophale) SiO2 
 PCOD9111305
Probable space group: P -1
;
_chemical_formula_sum "Si O2"
_cell_formula_units_Z 16
_cell_length_a 18.275060
_cell_length_b 18.309322
_cell_length_c 9.859393
_cell_angle_alpha 133.870613
_cell_angle_beta 45.194997
_cell_angle_gamma 160.360641
_cell_volume 780.721035
_symmetry_space_group_name_H-M "P -1"
_symmetry_group_IT_number 2
_symmetry_cell_setting 'triclinic'
loop_
_space_group_symop_operation_xyz
x,y,z
-x,-y,-z
loop_
_atom_site_type_symbol
_atom_site_label
_atom_site_fract_x
_atom_site_fract_y
_atom_site_fract_z
Si Si1 0.476990 0.746096 0.795143
Si Si2 0.101409 0.962835 0.551737
Si Si3 0.152687 0.728262 0.551908
Si Si4 0.545190 0.626490 0.212212
Si Si5 0.329422 0.402984 0.494230
Si Si6 0.451448 0.027734 0.807816
Si Si7 0.783215 0.330615 0.154506
Si Si8 0.857479 0.583691 0.565543
O O1 0.314626 0.507587 0.695632
O O2 0.383178 0.752641 0.830785
O O3 0.701652 0.903109 0.631339
O O4 0.502827 0.819294 0.002011
O O5 0.915903 0.850492 0.550609
O O6 0.985740 0.768342 0.530504
O O7 0.209647 0.124079 0.739381
O O8 0.298414 0.889584 0.697252
O O9 0.000000 0.500000 0.500000
O O10 0.001907 0.689775 0.646851
O O11 0.324073 0.837461 0.352737
O O12 0.447378 0.503415 0.323861
O O13 0.389877 0.585569 0.315980
O O14 0.500000 0.500000 0.000000
O O15 0.500000 0.500000 0.500000
O O16 0.324051 0.859938 0.880403
O O17 0.839671 0.456973 0.363356
O O18 0.000000 0.500000 0.000000
#
# Coordination Sequence:
#
# PCOD9111305 Si02
#       8
#     2   2   2   2   2   2   2   2
#     4  11  22  40  62  97 124 165 218 264 325 397
#     4  10  20  42  72  84 133 160 211 272 333 380
#     4  11  24  42  60  86 138 176 212 266 317 394
#     4  10  23  43  64  96 122 164 224 269 322 396
#     4  10  23  43  64  95 128 165 211 271 335 394
#     4  11  25  39  61  95 131 174 222 259 335 386
#     4  12  21  38  66  95 130 169 221 275 321 388
#     4  11  21  40  64  91 123 173 212 264 321 384
#
# _framework density 20.493874999999999
#
# number of rings (size 3 to 8) (size 9 to 14) (size 15 to 20)
#    0.000    1.250    5.000    2.625    0.000    4.000 
#    9.000    0.000    0.000    0.000    0.000    0.000 
#    0.000    0.000    0.000    0.000    0.000    0.000 
#
# Total GULP energy -89293.213251 kJ/mol
# GULP energy per Si atom -5580.825828 kJ/mol
# Density = 2.044723 g / cm^3
# Si number density = 20.493875 Si / 1000 Ang^3
#
#
#
# Elastic Constant Matrix: (Units=GPa)
#
#
# Indices 1 2 3 4 5 6 
#
# 1 119.3918 32.8224 28.7941 2.5836 12.9376 34.5943
# 2 32.8224 87.8674 30.4624 12.5421 3.6264 24.8738
# 3 28.7941 30.4624 119.1706 31.2192 4.7071 11.0890
# 4 2.5836 12.5421 31.2192 35.9956 1.8974 9.6600
# 5 12.9376 3.6264 4.7071 1.8974 15.9152 4.3785
# 6 34.5943 24.8738 11.0890 9.6600 4.3785 36.3472
#
#
#
# Elastic Compliance Matrix: (Units=1/GPa)
#
#
# Indices 1 2 3 4 5 6 
#
# 1 0.013498 -0.001162 -0.003058 0.005621 -0.007243 -0.011740
# 2 -0.001162 0.015178 -0.002668 -0.000680 0.000658 -0.008365
# 3 -0.003058 -0.002668 0.012206 -0.010447 -0.000324 0.003829
# 4 0.005621 -0.000680 -0.010447 0.040044 -0.002796 -0.012003
# 5 -0.007243 0.000658 -0.000324 -0.002796 0.069293 -0.001061
# 6 -0.011740 -0.008365 0.003829 -0.012003 -0.001061 0.046561
#
#
# Mechanical properties :
#
#
# Convention : Reuss Voigt Hill
#
# Bulk Modulus (GPa) = 36.89413 56.73197 46.81305
# Shear Modulus (GPa) = 22.76961 33.27500 28.02230
#
# Velocity S-wave (km/s) = 3.33685 4.03383 3.70178
# Velocity P-wave (km/s) = 5.73478 7.03123 6.41584
#
# Compressibility (1/GPa) = 0.02710459
#
# Stress axis : x y z
#
# Youngs Moduli (GPa) = 74.08638 65.88515 81.92827
#
# Poissons Ratio (x) = 0.07654 0.25057
# Poissons Ratio (y) = 0.08606 0.21862
# Poissons Ratio (z) = 0.22658 0.17581
#
# Static dielectric constant tensor:
#      x y z
#    x 1.762430 0.024320 0.006460 
#    y 0.024320 1.820650 0.039270 
#    z 0.006460 0.039270 1.720320 
# 
# From -- ./inp_files/336762.got.cif
#   From: 2010.05.17/outbox.cif.g08.bks.cpg/sg2_169_cif.got.tgz:336762.got - 2010.06.03 11:33:40.
