data_PCOD9111887
_publ_section_title
;
Structure prediction by ZEFSAII (Michael W. Deem and Ramdas Pophale) SiO2 
 PCOD9111887
Probable space group: P -1
;
_chemical_formula_sum "Si O2"
_cell_formula_units_Z 16
_cell_length_a 22.055685
_cell_length_b 16.050411
_cell_length_c 9.559495
_cell_angle_alpha 46.756363
_cell_angle_beta 47.166704
_cell_angle_gamma 17.795357
_cell_volume 747.599417
_symmetry_space_group_name_H-M "P -1"
_symmetry_group_IT_number 2
_symmetry_cell_setting 'triclinic'
loop_
_space_group_symop_operation_xyz
x,y,z
-x,-y,-z
loop_
_atom_site_type_symbol
_atom_site_label
_atom_site_fract_x
_atom_site_fract_y
_atom_site_fract_z
Si Si1 0.362671 0.993742 0.192567
Si Si2 0.446172 0.658141 0.282357
Si Si3 0.006781 0.207844 0.963248
Si Si4 0.636591 0.618601 0.564795
Si Si5 0.237730 0.394277 0.855749
Si Si6 0.194373 0.175862 0.547089
Si Si7 0.793079 0.331275 0.946152
Si Si8 0.813217 0.181745 0.666518
O O1 0.392639 0.846016 0.220239
O O2 0.568012 0.787217 0.172300
O O3 0.233537 0.121971 0.382530
O O4 0.268052 0.220852 0.000363
O O5 0.500000 0.500000 0.500000
O O6 0.273099 0.814045 0.289686
O O7 0.626353 0.457085 0.125041
O O8 0.144654 0.117389 0.762033
O O9 0.828565 0.388786 0.936036
O O10 0.929244 0.368324 0.039940
O O11 0.116520 0.957547 0.136446
O O12 0.774553 0.534409 0.360244
O O13 0.721689 0.477300 0.744788
O O14 0.652578 0.482675 0.602234
O O15 0.405725 0.950023 0.543710
O O16 0.000000 0.500000 0.500000
O O17 0.000000 0.000000 0.000000
O O18 0.000000 0.000000 0.500000
#
# Coordination Sequence:
#
# PCOD9111887 Si02
#       8
#     2   2   2   2   2   2   2   2
#     4  10  22  42  70 101 141 188 241 291 366 431
#     4  12  26  43  71 108 144 189 246 306 367 439
#     4  12  23  43  71 100 144 190 235 299 368 430
#     4  11  25  44  72 107 143 192 245 300 367 437
#     4  10  20  43  73  97 138 196 234 289 363 445
#     4  11  24  43  71 104 142 191 240 298 362 434
#     4  12  27  44  69 111 149 185 244 309 371 429
#     4  12  25  43  72 104 146 188 246 297 373 439
#
# _framework density 21.401835999999999
#
# number of rings (size 3 to 8) (size 9 to 14) (size 15 to 20)
#    0.000    0.750    5.000    3.000    3.500    1.000 
#    0.000    4.375    0.000    0.000    0.000    0.000 
#    0.000    0.000    0.000    0.000    0.000    0.000 
#
# Total GULP energy -89448.022492 kJ/mol
# GULP energy per Si atom -5590.501406 kJ/mol
# Density = 2.135312 g / cm^3
# Si number density = 21.401836 Si / 1000 Ang^3
#
#
#
# Elastic Constant Matrix: (Units=GPa)
#
#
# Indices 1 2 3 4 5 6 
#
# 1 103.3383 40.2991 57.0883 -3.5208 2.4081 -0.5378
# 2 40.2991 113.0994 52.4664 1.8621 4.8124 13.5095
# 3 57.0883 52.4664 208.4452 5.9496 2.6836 3.3622
# 4 -3.5208 1.8621 5.9496 43.9493 -5.2757 -9.3217
# 5 2.4081 4.8124 2.6836 -5.2757 32.3883 -5.7464
# 6 -0.5378 13.5095 3.3622 -9.3217 -5.7464 28.1468
#
#
#
# Elastic Compliance Matrix: (Units=1/GPa)
#
#
# Indices 1 2 3 4 5 6 
#
# 1 0.012688 -0.003753 -0.002660 0.002331 0.000799 0.003297
# 2 -0.003753 0.012010 -0.001774 -0.002423 -0.003002 -0.007040
# 3 -0.002660 -0.001774 0.006011 -0.001051 -0.000265 -0.000320
# 4 0.002331 -0.002423 -0.001051 0.026401 0.006601 0.011424
# 5 0.000799 -0.003002 -0.000265 0.006601 0.034252 0.010667
# 6 0.003297 -0.007040 -0.000320 0.011424 0.010667 0.044969
#
#
# Mechanical properties :
#
#
# Convention : Reuss Voigt Hill
#
# Bulk Modulus (GPa) = 69.75799 80.51005 75.13402
# Shear Modulus (GPa) = 31.74926 39.23216 35.49071
#
# Velocity S-wave (km/s) = 3.85578 4.28614 4.07664
# Velocity P-wave (km/s) = 7.24485 7.88636 7.57240
#
# Compressibility (1/GPa) = 0.01433528
#
# Stress axis : x y z
#
# Youngs Moduli (GPa) = 78.81379 83.26091 166.35949
#
# Poissons Ratio (x) = 0.31248 0.44257
# Poissons Ratio (y) = 0.29579 0.29510
# Poissons Ratio (z) = 0.20967 0.14769
#
# Static dielectric constant tensor:
#      x y z
#    x 1.803200 -0.006560 0.039530 
#    y -0.006560 1.815610 -0.002880 
#    z 0.039530 -0.002880 1.763420 
# 
# From -- ./inp_files/347505.got.cif
#   From: 2010.05.17/outbox.cif.g08.bks.cpg/sg2_174_cif.got.tgz:347505.got - 2010.06.03 11:33:40.
