data_PCOD9111092
_publ_section_title
;
Structure prediction by ZEFSAII (Michael W. Deem and Ramdas Pophale) SiO2 
 PCOD9111092
Probable space group: P -1
;
_chemical_formula_sum "Si O2"
_cell_formula_units_Z 14
_cell_length_a 24.208765
_cell_length_b 6.300429
_cell_length_c 5.357719
_cell_angle_alpha 109.377460
_cell_angle_beta 109.634664
_cell_angle_gamma 42.696291
_cell_volume 517.300798
_symmetry_space_group_name_H-M "P -1"
_symmetry_group_IT_number 2
_symmetry_cell_setting 'triclinic'
loop_
_space_group_symop_operation_xyz
x,y,z
-x,-y,-z
loop_
_atom_site_type_symbol
_atom_site_label
_atom_site_fract_x
_atom_site_fract_y
_atom_site_fract_z
Si Si1 0.989679 0.176788 0.801922
Si Si2 0.562576 0.531192 0.049265
Si Si3 0.256485 0.981191 0.668495
Si Si4 0.857482 0.995309 0.233393
Si Si5 0.457193 0.164020 0.292222
Si Si6 0.720961 0.505432 0.843006
Si Si7 0.816833 0.538899 0.668903
O O1 0.893391 0.502881 0.784546
O O2 0.061055 0.170757 0.869153
O O3 0.000000 0.000000 0.500000
O O4 0.000000 0.000000 0.000000
O O5 0.657638 0.231984 0.141437
O O6 0.537464 0.778477 0.360102
O O7 0.500000 0.500000 0.000000
O O8 0.566984 0.531118 0.748563
O O9 0.167620 0.168978 0.735896
O O10 0.270255 0.710915 0.434372
O O11 0.243465 0.212378 0.539144
O O12 0.857849 0.191513 0.518557
O O13 0.774878 0.269521 0.059003
O O14 0.376304 0.222970 0.163944
O O15 0.500000 0.000000 0.000000
O O16 0.764128 0.617155 0.860261
#
# Coordination Sequence:
#
# PCOD9111092 Si02
#       7
#     2   2   2   2   2   2   2
#     4  10  20  42  68  99 132 175 224 267 331 399
#     4  11  26  40  61  89 125 161 211 265 314 386
#     4  11  24  41  59  98 125 159 215 265 318 384
#     4  10  22  42  66  86 132 169 206 260 323 384
#     4  11  24  43  61  86 123 166 206 258 326 376
#     4  11  22  41  63  90 125 166 206 263 317 386
#     4  10  24  39  67  93 127 166 210 262 324 383
#
# _framework density 27.063561
#
# number of rings (size 3 to 8) (size 9 to 14) (size 15 to 20)
#    0.000    1.429    4.286    0.000    4.000    3.429 
#    0.000    0.714    0.000    0.000    0.000    0.000 
#    0.000    0.000    0.000    0.000    0.000    0.000 
#
# Total GULP energy -78104.580570 kJ/mol
# GULP energy per Si atom -5578.898612 kJ/mol
# Density = 2.700196 g / cm^3
# Si number density = 27.063561 Si / 1000 Ang^3
#
#
#
# Elastic Constant Matrix: (Units=GPa)
#
#
# Indices 1 2 3 4 5 6 
#
# 1 207.9461 12.6624 40.2370 -4.9662 -0.8026 -4.9483
# 2 12.6624 53.4579 31.3389 10.4524 -10.4015 -22.1780
# 3 40.2370 31.3389 149.1250 -33.5718 -7.4343 1.9724
# 4 -4.9662 10.4524 -33.5718 66.2479 6.3490 -5.5682
# 5 -0.8026 -10.4015 -7.4343 6.3490 56.4774 -1.7805
# 6 -4.9483 -22.1780 1.9724 -5.5682 -1.7805 51.3652
#
#
#
# Elastic Compliance Matrix: (Units=1/GPa)
#
#
# Indices 1 2 3 4 5 6 
#
# 1 0.005096 -0.000167 -0.001409 -0.000259 -0.000101 0.000441
# 2 -0.000167 0.032418 -0.008655 -0.008974 0.006265 0.013558
# 3 -0.001409 -0.008655 0.010314 0.006285 -0.001077 -0.003625
# 4 -0.000259 -0.008974 0.006285 0.019799 -0.003121 -0.002103
# 5 -0.000101 0.006265 -0.001077 -0.003121 0.019164 0.003063
# 6 0.000441 0.013558 -0.003625 -0.002103 0.003063 0.025382
#
#
# Mechanical properties :
#
#
# Convention : Reuss Voigt Hill
#
# Bulk Modulus (GPa) = 36.54154 64.33394 50.43774
# Shear Modulus (GPa) = 35.27160 56.57079 45.92120
#
# Velocity S-wave (km/s) = 3.61402 4.57693 4.12368
# Velocity P-wave (km/s) = 5.56294 7.19403 6.43041
#
# Compressibility (1/GPa) = 0.02736611
#
# Stress axis : x y z
#
# Youngs Moduli (GPa) = 196.24511 30.84689 96.95500
#
# Poissons Ratio (x) = 0.00515 0.13661
# Poissons Ratio (y) = 0.03274 0.83915
# Poissons Ratio (z) = 0.27651 0.26698
#
# Static dielectric constant tensor:
#      x y z
#    x 2.111830 0.045040 0.036840 
#    y 0.045040 2.257380 0.525620 
#    z 0.036840 0.525620 2.433780 
# 
# From -- ./inp_files/12642.got.cif
#   From: 2010.05.17/outbox.cif.g08.bks.cpg/sg2_7_cif.got.tgz:12642.got - 2010.06.03 11:33:40.
