data_PCOD9111094
_publ_section_title
;
Structure prediction by ZEFSAII (Michael W. Deem and Ramdas Pophale) SiO2 
 PCOD9111094
Probable space group: P -1
;
_chemical_formula_sum "Si O2"
_cell_formula_units_Z 14
_cell_length_a 8.022040
_cell_length_b 17.092430
_cell_length_c 5.967758
_cell_angle_alpha 74.909750
_cell_angle_beta 56.766460
_cell_angle_gamma 65.345283
_cell_volume 621.505038
_symmetry_space_group_name_H-M "P -1"
_symmetry_group_IT_number 2
_symmetry_cell_setting 'triclinic'
loop_
_space_group_symop_operation_xyz
x,y,z
-x,-y,-z
loop_
_atom_site_type_symbol
_atom_site_label
_atom_site_fract_x
_atom_site_fract_y
_atom_site_fract_z
Si Si1 0.524102 0.725863 0.867234
Si Si2 0.838389 0.759603 0.951449
Si Si3 0.684640 0.531335 0.759989
Si Si4 0.908063 0.983561 0.326750
Si Si5 0.156253 0.801962 0.387422
Si Si6 0.529932 0.141382 0.588115
Si Si7 0.912494 0.569135 0.206159
O O1 0.682354 0.761765 0.859892
O O2 0.647893 0.624794 0.823656
O O3 0.477259 0.783887 0.637924
O O4 0.300920 0.737725 0.145786
O O5 0.055290 0.763413 0.688525
O O6 0.705639 0.837142 0.154993
O O7 0.868220 0.667733 0.108892
O O8 0.707360 0.551732 0.468293
O O9 0.900616 0.457984 0.728624
O O10 0.500000 0.500000 0.000000
O O11 0.964579 0.880982 0.368325
O O12 0.664907 0.047507 0.465595
O O13 0.000000 0.000000 0.500000
O O14 0.000000 0.000000 0.000000
O O15 0.324335 0.842297 0.334000
O O16 0.000000 0.500000 0.000000
#
# Coordination Sequence:
#
# PCOD9111094 Si02
#       7
#     2   2   2   2   2   2   2
#     4  11  22  41  60  93 126 161 209 271 317 384
#     4  11  24  41  62  94 127 165 215 265 325 390
#     4  11  26  40  63  91 121 166 215 259 328 390
#     4  10  20  42  68  99 136 176 224 277 335 396
#     4  10  24  39  67  93 122 174 213 258 334 393
#     4  10  22  42  65  88 135 164 211 269 321 384
#     4  11  24  43  58  87 128 160 203 272 317 376
#
# _framework density 22.525960999999999
#
# number of rings (size 3 to 8) (size 9 to 14) (size 15 to 20)
#    0.000    1.429    4.286    0.000    4.000    2.286 
#    0.000    0.714    0.000    0.000    0.000    0.000 
#    0.000    0.000    0.000    0.000    0.000    0.000 
#
# Total GULP energy -78034.577246 kJ/mol
# GULP energy per Si atom -5573.898375 kJ/mol
# Density = 2.247469 g / cm^3
# Si number density = 22.525961 Si / 1000 Ang^3
#
#
#
# Elastic Constant Matrix: (Units=GPa)
#
#
# Indices 1 2 3 4 5 6 
#
# 1 22.5212 4.3364 0.7484 -0.3887 -1.0087 2.9071
# 2 4.3364 75.9538 11.8689 12.6702 8.9536 -30.1736
# 3 0.7484 11.8689 132.8434 14.5185 -15.5501 0.3047
# 4 -0.3887 12.6702 14.5185 44.2836 -3.9452 2.2889
# 5 -1.0087 8.9536 -15.5501 -3.9452 28.5933 -3.5800
# 6 2.9071 -30.1736 0.3047 2.2889 -3.5800 21.4186
#
#
#
# Elastic Compliance Matrix: (Units=1/GPa)
#
#
# Indices 1 2 3 4 5 6 
#
# 1 0.052205 -0.017588 0.001146 0.007203 0.004983 -0.031816
# 2 -0.017588 0.044467 -0.003503 -0.016027 -0.010518 0.065034
# 3 0.001146 -0.003503 0.008565 -0.001121 0.005110 -0.004238
# 4 0.007203 -0.016027 -0.001121 0.029420 0.005496 -0.025765
# 5 0.004983 -0.010518 0.005110 0.005496 0.040811 -0.009333
# 6 -0.031816 0.065034 -0.004238 -0.025765 -0.009333 0.143879
#
#
# Mechanical properties :
#
#
# Convention : Reuss Voigt Hill
#
# Bulk Modulus (GPa) = 15.30268 29.46953 22.38610
# Shear Modulus (GPa) = 13.12276 33.15007 23.13642
#
# Velocity S-wave (km/s) = 2.41625 3.84036 3.20832
# Velocity P-wave (km/s) = 3.82001 5.72497 4.86661
#
# Compressibility (1/GPa) = 0.06534801
#
# Stress axis : x y z
#
# Youngs Moduli (GPa) = 19.15512 22.48878 116.76061
#
# Poissons Ratio (x) = 0.39553 -0.13385
# Poissons Ratio (y) = 0.33690 0.40896
# Poissons Ratio (z) = -0.02196 0.07877
#
# Static dielectric constant tensor:
#      x y z
#    x 2.271000 -0.422320 0.242120 
#    y -0.422320 2.267850 -0.183210 
#    z 0.242120 -0.183210 2.051940 
# 
# From -- ./inp_files/7594.got.cif
#   From: 2010.05.17/outbox.cif.g08.bks.cpg/sg2_4_cif.got.tgz:7594.got - 2010.06.03 11:33:40.
