data_PCOD9111464
_publ_section_title
;
Structure prediction by ZEFSAII (Michael W. Deem and Ramdas Pophale) SiO2 
 PCOD9111464
Probable space group: P -1
;
_chemical_formula_sum "Si O2"
_cell_formula_units_Z 16
_cell_length_a 11.636656
_cell_length_b 8.817666
_cell_length_c 17.326890
_cell_angle_alpha 98.649209
_cell_angle_beta 137.216070
_cell_angle_gamma 50.360125
_cell_volume 738.571507
_symmetry_space_group_name_H-M "P -1"
_symmetry_group_IT_number 2
_symmetry_cell_setting 'triclinic'
loop_
_space_group_symop_operation_xyz
x,y,z
-x,-y,-z
loop_
_atom_site_type_symbol
_atom_site_label
_atom_site_fract_x
_atom_site_fract_y
_atom_site_fract_z
Si Si1 0.543919 0.898992 0.631624
Si Si2 0.643664 0.390782 0.341636
Si Si3 0.527944 0.471583 0.113934
Si Si4 0.746712 0.098561 0.077103
Si Si5 0.368083 0.131210 0.861332
Si Si6 0.046304 0.302660 0.298265
Si Si7 0.330458 0.555288 0.349404
Si Si8 0.234163 0.057180 0.638003
O O1 0.792599 0.821713 0.713518
O O2 0.629610 0.657180 0.650277
O O3 0.284830 0.113967 0.464676
O O4 0.430520 0.003370 0.670001
O O5 0.526412 0.485853 0.205434
O O6 0.440391 0.555100 0.325168
O O7 0.912360 0.304583 0.479133
O O8 0.722016 0.155061 0.368023
O O9 0.562577 0.282752 0.074435
O O10 0.805307 0.361195 0.212653
O O11 0.265058 0.741171 0.968510
O O12 0.606238 0.077878 0.948634
O O13 0.020078 0.832128 0.224182
O O14 0.308259 0.049787 0.760809
O O15 0.097501 0.428406 0.754957
O O16 0.500000 0.000000 0.000000
O O17 0.500000 0.500000 0.500000
#
# Coordination Sequence:
#
# PCOD9111464 Si02
#       8
#     2   2   2   2   2   2   2   2
#     4  10  21  40  60  91 128 158 211 253 313 365
#     4  10  22  39  66  93 125 164 208 263 307 361
#     4  10  20  43  64  91 127 164 210 249 314 378
#     4  10  23  40  63  92 126 168 206 253 312 379
#     4  11  23  39  62  92 127 167 210 255 312 377
#     4  10  21  38  62  90 124 166 202 256 312 366
#     4  11  24  39  65  95 123 161 211 266 308 367
#     4  10  22  40  63  95 125 165 209 258 309 368
#
# _framework density 21.663442
#
# number of rings (size 3 to 8) (size 9 to 14) (size 15 to 20)
#    0.000    1.750    1.250    2.250    7.000    1.000 
#    0.000    9.375    0.000    0.000    0.000    0.000 
#    0.000    0.000    0.000    0.000    0.000    0.000 
#
# Total GULP energy -89162.078738 kJ/mol
# GULP energy per Si atom -5572.629921 kJ/mol
# Density = 2.161413 g / cm^3
# Si number density = 21.663442 Si / 1000 Ang^3
#
#
#
# Elastic Constant Matrix: (Units=GPa)
#
#
# Indices 1 2 3 4 5 6 
#
# 1 103.7606 4.7754 14.3257 6.0375 -18.4931 -16.2347
# 2 4.7754 45.1491 26.6892 -5.0305 -4.4570 -4.7120
# 3 14.3257 26.6892 90.8473 -12.5825 -20.9882 -1.2539
# 4 6.0375 -5.0305 -12.5825 42.9210 4.3414 -11.4454
# 5 -18.4931 -4.4570 -20.9882 4.3414 41.0231 6.7465
# 6 -16.2347 -4.7120 -1.2539 -11.4454 6.7465 19.9754
#
#
#
# Elastic Compliance Matrix: (Units=1/GPa)
#
#
# Indices 1 2 3 4 5 6 
#
# 1 0.011686 0.000653 -0.001139 0.000012 0.003365 0.008450
# 2 0.000653 0.028190 -0.008426 0.003632 -0.002938 0.009725
# 3 -0.001139 -0.008426 0.015491 0.002252 0.006740 -0.002927
# 4 0.000012 0.003632 0.002252 0.030210 -0.004931 0.019983
# 5 0.003365 -0.002938 0.006740 -0.004931 0.031345 -0.010947
# 6 0.008450 0.009725 -0.002927 0.019983 -0.010947 0.074187
#
#
# Mechanical properties :
#
#
# Convention : Reuss Voigt Hill
#
# Bulk Modulus (GPa) = 26.63612 36.81529 31.72570
# Shear Modulus (GPa) = 22.57866 33.71501 28.14683
#
# Velocity S-wave (km/s) = 3.23189 3.94929 3.60846
# Velocity P-wave (km/s) = 5.12337 6.15036 5.66020
#
# Compressibility (1/GPa) = 0.03754301
#
# Stress axis : x y z
#
# Youngs Moduli (GPa) = 85.57219 35.47307 64.55359
#
# Poissons Ratio (x) = -0.02315 0.07351
# Poissons Ratio (y) = -0.05584 0.54393
# Poissons Ratio (z) = 0.09744 0.29890
#
# Static dielectric constant tensor:
#      x y z
#    x 1.927840 0.091150 0.067430 
#    y 0.091150 1.854670 0.013930 
#    z 0.067430 0.013930 1.791180 
# 
# From -- ./inp_files/566790.got.cif
#   From: 2010.05.17/outbox.cif.g08.bks.cpg/sg2_284_cif.got.tgz:566790.got - 2010.06.03 11:33:40.
