data_PCOD9111169
_publ_section_title
;
Structure prediction by ZEFSAII (Michael W. Deem and Ramdas Pophale) SiO2 
 PCOD9111169
Probable space group: P -1
;
_chemical_formula_sum "Si O2"
_cell_formula_units_Z 16
_cell_length_a 8.670097
_cell_length_b 10.688834
_cell_length_c 17.534549
_cell_angle_alpha 125.083750
_cell_angle_beta 102.989948
_cell_angle_gamma 121.223786
_cell_volume 755.996813
_symmetry_space_group_name_H-M "P -1"
_symmetry_group_IT_number 2
_symmetry_cell_setting 'triclinic'
loop_
_space_group_symop_operation_xyz
x,y,z
-x,-y,-z
loop_
_atom_site_type_symbol
_atom_site_label
_atom_site_fract_x
_atom_site_fract_y
_atom_site_fract_z
Si Si1 0.563027 0.413633 0.145523
Si Si2 0.145079 0.281541 0.113829
Si Si3 0.053114 0.245230 0.878283
Si Si4 0.862771 0.305681 0.345904
Si Si5 0.382326 0.201642 0.880541
Si Si6 0.826011 0.169802 0.676059
Si Si7 0.724323 0.383259 0.637597
Si Si8 0.336282 0.052147 0.136550
O O1 0.410824 0.456275 0.154495
O O2 0.492636 0.270889 0.166159
O O3 0.884713 0.663796 0.263232
O O4 0.438895 0.240668 0.993373
O O5 0.228855 0.413931 0.250079
O O6 0.000000 0.000000 0.000000
O O7 0.913605 0.214722 0.033221
O O8 0.215079 0.226120 0.856181
O O9 0.868930 0.191134 0.778710
O O10 0.313164 0.555783 0.035133
O O11 0.853812 0.028280 0.845887
O O12 0.566791 0.137077 0.232175
O O13 0.000000 0.500000 0.500000
O O14 0.060637 0.479406 0.356621
O O15 0.800788 0.078104 0.268906
O O16 0.763632 0.286030 0.673621
O O17 0.575937 0.869714 0.517448
#
# Coordination Sequence:
#
# PCOD9111169 Si02
#       8
#     2   2   2   2   2   2   2   2
#     4  10  20  42  70 100 128 170 219 275 322 393
#     4  10  22  39  67 100 127 161 221 276 320 386
#     4  10  22  44  66 100 133 173 213 276 333 386
#     4  12  26  44  65  98 135 177 222 270 327 395
#     4  10  23  44  70  95 137 169 218 273 331 393
#     4  10  23  45  67  94 137 179 219 264 333 394
#     4  11  24  45  68  96 133 179 222 272 324 392
#     4  11  22  39  66 101 130 168 222 268 326 386
#
# _framework density 21.164111999999999
#
# number of rings (size 3 to 8) (size 9 to 14) (size 15 to 20)
#    0.000    1.500    2.500    2.250    5.250    2.000 
#    9.000    1.250    0.000    0.000    0.000    0.000 
#    0.000    0.000    0.000    0.000    0.000    0.000 
#
# Total GULP energy -89145.098289 kJ/mol
# GULP energy per Si atom -5571.568643 kJ/mol
# Density = 2.111594 g / cm^3
# Si number density = 21.164112 Si / 1000 Ang^3
#
#
#
# Elastic Constant Matrix: (Units=GPa)
#
#
# Indices 1 2 3 4 5 6 
#
# 1 35.0869 14.5623 29.0246 13.2616 6.0273 21.8689
# 2 14.5623 103.8679 24.0916 -5.8799 -4.6236 8.8037
# 3 29.0246 24.0916 106.0207 18.3827 -10.6894 4.3744
# 4 13.2616 -5.8799 18.3827 26.4210 4.1682 4.9087
# 5 6.0273 -4.6236 -10.6894 4.1682 37.7387 4.1510
# 6 21.8689 8.8037 4.3744 4.9087 4.1510 37.3789
#
#
#
# Elastic Compliance Matrix: (Units=1/GPa)
#
#
# Indices 1 2 3 4 5 6 
#
# 1 0.077309 -0.005528 -0.015975 -0.020068 -0.011133 -0.038187
# 2 -0.005528 0.011324 -0.002108 0.006641 0.000958 -0.000165
# 3 -0.015975 -0.002108 0.015616 -0.005835 0.006474 0.008063
# 4 -0.020068 0.006641 -0.005835 0.053290 -0.003993 0.004305
# 5 -0.011133 0.000958 0.006474 -0.003993 0.030373 0.002681
# 6 -0.038187 -0.000165 0.008063 0.004305 0.002681 0.047327
#
#
# Mechanical properties :
#
#
# Convention : Reuss Voigt Hill
#
# Bulk Modulus (GPa) = 17.53573 42.25915 29.89744
# Shear Modulus (GPa) = 16.58532 32.12752 24.35642
#
# Velocity S-wave (km/s) = 2.80242 3.90040 3.39608
# Velocity P-wave (km/s) = 4.33301 6.34783 5.43461
#
# Compressibility (1/GPa) = 0.05702641
#
# Stress axis : x y z
#
# Youngs Moduli (GPa) = 12.93508 88.30702 64.03509
#
# Poissons Ratio (x) = 0.48818 1.02299
# Poissons Ratio (y) = 0.07151 0.13498
# Poissons Ratio (z) = 0.20664 0.18614
#
# Static dielectric constant tensor:
#      x y z
#    x 1.825640 -0.029820 -0.003200 
#    y -0.029820 1.856560 -0.027360 
#    z -0.003200 -0.027360 1.755450 
# 
# From -- ./inp_files/559237.got.cif
#   From: 2010.05.17/outbox.cif.g08.bks.cpg/sg2_280_cif.got.tgz:559237.got - 2010.06.03 11:33:40.
