data_PCOD9111350
_publ_section_title
;
Structure prediction by ZEFSAII (Michael W. Deem and Ramdas Pophale) SiO2 
 PCOD9111350
Probable space group: P -1
;
_chemical_formula_sum "Si O2"
_cell_formula_units_Z 15
_cell_length_a 22.444726
_cell_length_b 9.008663
_cell_length_c 9.684172
_cell_angle_alpha 58.607302
_cell_angle_beta 27.915663
_cell_angle_gamma 50.844457
_cell_volume 707.152973
_symmetry_space_group_name_H-M "P -1"
_symmetry_group_IT_number 2
_symmetry_cell_setting 'triclinic'
loop_
_space_group_symop_operation_xyz
x,y,z
-x,-y,-z
loop_
_atom_site_type_symbol
_atom_site_label
_atom_site_fract_x
_atom_site_fract_y
_atom_site_fract_z
Si Si1 0.782278 0.931188 0.655376
Si Si2 0.001048 0.595170 0.805075
Si Si3 0.178462 0.047875 0.860344
Si Si4 0.648964 0.392707 0.323136
Si Si5 0.143291 0.413615 0.160754
Si Si6 0.436758 0.661204 0.168600
Si Si7 0.000000 0.000000 0.000000
Si Si8 0.705347 0.724326 0.666470
O O1 0.791846 0.813935 0.830889
O O2 0.714004 0.840249 0.726835
O O3 0.684723 0.156583 0.744113
O O4 0.932909 0.910377 0.303546
O O5 0.164622 0.487015 0.482107
O O6 0.906118 0.544754 0.915882
O O7 0.000000 0.500000 0.000000
O O8 0.927930 0.824132 0.866112
O O9 0.274720 0.822851 0.790428
O O10 0.270408 0.161115 0.569338
O O11 0.085777 0.059169 0.910561
O O12 0.500000 0.500000 0.500000
O O13 0.628472 0.381240 0.536844
O O14 0.750426 0.499490 0.051746
O O15 0.000000 0.500000 0.500000
O O16 0.500000 0.500000 0.000000
O O17 0.560761 0.710840 0.947398
#
# Coordination Sequence:
#
# PCOD9111350 Si02
#       8
#     2   2   2   2   2   2   1   2
#     4  11  23  44  75  97 141 188 234 291 360 432
#     4  10  24  42  73 107 140 185 240 300 359 430
#     4  10  23  40  74  97 142 183 239 292 358 418
#     4  12  28  47  71 105 149 191 241 296 362 431
#     4  12  26  46  74 109 144 189 241 298 364 428
#     4  12  28  44  71 103 139 192 245 296 352 439
#     4  10  20  42  74 102 126 186 236 286 362 422
#     4  10  21  42  69 100 137 184 238 285 361 425
#
# _framework density 21.211817
#
# number of rings (size 3 to 8) (size 9 to 14) (size 15 to 20)
#    0.000    1.067    4.000    2.000   11.200    1.067 
#    0.000    4.000    0.000    0.000    0.000    0.000 
#    0.000    0.000    0.000    0.000    0.000    0.000 
#
# Total GULP energy -83544.989304 kJ/mol
# GULP energy per Si atom -5569.665954 kJ/mol
# Density = 2.116354 g / cm^3
# Si number density = 21.211817 Si / 1000 Ang^3
#
#
#
# Elastic Constant Matrix: (Units=GPa)
#
#
# Indices 1 2 3 4 5 6 
#
# 1 76.3848 31.0159 24.6241 -0.6803 -4.9949 -10.6934
# 2 31.0159 136.0116 51.7429 15.5296 11.3349 -17.9741
# 3 24.6241 51.7429 79.0912 -20.7157 -15.8972 3.7628
# 4 -0.6803 15.5296 -20.7157 40.1846 15.0171 -1.9279
# 5 -4.9949 11.3349 -15.8972 15.0171 26.1272 1.3544
# 6 -10.6934 -17.9741 3.7628 -1.9279 1.3544 26.0726
#
#
#
# Elastic Compliance Matrix: (Units=1/GPa)
#
#
# Indices 1 2 3 4 5 6 
#
# 1 0.016033 -0.000541 -0.005366 -0.002349 0.001035 0.006750
# 2 -0.000541 0.019230 -0.018960 -0.011067 -0.014435 0.015703
# 3 -0.005366 -0.018960 0.036329 0.017380 0.020366 -0.020287
# 4 -0.002349 -0.011067 0.017380 0.040737 -0.008090 -0.007668
# 5 0.001035 -0.014435 0.020366 -0.008090 0.062622 -0.016317
# 6 0.006750 0.015703 -0.020287 -0.007668 -0.016317 0.055157
#
#
# Mechanical properties :
#
#
# Convention : Reuss Voigt Hill
#
# Bulk Modulus (GPa) = 45.74795 56.25037 50.99916
# Shear Modulus (GPa) = 17.41390 30.75053 24.08222
#
# Velocity S-wave (km/s) = 2.86834 3.81161 3.37311
# Velocity P-wave (km/s) = 5.70822 6.77843 6.26622
#
# Compressibility (1/GPa) = 0.02185890
#
# Stress axis : x y z
#
# Youngs Moduli (GPa) = 62.37235 52.00171 27.52621
#
# Poissons Ratio (x) = 0.02811 0.14772
# Poissons Ratio (y) = 0.03372 0.52189
# Poissons Ratio (z) = 0.33471 0.98593
#
# Static dielectric constant tensor:
#      x y z
#    x 1.726400 -0.024440 0.023570 
#    y -0.024440 1.844730 0.030390 
#    z 0.023570 0.030390 1.781350 
# 
# From -- ./inp_files/203012.got.cif
#   From: 2010.05.17/outbox.cif.g08.bks.cpg/sg2_102_cif.got.tgz:203012.got - 2010.06.03 11:33:40.
