data_PCOD9111161
_publ_section_title
;
Structure prediction by ZEFSAII (Michael W. Deem and Ramdas Pophale) SiO2 
 PCOD9111161
Probable space group: P -1
;
_chemical_formula_sum "Si O2"
_cell_formula_units_Z 14
_cell_length_a 8.485961
_cell_length_b 15.960937
_cell_length_c 8.143327
_cell_angle_alpha 33.733532
_cell_angle_beta 86.470867
_cell_angle_gamma 77.219929
_cell_volume 581.878293
_symmetry_space_group_name_H-M "P -1"
_symmetry_group_IT_number 2
_symmetry_cell_setting 'triclinic'
loop_
_space_group_symop_operation_xyz
x,y,z
-x,-y,-z
loop_
_atom_site_type_symbol
_atom_site_label
_atom_site_fract_x
_atom_site_fract_y
_atom_site_fract_z
Si Si1 0.811946 0.602038 0.883045
Si Si2 0.601217 0.430496 0.362601
Si Si3 0.797913 0.916656 0.514639
Si Si4 0.807505 0.704396 0.362363
Si Si5 0.973859 0.905608 0.843150
Si Si6 0.757682 0.409463 0.743940
Si Si7 0.538455 0.113384 0.951681
O O1 0.803411 0.735379 0.800869
O O2 0.756322 0.701353 0.558626
O O3 0.697615 0.495697 0.112623
O O4 0.000000 0.500000 0.000000
O O5 0.689707 0.442843 0.509349
O O6 0.408310 0.537828 0.219017
O O7 0.613688 0.244671 0.653886
O O8 0.826471 0.954281 0.640484
O O9 0.955499 0.950639 0.358528
O O10 0.643833 0.023426 0.245375
O O11 0.867072 0.522083 0.603207
O O12 0.640398 0.780026 0.147908
O O13 0.923694 0.811965 0.147708
O O14 0.126489 0.770418 0.967509
O O15 0.500000 0.000000 0.000000
#
# Coordination Sequence:
#
# PCOD9111161 Si02
#       7
#     2   2   2   2   2   2   2
#     4  12  25  43  67 102 136 180 225 275 337 409
#     4  10  23  42  72  98 134 180 224 277 335 401
#     4  11  25  45  67 100 136 178 230 271 344 397
#     4  11  24  40  70 102 137 179 224 277 341 397
#     4  11  23  44  70 102 135 176 225 286 333 396
#     4  10  20  42  69  98 134 174 226 278 334 394
#     4  11  23  46  67  98 140 178 224 276 338 403
#
# _framework density 24.060013999999999
#
# number of rings (size 3 to 8) (size 9 to 14) (size 15 to 20)
#    0.000    1.143    2.857    3.000    0.000    4.571 
#    5.143    0.000    0.000    0.000    0.000    0.000 
#    0.000    0.000    0.000    0.000    0.000    0.000 
#
# Total GULP energy -78251.342917 kJ/mol
# GULP energy per Si atom -5589.381637 kJ/mol
# Density = 2.400525 g / cm^3
# Si number density = 24.060014 Si / 1000 Ang^3
#
#
#
# Elastic Constant Matrix: (Units=GPa)
#
#
# Indices 1 2 3 4 5 6 
#
# 1 76.5066 6.1220 49.4184 15.0328 -8.2038 -12.3744
# 2 6.1220 48.0674 17.7502 4.8797 -3.4397 10.9359
# 3 49.4184 17.7502 123.8449 3.9411 -7.4327 -16.1787
# 4 15.0328 4.8797 3.9411 32.1285 4.8399 -5.4148
# 5 -8.2038 -3.4397 -7.4327 4.8399 66.7411 4.0651
# 6 -12.3744 10.9359 -16.1787 -5.4148 4.0651 35.5207
#
#
#
# Elastic Compliance Matrix: (Units=1/GPa)
#
#
# Indices 1 2 3 4 5 6 
#
# 1 0.020054 0.000847 -0.007489 -0.008629 0.002194 0.001748
# 2 0.000847 0.025895 -0.005203 -0.005869 0.001965 -0.011167
# 3 -0.007489 -0.005203 0.012350 0.003722 -0.000402 0.005231
# 4 -0.008629 -0.005869 0.003722 0.037330 -0.004061 0.006651
# 5 0.002194 0.001965 -0.000402 -0.004061 0.015753 -0.002446
# 6 0.001748 -0.011167 0.005231 0.006651 -0.002446 0.035876
#
#
# Mechanical properties :
#
#
# Convention : Reuss Voigt Hill
#
# Bulk Modulus (GPa) = 28.89594 43.88891 36.39242
# Shear Modulus (GPa) = 27.39964 38.55326 32.97645
#
# Velocity S-wave (km/s) = 3.37828 4.00732 3.70617
# Velocity P-wave (km/s) = 5.22044 6.30020 5.78556
#
# Compressibility (1/GPa) = 0.03460694
#
# Stress axis : x y z
#
# Youngs Moduli (GPa) = 49.86572 38.61785 80.97449
#
# Poissons Ratio (x) = -0.03269 0.60641
# Poissons Ratio (y) = -0.04222 0.42134
# Poissons Ratio (z) = 0.37344 0.20094
#
# Static dielectric constant tensor:
#      x y z
#    x 1.976690 0.012150 0.004000 
#    y 0.012150 1.977040 -0.011840 
#    z 0.004000 -0.011840 1.973060 
# 
# From -- ./inp_files/211503.got.cif
#   From: 2010.05.17/outbox.cif.g08.bks.cpg/sg2_106_cif.got.tgz:211503.got - 2010.06.03 11:33:40.
