data_PCOD9111283
_publ_section_title
;
Structure prediction by ZEFSAII (Michael W. Deem and Ramdas Pophale) SiO2 
 PCOD9111283
Probable space group: P -1
;
_chemical_formula_sum "Si O2"
_cell_formula_units_Z 15
_cell_length_a 13.208175
_cell_length_b 10.910344
_cell_length_c 12.159147
_cell_angle_alpha 87.661951
_cell_angle_beta 62.356520
_cell_angle_gamma 33.947373
_cell_volume 622.753411
_symmetry_space_group_name_H-M "P -1"
_symmetry_group_IT_number 2
_symmetry_cell_setting 'triclinic'
loop_
_space_group_symop_operation_xyz
x,y,z
-x,-y,-z
loop_
_atom_site_type_symbol
_atom_site_label
_atom_site_fract_x
_atom_site_fract_y
_atom_site_fract_z
Si Si1 0.500000 0.500000 0.500000
Si Si2 0.506585 0.138670 0.016006
Si Si3 0.608617 0.031777 0.434103
Si Si4 0.094437 0.698793 0.762476
Si Si5 0.663854 0.322438 0.662907
Si Si6 0.453426 0.287251 0.281136
Si Si7 0.650485 0.598153 0.124617
Si Si8 0.117341 0.249193 0.471407
O O1 0.167089 0.764456 0.681055
O O2 0.590849 0.355571 0.574679
O O3 0.289127 0.411163 0.026953
O O4 0.462877 0.208104 0.164220
O O5 0.810671 0.909323 0.855824
O O6 0.500000 0.000000 0.000000
O O7 0.358059 0.365812 0.589775
O O8 0.640302 0.041682 0.291373
O O9 0.500000 0.000000 0.500000
O O10 0.850728 0.805212 0.412328
O O11 0.119321 0.654651 0.885449
O O12 0.507626 0.605795 0.750910
O O13 0.522408 0.358011 0.806232
O O14 0.000000 0.000000 0.500000
O O15 0.119164 0.603939 0.469191
O O16 0.425038 0.918370 0.277192
O O17 0.000000 0.500000 0.500000
#
# Coordination Sequence:
#
# PCOD9111283 Si02
#       8
#     1   2   2   2   2   2   2   2
#     4  10  20  42  72 100 126 166 236 288 332 388
#     4  12  28  45  63  95 151 188 221 271 350 428
#     4  11  23  39  69  98 131 172 240 293 328 393
#     4  10  23  44  69  98 131 180 226 283 344 397
#     4  11  21  40  71  99 132 170 235 291 337 397
#     4  12  25  41  65 102 135 182 227 282 347 409
#     4  10  23  43  66  97 129 185 228 282 339 398
#     4  11  21  39  67  98 130 172 233 284 332 394
#
# _framework density 24.086582
#
# number of rings (size 3 to 8) (size 9 to 14) (size 15 to 20)
#    0.000    1.067    4.000    2.400    3.733    2.133 
#    0.000    2.667    0.000    0.000    0.000    0.000 
#    0.000    0.000    0.000    0.000    0.000    0.000 
#
# Total GULP energy -83517.021604 kJ/mol
# GULP energy per Si atom -5567.801440 kJ/mol
# Density = 2.403176 g / cm^3
# Si number density = 24.086582 Si / 1000 Ang^3
#
#
#
# Elastic Constant Matrix: (Units=GPa)
#
#
# Indices 1 2 3 4 5 6 
#
# 1 115.1284 60.6041 24.0907 -9.3494 -8.8554 -0.3949
# 2 60.6041 146.1918 41.9363 -38.0854 13.3139 -14.6772
# 3 24.0907 41.9363 81.3782 -27.5686 10.2276 -9.1981
# 4 -9.3494 -38.0854 -27.5686 41.9461 -10.3652 -2.3165
# 5 -8.8554 13.3139 10.2276 -10.3652 29.8132 3.6319
# 6 -0.3949 -14.6772 -9.1981 -2.3165 3.6319 54.9095
#
#
#
# Elastic Compliance Matrix: (Units=1/GPa)
#
#
# Indices 1 2 3 4 5 6 
#
# 1 0.012781 -0.006174 -0.002782 -0.003058 0.006761 -0.002601
# 2 -0.006174 0.012705 -0.000728 0.008736 -0.004697 0.003909
# 3 -0.002782 -0.000728 0.017558 0.009552 -0.003614 0.003369
# 4 -0.003058 0.008736 0.009552 0.038838 0.004779 0.005236
# 5 0.006761 -0.004697 -0.003614 0.004779 0.041076 -0.004327
# 6 -0.002601 0.003909 0.003369 0.005236 -0.004327 0.020309
#
#
# Mechanical properties :
#
#
# Convention : Reuss Voigt Hill
#
# Bulk Modulus (GPa) = 42.23579 66.21783 54.22681
# Shear Modulus (GPa) = 29.32114 39.73825 34.52969
#
# Velocity S-wave (km/s) = 3.49280 4.06619 3.79035
# Velocity P-wave (km/s) = 5.81715 7.04248 6.45894
#
# Compressibility (1/GPa) = 0.02367660
#
# Stress axis : x y z
#
# Youngs Moduli (GPa) = 78.24252 78.71211 56.95541
#
# Poissons Ratio (x) = 0.48596 0.15843
# Poissons Ratio (y) = 0.48306 0.04144
# Poissons Ratio (z) = 0.21764 0.05728
#
# Static dielectric constant tensor:
#      x y z
#    x 2.022040 -0.020760 -0.024060 
#    y -0.020760 1.925070 0.034660 
#    z -0.024060 0.034660 2.027560 
# 
# From -- ./inp_files/452275.got.cif
#   From: 2010.05.17/outbox.cif.g08.bks.cpg/sg2_227_cif.got.tgz:452275.got - 2010.06.03 11:33:40.
