data_PCOD9111123
_publ_section_title
;
Structure prediction by ZEFSAII (Michael W. Deem and Ramdas Pophale) SiO2 
 PCOD9111123
Probable space group: P -1
;
_chemical_formula_sum "Si O2"
_cell_formula_units_Z 16
_cell_length_a 15.209733
_cell_length_b 8.465630
_cell_length_c 7.778239
_cell_angle_alpha 59.430776
_cell_angle_beta 68.115885
_cell_angle_gamma 102.811716
_cell_volume 686.010009
_symmetry_space_group_name_H-M "P -1"
_symmetry_group_IT_number 2
_symmetry_cell_setting 'triclinic'
loop_
_space_group_symop_operation_xyz
x,y,z
-x,-y,-z
loop_
_atom_site_type_symbol
_atom_site_label
_atom_site_fract_x
_atom_site_fract_y
_atom_site_fract_z
Si Si1 0.268086 0.350116 0.679682
Si Si2 0.505699 0.193811 0.775202
Si Si3 0.529129 0.730988 0.906297
Si Si4 0.101980 0.443254 0.579160
Si Si5 0.029178 0.744373 0.568561
Si Si6 0.350477 0.050599 0.638188
Si Si7 0.826865 0.770538 0.813859
Si Si8 0.286668 0.638525 0.081058
O O1 0.374004 0.590896 0.444476
O O2 0.156897 0.328509 0.697244
O O3 0.291454 0.179986 0.664667
O O4 0.243723 0.307035 0.921014
O O5 0.450681 0.137162 0.658705
O O6 0.435371 0.244033 0.934698
O O7 0.500000 0.000000 0.000000
O O8 0.609637 0.897427 0.615223
O O9 0.500000 0.500000 0.000000
O O10 0.412677 0.720614 0.981891
O O11 0.054899 0.555203 0.674149
O O12 0.207960 0.631798 0.293828
O O13 0.015421 0.296860 0.575323
O O14 0.934750 0.743801 0.754178
O O15 0.132037 0.982674 0.382950
O O16 0.283117 0.795745 0.855880
O O17 0.760004 0.605565 0.803238
#
# Coordination Sequence:
#
# PCOD9111123 Si02
#       8
#     2   2   2   2   2   2   2   2
#     4  12  24  41  63  99 126 172 220 268 322 394
#     4  12  25  43  66  96 135 180 222 269 326 381
#     4  12  24  42  64  95 134 181 220 271 325 382
#     4  10  20  42  69  90 131 164 216 267 335 400
#     4   9  21  44  66  94 122 170 205 276 345 389
#     4  12  25  43  64  95 140 180 219 272 321 381
#     4  10  23  39  66  94 126 163 216 270 330 395
#     4  11  22  42  62  92 130 173 220 266 319 388
#
# _framework density 23.323274999999999
#
# number of rings (size 3 to 8) (size 9 to 14) (size 15 to 20)
#    0.000    1.000    3.750    2.250    3.500    1.000 
#    0.000    3.750    0.000    0.000    0.000    0.000 
#    0.000    0.000    0.000    0.000    0.000    0.000 
#
# Total GULP energy -89334.211335 kJ/mol
# GULP energy per Si atom -5583.388208 kJ/mol
# Density = 2.327019 g / cm^3
# Si number density = 23.323275 Si / 1000 Ang^3
#
#
#
# Elastic Constant Matrix: (Units=GPa)
#
#
# Indices 1 2 3 4 5 6 
#
# 1 81.0211 13.0848 -7.7579 -17.7950 -11.3743 -6.9416
# 2 13.0848 87.6128 16.7711 -20.4949 -20.6213 0.5500
# 3 -7.7579 16.7711 68.2195 16.8623 4.7974 -6.5302
# 4 -17.7950 -20.4949 16.8623 34.1433 -9.8995 15.8643
# 5 -11.3743 -20.6213 4.7974 -9.8995 7.0540 13.2729
# 6 -6.9416 0.5500 -6.5302 15.8643 13.2729 8.1670
#
#
#
# Elastic Compliance Matrix: (Units=1/GPa)
#
#
# Indices 1 2 3 4 5 6 
#
# 1 0.014173 -0.001907 0.002418 0.001513 0.001583 0.008596
# 2 -0.001907 0.009466 -0.000002 -0.003342 -0.005803 0.013664
# 3 0.002418 -0.000002 0.013148 0.001312 0.010718 -0.007400
# 4 0.001513 -0.003342 0.001312 0.012323 -0.023953 0.017550
# 5 0.001583 -0.005803 0.010718 -0.023953 0.009957 0.040652
# 6 0.008596 0.013664 -0.007400 0.017550 0.040652 0.022755
#
#
# Mechanical properties :
#
#
# Convention : Reuss Voigt Hill
#
# Bulk Modulus (GPa) = 26.45157 31.22768 28.83963
# Shear Modulus (GPa) = 53.53083 24.18989 38.86036
#
# Velocity S-wave (km/s) = 4.79599 3.22399 4.08629
# Velocity P-wave (km/s) = 6.48341 5.22273 5.88691
#
# Compressibility (1/GPa) = 0.03780494
#
# Stress axis : x y z
#
# Youngs Moduli (GPa) = 70.55651 105.64626 76.05986
#
# Poissons Ratio (x) = 0.20146 -0.18392
# Poissons Ratio (y) = 0.13455 0.00013
# Poissons Ratio (z) = -0.17061 0.00018
#
# Static dielectric constant tensor:
#      x y z
#    x 1.948680 -0.003740 -0.015370 
#    y -0.003740 1.995470 0.003810 
#    z -0.015370 0.003810 1.880690 
# 
# From -- ./inp_files/297605.got.cif
#   From: 2010.05.17/outbox.cif.g08.bks.cpg/sg2_149_cif.got.tgz:297605.got - 2010.06.03 11:33:40.
