data_PCOD9111681
_publ_section_title
;
Structure prediction by ZEFSAII (Michael W. Deem and Ramdas Pophale) SiO2 
 PCOD9111681
Probable space group: P -1
;
_chemical_formula_sum "Si O2"
_cell_formula_units_Z 16
_cell_length_a 18.142251
_cell_length_b 6.538275
_cell_length_c 9.050773
_cell_angle_alpha 52.070186
_cell_angle_beta 120.946406
_cell_angle_gamma 113.247348
_cell_volume 721.348411
_symmetry_space_group_name_H-M "P -1"
_symmetry_group_IT_number 2
_symmetry_cell_setting 'triclinic'
loop_
_space_group_symop_operation_xyz
x,y,z
-x,-y,-z
loop_
_atom_site_type_symbol
_atom_site_label
_atom_site_fract_x
_atom_site_fract_y
_atom_site_fract_z
Si Si1 0.740309 0.862424 0.391335
Si Si2 0.065052 0.934805 0.220752
Si Si3 0.475263 0.262447 0.281644
Si Si4 0.068404 0.823216 0.583605
Si Si5 0.694652 0.788158 0.720859
Si Si6 0.786293 0.284255 0.711361
Si Si7 0.433756 0.178494 0.930166
Si Si8 0.144304 0.485713 0.031414
O O1 0.830702 0.045285 0.379435
O O2 0.705390 0.863489 0.525037
O O3 0.759475 0.564747 0.519749
O O4 0.663448 0.921757 0.177494
O O5 0.036049 0.776081 0.405103
O O6 0.139921 0.796241 0.284018
O O7 0.101681 0.225877 0.185385
O O8 0.000000 0.000000 0.000000
O O9 0.396846 0.348234 0.261536
O O10 0.545597 0.517694 0.235071
O O11 0.500000 0.000000 0.500000
O O12 0.447685 0.191389 0.115586
O O13 0.076815 0.580882 0.806291
O O14 0.000000 0.000000 0.500000
O O15 0.709991 0.053712 0.712843
O O16 0.771297 0.612013 0.912995
O O17 0.824031 0.302174 0.907705
O O18 0.500000 0.000000 0.000000
#
# Coordination Sequence:
#
# PCOD9111681 Si02
#       8
#     2   2   2   2   2   2   2   2
#     4  11  24  45  68 101 140 178 227 284 340 403
#     4  11  24  45  66  94 134 176 225 286 341 399
#     4  11  25  46  71 107 141 180 234 280 346 421
#     4  12  26  44  67 101 135 178 230 281 338 402
#     4  10  22  43  70  99 135 181 222 274 341 407
#     4  10  20  43  68  93 134 181 218 278 340 400
#     4  11  27  45  72 106 143 181 228 290 343 415
#     4  10  24  43  66  97 132 175 225 277 338 406
#
# _framework density 22.180682000000001
#
# number of rings (size 3 to 8) (size 9 to 14) (size 15 to 20)
#    0.000    1.250    3.750    2.250    5.250    6.500 
#    2.250    0.000    0.000    0.000    0.000    0.000 
#    0.000    0.000    0.000    0.000    0.000    0.000 
#
# Total GULP energy -89412.530285 kJ/mol
# GULP energy per Si atom -5588.283143 kJ/mol
# Density = 2.213020 g / cm^3
# Si number density = 22.180682 Si / 1000 Ang^3
#
#
#
# Elastic Constant Matrix: (Units=GPa)
#
#
# Indices 1 2 3 4 5 6 
#
# 1 84.8635 16.3594 24.9205 2.5420 -5.7119 -1.6393
# 2 16.3594 90.7133 34.3280 3.9300 -10.9965 -2.0836
# 3 24.9205 34.3280 130.3609 -7.2253 7.0484 -6.1687
# 4 2.5420 3.9300 -7.2253 32.4620 6.3427 2.9898
# 5 -5.7119 -10.9965 7.0484 6.3427 27.5499 -0.3824
# 6 -1.6393 -2.0836 -6.1687 2.9898 -0.3824 23.9166
#
#
#
# Elastic Compliance Matrix: (Units=1/GPa)
#
#
# Indices 1 2 3 4 5 6 
#
# 1 0.013011 -0.000843 -0.002556 -0.002221 0.003533 0.000493
# 2 -0.000843 0.013782 -0.004050 -0.003994 0.007292 0.000714
# 3 -0.002556 -0.004050 0.009804 0.003818 -0.005514 0.001435
# 4 -0.002221 -0.003994 0.003818 0.034857 -0.011113 -0.004051
# 5 0.003533 0.007292 -0.005514 -0.011113 0.043931 0.001547
# 6 0.000493 0.000714 0.001435 -0.004051 0.001547 0.042809
#
#
# Mechanical properties :
#
#
# Convention : Reuss Voigt Hill
#
# Bulk Modulus (GPa) = 46.08718 50.79486 48.44102
# Shear Modulus (GPa) = 27.72784 32.14102 29.93443
#
# Velocity S-wave (km/s) = 3.53950 3.81077 3.67764
# Velocity P-wave (km/s) = 6.12595 6.50484 6.31823
#
# Compressibility (1/GPa) = 0.02169801
#
# Stress axis : x y z
#
# Youngs Moduli (GPa) = 76.86030 72.55990 102.00272
#
# Poissons Ratio (x) = 0.06119 0.26071
# Poissons Ratio (y) = 0.06482 0.41309
# Poissons Ratio (z) = 0.19645 0.29385
#
# Static dielectric constant tensor:
#      x y z
#    x 1.832270 0.043310 0.015180 
#    y 0.043310 1.857870 0.025430 
#    z 0.015180 0.025430 1.815490 
# 
# From -- ./inp_files/47349.got.cif
#   From: 2010.05.17/outbox.cif.g08.bks.cpg/sg2_24_cif.got.tgz:47349.got - 2010.06.03 11:33:40.
