data_PCOD9111026
_publ_section_title
;
Structure prediction by ZEFSAII (Michael W. Deem and Ramdas Pophale) SiO2 
 PCOD9111026
Probable space group: P -1
;
_chemical_formula_sum "Si O2"
_cell_formula_units_Z 14
_cell_length_a 9.571625
_cell_length_b 7.940892
_cell_length_c 17.699733
_cell_angle_alpha 60.312135
_cell_angle_beta 144.844962
_cell_angle_gamma 132.318398
_cell_volume 567.932983
_symmetry_space_group_name_H-M "P -1"
_symmetry_group_IT_number 2
_symmetry_cell_setting 'triclinic'
loop_
_space_group_symop_operation_xyz
x,y,z
-x,-y,-z
loop_
_atom_site_type_symbol
_atom_site_label
_atom_site_fract_x
_atom_site_fract_y
_atom_site_fract_z
Si Si1 0.295405 0.260120 0.419511
Si Si2 0.397128 0.110285 0.126009
Si Si3 0.550654 0.302808 0.310950
Si Si4 0.251344 0.802607 0.880897
Si Si5 0.045203 0.224959 0.588600
Si Si6 0.042790 0.313094 0.885953
Si Si7 0.797207 0.171687 0.655018
O O1 0.500000 0.500000 0.500000
O O2 0.528975 0.196862 0.510676
O O3 0.074811 0.253998 0.261218
O O4 0.079342 0.039785 0.426327
O O5 0.476771 0.275525 0.196524
O O6 0.629817 0.136344 0.165386
O O7 0.204276 0.178281 0.978664
O O8 0.225147 0.856896 0.142034
O O9 0.640117 0.547047 0.332364
O O10 0.830546 0.283577 0.441312
O O11 0.314595 0.072570 0.300087
O O12 0.219801 0.564630 0.942695
O O13 0.500000 0.000000 0.000000
O O14 0.988372 0.219401 0.655483
O O15 0.958240 0.342586 0.757849
#
# Coordination Sequence:
#
# PCOD9111026 Si02
#       7
#     2   2   2   2   2   2   2
#     4  11  23  41  62  95 132 170 210 261 332 389
#     4  10  23  43  68  94 128 174 220 271 319 388
#     4   9  19  36  63  93 122 155 223 264 309 369
#     4  12  27  43  65  97 135 175 217 263 333 394
#     4  10  21  38  65  94 123 165 219 266 310 381
#     4  10  22  44  70  95 128 172 222 268 324 384
#     4  10  20  42  68  93 124 168 217 268 318 378
#
# _framework density 24.650797000000001
#
# number of rings (size 3 to 8) (size 9 to 14) (size 15 to 20)
#    0.000    1.714    1.429    3.000    4.000    0.571 
#    2.571   12.143    0.000    0.000    0.000    0.000 
#    0.000    0.000    0.000    0.000    0.000    0.000 
#
# Total GULP energy -78128.873257 kJ/mol
# GULP energy per Si atom -5580.633804 kJ/mol
# Density = 2.459469 g / cm^3
# Si number density = 24.650797 Si / 1000 Ang^3
#
#
#
# Elastic Constant Matrix: (Units=GPa)
#
#
# Indices 1 2 3 4 5 6 
#
# 1 71.6544 19.2671 30.0772 -1.4677 10.5500 7.4402
# 2 19.2671 176.1577 28.5709 41.3498 -8.3115 -7.2287
# 3 30.0772 28.5709 132.4852 11.2083 -15.8039 -5.8452
# 4 -1.4677 41.3498 11.2083 38.2823 -1.3738 -6.9598
# 5 10.5500 -8.3115 -15.8039 -1.3738 16.6249 5.3280
# 6 7.4402 -7.2287 -5.8452 -6.9598 5.3280 23.4782
#
#
#
# Elastic Compliance Matrix: (Units=1/GPa)
#
#
# Indices 1 2 3 4 5 6 
#
# 1 0.021428 -0.003566 -0.007168 0.005416 -0.020664 -0.003378
# 2 -0.003566 0.008434 0.000509 -0.009227 0.006301 -0.000311
# 3 -0.007168 0.000509 0.011164 -0.003410 0.014871 0.000822
# 4 0.005416 -0.009227 -0.003410 0.038441 -0.010822 0.008445
# 5 -0.020664 0.006301 0.014871 -0.010822 0.093584 -0.012255
# 6 -0.003378 -0.000311 0.000822 0.008445 -0.012255 0.049056
#
#
# Mechanical properties :
#
#
# Convention : Reuss Voigt Hill
#
# Bulk Modulus (GPa) = 48.59827 59.56974 54.08401
# Shear Modulus (GPa) = 20.04688 35.83589 27.94138
#
# Velocity S-wave (km/s) = 2.85482 3.81693 3.37038
# Velocity P-wave (km/s) = 5.53391 6.60630 6.09374
#
# Compressibility (1/GPa) = 0.02057686
#
# Stress axis : x y z
#
# Youngs Moduli (GPa) = 46.66876 118.56083 89.57244
#
# Poissons Ratio (x) = 0.42279 0.64204
# Poissons Ratio (y) = 0.16642 -0.04560
# Poissons Ratio (z) = 0.33451 -0.06036
#
# Static dielectric constant tensor:
#      x y z
#    x 1.980260 -0.029720 -0.005980 
#    y -0.029720 2.045430 0.071790 
#    z -0.005980 0.071790 2.015840 
# 
# From -- ./inp_files/593510.got.cif
#   From: 2010.05.17/outbox.cif.g08.bks.cpg/sg2_297_cif.got.tgz:593510.got - 2010.06.03 11:33:40.
