data_PCOD9111769
_publ_section_title
;
Structure prediction by ZEFSAII (Michael W. Deem and Ramdas Pophale) SiO2 
 PCOD9111769
Probable space group: P -1
;
_chemical_formula_sum "Si O2"
_cell_formula_units_Z 16
_cell_length_a 23.359699
_cell_length_b 11.577746
_cell_length_c 7.145537
_cell_angle_alpha 42.768373
_cell_angle_beta 142.910490
_cell_angle_gamma 144.667045
_cell_volume 654.476069
_symmetry_space_group_name_H-M "P -1"
_symmetry_group_IT_number 2
_symmetry_cell_setting 'triclinic'
loop_
_space_group_symop_operation_xyz
x,y,z
-x,-y,-z
loop_
_atom_site_type_symbol
_atom_site_label
_atom_site_fract_x
_atom_site_fract_y
_atom_site_fract_z
Si Si1 0.912161 0.900203 0.633799
Si Si2 0.596330 0.555688 0.839444
Si Si3 0.592813 0.916188 0.511683
Si Si4 0.963507 0.313408 0.760998
Si Si5 0.151029 0.269291 0.735301
Si Si6 0.786543 0.054419 0.312427
Si Si7 0.838775 0.316486 0.782927
Si Si8 0.535025 0.901119 0.937122
O O1 0.874824 0.864049 0.362604
O O2 0.814718 0.895613 0.499999
O O3 0.034409 0.118538 0.726024
O O4 0.940397 0.733901 0.944417
O O5 0.500000 0.500000 0.500000
O O6 0.595428 0.715785 0.786565
O O7 0.559854 0.334871 0.085401
O O8 0.723193 0.664475 0.952262
O O9 0.557899 0.902906 0.218569
O O10 0.716872 0.123717 0.619383
O O11 0.506665 0.946673 0.371272
O O12 0.000000 0.500000 0.500000
O O13 0.845864 0.128729 0.579779
O O14 0.933974 0.337883 0.864936
O O15 0.160599 0.479472 0.469528
O O16 0.654803 0.972940 0.071438
O O17 0.846246 0.242656 0.095734
#
# Coordination Sequence:
#
# PCOD9111769 Si02
#       8
#     2   2   2   2   2   2   2   2
#     4  11  25  45  70 103 146 191 241 305 361 439
#     4  10  21  39  71 106 139 191 243 299 367 432
#     4  10  20  43  70 101 143 189 238 305 365 431
#     4  12  26  47  71 106 141 191 245 300 370 436
#     4  11  23  45  73 104 144 195 246 297 371 436
#     4  12  26  45  70 108 146 190 244 302 368 439
#     4  12  24  45  75 102 149 192 240 310 365 433
#     4  10  22  43  68 105 145 187 243 299 367 437
#
# _framework density 24.447037000000002
#
# number of rings (size 3 to 8) (size 9 to 14) (size 15 to 20)
#    0.000    1.000    2.500    4.875    1.750    2.000 
#    4.500    1.250    0.000    0.000    0.000    0.000 
#    0.000    0.000    0.000    0.000    0.000    0.000 
#
# Total GULP energy -89612.467735 kJ/mol
# GULP energy per Si atom -5600.779233 kJ/mol
# Density = 2.439139 g / cm^3
# Si number density = 24.447037 Si / 1000 Ang^3
#
#
#
# Elastic Constant Matrix: (Units=GPa)
#
#
# Indices 1 2 3 4 5 6 
#
# 1 148.0715 43.1754 48.5737 -11.6613 40.3317 -4.5707
# 2 43.1754 125.8447 39.8090 -7.8500 24.6178 -8.9538
# 3 48.5737 39.8090 122.8300 -4.9168 41.6716 -1.9439
# 4 -11.6613 -7.8500 -4.9168 42.7998 -3.2812 1.6113
# 5 40.3317 24.6178 41.6716 -3.2812 53.0758 -1.7204
# 6 -4.5707 -8.9538 -1.9439 1.6113 -1.7204 33.1031
#
#
#
# Elastic Compliance Matrix: (Units=1/GPa)
#
#
# Indices 1 2 3 4 5 6 
#
# 1 0.009180 -0.001608 -0.001312 0.001650 -0.005085 0.000411
# 2 -0.001608 0.009616 -0.001846 0.000905 -0.001664 0.002140
# 3 -0.001312 -0.001846 0.011763 0.000103 -0.007389 -0.000379
# 4 0.001650 0.000905 0.000103 0.023996 -0.000294 -0.000704
# 5 -0.005085 -0.001664 -0.007389 -0.000294 0.029258 -0.000051
# 6 0.000411 0.002140 -0.000379 -0.000704 -0.000051 0.030854
#
#
# Mechanical properties :
#
#
# Convention : Reuss Voigt Hill
#
# Bulk Modulus (GPa) = 47.55469 73.31806 60.43638
# Shear Modulus (GPa) = 38.10744 43.47495 40.79120
#
# Velocity S-wave (km/s) = 3.95242 4.22160 4.08923
# Velocity P-wave (km/s) = 6.35005 7.33609 6.86081
#
# Compressibility (1/GPa) = 0.02102842
#
# Stress axis : x y z
#
# Youngs Moduli (GPa) = 108.92875 103.99213 85.01111
#
# Poissons Ratio (x) = 0.16720 0.11149
# Poissons Ratio (y) = 0.17513 0.15695
# Poissons Ratio (z) = 0.14286 0.19200
#
# Static dielectric constant tensor:
#      x y z
#    x 1.937610 -0.000920 -0.036700 
#    y -0.000920 1.973390 -0.012490 
#    z -0.036700 -0.012490 1.957690 
# 
# From -- ./inp_files/357044.got.cif
#   From: 2010.05.17/outbox.cif.g08.bks.cpg/sg2_179_cif.got.tgz:357044.got - 2010.06.03 11:33:40.
