data_PCOD9111757
_publ_section_title
;
Structure prediction by ZEFSAII (Michael W. Deem and Ramdas Pophale) SiO2 
 PCOD9111757
Probable space group: P -1
;
_chemical_formula_sum "Si O2"
_cell_formula_units_Z 13
_cell_length_a 10.037632
_cell_length_b 9.912373
_cell_length_c 9.477178
_cell_angle_alpha 49.656594
_cell_angle_beta 45.857773
_cell_angle_gamma 79.648643
_cell_volume 447.895843
_symmetry_space_group_name_H-M "P -1"
_symmetry_group_IT_number 2
_symmetry_cell_setting 'triclinic'
loop_
_space_group_symop_operation_xyz
x,y,z
-x,-y,-z
loop_
_atom_site_type_symbol
_atom_site_label
_atom_site_fract_x
_atom_site_fract_y
_atom_site_fract_z
Si Si1 0.778650 0.030442 0.833191
Si Si2 0.500000 0.500000 0.500000
Si Si3 0.682565 0.315301 0.919777
Si Si4 0.808215 0.166817 0.420969
Si Si5 0.433413 0.207783 0.593976
Si Si6 0.751608 0.758640 0.552776
Si Si7 0.041896 0.406052 0.829631
O O1 0.713700 0.185423 0.855964
O O2 0.749573 0.011989 0.700041
O O3 0.026864 0.115552 0.616288
O O4 0.640743 0.816759 0.167874
O O5 0.592625 0.447007 0.318620
O O6 0.256343 0.455213 0.322212
O O7 0.717150 0.545466 0.400441
O O8 0.861405 0.334830 0.889179
O O9 0.455556 0.259638 0.201942
O O10 0.582310 0.111323 0.551376
O O11 0.919069 0.377820 0.285693
O O12 0.952247 0.232182 0.133173
O O13 0.253840 0.137528 0.660887
#
# Coordination Sequence:
#
# PCOD9111757 Si02
#       7
#     2   1   2   2   2   2   2
#     4  12  25  44  68 103 140 181 231 293 338 403
#     4  10  24  40  74 100 128 180 240 272 356 412
#     4  11  24  43  73  99 139 183 234 283 339 413
#     4  10  22  42  66  95 135 179 225 281 346 398
#     4  11  24  44  67  98 141 178 230 291 344 407
#     4  11  24  43  69 103 137 183 236 275 342 415
#     4  10  20  43  69  98 136 181 226 288 337 414
#
# _framework density 29.024607
#
# number of rings (size 3 to 8) (size 9 to 14) (size 15 to 20)
#    0.000    1.231    3.077    2.308    4.308    0.615 
#    2.769    0.769    0.000    0.000    0.000    0.000 
#    0.000    0.000    0.000    0.000    0.000    0.000 
#
# Total GULP energy -72471.996721 kJ/mol
# GULP energy per Si atom -5574.768979 kJ/mol
# Density = 2.895855 g / cm^3
# Si number density = 29.024607 Si / 1000 Ang^3
#
#
#
# Elastic Constant Matrix: (Units=GPa)
#
#
# Indices 1 2 3 4 5 6 
#
# 1 274.7380 37.2855 105.7744 23.5811 -11.5628 -3.4646
# 2 37.2855 144.3523 13.2322 -3.8654 20.4085 -7.0176
# 3 105.7744 13.2322 154.5102 31.3687 -13.1363 -14.2636
# 4 23.5811 -3.8654 31.3687 26.2945 -12.9464 5.2021
# 5 -11.5628 20.4085 -13.1363 -12.9464 55.8735 9.4300
# 6 -3.4646 -7.0176 -14.2636 5.2021 9.4300 39.9292
#
#
#
# Elastic Compliance Matrix: (Units=1/GPa)
#
#
# Indices 1 2 3 4 5 6 
#
# 1 0.005159 -0.001201 -0.003469 0.000019 0.000901 -0.001218
# 2 -0.001201 0.007823 0.000036 0.000084 -0.003430 0.002082
# 3 -0.003469 0.000036 0.011963 -0.013406 -0.002073 0.006215
# 4 0.000019 0.000084 -0.013406 0.064476 0.014565 -0.016612
# 5 0.000901 -0.003430 -0.002073 0.014565 0.023703 -0.008761
# 6 -0.001218 0.002082 0.006215 -0.016612 -0.008761 0.031758
#
#
# Mechanical properties :
#
#
# Convention : Reuss Voigt Hill
#
# Bulk Modulus (GPa) = 63.78722 98.46495 81.12609
# Shear Modulus (GPa) = 31.37267 52.24000 41.80633
#
# Velocity S-wave (km/s) = 3.29127 4.24707 3.79935
# Velocity P-wave (km/s) = 6.03887 7.61895 6.87446
#
# Compressibility (1/GPa) = 0.01567712
#
# Stress axis : x y z
#
# Youngs Moduli (GPa) = 193.83039 127.83346 83.59324
#
# Poissons Ratio (x) = 0.15348 0.28997
# Poissons Ratio (y) = 0.23272 -0.00298
# Poissons Ratio (z) = 0.67235 -0.00456
#
# Static dielectric constant tensor:
#      x y z
#    x 2.187250 -0.049840 0.070220 
#    y -0.049840 1.904830 0.367130 
#    z 0.070220 0.367130 2.028770 
# 
# From -- ./inp_files/174015.got.cif
#   From: 2010.05.17/outbox.cif.g08.bks.cpg/sg2_88_cif.got.tgz:174015.got - 2010.06.03 11:33:40.
