data_PCOD9111112
_publ_section_title
;
Structure prediction by ZEFSAII (Michael W. Deem and Ramdas Pophale) SiO2 
 PCOD9111112
Probable space group: P -1
;
_chemical_formula_sum "Si O2"
_cell_formula_units_Z 16
_cell_length_a 16.234656
_cell_length_b 20.101872
_cell_length_c 9.111818
_cell_angle_alpha 34.824309
_cell_angle_beta 141.889342
_cell_angle_gamma 160.497977
_cell_volume 565.578537
_symmetry_space_group_name_H-M "P -1"
_symmetry_group_IT_number 2
_symmetry_cell_setting 'triclinic'
loop_
_space_group_symop_operation_xyz
x,y,z
-x,-y,-z
loop_
_atom_site_type_symbol
_atom_site_label
_atom_site_fract_x
_atom_site_fract_y
_atom_site_fract_z
Si Si1 0.595372 0.350478 0.124845
Si Si2 0.144289 0.835249 0.687214
Si Si3 0.293857 0.198290 0.252533
Si Si4 0.951601 0.785730 0.744658
Si Si5 0.532924 0.102961 0.126999
Si Si6 0.738449 0.469974 0.552449
Si Si7 0.195027 0.089680 0.803742
Si Si8 0.137446 0.682929 0.505661
O O1 0.380776 0.213761 0.191030
O O2 0.772963 0.369343 0.354676
O O3 0.749009 0.579825 0.941719
O O4 0.436607 0.222975 0.982832
O O5 0.382489 0.940587 0.783813
O O6 0.007472 0.701534 0.887383
O O7 0.943347 0.684444 0.550717
O O8 0.197358 0.000377 0.535843
O O9 0.522812 0.393948 0.324509
O O10 0.055923 0.104451 0.098775
O O11 0.218325 0.244270 0.526636
O O12 0.131364 0.987596 0.742833
O O13 0.707398 0.211462 0.315316
O O14 0.263208 0.874880 0.230902
O O15 0.627106 0.284317 0.836014
O O16 0.873480 0.517311 0.511044
#
# Coordination Sequence:
#
# PCOD9111112 Si02
#       8
#     2   2   2   2   2   2   2   2
#     4  12  23  45  69  98 142 181 228 295 349 418
#     4  10  21  44  66 100 139 183 230 281 354 418
#     4  11  26  44  67 103 136 187 237 279 361 418
#     4  10  23  42  72 103 128 182 240 281 364 420
#     4  10  20  42  69 102 144 187 232 288 351 417
#     4  11  24  44  70 103 150 185 230 295 344 419
#     4  10  25  46  68 100 137 176 236 297 344 427
#     4  10  22  41  70 109 137 187 240 279 359 420
#
# _framework density 28.289618000000001
#
# number of rings (size 3 to 8) (size 9 to 14) (size 15 to 20)
#    0.000    1.500    1.250    3.750    0.000   10.500 
#    4.500    2.500    0.000    0.000    0.000    0.000 
#    0.000    0.000    0.000    0.000    0.000    0.000 
#
# Total GULP energy -89389.438929 kJ/mol
# GULP energy per Si atom -5586.839933 kJ/mol
# Density = 2.822523 g / cm^3
# Si number density = 28.289618 Si / 1000 Ang^3
#
#
#
# Elastic Constant Matrix: (Units=GPa)
#
#
# Indices 1 2 3 4 5 6 
#
# 1 176.5231 37.3676 30.4980 9.9054 -25.1170 20.4685
# 2 37.3676 125.4662 32.4167 20.7455 -5.8784 16.4601
# 3 30.4980 32.4167 86.5973 8.3763 -15.1766 22.8031
# 4 9.9054 20.7455 8.3763 36.5695 -7.4997 -0.2578
# 5 -25.1170 -5.8784 -15.1766 -7.4997 30.8541 16.7719
# 6 20.4685 16.4601 22.8031 -0.2578 16.7719 47.8950
#
#
#
# Elastic Compliance Matrix: (Units=1/GPa)
#
#
# Indices 1 2 3 4 5 6 
#
# 1 0.008225 -0.001386 0.001728 0.000514 0.011739 -0.007970
# 2 -0.001386 0.009990 -0.002625 -0.004910 -0.001025 -0.001259
# 3 0.001728 -0.002625 0.019375 0.000387 0.019089 -0.015744
# 4 0.000514 -0.004910 0.000387 0.031553 0.008093 -0.001380
# 5 0.011739 -0.001025 0.019089 0.008093 0.074824 -0.039912
# 6 -0.007970 -0.001259 -0.015744 -0.001380 -0.039912 0.046182
#
#
# Mechanical properties :
#
#
# Convention : Reuss Voigt Hill
#
# Bulk Modulus (GPa) = 30.27881 65.46125 47.87003
# Shear Modulus (GPa) = 24.30451 42.28402 33.29426
#
# Velocity S-wave (km/s) = 2.93427 3.87031 3.43433
# Velocity P-wave (km/s) = 4.71236 6.56980 5.71702
#
# Compressibility (1/GPa) = 0.03302639
#
# Stress axis : x y z
#
# Youngs Moduli (GPa) = 121.57520 100.09898 51.61165
#
# Poissons Ratio (x) = 0.13870 -0.08919
# Poissons Ratio (y) = 0.16845 0.13547
# Poissons Ratio (z) = -0.21010 0.26274
#
# Static dielectric constant tensor:
#      x y z
#    x 2.360830 0.112150 -0.009820 
#    y 0.112150 2.293310 -0.129620 
#    z -0.009820 -0.129620 2.269860 
# 
# From -- ./inp_files/338601.got.cif
#   From: 2010.05.17/outbox.cif.g08.bks.cpg/sg2_170_cif.got.tgz:338601.got - 2010.06.03 11:33:40.
