data_PCOD9111255
_publ_section_title
;
Structure prediction by ZEFSAII (Michael W. Deem and Ramdas Pophale) SiO2 
 PCOD9111255
Probable space group: P -1
;
_chemical_formula_sum "Si O2"
_cell_formula_units_Z 10
_cell_length_a 6.795200
_cell_length_b 14.429912
_cell_length_c 5.110765
_cell_angle_alpha 84.831201
_cell_angle_beta 106.647956
_cell_angle_gamma 130.813643
_cell_volume 360.101304
_symmetry_space_group_name_H-M "P -1"
_symmetry_group_IT_number 2
_symmetry_cell_setting 'triclinic'
loop_
_space_group_symop_operation_xyz
x,y,z
-x,-y,-z
loop_
_atom_site_type_symbol
_atom_site_label
_atom_site_fract_x
_atom_site_fract_y
_atom_site_fract_z
Si Si1 0.246235 0.870638 0.562323
Si Si2 0.655388 0.663543 0.272014
Si Si3 0.351553 0.735841 0.307113
Si Si4 0.189495 0.488376 0.740718
Si Si5 0.165401 0.013584 0.811005
O O1 0.322414 0.786715 0.548905
O O2 0.500000 0.000000 0.500000
O O3 0.193805 0.910570 0.802653
O O4 0.539074 0.850578 0.150730
O O5 0.512433 0.687391 0.421627
O O6 0.706729 0.570210 0.364570
O O7 0.958289 0.794003 0.319837
O O8 0.441702 0.603158 0.968627
O O9 0.043596 0.624065 0.122649
O O10 0.000000 0.500000 0.500000
O O11 0.000000 0.000000 0.500000
O O12 0.000000 0.000000 0.000000
#
# Coordination Sequence:
#
# PCOD9111255 Si02
#       5
#     2   2   2   2   2
#     4   9  20  41  71 108 149 197 257 313 396 466
#     4  10  20  42  71 100 161 194 255 328 391 454
#     4  10  21  42  73 105 156 196 260 316 392 465
#     4  10  23  41  70 112 150 205 264 321 394 470
#     4  11  23  44  74 108 154 205 252 323 402 465
#
# _framework density 27.769960999999999
#
# number of rings (size 3 to 8) (size 9 to 14) (size 15 to 20)
#    0.000    2.000    2.000    0.600    0.000    2.400 
#    0.000   13.000    4.400    0.000    0.000    5.600 
#    0.000    0.000    0.000    0.000    0.000    0.000 
#
# Total GULP energy -55946.717628 kJ/mol
# GULP energy per Si atom -5594.671763 kJ/mol
# Density = 2.770676 g / cm^3
# Si number density = 27.769961 Si / 1000 Ang^3
#
#
#
# Elastic Constant Matrix: (Units=GPa)
#
#
# Indices 1 2 3 4 5 6 
#
# 1 282.5842 100.1814 106.6997 18.1327 -15.4958 -25.4597
# 2 100.1814 130.7010 80.5789 43.3516 5.8201 -3.9492
# 3 106.6997 80.5789 151.5784 21.0543 3.4305 5.4532
# 4 18.1327 43.3516 21.0543 37.6371 8.1261 13.8755
# 5 -15.4958 5.8201 3.4305 8.1261 67.4055 11.2494
# 6 -25.4597 -3.9492 5.4532 13.8755 11.2494 100.8934
#
#
#
# Elastic Compliance Matrix: (Units=1/GPa)
#
#
# Indices 1 2 3 4 5 6 
#
# 1 0.005807 -0.003635 -0.002519 0.002132 0.001351 0.001015
# 2 -0.003635 0.020702 -0.005785 -0.019866 -0.000432 0.002986
# 3 -0.002519 -0.005785 0.011190 0.002393 -0.000650 -0.001723
# 4 0.002132 -0.019866 0.002393 0.050262 -0.002813 -0.006968
# 5 0.001351 -0.000432 -0.000650 -0.002813 0.015724 -0.001007
# 6 0.001015 0.002986 -0.001723 -0.006968 -0.001007 0.011448
#
#
# Mechanical properties :
#
#
# Convention : Reuss Voigt Hill
#
# Bulk Modulus (GPa) = 72.34731 126.64264 99.49497
# Shear Modulus (GPa) = 34.81457 59.68077 47.24767
#
# Velocity S-wave (km/s) = 3.54457 4.64088 4.12927
# Velocity P-wave (km/s) = 6.54682 8.62672 7.65771
#
# Compressibility (1/GPa) = 0.01382221
#
# Stress axis : x y z
#
# Youngs Moduli (GPa) = 172.19948 48.30356 89.36690
#
# Poissons Ratio (x) = 0.17559 0.22509
# Poissons Ratio (y) = 0.62595 0.51698
# Poissons Ratio (z) = 0.43372 0.27943
#
# Static dielectric constant tensor:
#      x y z
#    x 2.187760 0.011730 0.010020 
#    y 0.011730 2.354760 -0.063650 
#    z 0.010020 -0.063650 2.222960 
# 
# From -- ./inp_files/4184.got.cif
#   From: 2010.05.17/outbox.cif.g08.bks.cpg/sg2_3_cif.got.tgz:4184.got - 2010.06.03 11:33:40.
