data_PCOD9111308
_publ_section_title
;
Structure prediction by ZEFSAII (Michael W. Deem and Ramdas Pophale) SiO2 
 PCOD9111308
Probable space group: P -1
;
_chemical_formula_sum "Si O2"
_cell_formula_units_Z 11
_cell_length_a 7.368183
_cell_length_b 8.945411
_cell_length_c 7.003587
_cell_angle_alpha 75.168330
_cell_angle_beta 121.421679
_cell_angle_gamma 105.768933
_cell_volume 375.407004
_symmetry_space_group_name_H-M "P -1"
_symmetry_group_IT_number 2
_symmetry_cell_setting 'triclinic'
loop_
_space_group_symop_operation_xyz
x,y,z
-x,-y,-z
loop_
_atom_site_type_symbol
_atom_site_label
_atom_site_fract_x
_atom_site_fract_y
_atom_site_fract_z
Si Si1 0.435161 0.398334 0.697504
Si Si2 0.349044 0.880549 0.212642
Si Si3 0.001385 0.569195 0.689270
Si Si4 0.272929 0.327446 0.043996
Si Si5 0.000000 0.000000 0.000000
Si Si6 0.198060 0.924098 0.703906
O O1 0.598195 0.290023 0.741825
O O2 0.243895 0.401472 0.440631
O O3 0.341981 0.309892 0.867802
O O4 0.524457 0.571281 0.770413
O O5 0.151949 0.883134 0.244297
O O6 0.577606 0.994213 0.293857
O O7 0.216291 0.950136 0.939502
O O8 0.000000 0.500000 0.500000
O O9 0.099119 0.445094 0.910591
O O10 0.152479 0.737406 0.726376
O O11 0.175084 0.158013 0.117636
O O12 0.000000 0.000000 0.500000
#
# Coordination Sequence:
#
# PCOD9111308 Si02
#       6
#     2   2   2   2   1   2
#     4  10  20  42  72  91 120 169 230 266 310 375
#     4  11  24  41  64  97 132 174 214 265 324 386
#     4  10  21  36  68 100 121 157 220 278 313 366
#     4  10  22  42  63  95 130 169 214 268 319 389
#     4  12  28  42  62  94 144 178 206 262 342 386
#     4  11  21  40  71  98 125 165 230 271 312 377
#
# _framework density 29.30153
#
# number of rings (size 3 to 8) (size 9 to 14) (size 15 to 20)
#    0.000    1.455    3.636    2.182    7.636    0.727 
#    0.000    4.545    0.000    0.000    0.000    0.000 
#    0.000    0.000    0.000    0.000    0.000    0.000 
#
# Total GULP energy -61611.617485 kJ/mol
# GULP energy per Si atom -5601.056135 kJ/mol
# Density = 2.923484 g / cm^3
# Si number density = 29.301530 Si / 1000 Ang^3
#
#
#
# Elastic Constant Matrix: (Units=GPa)
#
#
# Indices 1 2 3 4 5 6 
#
# 1 140.7201 29.3818 31.1403 -11.3841 31.3204 -17.3423
# 2 29.3818 264.4742 25.9143 4.8294 26.7106 13.3384
# 3 31.1403 25.9143 119.4892 2.7565 44.2638 1.8233
# 4 -11.3841 4.8294 2.7565 44.3633 -2.3579 16.1824
# 5 31.3204 26.7106 44.2638 -2.3579 65.0778 -2.8553
# 6 -17.3423 13.3384 1.8233 16.1824 -2.8553 59.6225
#
#
#
# Elastic Compliance Matrix: (Units=1/GPa)
#
#
# Indices 1 2 3 4 5 6 
#
# 1 0.008514 -0.000678 -0.001036 0.001384 -0.002971 0.002142
# 2 -0.000678 0.004064 -0.000219 -0.000273 -0.001251 -0.001085
# 3 -0.001036 -0.000219 0.011402 -0.001098 -0.007235 -0.000650
# 4 0.001384 -0.000273 -0.001098 0.025353 0.000833 -0.006344
# 5 -0.002971 -0.001251 -0.007235 0.000833 0.022282 0.000478
# 6 0.002142 -0.001085 -0.000650 -0.006344 0.000478 0.019403
#
#
# Mechanical properties :
#
#
# Convention : Reuss Voigt Hill
#
# Bulk Modulus (GPa) = 49.71348 77.50625 63.60986
# Shear Modulus (GPa) = 49.21933 63.02920 56.12426
#
# Velocity S-wave (km/s) = 4.10293 4.64298 4.38128
# Velocity P-wave (km/s) = 6.28079 7.43315 6.88113
#
# Compressibility (1/GPa) = 0.02011527
#
# Stress axis : x y z
#
# Youngs Moduli (GPa) = 117.45104 246.07375 87.70557
#
# Poissons Ratio (x) = 0.16675 0.09087
# Poissons Ratio (y) = 0.07959 0.01917
# Poissons Ratio (z) = 0.12169 0.05379
#
# Static dielectric constant tensor:
#      x y z
#    x 14.999170 -2.028530 -0.480030 
#    y -2.028530 2.453370 0.131380 
#    z -0.480030 0.131380 2.349370 
# 
# From -- ./inp_files/149737.got.cif
#   From: 2010.05.17/outbox.cif.g08.bks.cpg/sg2_75_cif.got.tgz:149737.got - 2010.06.03 11:33:40.
