data_PCOD9111176
_publ_section_title
;
Structure prediction by ZEFSAII (Michael W. Deem and Ramdas Pophale) SiO2 
 PCOD9111176
Probable space group: P -1
;
_chemical_formula_sum "Si O2"
_cell_formula_units_Z 16
_cell_length_a 11.671537
_cell_length_b 14.510628
_cell_length_c 10.681651
_cell_angle_alpha 128.670185
_cell_angle_beta 115.637645
_cell_angle_gamma 30.112940
_cell_volume 681.248116
_symmetry_space_group_name_H-M "P -1"
_symmetry_group_IT_number 2
_symmetry_cell_setting 'triclinic'
loop_
_space_group_symop_operation_xyz
x,y,z
-x,-y,-z
loop_
_atom_site_type_symbol
_atom_site_label
_atom_site_fract_x
_atom_site_fract_y
_atom_site_fract_z
Si Si1 0.906053 0.310626 0.502624
Si Si2 0.989785 0.279084 0.801757
Si Si3 0.419553 0.102081 0.913296
Si Si4 0.470829 0.463419 0.653566
Si Si5 0.506681 0.303226 0.086375
Si Si6 0.136430 0.270379 0.350887
Si Si7 0.977656 0.176753 0.074507
Si Si8 0.058783 0.921366 0.288641
O O1 0.949314 0.326487 0.674310
O O2 0.083391 0.232656 0.418198
O O3 0.645004 0.527261 0.499115
O O4 0.948284 0.136548 0.394325
O O5 0.164623 0.243821 0.894677
O O6 0.732904 0.484121 0.925397
O O7 0.079568 0.075093 0.699213
O O8 0.591142 0.926885 0.730672
O O9 0.442794 0.224190 0.036019
O O10 0.500000 0.000000 0.000000
O O11 0.500934 0.577106 0.724867
O O12 0.253291 0.648367 0.802976
O O13 0.700878 0.249651 0.661722
O O14 0.775567 0.075030 0.971218
O O15 0.000000 0.500000 0.500000
O O16 0.036067 0.270710 0.187261
O O17 0.923314 0.153335 0.901298
#
# Coordination Sequence:
#
# PCOD9111176 Si02
#       8
#     2   2   2   2   2   2   2   2
#     4  11  25  45  71 100 149 181 228 301 350 428
#     4  11  25  43  65 106 141 189 236 285 361 422
#     4  11  25  45  73  99 142 189 238 296 341 427
#     4  10  22  40  69 102 137 177 234 293 358 410
#     4  10  21  39  67  96 133 184 233 283 344 412
#     4  10  25  46  72 105 138 194 233 288 363 416
#     4  10  20  42  70 100 139 179 236 299 346 413
#     4  11  23  42  69 110 136 184 239 291 359 418
#
# _framework density 23.486304000000001
#
# number of rings (size 3 to 8) (size 9 to 14) (size 15 to 20)
#    0.000    1.500    1.250    3.000    5.250    4.500 
#    6.750    0.000    0.000    0.000    0.000    0.000 
#    0.000    0.000    0.000    0.000    0.000    0.000 
#
# Total GULP energy -89173.669050 kJ/mol
# GULP energy per Si atom -5573.354316 kJ/mol
# Density = 2.343285 g / cm^3
# Si number density = 23.486304 Si / 1000 Ang^3
#
#
#
# Elastic Constant Matrix: (Units=GPa)
#
#
# Indices 1 2 3 4 5 6 
#
# 1 74.5250 26.6221 2.5468 0.1779 0.7688 4.6257
# 2 26.6221 96.8109 34.4400 -14.4513 10.2378 3.3197
# 3 2.5468 34.4400 86.1393 -9.9573 -5.9327 7.8550
# 4 0.1779 -14.4513 -9.9573 45.2665 2.5711 13.9605
# 5 0.7688 10.2378 -5.9327 2.5711 34.3665 5.5796
# 6 4.6257 3.3197 7.8550 13.9605 5.5796 29.2887
#
#
#
# Elastic Compliance Matrix: (Units=1/GPa)
#
#
# Indices 1 2 3 4 5 6 
#
# 1 0.015303 -0.005088 0.001859 -0.000645 0.001932 -0.002399
# 2 -0.005088 0.014952 -0.005752 0.003888 -0.005602 -0.000134
# 3 0.001859 -0.005752 0.015117 0.003085 0.005046 -0.006127
# 4 -0.000645 0.003888 0.003085 0.028573 -0.000360 -0.014717
# 5 0.001932 -0.005602 0.005046 -0.000360 0.032774 -0.007095
# 6 -0.002399 -0.000134 -0.006127 -0.014717 -0.007095 0.044547
#
#
# Mechanical properties :
#
#
# Convention : Reuss Voigt Hill
#
# Bulk Modulus (GPa) = 36.48269 42.74367 39.61318
# Shear Modulus (GPa) = 28.03268 34.70878 31.37073
#
# Velocity S-wave (km/s) = 3.45856 3.84843 3.65869
# Velocity P-wave (km/s) = 5.61393 6.16329 5.89501
#
# Compressibility (1/GPa) = 0.02741026
#
# Stress axis : x y z
#
# Youngs Moduli (GPa) = 65.34740 66.87991 66.15205
#
# Poissons Ratio (x) = 0.34028 -0.12298
# Poissons Ratio (y) = 0.33248 0.38050
# Poissons Ratio (z) = -0.12148 0.38469
#
# Static dielectric constant tensor:
#      x y z
#    x 2.033630 0.037400 0.031620 
#    y 0.037400 2.038270 0.118360 
#    z 0.031620 0.118360 1.975130 
# 
# From -- ./inp_files/433236.got.cif
#   From: 2010.05.17/outbox.cif.g08.bks.cpg/sg2_217_cif.got.tgz:433236.got - 2010.06.03 11:33:40.
