data_PCOD9111017
_publ_section_title
;
Structure prediction by ZEFSAII (Michael W. Deem and Ramdas Pophale) SiO2 
 PCOD9111017
Probable space group: P -1
;
_chemical_formula_sum "Si O2"
_cell_formula_units_Z 12
_cell_length_a 8.768073
_cell_length_b 9.857276
_cell_length_c 9.620145
_cell_angle_alpha 132.066391
_cell_angle_beta 77.406079
_cell_angle_gamma 124.389871
_cell_volume 491.598268
_symmetry_space_group_name_H-M "P -1"
_symmetry_group_IT_number 2
_symmetry_cell_setting 'triclinic'
loop_
_space_group_symop_operation_xyz
x,y,z
-x,-y,-z
loop_
_atom_site_type_symbol
_atom_site_label
_atom_site_fract_x
_atom_site_fract_y
_atom_site_fract_z
Si Si1 0.560747 0.235986 0.577932
Si Si2 0.178910 0.064926 0.411579
Si Si3 0.713039 0.240163 0.972899
Si Si4 0.714403 0.568212 0.008922
Si Si5 0.718711 0.179571 0.247214
Si Si6 0.006138 0.931241 0.794579
O O1 0.365205 0.213055 0.573034
O O2 0.711107 0.432954 0.783350
O O3 0.653326 0.285847 0.441942
O O4 0.500000 0.000000 0.500000
O O5 0.206114 0.874766 0.214052
O O6 0.000000 0.000000 0.500000
O O7 0.173518 0.181730 0.350828
O O8 0.764560 0.469628 0.057524
O O9 0.479539 0.072149 0.898664
O O10 0.772834 0.262956 0.136729
O O11 0.500000 0.500000 0.000000
O O12 0.856897 0.828915 0.140784
O O13 0.886086 0.185548 0.295567
O O14 0.000000 0.000000 0.000000
#
# Coordination Sequence:
#
# PCOD9111017 Si02
#       6
#     2   2   2   2   2   2
#     4  11  21  42  67  97 129 180 223 267 325 404
#     4  11  22  39  66  99 134 170 215 276 338 383
#     4  10  21  39  69  94 127 179 223 259 330 401
#     4  12  23  42  70 100 128 177 231 267 324 412
#     4  10  20  42  68  91 135 177 218 266 333 400
#     4  12  25  43  66  99 139 172 218 283 341 379
#
# _framework density 24.410174999999999
#
# number of rings (size 3 to 8) (size 9 to 14) (size 15 to 20)
#    0.000    1.000    6.667    2.000    0.000    0.667 
#    0.000    5.833    0.000    0.000    0.000    0.000 
#    0.000    0.000    0.000    0.000    0.000    0.000 
#
# Total GULP energy -67116.972206 kJ/mol
# GULP energy per Si atom -5593.081017 kJ/mol
# Density = 2.435462 g / cm^3
# Si number density = 24.410175 Si / 1000 Ang^3
#
#
#
# Elastic Constant Matrix: (Units=GPa)
#
#
# Indices 1 2 3 4 5 6 
#
# 1 136.6303 35.2902 8.2180 -18.8247 1.9059 -29.0337
# 2 35.2902 102.3517 42.5762 -25.7684 6.3490 -24.1912
# 3 8.2180 42.5762 101.2376 -34.3050 0.8165 -5.1160
# 4 -18.8247 -25.7684 -34.3050 29.1780 -1.4689 5.8833
# 5 1.9059 6.3490 0.8165 -1.4689 45.2613 -12.5462
# 6 -29.0337 -24.1912 -5.1160 5.8833 -12.5462 35.8118
#
#
#
# Elastic Compliance Matrix: (Units=1/GPa)
#
#
# Indices 1 2 3 4 5 6 
#
# 1 0.009891 -0.001083 0.002295 0.006772 0.001901 0.007168
# 2 -0.001083 0.015221 -0.003544 0.007007 0.000387 0.007882
# 3 0.002295 -0.003544 0.017695 0.019386 0.000421 -0.001043
# 4 0.006772 0.007007 0.019386 0.067204 0.001223 0.002382
# 5 0.001901 0.000387 0.000421 0.001223 0.024867 0.010373
# 6 0.007168 0.007882 -0.001043 0.002382 0.010373 0.042153
#
#
# Mechanical properties :
#
#
# Convention : Reuss Voigt Hill
#
# Bulk Modulus (GPa) = 26.21833 56.93203 41.57518
# Shear Modulus (GPa) = 25.71888 38.99257 32.35572
#
# Velocity S-wave (km/s) = 3.24946 4.00107 3.64469
# Velocity P-wave (km/s) = 4.98425 6.68719 5.89751
#
# Compressibility (1/GPa) = 0.03814126
#
# Stress axis : x y z
#
# Youngs Moduli (GPa) = 101.10626 65.69917 56.51341
#
# Poissons Ratio (x) = 0.07118 -0.12967
# Poissons Ratio (y) = 0.10954 0.20027
# Poissons Ratio (z) = -0.23199 0.23282
#
# Static dielectric constant tensor:
#      x y z
#    x 2.065100 0.018130 0.029580 
#    y 0.018130 1.936590 -0.012130 
#    z 0.029580 -0.012130 2.046250 
# 
# From -- ./inp_files/147719.got.cif
#   From: 2010.05.17/outbox.cif.g08.bks.cpg/sg2_74_cif.got.tgz:147719.got - 2010.06.03 11:33:40.
