data_PCOD9111277
_publ_section_title
;
Structure prediction by ZEFSAII (Michael W. Deem and Ramdas Pophale) SiO2 
 PCOD9111277
Probable space group: P -1
;
_chemical_formula_sum "Si O2"
_cell_formula_units_Z 16
_cell_length_a 10.959413
_cell_length_b 13.892111
_cell_length_c 9.622566
_cell_angle_alpha 76.454493
_cell_angle_beta 131.400157
_cell_angle_gamma 131.419606
_cell_volume 768.373682
_symmetry_space_group_name_H-M "P -1"
_symmetry_group_IT_number 2
_symmetry_cell_setting 'triclinic'
loop_
_space_group_symop_operation_xyz
x,y,z
-x,-y,-z
loop_
_atom_site_type_symbol
_atom_site_label
_atom_site_fract_x
_atom_site_fract_y
_atom_site_fract_z
Si Si1 0.496000 0.599185 0.380567
Si Si2 0.919920 0.421059 0.324542
Si Si3 0.975511 0.754573 0.585604
Si Si4 0.312976 0.197133 0.320609
Si Si5 0.876585 0.152114 0.027622
Si Si6 0.995074 0.057412 0.625998
Si Si7 0.404173 0.159257 0.092932
Si Si8 0.036847 0.423865 0.950742
O O1 0.500000 0.500000 0.500000
O O2 0.734637 0.704813 0.448128
O O3 0.492355 0.680386 0.470926
O O4 0.295134 0.506794 0.153059
O O5 0.654946 0.279704 0.181571
O O6 0.971526 0.529713 0.219213
O O7 0.000000 0.500000 0.500000
O O8 0.046930 0.371619 0.407431
O O9 0.062147 0.853801 0.487174
O O10 0.117961 0.829489 0.808118
O O11 0.385932 0.197382 0.221510
O O12 0.114018 0.196202 0.157146
O O13 0.191567 0.061629 0.366755
O O14 0.885965 0.263481 0.924255
O O15 0.678746 0.990019 0.903798
O O16 0.227205 0.135248 0.859639
O O17 0.000000 0.000000 0.500000
O O18 0.000000 0.500000 0.000000
#
# Coordination Sequence:
#
# PCOD9111277 Si02
#       8
#     2   2   2   2   2   2   2   2
#     4  11  20  39  73  96 123 176 231 269 331 394
#     4  12  30  46  63  98 146 178 223 283 337 398
#     4  11  22  43  65  99 133 172 226 284 316 403
#     4  10  22  39  71  99 135 167 219 282 337 400
#     4  10  20  42  71  99 129 169 228 275 329 403
#     4  11  19  41  71 103 128 166 233 280 329 402
#     4  11  25  44  67 101 138 180 215 280 357 394
#     4  12  24  44  72 100 132 180 229 279 335 401
#
# _framework density 20.823201000000001
#
# number of rings (size 3 to 8) (size 9 to 14) (size 15 to 20)
#    0.000    1.000    7.500    2.250    3.500    2.500 
#    2.250    3.125    0.000    0.000    0.000    0.000 
#    0.000    0.000    0.000    0.000    0.000    0.000 
#
# Total GULP energy -89318.533738 kJ/mol
# GULP energy per Si atom -5582.408359 kJ/mol
# Density = 2.077581 g / cm^3
# Si number density = 20.823201 Si / 1000 Ang^3
#
#
#
# Elastic Constant Matrix: (Units=GPa)
#
#
# Indices 1 2 3 4 5 6 
#
# 1 46.3015 17.1447 20.0887 -10.8334 -14.8135 -1.6533
# 2 17.1447 158.9419 46.9540 -30.7836 2.6314 -8.1739
# 3 20.0887 46.9540 96.6992 -18.9237 -20.7030 -1.5490
# 4 -10.8334 -30.7836 -18.9237 47.3162 3.9766 -1.4858
# 5 -14.8135 2.6314 -20.7030 3.9766 27.6541 2.2996
# 6 -1.6533 -8.1739 -1.5490 -1.4858 2.2996 30.9105
#
#
#
# Elastic Compliance Matrix: (Units=1/GPa)
#
#
# Indices 1 2 3 4 5 6 
#
# 1 0.028192 -0.002311 -0.001076 0.003340 0.014039 -0.000041
# 2 -0.002311 0.008833 -0.004265 0.004106 -0.006082 0.002648
# 3 -0.001076 -0.004265 0.015434 0.002177 0.011166 -0.001138
# 4 0.003340 0.004106 0.002177 0.025599 -0.000874 0.002669
# 5 0.014039 -0.006082 0.011166 -0.000874 0.053102 -0.004290
# 6 -0.000041 0.002648 -0.001138 0.002669 -0.004290 0.033440
#
#
# Mechanical properties :
#
#
# Convention : Reuss Voigt Hill
#
# Bulk Modulus (GPa) = 26.91419 52.25750 39.58584
# Shear Modulus (GPa) = 26.00266 35.69319 30.84792
#
# Velocity S-wave (km/s) = 3.53758 4.14467 3.85310
# Velocity P-wave (km/s) = 5.44418 6.93215 6.23273
#
# Compressibility (1/GPa) = 0.03715512
#
# Stress axis : x y z
#
# Youngs Moduli (GPa) = 35.47158 113.21169 64.79069
#
# Poissons Ratio (x) = 0.26161 0.06971
# Poissons Ratio (y) = 0.08197 0.27634
# Poissons Ratio (z) = 0.03817 0.48286
#
# Static dielectric constant tensor:
#      x y z
#    x 1.827690 0.063490 0.023860 
#    y 0.063490 1.905370 0.023990 
#    z 0.023860 0.023990 1.753870 
# 
# From -- ./inp_files/245089.got.cif
#   From: 2010.05.17/outbox.cif.g08.bks.cpg/sg2_123_cif.got.tgz:245089.got - 2010.06.03 11:33:40.
