data_PCOD9111068
_publ_section_title
;
Structure prediction by ZEFSAII (Michael W. Deem and Ramdas Pophale) SiO2 
 PCOD9111068
Probable space group: P -1
;
_chemical_formula_sum "Si O2"
_cell_formula_units_Z 14
_cell_length_a 19.520479
_cell_length_b 4.959828
_cell_length_c 5.849385
_cell_angle_alpha 96.094804
_cell_angle_beta 73.221688
_cell_angle_gamma 106.864337
_cell_volume 518.743907
_symmetry_space_group_name_H-M "P -1"
_symmetry_group_IT_number 2
_symmetry_cell_setting 'triclinic'
loop_
_space_group_symop_operation_xyz
x,y,z
-x,-y,-z
loop_
_atom_site_type_symbol
_atom_site_label
_atom_site_fract_x
_atom_site_fract_y
_atom_site_fract_z
Si Si1 0.818022 0.601128 0.269317
Si Si2 0.095746 0.981159 0.162995
Si Si3 0.320632 0.469212 0.850074
Si Si4 0.048114 0.373726 0.616317
Si Si5 0.235451 0.022431 0.269189
Si Si6 0.617760 0.116414 0.822315
Si Si7 0.569240 0.557112 0.605254
O O1 0.875696 0.454156 0.320409
O O2 0.788453 0.795302 0.493396
O O3 0.744202 0.425265 0.198646
O O4 0.867615 0.810432 0.054268
O O5 0.160079 0.854037 0.195039
O O6 0.016238 0.775584 0.156285
O O7 0.075774 0.154898 0.411813
O O8 0.382256 0.728331 0.923460
O O9 0.282807 0.249673 0.062481
O O10 0.360028 0.319722 0.615585
O O11 0.000000 0.500000 0.500000
O O12 0.293437 0.857147 0.284601
O O13 0.585411 0.286123 0.681180
O O14 0.572715 0.792037 0.815920
O O15 0.500000 0.500000 0.500000
#
# Coordination Sequence:
#
# PCOD9111068 Si02
#       7
#     2   2   2   2   2   2   2
#     4  10  20  42  68  96 142 186 242 295 366 428
#     4   9  21  37  62  94 134 185 233 297 362 419
#     4  11  24  45  75 102 147 191 243 301 371 421
#     4  10  21  38  59  95 141 183 242 294 355 429
#     4  10  22  44  68 103 138 187 246 302 354 437
#     4  12  25  49  74 110 149 187 247 298 357 441
#     4  12  29  49  76 111 150 193 240 295 368 442
#
# _framework density 26.988268000000001
#
# number of rings (size 3 to 8) (size 9 to 14) (size 15 to 20)
#    0.000    1.429    2.857    0.857    2.000    6.286 
#    0.000    7.143    0.000    0.000    0.000    0.000 
#    0.000    0.000    0.000    0.000    0.000    0.000 
#
# Total GULP energy -78449.072825 kJ/mol
# GULP energy per Si atom -5603.505202 kJ/mol
# Density = 2.692684 g / cm^3
# Si number density = 26.988268 Si / 1000 Ang^3
#
#
#
# Elastic Constant Matrix: (Units=GPa)
#
#
# Indices 1 2 3 4 5 6 
#
# 1 232.9737 38.2196 25.9169 -7.4152 49.2046 -22.9576
# 2 38.2196 78.3953 3.5983 -0.3159 12.0630 -15.4640
# 3 25.9169 3.5983 63.5686 -4.1429 -4.0313 -5.5672
# 4 -7.4152 -0.3159 -4.1429 35.8865 -4.3234 11.7158
# 5 49.2046 12.0630 -4.0313 -4.3234 54.1185 -4.3946
# 6 -22.9576 -15.4640 -5.5672 11.7158 -4.3946 42.5617
#
#
#
# Elastic Compliance Matrix: (Units=1/GPa)
#
#
# Indices 1 2 3 4 5 6 
#
# 1 0.006152 -0.001694 -0.002600 -0.000300 -0.005279 0.001900
# 2 -0.001694 0.014759 0.000055 -0.001977 -0.001510 0.004844
# 3 -0.002600 0.000055 0.017209 0.001647 0.003831 0.000811
# 4 -0.000300 -0.001977 0.001647 0.031225 0.002601 -0.008992
# 5 -0.005279 -0.001510 0.003831 0.002601 0.024016 -0.001131
# 6 0.001900 0.004844 0.000811 -0.008992 -0.001131 0.028745
#
#
# Mechanical properties :
#
#
# Convention : Reuss Voigt Hill
#
# Bulk Modulus (GPa) = 33.73613 56.71191 45.22402
# Shear Modulus (GPa) = 35.59576 46.99352 41.29464
#
# Velocity S-wave (km/s) = 3.63565 4.17736 3.91589
# Velocity P-wave (km/s) = 5.49103 6.65780 6.10237
#
# Compressibility (1/GPa) = 0.02964181
#
# Stress axis : x y z
#
# Youngs Moduli (GPa) = 162.54252 67.75448 58.10783
#
# Poissons Ratio (x) = 0.11478 0.15110
# Poissons Ratio (y) = 0.27534 -0.00319
# Poissons Ratio (z) = 0.42266 -0.00371
#
# Static dielectric constant tensor:
#      x y z
#    x 2.131050 0.006010 0.026030 
#    y 0.006010 2.117390 -0.025690 
#    z 0.026030 -0.025690 2.100940 
# 
# From -- ./inp_files/102771.got.cif
#   From: 2010.05.17/outbox.cif.g08.bks.cpg/sg2_52_cif.got.tgz:102771.got - 2010.06.03 11:33:40.
