data_PCOD9111458
_publ_section_title
;
Structure prediction by ZEFSAII (Michael W. Deem and Ramdas Pophale) SiO2 
 PCOD9111458
Probable space group: P -1
;
_chemical_formula_sum "Si O2"
_cell_formula_units_Z 16
_cell_length_a 20.547322
_cell_length_b 8.555654
_cell_length_c 6.883399
_cell_angle_alpha 60.382142
_cell_angle_beta 130.180764
_cell_angle_gamma 139.148804
_cell_volume 604.673283
_symmetry_space_group_name_H-M "P -1"
_symmetry_group_IT_number 2
_symmetry_cell_setting 'triclinic'
loop_
_space_group_symop_operation_xyz
x,y,z
-x,-y,-z
loop_
_atom_site_type_symbol
_atom_site_label
_atom_site_fract_x
_atom_site_fract_y
_atom_site_fract_z
Si Si1 0.028791 0.723247 0.740381
Si Si2 0.765195 0.608933 0.844517
Si Si3 0.479043 0.262109 0.063972
Si Si4 0.189293 0.782758 0.432812
Si Si5 0.757958 0.180274 0.032725
Si Si6 0.383969 0.289987 0.507723
Si Si7 0.064428 0.084448 0.311786
Si Si8 0.274190 0.505611 0.704678
O O1 0.941496 0.435862 0.732824
O O2 0.001518 0.830667 0.790385
O O3 0.151951 0.806180 0.925017
O O4 0.010927 0.826043 0.449842
O O5 0.664410 0.590435 0.575044
O O6 0.885717 0.849709 0.850876
O O7 0.765625 0.405303 0.896406
O O8 0.740115 0.570685 0.049870
O O9 0.423175 0.187159 0.789427
O O10 0.373792 0.049521 0.119768
O O11 0.500000 0.500000 0.000000
O O12 0.598785 0.335992 0.225157
O O13 0.202206 0.812422 0.674047
O O14 0.242295 0.669083 0.535296
O O15 0.269023 0.051948 0.341279
O O16 0.500000 0.500000 0.500000
O O17 0.182687 0.266177 0.553259
#
# Coordination Sequence:
#
# PCOD9111458 Si02
#       8
#     2   2   2   2   2   2   2   2
#     4  10  20  43  64  89 131 174 210 262 319 370
#     4  11  23  41  63  99 125 164 219 262 319 375
#     4  11  22  40  64  92 130 169 204 263 325 387
#     4   9  21  38  65  90 124 170 209 261 318 378
#     4  10  22  37  65  93 128 170 216 257 318 385
#     4  11  22  39  63  94 126 162 210 265 316 380
#     4  10  22  42  69  93 129 168 214 265 315 380
#     4  10  21  41  65  95 130 165 209 260 328 379
#
# _framework density 26.460573
#
# number of rings (size 3 to 8) (size 9 to 14) (size 15 to 20)
#    0.000    1.750    1.250    3.375    1.750    2.000 
#    4.500   16.875    0.000    0.000    0.000    0.000 
#    0.000    0.000    0.000    0.000    0.000    0.000 
#
# Total GULP energy -89554.895860 kJ/mol
# GULP energy per Si atom -5597.180991 kJ/mol
# Density = 2.640035 g / cm^3
# Si number density = 26.460573 Si / 1000 Ang^3
#
#
#
# Elastic Constant Matrix: (Units=GPa)
#
#
# Indices 1 2 3 4 5 6 
#
# 1 161.6882 60.1325 43.0109 17.1750 29.0071 40.8703
# 2 60.1325 158.2482 31.7843 5.8091 3.9747 29.4834
# 3 43.0109 31.7843 66.5287 4.5551 24.9352 5.9307
# 4 17.1750 5.8091 4.5551 45.3962 4.0522 2.1726
# 5 29.0071 3.9747 24.9352 4.0522 59.6046 11.2901
# 6 40.8703 29.4834 5.9307 2.1726 11.2901 44.3164
#
#
#
# Elastic Compliance Matrix: (Units=1/GPa)
#
#
# Indices 1 2 3 4 5 6 
#
# 1 0.010419 -0.001495 -0.004628 -0.002800 -0.001425 -0.007495
# 2 -0.001495 0.008352 -0.003561 -0.000161 0.002491 -0.004328
# 3 -0.004628 -0.003561 0.022142 0.000417 -0.007874 0.005659
# 4 -0.002800 -0.000161 0.000417 0.023047 -0.000686 0.001679
# 5 -0.001425 0.002491 -0.007874 -0.000686 0.021544 -0.004744
# 6 -0.007495 -0.004328 0.005659 0.001679 -0.004744 0.032726
#
#
# Mechanical properties :
#
#
# Convention : Reuss Voigt Hill
#
# Bulk Modulus (GPa) = 46.41034 72.92449 59.66742
# Shear Modulus (GPa) = 34.53511 46.63261 40.58386
#
# Velocity S-wave (km/s) = 3.61661 4.20258 3.92056
# Velocity P-wave (km/s) = 5.91754 7.15321 6.56452
#
# Compressibility (1/GPa) = 0.02154692
#
# Stress axis : x y z
#
# Youngs Moduli (GPa) = 95.97465 119.73086 45.16224
#
# Poissons Ratio (x) = 0.17896 0.20902
# Poissons Ratio (y) = 0.14345 0.16081
# Poissons Ratio (z) = 0.44419 0.42632
#
# Static dielectric constant tensor:
#      x y z
#    x 2.087200 0.065850 -0.118830 
#    y 0.065850 2.116710 0.044710 
#    z -0.118830 0.044710 2.284250 
# 
# From -- ./inp_files/342577.got.cif
#   From: 2010.05.17/outbox.cif.g08.bks.cpg/sg2_172_cif.got.tgz:342577.got - 2010.06.03 11:33:40.
