data_PCOD9111218
_publ_section_title
;
Structure prediction by ZEFSAII (Michael W. Deem and Ramdas Pophale) SiO2 
 PCOD9111218
Probable space group: P -1
;
_chemical_formula_sum "Si O2"
_cell_formula_units_Z 15
_cell_length_a 7.573710
_cell_length_b 26.940620
_cell_length_c 6.237660
_cell_angle_alpha 128.577216
_cell_angle_beta 116.382723
_cell_angle_gamma 35.402195
_cell_volume 570.638621
_symmetry_space_group_name_H-M "P -1"
_symmetry_group_IT_number 2
_symmetry_cell_setting 'triclinic'
loop_
_space_group_symop_operation_xyz
x,y,z
-x,-y,-z
loop_
_atom_site_type_symbol
_atom_site_label
_atom_site_fract_x
_atom_site_fract_y
_atom_site_fract_z
Si Si1 0.000000 0.500000 0.500000
Si Si2 0.454069 0.374600 0.775564
Si Si3 0.652754 0.826385 0.796029
Si Si4 0.898372 0.191581 0.205985
Si Si5 0.490575 0.417828 0.360268
Si Si6 0.233385 0.885476 0.385427
Si Si7 0.973529 0.628066 0.493155
Si Si8 0.760032 0.966946 0.695688
O O1 0.214533 0.471057 0.754402
O O2 0.347102 0.389074 0.293200
O O3 0.727329 0.275646 0.520815
O O4 0.248582 0.366146 0.724580
O O5 0.557627 0.391263 0.075609
O O6 0.548018 0.833475 0.517883
O O7 0.948126 0.798869 0.857849
O O8 0.756563 0.738813 0.745042
O O9 0.372841 0.932023 0.037692
O O10 0.174884 0.088866 0.207391
O O11 0.742204 0.172233 0.942945
O O12 0.145096 0.538506 0.517079
O O13 0.744504 0.402737 0.544481
O O14 0.064898 0.895480 0.526262
O O15 0.000000 0.000000 0.500000
O O16 0.500000 0.000000 0.500000
#
# Coordination Sequence:
#
# PCOD9111218 Si02
#       8
#     1   2   2   2   2   2   2   2
#     4  10  20  42  70  94 128 174 218 268 332 400
#     4  11  25  43  70  96 139 174 223 277 340 399
#     4  12  25  44  71 100 136 181 230 279 343 404
#     4  12  27  46  66 105 134 185 228 276 344 402
#     4  10  23  46  69  96 140 173 218 284 338 399
#     4  12  26  45  69  97 137 178 231 282 334 404
#     4  10  23  42  69 101 128 176 223 269 339 401
#     4  12  25  45  72  95 141 180 222 289 339 400
#
# _framework density 26.286337
#
# number of rings (size 3 to 8) (size 9 to 14) (size 15 to 20)
#    0.000    0.800    2.667    4.800    3.733    5.333 
#    0.000   16.667    0.000    0.000    0.000    0.000 
#    0.000    0.000    0.000    0.000    0.000    0.000 
#
# Total GULP energy -83653.848454 kJ/mol
# GULP energy per Si atom -5576.923230 kJ/mol
# Density = 2.622651 g / cm^3
# Si number density = 26.286337 Si / 1000 Ang^3
#
#
#
# Elastic Constant Matrix: (Units=GPa)
#
#
# Indices 1 2 3 4 5 6 
#
# 1 85.0387 5.6688 27.5908 3.9341 1.8051 -16.8692
# 2 5.6688 91.8929 42.9453 13.1277 17.3461 13.0920
# 3 27.5908 42.9453 134.2492 10.7725 2.8226 -1.1244
# 4 3.9341 13.1277 10.7725 44.4972 -8.8338 11.4224
# 5 1.8051 17.3461 2.8226 -8.8338 40.1520 5.5126
# 6 -16.8692 13.0920 -1.1244 11.4224 5.5126 57.7772
#
#
#
# Elastic Compliance Matrix: (Units=1/GPa)
#
#
# Indices 1 2 3 4 5 6 
#
# 1 0.013613 0.000408 -0.002684 -0.002140 -0.001676 0.004413
# 2 0.000408 0.015129 -0.004447 -0.004316 -0.006933 -0.001881
# 3 -0.002684 -0.004447 0.009451 -0.000610 0.001186 0.000415
# 4 -0.002140 -0.004316 -0.000610 0.027354 0.008833 -0.005909
# 5 -0.001676 -0.006933 0.001186 0.008833 0.030321 -0.003535
# 6 0.004413 -0.001881 0.000415 -0.005909 -0.003535 0.020536
#
#
# Mechanical properties :
#
#
# Convention : Reuss Voigt Hill
#
# Bulk Modulus (GPa) = 40.41128 51.51004 45.96066
# Shear Modulus (GPa) = 36.20612 44.15035 40.17823
#
# Velocity S-wave (km/s) = 3.71533 4.10273 3.91382
# Velocity P-wave (km/s) = 5.81478 6.48702 6.16008
#
# Compressibility (1/GPa) = 0.02474557
#
# Stress axis : x y z
#
# Youngs Moduli (GPa) = 73.45899 66.10013 105.81389
#
# Poissons Ratio (x) = -0.02698 0.28405
# Poissons Ratio (y) = -0.02998 0.47056
# Poissons Ratio (z) = 0.19719 0.29395
#
# Static dielectric constant tensor:
#      x y z
#    x 2.536690 0.167470 -0.138020 
#    y 0.167470 2.233920 -0.015230 
#    z -0.138020 -0.015230 2.093880 
# 
# From -- ./inp_files/57048.got.cif
#   From: 2010.05.17/outbox.cif.g08.bks.cpg/sg2_29_cif.got.tgz:57048.got - 2010.06.03 11:33:40.
