data_PCOD9111206
_publ_section_title
;
Structure prediction by ZEFSAII (Michael W. Deem and Ramdas Pophale) SiO2 
 PCOD9111206
Probable space group: P -1
;
_chemical_formula_sum "Si O2"
_cell_formula_units_Z 16
_cell_length_a 8.210840
_cell_length_b 11.919489
_cell_length_c 14.332763
_cell_angle_alpha 38.998731
_cell_angle_beta 111.497782
_cell_angle_gamma 99.752686
_cell_volume 805.221929
_symmetry_space_group_name_H-M "P -1"
_symmetry_group_IT_number 2
_symmetry_cell_setting 'triclinic'
loop_
_space_group_symop_operation_xyz
x,y,z
-x,-y,-z
loop_
_atom_site_type_symbol
_atom_site_label
_atom_site_fract_x
_atom_site_fract_y
_atom_site_fract_z
Si Si1 0.439934 0.155010 0.199394
Si Si2 0.520005 0.789609 0.165004
Si Si3 0.553341 0.571919 0.136755
Si Si4 0.055037 0.957707 0.681186
Si Si5 0.753173 0.194437 0.363076
Si Si6 0.357792 0.195169 0.613232
Si Si7 0.964739 0.652369 0.974523
Si Si8 0.732849 0.462940 0.762207
O O1 0.571305 0.138773 0.325738
O O2 0.241539 0.256551 0.115440
O O3 0.472365 0.955577 0.288954
O O4 0.504189 0.287936 0.049929
O O5 0.617296 0.676964 0.170225
O O6 0.613058 0.754074 0.307017
O O7 0.334925 0.713880 0.177484
O O8 0.500000 0.000000 0.000000
O O9 0.699377 0.403694 0.242870
O O10 0.384979 0.499314 0.191674
O O11 0.116291 0.842039 0.675161
O O12 0.057611 0.818064 0.855205
O O13 0.191716 0.092007 0.637372
O O14 0.857571 0.072586 0.545393
O O15 0.321690 0.369759 0.426759
O O16 0.000000 0.500000 0.000000
O O17 0.063037 0.572554 0.140982
#
# Coordination Sequence:
#
# PCOD9111206 Si02
#       8
#     2   2   2   2   2   2   2   2
#     4  11  23  37  68  89 133 163 211 254 317 382
#     4  10  20  42  70  87 123 168 215 259 316 369
#     4  10  21  39  66  90 123 164 209 257 311 378
#     4  10  24  40  65  89 139 164 206 260 317 375
#     4  10  21  40  62  95 123 171 206 257 314 376
#     4  11  22  44  65  95 122 172 214 256 315 371
#     4  12  25  39  61  98 130 168 207 258 318 374
#     4  10  24  39  67  94 124 166 212 260 311 377
#
# _framework density 19.870297999999998
#
# number of rings (size 3 to 8) (size 9 to 14) (size 15 to 20)
#    0.750    0.750    1.250    4.500    8.750    0.500 
#    0.000    1.250    0.000    0.000    0.000    0.000 
#    0.000    0.000    0.000    0.000    0.000    0.000 
#
# Total GULP energy -89306.061121 kJ/mol
# GULP energy per Si atom -5581.628820 kJ/mol
# Density = 1.982507 g / cm^3
# Si number density = 19.870298 Si / 1000 Ang^3
#
#
#
# Elastic Constant Matrix: (Units=GPa)
#
#
# Indices 1 2 3 4 5 6 
#
# 1 67.7031 12.7988 28.3526 1.6472 8.2658 12.9415
# 2 12.7988 102.2387 26.2360 0.9564 17.3506 8.8912
# 3 28.3526 26.2360 115.4968 5.8828 14.2065 11.0496
# 4 1.6472 0.9564 5.8828 29.5425 1.2455 -0.6572
# 5 8.2658 17.3506 14.2065 1.2455 37.4164 -7.1512
# 6 12.9415 8.8912 11.0496 -0.6572 -7.1512 16.0673
#
#
#
# Elastic Compliance Matrix: (Units=1/GPa)
#
#
# Indices 1 2 3 4 5 6 
#
# 1 0.020039 0.000982 -0.002432 -0.000759 -0.007441 -0.018353
# 2 0.000982 0.012044 -0.001127 -0.000134 -0.007265 -0.009919
# 3 -0.002432 -0.001127 0.010789 -0.001948 -0.004275 -0.006819
# 4 -0.000759 -0.000134 -0.001948 0.034343 0.000527 0.003665
# 5 -0.007441 -0.007265 -0.004275 0.000527 0.039155 0.030402
# 6 -0.018353 -0.009919 -0.006819 0.003665 0.030402 0.100880
#
#
# Mechanical properties :
#
#
# Convention : Reuss Voigt Hill
#
# Bulk Modulus (GPa) = 26.51433 46.69036 36.60235
# Shear Modulus (GPa) = 21.27855 31.14200 26.21028
#
# Velocity S-wave (km/s) = 3.27597 3.96316 3.63584
# Velocity P-wave (km/s) = 5.26137 6.67014 6.00719
#
# Compressibility (1/GPa) = 0.03771545
#
# Stress axis : x y z
#
# Youngs Moduli (GPa) = 49.90367 83.02664 92.68889
#
# Poissons Ratio (x) = -0.08150 0.22545
# Poissons Ratio (y) = -0.04899 0.10450
# Poissons Ratio (z) = 0.12138 0.09361
#
# Static dielectric constant tensor:
#      x y z
#    x 1.743810 0.007110 -0.000760 
#    y 0.007110 1.697060 -0.000020 
#    z -0.000760 -0.000020 1.705490 
# 
# From -- ./inp_files/499919.got.cif
#   From: 2010.05.17/outbox.cif.g08.bks.cpg/sg2_250_cif.got.tgz:499919.got - 2010.06.03 11:33:40.
