data_PCOD9111122
_publ_section_title
;
Structure prediction by ZEFSAII (Michael W. Deem and Ramdas Pophale) SiO2 
 PCOD9111122
Probable space group: P -1
;
_chemical_formula_sum "Si O2"
_cell_formula_units_Z 16
_cell_length_a 11.519004
_cell_length_b 8.605003
_cell_length_c 12.425845
_cell_angle_alpha 59.941735
_cell_angle_beta 85.787722
_cell_angle_gamma 123.538239
_cell_volume 776.847949
_symmetry_space_group_name_H-M "P -1"
_symmetry_group_IT_number 2
_symmetry_cell_setting 'triclinic'
loop_
_space_group_symop_operation_xyz
x,y,z
-x,-y,-z
loop_
_atom_site_type_symbol
_atom_site_label
_atom_site_fract_x
_atom_site_fract_y
_atom_site_fract_z
Si Si1 0.346862 0.213719 0.599875
Si Si2 0.287720 0.395962 0.124428
Si Si3 0.390983 0.860699 0.658224
Si Si4 0.040011 0.826071 0.870827
Si Si5 0.866571 0.408747 0.629898
Si Si6 0.025805 0.479864 0.821854
Si Si7 0.437978 0.164210 0.169016
Si Si8 0.820762 0.751998 0.576438
O O1 0.500000 0.500000 0.500000
O O2 0.268899 0.182855 0.501118
O O3 0.392803 0.052395 0.655968
O O4 0.204739 0.097913 0.735441
O O5 0.356226 0.271385 0.140589
O O6 0.253743 0.372706 0.260748
O O7 0.124553 0.246205 0.119747
O O8 0.423035 0.681741 0.983292
O O9 0.207306 0.630035 0.725207
O O10 0.463865 0.777862 0.751068
O O11 0.500000 0.000000 0.500000
O O12 0.032085 0.654613 0.843518
O O13 0.040730 0.749100 0.018269
O O14 0.827680 0.578848 0.566071
O O15 0.000000 0.500000 0.500000
O O16 0.932903 0.433682 0.736380
O O17 0.703457 0.127334 0.727225
O O18 0.000000 0.000000 0.500000
#
# Coordination Sequence:
#
# PCOD9111122 Si02
#       8
#     2   2   2   2   2   2   2   2
#     4  11  24  38  63  96 125 161 210 267 318 375
#     4  11  22  44  67  92 127 176 222 261 317 394
#     4  11  21  41  62  89 126 167 211 257 316 386
#     4  10  20  42  69  89 125 168 221 263 310 397
#     4  12  25  41  63 101 134 164 212 276 326 375
#     4  10  21  40  68  93 118 173 215 259 328 377
#     4  11  25  40  66  95 132 168 216 274 321 379
#     4  12  22  41  68  92 127 178 217 255 323 393
#
# _framework density 20.596053000000001
#
# number of rings (size 3 to 8) (size 9 to 14) (size 15 to 20)
#    0.000    1.000    3.750    3.750    0.000    1.500 
#    0.000    0.625    0.000    0.000    0.000    0.000 
#    0.000    0.000    0.000    0.000    0.000    0.000 
#
# Total GULP energy -89407.806239 kJ/mol
# GULP energy per Si atom -5587.987890 kJ/mol
# Density = 2.054918 g / cm^3
# Si number density = 20.596053 Si / 1000 Ang^3
#
#
#
# Elastic Constant Matrix: (Units=GPa)
#
#
# Indices 1 2 3 4 5 6 
#
# 1 86.7746 1.4183 27.6376 -7.2709 -6.0481 19.6024
# 2 1.4183 20.8852 -1.7885 -18.1029 -10.3911 7.6747
# 3 27.6376 -1.7885 142.7200 -3.7875 -21.4982 5.1822
# 4 -7.2709 -18.1029 -3.7875 44.8582 9.3399 1.3545
# 5 -6.0481 -10.3911 -21.4982 9.3399 38.3097 1.7755
# 6 19.6024 7.6747 5.1822 1.3545 1.7755 31.7901
#
#
#
# Elastic Compliance Matrix: (Units=1/GPa)
#
#
# Indices 1 2 3 4 5 6 
#
# 1 0.015400 0.010231 -0.001756 0.006160 0.003281 -0.012125
# 2 0.010231 0.111975 0.005933 0.042948 0.026590 -0.037624
# 3 -0.001756 0.005933 0.008407 0.001689 0.005736 -0.002112
# 4 0.006160 0.042948 0.001689 0.040324 0.004499 -0.016411
# 5 0.003281 0.026590 0.005736 0.004499 0.036493 -0.011607
# 6 -0.012125 -0.037624 -0.002112 -0.016411 -0.011607 0.049708
#
#
# Mechanical properties :
#
#
# Convention : Reuss Voigt Hill
#
# Bulk Modulus (GPa) = 6.07539 33.87940 19.97740
# Shear Modulus (GPa) = 17.33963 37.86576 27.60270
#
# Velocity S-wave (km/s) = 2.90468 4.29242 3.66484
# Velocity P-wave (km/s) = 3.76905 6.40716 5.25630
#
# Compressibility (1/GPa) = 0.16459838
#
# Stress axis : x y z
#
# Youngs Moduli (GPa) = 64.93454 8.93055 118.95373
#
# Poissons Ratio (x) = -0.09137 0.20888
# Poissons Ratio (y) = -0.66435 -0.70576
# Poissons Ratio (z) = 0.11403 -0.05299
#
# Static dielectric constant tensor:
#      x y z
#    x 1.732090 -0.008390 0.019560 
#    y -0.008390 1.709000 -0.041780 
#    z 0.019560 -0.041780 1.691730 
# 
# From -- ./inp_files/320272.got.cif
#   From: 2010.05.17/outbox.cif.g08.bks.cpg/sg2_161_cif.got.tgz:320272.got - 2010.06.03 11:33:40.
