data_PCOD9111103
_publ_section_title
;
Structure prediction by ZEFSAII (Michael W. Deem and Ramdas Pophale) SiO2 
 PCOD9111103
Probable space group: P -1
;
_chemical_formula_sum "Si O2"
_cell_formula_units_Z 16
_cell_length_a 8.050791
_cell_length_b 12.185014
_cell_length_c 14.375510
_cell_angle_alpha 129.797164
_cell_angle_beta 45.040042
_cell_angle_gamma 104.734464
_cell_volume 714.059493
_symmetry_space_group_name_H-M "P -1"
_symmetry_group_IT_number 2
_symmetry_cell_setting 'triclinic'
loop_
_space_group_symop_operation_xyz
x,y,z
-x,-y,-z
loop_
_atom_site_type_symbol
_atom_site_label
_atom_site_fract_x
_atom_site_fract_y
_atom_site_fract_z
Si Si1 0.168540 0.361736 0.791693
Si Si2 0.237435 0.527832 0.670310
Si Si3 0.133109 0.852775 0.180961
Si Si4 0.103182 0.299668 0.489647
Si Si5 0.619724 0.818881 0.875210
Si Si6 0.716698 0.141533 0.521571
Si Si7 0.634395 0.003735 0.670924
Si Si8 0.095556 0.139506 0.033029
O O1 0.243158 0.436989 0.713232
O O2 0.434450 0.237784 0.654584
O O3 0.986385 0.266045 0.799716
O O4 0.000000 0.500000 0.000000
O O5 0.500000 0.500000 0.500000
O O6 0.074263 0.463621 0.630373
O O7 0.112953 0.706746 0.837297
O O8 0.244073 0.918815 0.258667
O O9 0.378896 0.777767 0.978656
O O10 0.913932 0.004819 0.306855
O O11 0.244441 0.268178 0.317679
O O12 0.852301 0.261609 0.555453
O O13 0.272300 0.172028 0.427694
O O14 0.809927 0.813590 0.881044
O O15 0.500000 0.000000 0.000000
O O16 0.705680 0.044943 0.564824
O O17 0.337761 0.082831 0.841243
O O18 0.000000 0.000000 0.000000
#
# Coordination Sequence:
#
# PCOD9111103 Si02
#       8
#     2   2   2   2   2   2   2   2
#     4  12  28  46  65 103 145 188 234 293 355 417
#     4  12  29  46  68 102 145 188 231 298 358 413
#     4  10  22  41  71  97 141 181 237 283 347 419
#     4  11  23  45  71 104 144 174 240 294 356 416
#     4  11  22  42  75 106 133 188 235 296 349 416
#     4  11  22  41  72 101 135 182 238 282 348 418
#     4  10  20  42  69 101 131 187 228 285 351 416
#     4  11  25  45  70 100 140 182 232 288 357 432
#
# _framework density 22.407098999999999
#
# number of rings (size 3 to 8) (size 9 to 14) (size 15 to 20)
#    0.000    1.000    3.750    4.875    3.500    3.500 
#    0.000    4.375    0.000    0.000    0.000    0.000 
#    0.000    0.000    0.000    0.000    0.000    0.000 
#
# Total GULP energy -89497.661736 kJ/mol
# GULP energy per Si atom -5593.603858 kJ/mol
# Density = 2.235610 g / cm^3
# Si number density = 22.407099 Si / 1000 Ang^3
#
#
#
# Elastic Constant Matrix: (Units=GPa)
#
#
# Indices 1 2 3 4 5 6 
#
# 1 62.3552 43.2167 45.7535 -8.7222 -7.3774 3.0900
# 2 43.2167 143.2390 60.7226 -14.6082 -6.6907 22.3450
# 3 45.7535 60.7226 100.9551 -20.4633 -11.0829 14.8840
# 4 -8.7222 -14.6082 -20.4633 48.4027 5.6791 6.9071
# 5 -7.3774 -6.6907 -11.0829 5.6791 36.4181 -4.8524
# 6 3.0900 22.3450 14.8840 6.9071 -4.8524 34.7385
#
#
#
# Elastic Compliance Matrix: (Units=1/GPa)
#
#
# Indices 1 2 3 4 5 6 
#
# 1 0.026459 -0.004659 -0.010182 -0.002058 0.002494 0.005764
# 2 -0.004659 0.010810 -0.003266 0.001971 -0.001015 -0.005673
# 3 -0.010182 -0.003266 0.018678 0.005771 0.001328 -0.005958
# 4 -0.002058 0.001971 0.005771 0.025007 -0.003398 -0.009004
# 5 0.002494 -0.001015 0.001328 -0.003398 0.029329 0.004635
# 6 0.005764 -0.005673 -0.005958 -0.009004 0.004635 0.036914
#
#
# Mechanical properties :
#
#
# Convention : Reuss Voigt Hill
#
# Bulk Modulus (GPa) = 50.67644 67.32610 59.00127
# Shear Modulus (GPa) = 26.31717 34.36895 30.34306
#
# Velocity S-wave (km/s) = 3.43082 3.92068 3.68390
# Velocity P-wave (km/s) = 6.19349 7.11390 6.66959
#
# Compressibility (1/GPa) = 0.01973303
#
# Stress axis : x y z
#
# Youngs Moduli (GPa) = 37.79428 92.50493 53.53765
#
# Poissons Ratio (x) = 0.43098 0.54513
# Poissons Ratio (y) = 0.17608 0.17486
# Poissons Ratio (z) = 0.38483 0.30214
#
# Static dielectric constant tensor:
#      x y z
#    x 1.866790 -0.009380 -0.002710 
#    y -0.009380 1.813710 -0.021450 
#    z -0.002710 -0.021450 1.850280 
# 
# From -- ./inp_files/500767.got.cif
#   From: 2010.05.17/outbox.cif.g08.bks.cpg/sg2_251_cif.got.tgz:500767.got - 2010.06.03 11:33:40.
