data_PCOD9111953
_publ_section_title
;
Structure prediction by ZEFSAII (Michael W. Deem and Ramdas Pophale) SiO2 
 PCOD9111953
Probable space group: P -1
;
_chemical_formula_sum "Si O2"
_cell_formula_units_Z 16
_cell_length_a 8.560424
_cell_length_b 24.624592
_cell_length_c 8.138401
_cell_angle_alpha 59.003215
_cell_angle_beta 53.966797
_cell_angle_gamma 28.397710
_cell_volume 659.782692
_symmetry_space_group_name_H-M "P -1"
_symmetry_group_IT_number 2
_symmetry_cell_setting 'triclinic'
loop_
_space_group_symop_operation_xyz
x,y,z
-x,-y,-z
loop_
_atom_site_type_symbol
_atom_site_label
_atom_site_fract_x
_atom_site_fract_y
_atom_site_fract_z
Si Si1 0.143250 0.139738 0.325439
Si Si2 0.276390 0.977065 0.299459
Si Si3 0.252655 0.192057 0.470716
Si Si4 0.143169 0.903699 0.946835
Si Si5 0.010433 0.303302 0.969373
Si Si6 0.412061 0.433322 0.602236
Si Si7 0.515880 0.270276 0.714167
Si Si8 0.420008 0.502453 0.807913
O O1 0.138618 0.202572 0.116778
O O2 0.754116 0.230944 0.482790
O O3 0.257131 0.047458 0.301815
O O4 0.319264 0.114433 0.426476
O O5 0.158724 0.024262 0.113621
O O6 0.638410 0.850366 0.342588
O O7 0.000000 0.000000 0.500000
O O8 0.511649 0.172160 0.255349
O O9 0.839661 0.317309 0.526908
O O10 0.252728 0.817678 0.137139
O O11 0.000000 0.000000 0.000000
O O12 0.870920 0.385907 0.075829
O O13 0.677730 0.387973 0.928646
O O14 0.322229 0.261642 0.779677
O O15 0.301483 0.391308 0.710909
O O16 0.278329 0.502144 0.742864
O O17 0.344976 0.502096 0.392989
#
# Coordination Sequence:
#
# PCOD9111953 Si02
#       8
#     2   2   2   2   2   2   2   2
#     4  11  22  44  66  96 135 174 212 265 327 384
#     4  10  23  39  67  96 132 173 215 263 321 392
#     4  10  20  44  64  92 135 174 207 269 323 379
#     4  11  23  40  63  97 133 167 220 266 318 391
#     4  11  23  42  67  96 130 169 216 272 321 386
#     4  10  22  41  66  93 127 175 213 269 325 383
#     4  11  22  41  66  93 131 171 215 264 330 374
#     4  10  22  43  64  94 132 164 222 269 325 381
#
# _framework density 24.250411
#
# number of rings (size 3 to 8) (size 9 to 14) (size 15 to 20)
#    0.000    1.500    3.750    1.875    1.750    5.000 
#    0.000    3.125    0.000    0.000    0.000    0.000 
#    0.000    0.000    0.000    0.000    0.000    0.000 
#
# Total GULP energy -89434.498996 kJ/mol
# GULP energy per Si atom -5589.656187 kJ/mol
# Density = 2.419522 g / cm^3
# Si number density = 24.250411 Si / 1000 Ang^3
#
#
#
# Elastic Constant Matrix: (Units=GPa)
#
#
# Indices 1 2 3 4 5 6 
#
# 1 88.7023 15.6112 26.6587 -13.8960 -0.1258 11.6292
# 2 15.6112 50.1556 0.6974 -10.2246 2.1439 3.5056
# 3 26.6587 0.6974 -5.7693 -5.9151 -29.3496 18.8979
# 4 -13.8960 -10.2246 -5.9151 35.7383 -4.3174 -1.5083
# 5 -0.1258 2.1439 -29.3496 -4.3174 47.2672 -5.2425
# 6 11.6292 3.5056 18.8979 -1.5083 -5.2425 37.6575
#
#
#
# Elastic Compliance Matrix: (Units=1/GPa)
#
#
# Indices 1 2 3 4 5 6 
#
# 1 0.011245 -0.002330 0.006653 0.005055 0.004083 -0.005824
# 2 -0.002330 0.021746 -0.002507 0.004635 -0.002143 -0.000160
# 3 0.006653 -0.002507 -0.026963 -0.004127 -0.015953 0.009323
# 4 0.005055 0.004635 -0.004127 0.030669 0.000190 0.001333
# 5 0.004083 -0.002143 -0.015953 0.000190 0.012337 0.008670
# 6 -0.005824 -0.000160 0.009323 0.001333 0.008670 0.024950
#
#
# Mechanical properties :
#
#
# Convention : Reuss Voigt Hill
#
# Bulk Modulus (GPa) = 103.50714 24.33590 63.92152
# Shear Modulus (GPa) = 67.96095 30.14070 49.05083
#
# Velocity S-wave (km/s) = 5.29958 3.52930 4.50230
# Velocity P-wave (km/s) = 8.95671 5.16381 7.31053
#
# Compressibility (1/GPa) = 0.00966117
#
# Stress axis : x y z
#
# Youngs Moduli (GPa) = 88.92616 45.98636 -37.08822
#
# Poissons Ratio (x) = 0.10714 0.24675
# Poissons Ratio (y) = 0.20717 -0.09298
# Poissons Ratio (z) = -0.59164 0.11528
#
# Static dielectric constant tensor:
#      x y z
#    x 1.940130 -0.001680 -0.002870 
#    y -0.001680 1.992260 0.034440 
#    z -0.002870 0.034440 1.966060 
# 
# From -- ./inp_files/227362.got.cif
#   From: 2010.05.17/outbox.cif.g08.bks.cpg/sg2_114_cif.got.tgz:227362.got - 2010.06.03 11:33:40.
