data_PCOD9111518
_publ_section_title
;
Structure prediction by ZEFSAII (Michael W. Deem and Ramdas Pophale) SiO2 
 PCOD9111518
Probable space group: P -1
;
_chemical_formula_sum "Si O2"
_cell_formula_units_Z 16
_cell_length_a 18.206756
_cell_length_b 7.628728
_cell_length_c 4.887672
_cell_angle_alpha 73.431913
_cell_angle_beta 66.909991
_cell_angle_gamma 75.136155
_cell_volume 590.443331
_symmetry_space_group_name_H-M "P -1"
_symmetry_group_IT_number 2
_symmetry_cell_setting 'triclinic'
loop_
_space_group_symop_operation_xyz
x,y,z
-x,-y,-z
loop_
_atom_site_type_symbol
_atom_site_label
_atom_site_fract_x
_atom_site_fract_y
_atom_site_fract_z
Si Si1 0.294179 0.931891 0.743248
Si Si2 0.248854 0.234095 0.101390
Si Si3 0.122235 0.094811 0.643142
Si Si4 0.122582 0.722965 0.511147
Si Si5 0.546313 0.647076 0.510733
Si Si6 0.403938 0.162693 0.180993
Si Si7 0.714728 0.422892 0.407792
Si Si8 0.968220 0.362615 0.826533
O O1 0.204551 0.022244 0.720896
O O2 0.373844 0.985042 0.447339
O O3 0.296092 0.718615 0.760462
O O4 0.288607 0.034985 0.999457
O O5 0.158318 0.232613 0.324167
O O6 0.310455 0.270830 0.233638
O O7 0.249493 0.399835 0.823548
O O8 0.045105 0.205728 0.852007
O O9 0.098454 0.928168 0.576514
O O10 0.218869 0.676175 0.435807
O O11 0.096344 0.717223 0.239873
O O12 0.077560 0.594587 0.836602
O O13 0.500000 0.500000 0.500000
O O14 0.528431 0.772408 0.750352
O O15 0.624358 0.509364 0.579373
O O16 0.565617 0.791696 0.185420
O O17 0.000000 0.500000 0.500000
#
# Coordination Sequence:
#
# PCOD9111518 Si02
#       8
#     2   2   2   2   2   2   2   2
#     4  10  21  41  68 100 129 177 221 268 321 384
#     4  10  21  41  69  96 133 172 221 270 323 382
#     4  10  24  39  64  92 131 170 219 272 326 376
#     4  11  26  42  63  93 125 172 218 265 327 387
#     4  11  23  43  71  99 134 173 213 267 331 387
#     4  10  20  43  65  96 135 171 211 268 320 388
#     4  10  23  43  69  98 130 170 223 264 325 396
#     4  12  26  42  63  93 129 170 219 270 327 382
#
# _framework density 27.098286000000002
#
# number of rings (size 3 to 8) (size 9 to 14) (size 15 to 20)
#    0.000    1.500    2.500    2.250    7.000    2.000 
#    9.000    1.250    0.000    0.000    0.000    0.000 
#    0.000    0.000    0.000    0.000    0.000    0.000 
#
# Total GULP energy -89326.321644 kJ/mol
# GULP energy per Si atom -5582.895103 kJ/mol
# Density = 2.703661 g / cm^3
# Si number density = 27.098286 Si / 1000 Ang^3
#
#
#
# Elastic Constant Matrix: (Units=GPa)
#
#
# Indices 1 2 3 4 5 6 
#
# 1 92.2992 27.8065 22.0875 7.8584 5.3372 20.3466
# 2 27.8065 61.8977 7.5024 9.1568 6.5321 9.8283
# 3 22.0875 7.5024 76.4299 3.2308 8.7869 21.5535
# 4 7.8584 9.1568 3.2308 20.5716 15.0597 2.6809
# 5 5.3372 6.5321 8.7869 15.0597 38.6413 11.5269
# 6 20.3466 9.8283 21.5535 2.6809 11.5269 35.7914
#
#
#
# Elastic Compliance Matrix: (Units=1/GPa)
#
#
# Indices 1 2 3 4 5 6 
#
# 1 0.014360 -0.004892 -0.002077 -0.004230 0.002800 -0.006154
# 2 -0.004892 0.019700 0.000426 -0.007253 0.000856 -0.002618
# 3 -0.002077 0.000426 0.016102 -0.000190 -0.000887 -0.008333
# 4 -0.004230 -0.007253 -0.000190 0.073981 -0.029507 0.008472
# 5 0.002800 0.000856 -0.000887 -0.029507 0.040684 -0.012185
# 6 -0.006154 -0.002618 -0.008333 0.008472 -0.012185 0.040465
#
#
# Mechanical properties :
#
#
# Convention : Reuss Voigt Hill
#
# Bulk Modulus (GPa) = 26.97129 38.37994 32.67562
# Shear Modulus (GPa) = 21.66973 30.54955 26.10964
#
# Velocity S-wave (km/s) = 2.83091 3.36126 3.10742
# Velocity P-wave (km/s) = 4.54535 5.40908 4.99591
#
# Compressibility (1/GPa) = 0.03707646
#
# Stress axis : x y z
#
# Youngs Moduli (GPa) = 69.63792 50.76192 62.10282
#
# Poissons Ratio (x) = 0.24832 0.12901
# Poissons Ratio (y) = 0.34066 -0.02648
# Poissons Ratio (z) = 0.14466 -0.02164
#
# Static dielectric constant tensor:
#      x y z
#    x 2.111460 0.051520 0.003980 
#    y 0.051520 2.249460 -0.038480 
#    z 0.003980 -0.038480 2.218180 
# 
# From -- ./inp_files/106473.got.cif
#   From: 2010.05.17/outbox.cif.g08.bks.cpg/sg2_54_cif.got.tgz:106473.got - 2010.06.03 11:33:40.
