data_PCOD9111720
_publ_section_title
;
Structure prediction by ZEFSAII (Michael W. Deem and Ramdas Pophale) SiO2 
 PCOD9111720
Probable space group: P -1
;
_chemical_formula_sum "Si O2"
_cell_formula_units_Z 14
_cell_length_a 11.085897
_cell_length_b 11.665511
_cell_length_c 16.898445
_cell_angle_alpha 131.396238
_cell_angle_beta 152.760228
_cell_angle_gamma 67.017815
_cell_volume 613.825582
_symmetry_space_group_name_H-M "P -1"
_symmetry_group_IT_number 2
_symmetry_cell_setting 'triclinic'
loop_
_space_group_symop_operation_xyz
x,y,z
-x,-y,-z
loop_
_atom_site_type_symbol
_atom_site_label
_atom_site_fract_x
_atom_site_fract_y
_atom_site_fract_z
Si Si1 0.233004 0.563350 0.013637
Si Si2 0.771061 0.782246 0.172314
Si Si3 0.514109 0.904151 0.220025
Si Si4 0.778810 0.704006 0.523899
Si Si5 0.728891 0.904912 0.930081
Si Si6 0.642497 0.215748 0.196404
Si Si7 0.361615 0.461929 0.314047
O O1 0.300413 0.721352 0.064037
O O2 0.495604 0.658086 0.279261
O O3 0.255200 0.406366 0.912654
O O4 0.882100 0.477565 0.805426
O O5 0.591651 0.835579 0.153227
O O6 0.602936 0.753011 0.976423
O O7 0.144579 0.953267 0.472946
O O8 0.350814 0.010425 0.150748
O O9 0.630946 0.574061 0.455286
O O10 0.014416 0.674555 0.595957
O O11 0.995714 0.916684 0.778446
O O12 0.396038 0.782910 0.731634
O O13 0.817233 0.759764 0.901782
O O14 0.500000 0.000000 0.000000
O O15 0.500000 0.500000 0.500000
#
# Coordination Sequence:
#
# PCOD9111720 Si02
#       7
#     2   2   2   2   2   2   2
#     4  12  27  43  66 100 138 178 225 270 332 404
#     4  11  23  41  68 100 139 170 221 279 333 395
#     4  11  23  42  67 104 135 176 220 274 344 387
#     4  11  25  46  70 100 133 178 224 277 339 392
#     4  11  24  45  73  99 136 175 222 281 332 398
#     4  10  20  43  69 103 131 168 224 274 336 394
#     4  12  28  47  67  99 135 181 231 269 329 402
#
# _framework density 22.807782
#
# number of rings (size 3 to 8) (size 9 to 14) (size 15 to 20)
#    0.000    0.857    2.857    5.143    2.000    6.286 
#    0.000    0.000    0.000    0.000    0.000    0.000 
#    0.000    0.000    0.000    0.000    0.000    0.000 
#
# Total GULP energy -78327.532029 kJ/mol
# GULP energy per Si atom -5594.823716 kJ/mol
# Density = 2.275587 g / cm^3
# Si number density = 22.807782 Si / 1000 Ang^3
#
#
#
# Elastic Constant Matrix: (Units=GPa)
#
#
# Indices 1 2 3 4 5 6 
#
# 1 31.8878 33.0722 11.4122 12.8687 12.7512 15.9270
# 2 33.0722 88.1761 20.5788 2.6702 1.2554 5.6682
# 3 11.4122 20.5788 80.4784 2.0269 1.8968 -0.9522
# 4 12.8687 2.6702 2.0269 37.0192 -3.7463 0.5076
# 5 12.7512 1.2554 1.8968 -3.7463 25.9813 7.4452
# 6 15.9270 5.6682 -0.9522 0.5076 7.4452 37.7485
#
#
#
# Elastic Compliance Matrix: (Units=1/GPa)
#
#
# Indices 1 2 3 4 5 6 
#
# 1 0.175355 -0.057886 -0.007213 -0.063583 -0.077784 -0.049280
# 2 -0.057886 0.031323 -0.000750 0.020315 0.025769 0.014346
# 3 -0.007213 -0.000750 0.013580 0.001977 0.001987 0.003080
# 4 -0.063583 0.020315 0.001977 0.050611 0.032586 0.016719
# 5 -0.077784 0.025769 0.001987 0.032586 0.076088 0.013554
# 6 -0.049280 0.014346 0.003080 0.016719 0.013554 0.042309
#
#
# Mechanical properties :
#
#
# Convention : Reuss Voigt Hill
#
# Bulk Modulus (GPa) = 11.29183 36.74098 24.01641
# Shear Modulus (GPa) = 9.08291 29.18174 19.13233
#
# Velocity S-wave (km/s) = 1.99775 3.58084 2.89943
# Velocity P-wave (km/s) = 3.20671 5.76546 4.66495
#
# Compressibility (1/GPa) = 0.08855957
#
# Stress axis : x y z
#
# Youngs Moduli (GPa) = 5.70273 31.92522 73.63685
#
# Poissons Ratio (x) = 1.84803 0.53112
# Poissons Ratio (y) = 0.33011 0.05525
# Poissons Ratio (z) = 0.04113 0.02395
#
# Static dielectric constant tensor:
#      x y z
#    x 1.876180 -0.005930 0.007730 
#    y -0.005930 1.835580 0.022800 
#    z 0.007730 0.022800 1.831050 
# 
# From -- ./inp_files/568842.got.cif
#   From: 2010.05.17/outbox.cif.g08.bks.cpg/sg2_285_cif.got.tgz:568842.got - 2010.06.03 11:33:40.
