data_PCOD9111829
_publ_section_title
;
Structure prediction by ZEFSAII (Michael W. Deem and Ramdas Pophale) SiO2 
 PCOD9111829
Probable space group: P -1
;
_chemical_formula_sum "Si O2"
_cell_formula_units_Z 15
_cell_length_a 13.686742
_cell_length_b 6.649067
_cell_length_c 13.533356
_cell_angle_alpha 69.693648
_cell_angle_beta 33.083355
_cell_angle_gamma 63.756449
_cell_volume 602.285243
_symmetry_space_group_name_H-M "P -1"
_symmetry_group_IT_number 2
_symmetry_cell_setting 'triclinic'
loop_
_space_group_symop_operation_xyz
x,y,z
-x,-y,-z
loop_
_atom_site_type_symbol
_atom_site_label
_atom_site_fract_x
_atom_site_fract_y
_atom_site_fract_z
Si Si1 0.000000 0.500000 0.000000
Si Si2 0.263470 0.684541 0.276261
Si Si3 0.876503 0.911332 0.790770
Si Si4 0.155338 0.151615 0.749649
Si Si5 0.253267 0.816394 0.975593
Si Si6 0.632918 0.333847 0.303242
Si Si7 0.671994 0.638130 0.885637
Si Si8 0.754803 0.434010 0.463494
O O1 0.121363 0.287675 0.859314
O O2 0.195966 0.560826 0.851411
O O3 0.285695 0.443380 0.248438
O O4 0.256580 0.668012 0.401614
O O5 0.101725 0.874047 0.324341
O O6 0.452145 0.745335 0.073762
O O7 0.798370 0.775825 0.799829
O O8 0.063643 0.744410 0.706930
O O9 0.736941 0.994068 0.987383
O O10 0.196807 0.332274 0.609915
O O11 0.958582 0.113253 0.895878
O O12 0.309858 0.910902 0.653493
O O13 0.281867 0.591929 0.052718
O O14 0.382977 0.743563 0.784623
O O15 0.429906 0.514664 0.455798
#
# Coordination Sequence:
#
# PCOD9111829 Si02
#       8
#     1   2   2   2   2   2   2   2
#     4  10  24  48  76  94 132 180 236 280 324 404
#     4  10  23  44  66 100 137 177 229 279 324 411
#     4  11  24  42  71 101 135 179 227 279 336 403
#     4  11  25  44  69  99 136 180 222 283 337 405
#     4  10  21  43  70  95 131 177 234 269 328 412
#     4  11  25  46  72 101 134 180 230 278 337 404
#     4  10  20  43  71  95 132 182 230 273 329 400
#     4  12  25  45  66 103 146 172 219 286 350 388
#
# _framework density 24.905142000000001
#
# number of rings (size 3 to 8) (size 9 to 14) (size 15 to 20)
#    0.000    1.333    2.667    2.800    3.733    1.067 
#    4.800    0.000    0.000    0.000    0.000    0.000 
#    0.000    0.000    0.000    0.000    0.000    0.000 
#
# Total GULP energy -83639.380612 kJ/mol
# GULP energy per Si atom -5575.958707 kJ/mol
# Density = 2.484846 g / cm^3
# Si number density = 24.905142 Si / 1000 Ang^3
#
#
#
# Elastic Constant Matrix: (Units=GPa)
#
#
# Indices 1 2 3 4 5 6 
#
# 1 79.4447 34.8229 5.7236 5.4557 -10.6968 -0.1537
# 2 34.8229 111.6671 27.1759 19.4056 -15.7185 -17.3954
# 3 5.7236 27.1759 40.5695 2.3507 -20.9929 4.3115
# 4 5.4557 19.4056 2.3507 22.4664 -8.2315 -0.3522
# 5 -10.6968 -15.7185 -20.9929 -8.2315 30.2428 0.0716
# 6 -0.1537 -17.3954 4.3115 -0.3522 0.0716 48.1999
#
#
#
# Elastic Compliance Matrix: (Units=1/GPa)
#
#
# Indices 1 2 3 4 5 6 
#
# 1 0.015692 -0.006390 0.005975 0.003753 0.007405 -0.002774
# 2 -0.006390 0.016960 -0.014072 -0.014101 -0.007069 0.007267
# 3 0.005975 -0.014072 0.051625 0.018200 0.035611 -0.009597
# 4 0.003753 -0.014101 0.018200 0.062439 0.023641 -0.006284
# 5 0.007405 -0.007069 0.035611 0.023641 0.063178 -0.005634
# 6 -0.002774 0.007267 -0.009597 -0.006284 -0.005634 0.024182
#
#
# Mechanical properties :
#
#
# Convention : Reuss Voigt Hill
#
# Bulk Modulus (GPa) = 18.08194 40.79179 29.43686
# Shear Modulus (GPa) = 17.76306 31.11241 24.43773
#
# Velocity S-wave (km/s) = 2.67353 3.53829 3.13586
# Velocity P-wave (km/s) = 4.09957 5.75387 4.99567
#
# Compressibility (1/GPa) = 0.05530381
#
# Stress axis : x y z
#
# Youngs Moduli (GPa) = 63.72859 58.96219 19.37042
#
# Poissons Ratio (x) = 0.37674 -0.11575
# Poissons Ratio (y) = 0.40720 0.27259
# Poissons Ratio (z) = -0.38081 0.82973
#
# Static dielectric constant tensor:
#      x y z
#    x 1.671990 0.118500 -0.300410 
#    y 0.118500 1.928060 0.202030 
#    z -0.300410 0.202030 1.722160 
# 
# From -- ./inp_files/525583.got.cif
#   From: 2010.05.17/outbox.cif.g08.bks.cpg/sg2_263_cif.got.tgz:525583.got - 2010.06.03 11:33:40.
