data_PCOD9111985
_publ_section_title
;
Structure prediction by ZEFSAII (Michael W. Deem and Ramdas Pophale) SiO2 
 PCOD9111985
Probable space group: P -1
;
_chemical_formula_sum "Si O2"
_cell_formula_units_Z 16
_cell_length_a 19.299283
_cell_length_b 8.577631
_cell_length_c 16.282329
_cell_angle_alpha 117.632080
_cell_angle_beta 21.149069
_cell_angle_gamma 128.716312
_cell_volume 686.975489
_symmetry_space_group_name_H-M "P -1"
_symmetry_group_IT_number 2
_symmetry_cell_setting 'triclinic'
loop_
_space_group_symop_operation_xyz
x,y,z
-x,-y,-z
loop_
_atom_site_type_symbol
_atom_site_label
_atom_site_fract_x
_atom_site_fract_y
_atom_site_fract_z
Si Si1 0.292371 0.545286 0.664324
Si Si2 0.611605 0.412410 0.242466
Si Si3 0.826699 0.083539 0.404341
Si Si4 0.949145 0.342538 0.773083
Si Si5 0.326828 0.770912 0.527784
Si Si6 0.131270 0.932661 0.047043
Si Si7 0.760783 0.261108 0.678196
Si Si8 0.225030 0.991326 0.256748
O O1 0.528020 0.567508 0.378006
O O2 0.320704 0.599527 0.741659
O O3 0.260251 0.691530 0.675319
O O4 0.071288 0.289353 0.832221
O O5 0.385829 0.171998 0.405432
O O6 0.818656 0.454016 0.965865
O O7 0.784277 0.120423 0.366797
O O8 0.791227 0.225509 0.540581
O O9 0.062417 0.099832 0.163723
O O10 0.871980 0.154873 0.880045
O O11 0.860716 0.220643 0.755625
O O12 0.225601 0.543932 0.534327
O O13 0.608440 0.942985 0.247952
O O14 0.754806 0.073718 0.689739
O O15 0.000000 0.500000 0.500000
O O16 0.494386 0.195548 0.977404
O O17 0.000000 0.000000 0.500000
#
# Coordination Sequence:
#
# PCOD9111985 Si02
#       8
#     2   2   2   2   2   2   2   2
#     4   9  23  41  62  95 122 168 213 257 311 359
#     4  10  20  44  66  85 131 166 207 263 308 372
#     4  11  22  42  66  89 130 169 203 264 317 366
#     4  11  22  42  65  90 128 170 205 257 321 371
#     4  11  23  39  63  97 123 166 214 252 311 379
#     4  10  22  41  61  94 129 165 209 259 307 371
#     4  11  24  42  65  96 129 165 212 267 322 379
#     4  11  24  42  67  97 126 167 215 263 319 388
#
# _framework density 23.290496999999998
#
# number of rings (size 3 to 8) (size 9 to 14) (size 15 to 20)
#    0.000    1.500    2.500    1.500    1.750    4.000 
#    2.250    1.875    0.000    0.000    0.000    0.000 
#    0.000    0.000    0.000    0.000    0.000    0.000 
#
# Total GULP energy -89429.439298 kJ/mol
# GULP energy per Si atom -5589.339956 kJ/mol
# Density = 2.323749 g / cm^3
# Si number density = 23.290497 Si / 1000 Ang^3
#
#
#
# Elastic Constant Matrix: (Units=GPa)
#
#
# Indices 1 2 3 4 5 6 
#
# 1 80.7875 14.8992 16.0266 11.8382 0.1800 6.0979
# 2 14.8992 52.3082 48.0956 -4.2464 5.2610 -0.9268
# 3 16.0266 48.0956 131.5262 7.6461 -22.3011 -7.7239
# 4 11.8382 -4.2464 7.6461 40.6566 1.6913 -11.0855
# 5 0.1800 5.2610 -22.3011 1.6913 24.5536 3.9868
# 6 6.0979 -0.9268 -7.7239 -11.0855 3.9868 37.3764
#
#
#
# Elastic Compliance Matrix: (Units=1/GPa)
#
#
# Indices 1 2 3 4 5 6 
#
# 1 0.014582 -0.006227 0.001206 -0.006522 0.003518 -0.004594
# 2 -0.006227 0.044548 -0.021159 0.013034 -0.030404 0.004857
# 3 0.001206 -0.021159 0.019438 -0.007549 0.022925 -0.001389
# 4 -0.006522 0.013034 -0.007549 0.032851 -0.013655 0.011027
# 5 0.003518 -0.030404 0.022925 -0.013655 0.070300 -0.008139
# 6 -0.004594 0.004857 -0.001389 0.011027 -0.008139 0.031476
#
#
# Mechanical properties :
#
#
# Convention : Reuss Voigt Hill
#
# Bulk Modulus (GPa) = 38.15643 46.96274 42.55958
# Shear Modulus (GPa) = 18.22884 32.89069 25.55976
#
# Velocity S-wave (km/s) = 2.80066 3.76199 3.31635
# Velocity P-wave (km/s) = 5.18427 6.25122 5.74258
#
# Compressibility (1/GPa) = 0.02620790
#
# Stress axis : x y z
#
# Youngs Moduli (GPa) = 68.57811 22.44760 51.44654
#
# Poissons Ratio (x) = 0.13978 -0.06205
# Poissons Ratio (y) = 0.42705 1.08855
# Poissons Ratio (z) = -0.08272 0.47497
#
# Static dielectric constant tensor:
#      x y z
#    x 1.886260 -0.035520 -0.033760 
#    y -0.035520 1.875310 0.019710 
#    z -0.033760 0.019710 1.967010 
# 
# From -- ./inp_files/577359.got.cif
#   From: 2010.05.17/outbox.cif.g08.bks.cpg/sg2_289_cif.got.tgz:577359.got - 2010.06.03 11:33:40.
