data_PCOD9111503
_publ_section_title
;
Structure prediction by ZEFSAII (Michael W. Deem and Ramdas Pophale) SiO2 
 PCOD9111503
Probable space group: P -1
;
_chemical_formula_sum "Si O2"
_cell_formula_units_Z 14
_cell_length_a 8.289524
_cell_length_b 9.458337
_cell_length_c 11.290065
_cell_angle_alpha 79.918784
_cell_angle_beta 104.177785
_cell_angle_gamma 136.509542
_cell_volume 590.662326
_symmetry_space_group_name_H-M "P -1"
_symmetry_group_IT_number 2
_symmetry_cell_setting 'triclinic'
loop_
_space_group_symop_operation_xyz
x,y,z
-x,-y,-z
loop_
_atom_site_type_symbol
_atom_site_label
_atom_site_fract_x
_atom_site_fract_y
_atom_site_fract_z
Si Si1 0.411486 0.412346 0.629791
Si Si2 0.066506 0.705044 0.459996
Si Si3 0.703341 0.066311 0.760897
Si Si4 0.094761 0.373906 0.980826
Si Si5 0.854029 0.014905 0.379155
Si Si6 0.326139 0.798026 0.915638
Si Si7 0.803817 0.791063 0.807127
O O1 0.500000 0.500000 0.500000
O O2 0.167304 0.349630 0.615198
O O3 0.588380 0.575813 0.736873
O O4 0.380614 0.221809 0.653699
O O5 0.000000 0.500000 0.500000
O O6 0.262362 0.841104 0.373283
O O7 0.147516 0.838812 0.571909
O O8 0.442966 0.908571 0.795687
O O9 0.759543 0.932349 0.780508
O O10 0.906508 0.256423 0.856747
O O11 0.163583 0.256649 0.050381
O O12 0.942584 0.330142 0.075642
O O13 0.311646 0.616557 0.959373
O O14 0.983509 0.101653 0.264096
O O15 0.000000 0.000000 0.500000
O O16 0.500000 0.000000 0.000000
#
# Coordination Sequence:
#
# PCOD9111503 Si02
#       7
#     2   2   2   2   2   2   2
#     4  11  21  43  68  92 134 177 219 271 327 397
#     4  11  24  45  69 101 136 175 224 279 336 391
#     4  11  23  44  67  99 136 170 222 285 320 398
#     4  10  24  44  67  97 135 175 216 276 334 402
#     4  10  20  43  65  91 135 171 215 271 329 390
#     4   9  22  45  65  89 138 171 221 268 336 385
#     4  12  23  41  72  97 130 176 224 266 337 395
#
# _framework density 23.702206
#
# number of rings (size 3 to 8) (size 9 to 14) (size 15 to 20)
#    0.000    1.429    5.714    0.429    2.000    6.286 
#    2.571    1.429    0.000    0.000    0.000    0.000 
#    0.000    0.000    0.000    0.000    0.000    0.000 
#
# Total GULP energy -78252.650123 kJ/mol
# GULP energy per Si atom -5589.475009 kJ/mol
# Density = 2.364826 g / cm^3
# Si number density = 23.702206 Si / 1000 Ang^3
#
#
#
# Elastic Constant Matrix: (Units=GPa)
#
#
# Indices 1 2 3 4 5 6 
#
# 1 48.6722 32.8304 18.9688 -3.8751 -20.1155 -5.2725
# 2 32.8304 182.6971 26.5600 -3.5428 -10.6036 -20.3299
# 3 18.9688 26.5600 51.9453 -1.7287 -7.6691 2.6170
# 4 -3.8751 -3.5428 -1.7287 35.4793 1.3938 -8.1004
# 5 -20.1155 -10.6036 -7.6691 1.3938 36.9386 -3.5578
# 6 -5.2725 -20.3299 2.6170 -8.1004 -3.5578 46.5633
#
#
#
# Elastic Compliance Matrix: (Units=1/GPa)
#
#
# Indices 1 2 3 4 5 6 
#
# 1 0.033258 -0.003287 -0.008256 0.003328 0.015769 0.004579
# 2 -0.003287 0.006736 -0.002375 0.000851 -0.000108 0.002842
# 3 -0.008256 -0.002375 0.023542 -0.000761 -0.000596 -0.003473
# 4 0.003328 0.000851 -0.000761 0.029937 0.001357 0.006103
# 5 0.015769 -0.000108 -0.000596 0.001357 0.035911 0.004752
# 6 0.004579 0.002842 -0.003473 0.006103 0.004752 0.024855
#
#
# Mechanical properties :
#
#
# Convention : Reuss Voigt Hill
#
# Bulk Modulus (GPa) = 28.01063 48.89255 38.45159
# Shear Modulus (GPa) = 25.77652 37.45994 31.61823
#
# Velocity S-wave (km/s) = 3.30133 3.97979 3.65633
# Velocity P-wave (km/s) = 5.13567 6.46459 5.83806
#
# Compressibility (1/GPa) = 0.03570073
#
# Stress axis : x y z
#
# Youngs Moduli (GPa) = 30.06756 148.45791 42.47787
#
# Poissons Ratio (x) = 0.48798 0.35070
# Poissons Ratio (y) = 0.09883 0.10087
# Poissons Ratio (z) = 0.24824 0.35252
#
# Static dielectric constant tensor:
#      x y z
#    x 1.946990 -0.090640 0.108790 
#    y -0.090640 1.849540 0.012490 
#    z 0.108790 0.012490 1.886500 
# 
# From -- ./inp_files/268320.got.cif
#   From: 2010.05.17/outbox.cif.g08.bks.cpg/sg2_135_cif.got.tgz:268320.got - 2010.06.03 11:33:40.
