data_PCOD9111199
_publ_section_title
;
Structure prediction by ZEFSAII (Michael W. Deem and Ramdas Pophale) SiO2 
 PCOD9111199
Probable space group: P -1
;
_chemical_formula_sum "Si O2"
_cell_formula_units_Z 16
_cell_length_a 16.791113
_cell_length_b 5.272627
_cell_length_c 10.934690
_cell_angle_alpha 92.859390
_cell_angle_beta 39.439962
_cell_angle_gamma 97.579468
_cell_volume 607.540234
_symmetry_space_group_name_H-M "P -1"
_symmetry_group_IT_number 2
_symmetry_cell_setting 'triclinic'
loop_
_space_group_symop_operation_xyz
x,y,z
-x,-y,-z
loop_
_atom_site_type_symbol
_atom_site_label
_atom_site_fract_x
_atom_site_fract_y
_atom_site_fract_z
Si Si1 0.137304 0.120833 0.640423
Si Si2 0.122121 0.747717 0.091315
Si Si3 0.177194 0.658134 0.744348
Si Si4 0.326876 0.105534 0.014213
Si Si5 0.405601 0.371390 0.287841
Si Si6 0.373317 0.761848 0.139250
Si Si7 0.542284 0.052721 0.589246
Si Si8 0.136828 0.473631 0.289400
O O1 0.152796 0.364648 0.722080
O O2 0.273211 0.173614 0.413006
O O3 0.009105 0.146015 0.720885
O O4 0.121308 0.851856 0.723452
O O5 0.123172 0.489733 0.159642
O O6 0.245174 0.914818 0.008278
O O7 0.130633 0.702585 0.936863
O O8 0.326688 0.756428 0.569259
O O9 0.217377 0.246336 0.202900
O O10 0.405823 0.040085 0.040504
O O11 0.442907 0.199172 0.785221
O O12 0.362810 0.630156 0.281162
O O13 0.439955 0.214526 0.367857
O O14 0.537713 0.379874 0.058689
O O15 0.230846 0.699565 0.249801
O O16 0.500000 0.000000 0.500000
O O17 0.000000 0.500000 0.500000
#
# Coordination Sequence:
#
# PCOD9111199 Si02
#       8
#     2   2   2   2   2   2   2   2
#     4  11  25  43  68 102 144 186 239 283 356 426
#     4  11  24  42  68  98 139 187 233 285 359 417
#     4  11  25  43  69 105 143 188 234 292 353 431
#     4  10  23  42  70  99 139 188 229 297 351 426
#     4   9  20  41  65  95 137 185 225 296 343 419
#     4   9  20  43  63  95 134 175 243 280 353 411
#     4  10  20  42  70 107 142 178 237 285 366 427
#     4  11  25  42  66  99 134 183 238 297 355 415
#
# _framework density 26.335702999999999
#
# number of rings (size 3 to 8) (size 9 to 14) (size 15 to 20)
#    0.000    1.750    1.250    1.500    5.250    2.000 
#    6.750    5.000    0.000    0.000    0.000    0.000 
#    0.000    0.000    0.000    0.000    0.000    0.000 
#
# Total GULP energy -89185.921900 kJ/mol
# GULP energy per Si atom -5574.120119 kJ/mol
# Density = 2.627576 g / cm^3
# Si number density = 26.335703 Si / 1000 Ang^3
#
#
#
# Elastic Constant Matrix: (Units=GPa)
#
#
# Indices 1 2 3 4 5 6 
#
# 1 113.0793 4.2603 37.9652 -4.6109 6.7641 -24.8031
# 2 4.2603 104.5675 8.9430 8.9769 18.6047 -25.4844
# 3 37.9652 8.9430 129.6498 -2.7210 4.2764 -22.2964
# 4 -4.6109 8.9769 -2.7210 31.7891 -5.9316 -5.8595
# 5 6.7641 18.6047 4.2764 -5.9316 46.2640 1.2835
# 6 -24.8031 -25.4844 -22.2964 -5.8595 1.2835 50.8062
#
#
#
# Elastic Compliance Matrix: (Units=1/GPa)
#
#
# Indices 1 2 3 4 5 6 
#
# 1 0.010866 0.001177 -0.002288 0.001661 -0.001780 0.005127
# 2 0.001177 0.012420 0.000058 -0.003189 -0.005764 0.006608
# 3 -0.002288 0.000058 0.008918 0.000866 -0.000484 0.002938
# 4 0.001661 -0.003189 0.000866 0.034284 0.005260 0.003412
# 5 -0.001780 -0.005764 -0.000484 0.005260 0.025023 -0.003998
# 6 0.005127 0.006608 0.002938 0.003412 -0.003998 0.027284
#
#
# Mechanical properties :
#
#
# Convention : Reuss Voigt Hill
#
# Bulk Modulus (GPa) = 33.22388 49.95930 41.59159
# Shear Modulus (GPa) = 38.18712 45.51374 41.85043
#
# Velocity S-wave (km/s) = 3.81204 4.16169 3.99069
# Velocity P-wave (km/s) = 5.65848 6.48878 6.08780
#
# Compressibility (1/GPa) = 0.03009883
#
# Stress axis : x y z
#
# Youngs Moduli (GPa) = 92.03072 80.51522 112.12722
#
# Poissons Ratio (x) = -0.09473 0.25651
# Poissons Ratio (y) = -0.10828 -0.00654
# Poissons Ratio (z) = 0.21054 -0.00469
#
# Static dielectric constant tensor:
#      x y z
#    x 2.025460 0.131230 -0.029290 
#    y 0.131230 2.718980 0.029230 
#    z -0.029290 0.029230 2.125270 
# 
# From -- ./inp_files/459108.got.cif
#   From: 2010.05.17/outbox.cif.g08.bks.cpg/sg2_230_cif.got.tgz:459108.got - 2010.06.03 11:33:40.
