data_PCOD9111608
_publ_section_title
;
Structure prediction by ZEFSAII (Michael W. Deem and Ramdas Pophale) SiO2 
 PCOD9111608
Probable space group: P -1
;
_chemical_formula_sum "Si O2"
_cell_formula_units_Z 12
_cell_length_a 16.288118
_cell_length_b 9.183427
_cell_length_c 9.362140
_cell_angle_alpha 76.367808
_cell_angle_beta 104.629627
_cell_angle_gamma 157.020977
_cell_volume 528.962820
_symmetry_space_group_name_H-M "P -1"
_symmetry_group_IT_number 2
_symmetry_cell_setting 'triclinic'
loop_
_space_group_symop_operation_xyz
x,y,z
-x,-y,-z
loop_
_atom_site_type_symbol
_atom_site_label
_atom_site_fract_x
_atom_site_fract_y
_atom_site_fract_z
Si Si1 0.608744 0.236530 0.352676
Si Si2 0.679416 0.327680 0.889442
Si Si3 0.367447 0.424267 0.571621
Si Si4 0.475485 0.283858 0.730273
Si Si5 0.019456 0.696523 0.394108
Si Si6 0.935744 0.506605 0.098199
O O1 0.686388 0.528113 0.358131
O O2 0.805021 0.448964 0.347915
O O3 0.500000 0.000000 0.500000
O O4 0.416113 0.915062 0.231301
O O5 0.666566 0.484011 0.816374
O O6 0.886368 0.585529 0.982301
O O7 0.500000 0.000000 0.000000
O O8 0.467651 0.449845 0.697742
O O9 0.520685 0.726716 0.439750
O O10 0.827580 0.960603 0.514677
O O11 0.274235 0.901083 0.821028
O O12 0.083060 0.770750 0.239579
O O13 0.000000 0.500000 0.500000
O O14 0.000000 0.500000 0.000000
#
# Coordination Sequence:
#
# PCOD9111608 Si02
#       6
#     2   2   2   2   2   2
#     4  12  23  41  72  96 130 182 220 273 328 397
#     4  10  20  43  67  89 135 175 218 261 334 396
#     4  11  23  39  73 104 131 164 236 276 326 387
#     4  10  21  44  66  96 132 175 219 277 321 393
#     4  12  24  44  67  98 139 170 225 280 324 396
#     4  11  24  42  72  98 133 182 217 270 341 397
#
# _framework density 22.685905999999999
#
# number of rings (size 3 to 8) (size 9 to 14) (size 15 to 20)
#    0.000    1.000    6.667    0.500    4.667    0.000 
#    3.000    8.333    0.000    0.000    0.000    0.000 
#    0.000    0.000    0.000    0.000    0.000    0.000 
#
# Total GULP energy -66915.382739 kJ/mol
# GULP energy per Si atom -5576.281895 kJ/mol
# Density = 2.263427 g / cm^3
# Si number density = 22.685906 Si / 1000 Ang^3
#
#
#
# Elastic Constant Matrix: (Units=GPa)
#
#
# Indices 1 2 3 4 5 6 
#
# 1 183.8001 29.0551 66.0262 3.1807 16.4110 -24.9512
# 2 29.0551 77.7831 29.3010 15.9239 3.1132 -11.4040
# 3 66.0262 29.3010 146.7053 13.3693 12.3539 -17.5847
# 4 3.1807 15.9239 13.3693 34.6138 -1.3310 -6.1979
# 5 16.4110 3.1132 12.3539 -1.3310 55.9439 0.7520
# 6 -24.9512 -11.4040 -17.5847 -6.1979 0.7520 29.6963
#
#
#
# Elastic Compliance Matrix: (Units=1/GPa)
#
#
# Indices 1 2 3 4 5 6 
#
# 1 0.007270 -0.001407 -0.002477 0.001681 -0.001528 0.004491
# 2 -0.001407 0.015603 -0.001601 -0.005972 -0.000279 0.002622
# 3 -0.002477 -0.001601 0.008796 -0.002103 -0.001205 0.002104
# 4 0.001681 -0.005972 -0.002103 0.033190 0.001029 0.004775
# 5 -0.001528 -0.000279 -0.001205 0.001029 0.018661 -0.002362
# 6 0.004491 0.002622 0.002104 0.004775 -0.002362 0.040757
#
#
# Mechanical properties :
#
#
# Convention : Reuss Voigt Hill
#
# Bulk Modulus (GPa) = 48.31212 73.00589 60.65900
# Shear Modulus (GPa) = 35.17476 42.97790 39.07633
#
# Velocity S-wave (km/s) = 3.94193 4.35728 4.15480
# Velocity P-wave (km/s) = 6.48542 7.58720 7.05784
#
# Compressibility (1/GPa) = 0.02069874
#
# Stress axis : x y z
#
# Youngs Moduli (GPa) = 137.55310 64.08952 113.68336
#
# Poissons Ratio (x) = 0.09018 0.28161
# Poissons Ratio (y) = 0.19356 0.18201
# Poissons Ratio (z) = 0.34074 0.10261
#
# Static dielectric constant tensor:
#      x y z
#    x 1.897970 0.004500 0.035910 
#    y 0.004500 1.954620 0.014850 
#    z 0.035910 0.014850 1.820670 
# 
# From -- ./inp_files/146688.got.cif
#   From: 2010.05.17/outbox.cif.g08.bks.cpg/sg2_74_cif.got.tgz:146688.got - 2010.06.03 11:33:40.
