data_PCOD9111178
_publ_section_title
;
Structure prediction by ZEFSAII (Michael W. Deem and Ramdas Pophale) SiO2 
 PCOD9111178
Probable space group: P -1
;
_chemical_formula_sum "Si O2"
_cell_formula_units_Z 14
_cell_length_a 9.779583
_cell_length_b 11.020644
_cell_length_c 8.239400
_cell_angle_alpha 124.301199
_cell_angle_beta 76.707249
_cell_angle_gamma 126.575101
_cell_volume 581.571354
_symmetry_space_group_name_H-M "P -1"
_symmetry_group_IT_number 2
_symmetry_cell_setting 'triclinic'
loop_
_space_group_symop_operation_xyz
x,y,z
-x,-y,-z
loop_
_atom_site_type_symbol
_atom_site_label
_atom_site_fract_x
_atom_site_fract_y
_atom_site_fract_z
Si Si1 0.067028 0.207640 0.655550
Si Si2 0.097261 0.829010 0.906322
Si Si3 0.743538 0.526953 0.927104
Si Si4 0.727566 0.189898 0.714969
Si Si5 0.594341 0.494380 0.629574
Si Si6 0.120448 0.146916 0.261503
Si Si7 0.620474 0.167421 0.352678
O O1 0.150623 0.265619 0.498958
O O2 0.912332 0.229198 0.724585
O O3 0.208635 0.323090 0.839558
O O4 0.000000 0.000000 0.500000
O O5 0.264635 0.839697 0.822374
O O6 0.926078 0.632096 0.851561
O O7 0.050817 0.897475 0.810854
O O8 0.120258 0.972059 0.140606
O O9 0.724211 0.358295 0.892285
O O10 0.580074 0.449782 0.795216
O O11 0.696364 0.174371 0.516570
O O12 0.575922 0.008383 0.709134
O O13 0.500000 0.500000 0.500000
O O14 0.726387 0.709564 0.786489
O O15 0.632401 0.348826 0.458990
#
# Coordination Sequence:
#
# PCOD9111178 Si02
#       7
#     2   2   2   2   2   2   2
#     4  12  23  41  69 100 135 183 225 282 335 407
#     4  10  20  42  70 101 129 180 232 277 333 402
#     4  10  23  43  71 100 133 180 231 277 335 409
#     4  10  23  42  66 104 139 178 223 281 345 406
#     4  10  24  44  67  98 138 177 226 284 340 405
#     4  10  22  40  69  97 135 176 233 281 330 402
#     4  10  22  43  71  98 140 182 223 282 344 403
#
# _framework density 24.072713
#
# number of rings (size 3 to 8) (size 9 to 14) (size 15 to 20)
#    0.000    1.714    2.857    0.429    4.000    1.714 
#    2.571    2.143    0.000    0.000    0.000    0.000 
#    0.000    0.000    0.000    0.000    0.000    0.000 
#
# Total GULP energy -77957.427182 kJ/mol
# GULP energy per Si atom -5568.387656 kJ/mol
# Density = 2.401792 g / cm^3
# Si number density = 24.072713 Si / 1000 Ang^3
#
#
#
# Elastic Constant Matrix: (Units=GPa)
#
#
# Indices 1 2 3 4 5 6 
#
# 1 138.1201 38.7420 61.4279 -0.5076 10.4379 -10.0763
# 2 38.7420 77.2662 14.4866 27.3458 -8.8589 0.8338
# 3 61.4279 14.4866 145.7730 5.4713 8.1955 -6.3921
# 4 -0.5076 27.3458 5.4713 38.0232 -6.8451 -0.3831
# 5 10.4379 -8.8589 8.1955 -6.8451 18.6168 -5.7487
# 6 -10.0763 0.8338 -6.3921 -0.3831 -5.7487 39.1774
#
#
#
# Elastic Compliance Matrix: (Units=1/GPa)
#
#
# Indices 1 2 3 4 5 6 
#
# 1 0.011774 -0.007715 -0.003973 0.005199 -0.006087 0.001702
# 2 -0.007715 0.023051 0.000981 -0.015230 0.008905 -0.001157
# 3 -0.003973 0.000981 0.008638 -0.002353 -0.001956 0.000057
# 4 0.005199 -0.015230 -0.002353 0.038749 0.005899 0.002522
# 5 -0.006087 0.008905 -0.001956 0.005899 0.066799 0.007785
# 6 0.001702 -0.001157 0.000057 0.002522 0.007785 0.027164
#
#
# Mechanical properties :
#
#
# Convention : Reuss Voigt Hill
#
# Bulk Modulus (GPa) = 45.35737 65.60803 55.48270
# Shear Modulus (GPa) = 24.39756 35.59700 29.99728
#
# Velocity S-wave (km/s) = 3.18700 3.84960 3.53386
# Velocity P-wave (km/s) = 5.69432 6.86094 6.30467
#
# Compressibility (1/GPa) = 0.02204713
#
# Stress axis : x y z
#
# Youngs Moduli (GPa) = 84.92969 43.38278 115.77308
#
# Poissons Ratio (x) = 0.33470 0.46000
# Poissons Ratio (y) = 0.65524 -0.11353
# Poissons Ratio (z) = 0.33745 -0.04254
#
# Static dielectric constant tensor:
#      x y z
#    x 1.968490 0.004240 0.064010 
#    y 0.004240 2.102290 -0.159440 
#    z 0.064010 -0.159440 2.045620 
# 
# From -- ./inp_files/190641.got.cif
#   From: 2010.05.17/outbox.cif.g08.bks.cpg/sg2_96_cif.got.tgz:190641.got - 2010.06.03 11:33:40.
