data_PCOD9111711
_publ_section_title
;
Structure prediction by ZEFSAII (Michael W. Deem and Ramdas Pophale) SiO2 
 PCOD9111711
Probable space group: P -1
;
_chemical_formula_sum "Si O2"
_cell_formula_units_Z 14
_cell_length_a 16.622459
_cell_length_b 14.488855
_cell_length_c 10.086333
_cell_angle_alpha 127.153740
_cell_angle_beta 33.593280
_cell_angle_gamma 150.620813
_cell_volume 589.144267
_symmetry_space_group_name_H-M "P -1"
_symmetry_group_IT_number 2
_symmetry_cell_setting 'triclinic'
loop_
_space_group_symop_operation_xyz
x,y,z
-x,-y,-z
loop_
_atom_site_type_symbol
_atom_site_label
_atom_site_fract_x
_atom_site_fract_y
_atom_site_fract_z
Si Si1 0.910572 0.124151 0.757942
Si Si2 0.693396 0.022411 0.241304
Si Si3 0.184578 0.762484 0.219897
Si Si4 0.228620 0.165378 0.512685
Si Si5 0.214420 0.512376 0.998624
Si Si6 0.703211 0.787074 0.068376
Si Si7 0.738987 0.554818 0.844609
O O1 0.930718 0.260534 0.777861
O O2 0.168815 0.237115 0.565401
O O3 0.820297 0.977495 0.639223
O O4 0.702757 0.991064 0.047291
O O5 0.978962 0.267058 0.086819
O O6 0.500000 0.000000 0.500000
O O7 0.627831 0.866786 0.286381
O O8 0.145978 0.599297 0.138472
O O9 0.013191 0.709481 0.525551
O O10 0.500000 0.000000 0.000000
O O11 0.523593 0.352335 0.321274
O O12 0.998991 0.005101 0.796525
O O13 0.282612 0.543254 0.086563
O O14 0.719589 0.675817 0.023896
O O15 0.497469 0.623631 0.089646
#
# Coordination Sequence:
#
# PCOD9111711 Si02
#       7
#     2   2   2   2   2   2   2
#     4  10  21  40  71  87 132 170 212 271 321 379
#     4  11  26  44  62  95 142 176 205 263 340 396
#     4  12  24  40  68 101 128 170 225 279 314 375
#     4  10  20  43  69 100 120 166 229 276 317 372
#     4  12  25  39  66  99 137 170 214 267 328 394
#     4  10  22  43  71  95 131 171 218 273 323 384
#     4  11  23  40  70 102 122 170 228 272 319 376
#
# _framework density 23.763280000000002
#
# number of rings (size 3 to 8) (size 9 to 14) (size 15 to 20)
#    0.000    1.143    2.857    3.857    4.000    3.429 
#    0.000    0.000    0.000    0.000    0.000    0.000 
#    0.000    0.000    0.000    0.000    0.000    0.000 
#
# Total GULP energy -78281.666299 kJ/mol
# GULP energy per Si atom -5591.547593 kJ/mol
# Density = 2.370919 g / cm^3
# Si number density = 23.763280 Si / 1000 Ang^3
#
#
#
# Elastic Constant Matrix: (Units=GPa)
#
#
# Indices 1 2 3 4 5 6 
#
# 1 71.3933 26.3736 1.3930 16.0218 -27.6946 -46.7418
# 2 26.3736 127.9510 21.9863 13.3332 -33.8134 -28.0455
# 3 1.3930 21.9863 102.9320 5.2104 -23.4327 -14.4337
# 4 16.0218 13.3332 5.2104 39.6682 -9.4041 -13.7081
# 5 -27.6946 -33.8134 -23.4327 -9.4041 35.6440 12.1473
# 6 -46.7418 -28.0455 -14.4337 -13.7081 12.1473 49.1835
#
#
#
# Elastic Compliance Matrix: (Units=1/GPa)
#
#
# Indices 1 2 3 4 5 6 
#
# 1 0.090548 0.014370 0.023636 0.001409 0.071279 0.083972
# 2 0.014370 0.013425 0.004082 0.000068 0.020664 0.017425
# 3 0.023636 0.004082 0.017750 0.001188 0.026078 0.023889
# 4 0.001409 0.000068 0.001188 0.028870 0.006799 0.008094
# 5 0.071279 0.020664 0.026078 0.006799 0.100043 0.064363
# 6 0.083972 0.017425 0.023889 0.008094 0.064363 0.103442
#
#
# Mechanical properties :
#
#
# Convention : Reuss Voigt Hill
#
# Bulk Modulus (GPa) = 4.85674 44.64246 24.74960
# Shear Modulus (GPa) = 14.76950 41.73405 28.25177
#
# Velocity S-wave (km/s) = 2.49575 4.19530 3.45176
# Velocity P-wave (km/s) = 3.21765 6.50342 5.13068
#
# Compressibility (1/GPa) = 0.20589937
#
# Stress axis : x y z
#
# Youngs Moduli (GPa) = 11.04381 74.48634 56.33894
#
# Poissons Ratio (x) = -1.07038 -1.33160
# Poissons Ratio (y) = -0.15870 -0.22998
# Poissons Ratio (z) = -0.26103 -0.30407
#
# Static dielectric constant tensor:
#      x y z
#    x 1.937350 0.003620 0.013280 
#    y 0.003620 1.934460 0.002830 
#    z 0.013280 0.002830 1.953880 
# 
# From -- ./inp_files/380691.got.cif
#   From: 2010.05.17/outbox.cif.g08.bks.cpg/sg2_191_cif.got.tgz:380691.got - 2010.06.03 11:33:40.
