data_PCOD9111527
_publ_section_title
;
Structure prediction by ZEFSAII (Michael W. Deem and Ramdas Pophale) SiO2 
 PCOD9111527
Probable space group: P -1
;
_chemical_formula_sum "Si O2"
_cell_formula_units_Z 16
_cell_length_a 14.871786
_cell_length_b 13.711700
_cell_length_c 8.047375
_cell_angle_alpha 82.456907
_cell_angle_beta 102.549756
_cell_angle_gamma 31.973178
_cell_volume 671.717740
_symmetry_space_group_name_H-M "P -1"
_symmetry_group_IT_number 2
_symmetry_cell_setting 'triclinic'
loop_
_space_group_symop_operation_xyz
x,y,z
-x,-y,-z
loop_
_atom_site_type_symbol
_atom_site_label
_atom_site_fract_x
_atom_site_fract_y
_atom_site_fract_z
Si Si1 0.643917 0.212213 0.989545
Si Si2 0.470502 0.320074 0.263039
Si Si3 0.182194 0.691597 0.621581
Si Si4 0.859107 0.212515 0.041688
Si Si5 0.057760 0.226578 0.715668
Si Si6 0.487240 0.113182 0.132970
Si Si7 0.231748 0.334588 0.635361
Si Si8 0.296532 0.757742 0.428236
O O1 0.565338 0.265993 0.135394
O O2 0.711113 0.260408 0.002792
O O3 0.832210 0.954430 0.067164
O O4 0.422427 0.413566 0.753832
O O5 0.425589 0.249927 0.222014
O O6 0.636903 0.198803 0.493862
O O7 0.259360 0.590574 0.158154
O O8 0.131743 0.745678 0.781928
O O9 0.200404 0.782267 0.530406
O O10 0.008720 0.790672 0.443053
O O11 0.108088 0.942550 0.175605
O O12 0.844387 0.503007 0.555145
O O13 0.275878 0.078609 0.796180
O O14 0.560344 0.934920 0.268888
O O15 0.311561 0.284296 0.870599
O O16 0.000000 0.500000 0.500000
O O17 0.500000 0.500000 0.500000
#
# Coordination Sequence:
#
# PCOD9111527 Si02
#       8
#     2   2   2   2   2   2   2   2
#     4  10  17  28  50  74  96 132 178 216 248 301
#     4  10  19  33  50  74 104 139 180 212 249 307
#     4  11  19  33  51  75 103 138 181 215 257 306
#     4  11  18  32  52  69  98 139 178 216 253 299
#     4  10  17  26  47  73 103 134 167 208 253 304
#     4   9  18  30  47  74 106 140 169 207 265 319
#     4   9  17  30  46  74 112 134 158 213 275 318
#     4  12  24  34  48  74 109 146 181 216 255 303
#
# _framework density 23.819531999999999
#
# number of rings (size 3 to 8) (size 9 to 14) (size 15 to 20)
#    0.000    1.750    3.750    4.875    0.000    1.500 
#    0.000    0.000    0.000    0.000    0.000    0.875 
#    0.000   11.000    0.000    0.250    0.000    0.000 
#
# Total GULP energy -89124.983054 kJ/mol
# GULP energy per Si atom -5570.311441 kJ/mol
# Density = 2.376532 g / cm^3
# Si number density = 23.819532 Si / 1000 Ang^3
#
#
#
# Elastic Constant Matrix: (Units=GPa)
#
#
# Indices 1 2 3 4 5 6 
#
# 1 25.1368 18.4825 17.5771 -13.1752 10.2913 14.8625
# 2 18.4825 78.4167 20.9743 -44.3614 -0.9901 13.0925
# 3 17.5771 20.9743 147.4539 -46.6640 24.7893 4.9885
# 4 -13.1752 -44.3614 -46.6640 50.5527 10.0985 -12.4270
# 5 10.2913 -0.9901 24.7893 10.0985 40.3550 -4.9057
# 6 14.8625 13.0925 4.9885 -12.4270 -4.9057 40.0113
#
#
#
# Elastic Compliance Matrix: (Units=1/GPa)
#
#
# Indices 1 2 3 4 5 6 
#
# 1 0.078433 -0.004716 0.003219 0.018920 -0.029965 -0.025790
# 2 -0.004716 0.035989 0.012755 0.045661 -0.017119 0.000468
# 3 0.003219 0.012755 0.018430 0.033094 -0.020092 0.000148
# 4 0.018920 0.045661 0.033094 0.105516 -0.050377 0.000500
# 5 -0.029965 -0.017119 -0.020092 -0.050377 0.058255 0.010733
# 6 -0.025790 0.000468 0.000148 0.000500 0.010733 0.035872
#
#
# Mechanical properties :
#
#
# Convention : Reuss Voigt Hill
#
# Bulk Modulus (GPa) = 6.43636 40.56391 23.50014
# Shear Modulus (GPa) = 13.82097 39.11535 26.46816
#
# Velocity S-wave (km/s) = 2.41142 4.05675 3.33708
# Velocity P-wave (km/s) = 3.23439 6.24577 4.97347
#
# Compressibility (1/GPa) = 0.15536723
#
# Stress axis : x y z
#
# Youngs Moduli (GPa) = 12.74978 27.78614 54.26014
#
# Poissons Ratio (x) = 0.13105 -0.17466
# Poissons Ratio (y) = 0.06013 -0.69210
# Poissons Ratio (z) = -0.04104 -0.35442
#
# Static dielectric constant tensor:
#      x y z
#    x 2.145410 -0.075920 0.063620 
#    y -0.075920 2.182080 -0.177160 
#    z 0.063620 -0.177160 2.033820 
# 
# From -- ./inp_files/335382.got.cif
#   From: 2010.05.17/outbox.cif.g08.bks.cpg/sg2_168_cif.got.tgz:335382.got - 2010.06.03 11:33:40.
