data_PCOD9111153
_publ_section_title
;
Structure prediction by ZEFSAII (Michael W. Deem and Ramdas Pophale) SiO2 
 PCOD9111153
Probable space group: P -1
;
_chemical_formula_sum "Si O2"
_cell_formula_units_Z 14
_cell_length_a 19.071821
_cell_length_b 11.745970
_cell_length_c 8.202907
_cell_angle_alpha 61.391525
_cell_angle_beta 96.543882
_cell_angle_gamma 147.642231
_cell_volume 678.606442
_symmetry_space_group_name_H-M "P -1"
_symmetry_group_IT_number 2
_symmetry_cell_setting 'triclinic'
loop_
_space_group_symop_operation_xyz
x,y,z
-x,-y,-z
loop_
_atom_site_type_symbol
_atom_site_label
_atom_site_fract_x
_atom_site_fract_y
_atom_site_fract_z
Si Si1 0.736826 0.268301 0.034870
Si Si2 0.678649 0.769543 0.170071
Si Si3 0.698623 0.075452 0.828391
Si Si4 0.023793 0.746489 0.542255
Si Si5 0.697705 0.937293 0.410211
Si Si6 0.125672 0.112290 0.043792
Si Si7 0.436173 0.801060 0.760736
O O1 0.637889 0.226130 0.103008
O O2 0.751302 0.175707 0.232692
O O3 0.644009 0.045935 0.009530
O O4 0.915958 0.601989 0.775113
O O5 0.717682 0.894760 0.271915
O O6 0.498628 0.401113 0.374332
O O7 0.818952 0.905164 0.056915
O O8 0.672004 0.878996 0.968870
O O9 0.893290 0.436229 0.625405
O O10 0.588051 0.964252 0.745438
O O11 0.187590 0.943265 0.508857
O O12 0.058675 0.926866 0.313440
O O13 0.287625 0.462755 0.895515
O O14 0.000000 0.000000 0.000000
O O15 0.500000 0.000000 0.500000
#
# Coordination Sequence:
#
# PCOD9111153 Si02
#       7
#     2   2   2   2   2   2   2
#     4   9  22  40  66  93 128 162 212 257 309 380
#     4  10  23  42  66  91 131 161 211 260 306 381
#     4   9  22  42  63  94 119 170 210 254 317 359
#     4  10  23  41  64  95 124 163 212 257 316 369
#     4  10  20  42  69  97 119 167 210 259 313 363
#     4  12  28  43  60  95 130 168 208 258 321 369
#     4  12  24  41  64  92 129 170 210 259 314 370
#
# _framework density 20.630514999999999
#
# number of rings (size 3 to 8) (size 9 to 14) (size 15 to 20)
#    0.857    0.857    0.000    3.429    2.000    4.571 
#    5.143    0.000    0.000    0.000    0.000    0.000 
#    0.000    0.000    0.000    0.000    0.000    0.000 
#
# Total GULP energy -78203.449719 kJ/mol
# GULP energy per Si atom -5585.960694 kJ/mol
# Density = 2.058356 g / cm^3
# Si number density = 20.630515 Si / 1000 Ang^3
#
#
#
# Elastic Constant Matrix: (Units=GPa)
#
#
# Indices 1 2 3 4 5 6 
#
# 1 110.2047 26.6027 28.4261 13.6395 3.2147 14.9337
# 2 26.6027 85.8405 25.3078 10.0829 9.2520 32.5668
# 3 28.4261 25.3078 123.8531 5.8279 23.0593 11.5270
# 4 13.6395 10.0829 5.8279 22.1540 10.1232 12.9775
# 5 3.2147 9.2520 23.0593 10.1232 29.8547 5.9367
# 6 14.9337 32.5668 11.5270 12.9775 5.9367 38.0975
#
#
#
# Elastic Compliance Matrix: (Units=1/GPa)
#
#
# Indices 1 2 3 4 5 6 
#
# 1 0.010983 -0.002361 -0.002425 -0.006866 0.003709 0.000207
# 2 -0.002361 0.018446 -0.001523 0.003469 -0.002443 -0.015183
# 3 -0.002425 -0.001523 0.010414 0.003817 -0.008429 -0.000885
# 4 -0.006866 0.003469 0.003817 0.069838 -0.022652 -0.021689
# 5 0.003709 -0.002443 -0.008429 -0.022652 0.047344 0.003524
# 6 0.000207 -0.015183 -0.000885 -0.021689 0.003524 0.046253
#
#
# Mechanical properties :
#
#
# Convention : Reuss Voigt Hill
#
# Bulk Modulus (GPa) = 36.72951 53.39682 45.06317
# Shear Modulus (GPa) = 22.22516 33.99203 28.10859
#
# Velocity S-wave (km/s) = 3.28578 4.06354 3.69518
# Velocity P-wave (km/s) = 5.67779 6.92496 6.33215
#
# Compressibility (1/GPa) = 0.02722606
#
# Stress axis : x y z
#
# Youngs Moduli (GPa) = 91.05110 54.21167 96.02557
#
# Poissons Ratio (x) = 0.12798 0.23287
# Poissons Ratio (y) = 0.21494 0.14621
# Poissons Ratio (z) = 0.22081 0.08255
#
# Static dielectric constant tensor:
#      x y z
#    x 1.700890 -0.020050 -0.023070 
#    y -0.020050 1.724710 0.022590 
#    z -0.023070 0.022590 1.740510 
# 
# From -- ./inp_files/332921.got.cif
#   From: 2010.05.17/outbox.cif.g08.bks.cpg/sg2_167_cif.got.tgz:332921.got - 2010.06.03 11:33:40.
