data_PCOD9111976
_publ_section_title
;
Structure prediction by ZEFSAII (Michael W. Deem and Ramdas Pophale) SiO2 
 PCOD9111976
Probable space group: P -1
;
_chemical_formula_sum "Si O2"
_cell_formula_units_Z 15
_cell_length_a 8.620470
_cell_length_b 14.301899
_cell_length_c 7.908509
_cell_angle_alpha 76.814431
_cell_angle_beta 119.755072
_cell_angle_gamma 138.034851
_cell_volume 549.093801
_symmetry_space_group_name_H-M "P -1"
_symmetry_group_IT_number 2
_symmetry_cell_setting 'triclinic'
loop_
_space_group_symop_operation_xyz
x,y,z
-x,-y,-z
loop_
_atom_site_type_symbol
_atom_site_label
_atom_site_fract_x
_atom_site_fract_y
_atom_site_fract_z
Si Si1 0.343959 0.855377 0.242819
Si Si2 0.111391 0.281245 0.284393
Si Si3 0.251891 0.560798 0.215220
Si Si4 0.674256 0.947889 0.721350
Si Si5 0.500000 0.000000 0.000000
Si Si6 0.179635 0.210553 0.698911
Si Si7 0.200811 0.409454 0.823585
Si Si8 0.441129 0.662477 0.649481
O O1 0.480850 0.896928 0.480038
O O2 0.550587 0.919560 0.180232
O O3 0.046678 0.694704 0.139230
O O4 0.341892 0.975117 0.174877
O O5 0.218939 0.433998 0.300042
O O6 0.130672 0.212206 0.476036
O O7 0.307791 0.309473 0.245047
O O8 0.800347 0.161049 0.131021
O O9 0.501459 0.673965 0.174565
O O10 0.336689 0.641128 0.410165
O O11 0.000000 0.500000 0.000000
O O12 0.553428 0.796860 0.760470
O O13 0.972611 0.062969 0.754383
O O14 0.112003 0.289008 0.702093
O O15 0.218386 0.516263 0.692724
O O16 0.500000 0.500000 0.000000
#
# Coordination Sequence:
#
# PCOD9111976 Si02
#       8
#     2   2   2   2   1   2   2   2
#     4  10  24  44  69 101 144 181 234 298 358 418
#     4  11  22  42  69 102 143 190 230 297 358 418
#     4  11  24  38  69 109 147 185 244 299 354 419
#     4  10  23  43  71 101 136 192 234 289 359 424
#     4  12  24  42  76 102 138 184 236 300 352 432
#     4  10  20  44  65  95 150 189 231 295 356 417
#     4  11  22  42  72  97 137 196 238 288 355 431
#     4  11  23  44  74 102 140 193 240 289 359 426
#
# _framework density 27.317737000000001
#
# number of rings (size 3 to 8) (size 9 to 14) (size 15 to 20)
#    0.000    1.333    4.000    1.600    1.867    3.733 
#    0.000    7.333    0.000    0.000    0.000    0.000 
#    0.000    0.000    0.000    0.000    0.000    0.000 
#
# Total GULP energy -83691.066289 kJ/mol
# GULP energy per Si atom -5579.404419 kJ/mol
# Density = 2.725556 g / cm^3
# Si number density = 27.317737 Si / 1000 Ang^3
#
#
#
# Elastic Constant Matrix: (Units=GPa)
#
#
# Indices 1 2 3 4 5 6 
#
# 1 62.4560 35.2052 6.5953 20.9892 17.4585 4.5455
# 2 35.2052 145.1278 4.8076 12.2070 -1.4173 29.1387
# 3 6.5953 4.8076 85.2997 11.8973 26.8171 10.6800
# 4 20.9892 12.2070 11.8973 42.1322 7.5049 -4.0004
# 5 17.4585 -1.4173 26.8171 7.5049 39.8949 14.1993
# 6 4.5455 29.1387 10.6800 -4.0004 14.1993 62.5395
#
#
#
# Elastic Compliance Matrix: (Units=1/GPa)
#
#
# Indices 1 2 3 4 5 6 
#
# 1 0.025785 -0.006272 0.003417 -0.009402 -0.013040 0.002824
# 2 -0.006272 0.009631 -0.001125 -0.000891 0.005872 -0.005230
# 3 0.003417 -0.001125 0.015608 -0.003779 -0.011292 -0.000068
# 4 -0.009402 -0.000891 -0.003779 0.030171 -0.000392 0.003763
# 5 -0.013040 0.005872 -0.011292 -0.000392 0.041998 -0.009420
# 6 0.002824 -0.005230 -0.000068 0.003763 -0.009420 0.020612
#
#
# Mechanical properties :
#
#
# Convention : Reuss Voigt Hill
#
# Bulk Modulus (GPa) = 23.21997 42.89995 33.05996
# Shear Modulus (GPa) = 30.09875 45.33169 37.71522
#
# Velocity S-wave (km/s) = 3.32294 4.07802 3.71969
# Velocity P-wave (km/s) = 4.82089 6.15726 5.52959
#
# Compressibility (1/GPa) = 0.04306638
#
# Stress axis : x y z
#
# Youngs Moduli (GPa) = 38.78225 103.82688 64.06875
#
# Poissons Ratio (x) = 0.65116 -0.21894
# Poissons Ratio (y) = 0.24323 0.07207
# Poissons Ratio (z) = -0.13253 0.11679
#
# Static dielectric constant tensor:
#      x y z
#    x 2.217790 -0.224110 0.096910 
#    y -0.224110 2.043430 -0.058000 
#    z 0.096910 -0.058000 2.233580 
# 
# From -- ./inp_files/207148.got.cif
#   From: 2010.05.17/outbox.cif.g08.bks.cpg/sg2_104_cif.got.tgz:207148.got - 2010.06.03 11:33:40.
