data_PCOD9111085
_publ_section_title
;
Structure prediction by ZEFSAII (Michael W. Deem and Ramdas Pophale) SiO2 
 PCOD9111085
Probable space group: P -1
;
_chemical_formula_sum "Si O2"
_cell_formula_units_Z 15
_cell_length_a 15.157116
_cell_length_b 8.512911
_cell_length_c 12.720858
_cell_angle_alpha 58.854178
_cell_angle_beta 152.353047
_cell_angle_gamma 115.269449
_cell_volume 649.826246
_symmetry_space_group_name_H-M "P -1"
_symmetry_group_IT_number 2
_symmetry_cell_setting 'triclinic'
loop_
_space_group_symop_operation_xyz
x,y,z
-x,-y,-z
loop_
_atom_site_type_symbol
_atom_site_label
_atom_site_fract_x
_atom_site_fract_y
_atom_site_fract_z
Si Si1 0.599656 0.574472 0.976435
Si Si2 0.796674 0.938932 0.768636
Si Si3 0.699202 0.967939 0.892111
Si Si4 0.595957 0.684977 0.511055
Si Si5 0.561837 0.705107 0.233337
Si Si6 0.132532 0.870634 0.425397
Si Si7 0.000000 0.500000 0.500000
Si Si8 0.778210 0.013846 0.290320
O O1 0.487575 0.492359 0.791130
O O2 0.623997 0.790503 0.930683
O O3 0.500000 0.500000 0.000000
O O4 0.817244 0.489743 0.232537
O O5 0.761832 0.745030 0.742848
O O6 0.689222 0.937674 0.766378
O O7 0.756495 0.079783 0.579858
O O8 0.000000 0.000000 0.000000
O O9 0.572224 0.152776 0.715276
O O10 0.919973 0.976479 0.156588
O O11 0.500000 0.500000 0.500000
O O12 0.655740 0.683101 0.453626
O O13 0.701610 0.811463 0.268822
O O14 0.365865 0.841673 0.974454
O O15 0.087527 0.660092 0.462252
O O16 0.232870 0.930687 0.617250
O O17 0.000000 0.000000 0.500000
#
# Coordination Sequence:
#
# PCOD9111085 Si02
#       8
#     2   2   2   2   2   2   1   2
#     4  11  25  41  69 106 139 180 234 277 352 420
#     4  10  22  44  71  96 135 183 233 284 348 410
#     4  10  24  43  71 100 132 182 231 287 340 421
#     4  12  25  46  70  97 138 183 233 291 346 406
#     4  11  25  41  68 104 137 180 232 285 341 421
#     4  10  20  42  68  98 135 179 219 286 345 409
#     4  10  22  40  62 100 140 174 218 280 340 408
#     4  11  23  40  67  97 142 180 220 277 355 404
#
# _framework density 23.083091
#
# number of rings (size 3 to 8) (size 9 to 14) (size 15 to 20)
#    0.000    1.333    2.667    2.000    9.333    0.000 
#    0.000    2.667    5.867    0.000    0.000    0.000 
#    0.000    0.000    0.000    0.000    0.000    0.000 
#
# Total GULP energy -83533.033631 kJ/mol
# GULP energy per Si atom -5568.868909 kJ/mol
# Density = 2.303055 g / cm^3
# Si number density = 23.083091 Si / 1000 Ang^3
#
#
#
# Elastic Constant Matrix: (Units=GPa)
#
#
# Indices 1 2 3 4 5 6 
#
# 1 78.2671 26.9656 6.4048 4.3176 -27.2768 19.4287
# 2 26.9656 143.9023 8.3581 15.3503 -4.3159 30.4197
# 3 6.4048 8.3581 97.6189 29.1047 -1.9834 -9.8809
# 4 4.3176 15.3503 29.1047 40.7255 -2.0249 -7.9344
# 5 -27.2768 -4.3159 -1.9834 -2.0249 48.1346 5.8814
# 6 19.4287 30.4197 -9.8809 -7.9344 5.8814 39.5925
#
#
#
# Elastic Compliance Matrix: (Units=1/GPa)
#
#
# Indices 1 2 3 4 5 6 
#
# 1 0.021042 -0.000421 -0.001539 -0.002830 0.013283 -0.012927
# 2 -0.000421 0.009330 -0.000103 -0.004923 0.001386 -0.008180
# 3 -0.001539 -0.000103 0.013212 -0.008799 -0.001015 0.002519
# 4 -0.002830 -0.004923 -0.008799 0.034895 -0.002198 0.010295
# 5 0.013283 0.001386 -0.001015 -0.002198 0.029846 -0.012711
# 6 -0.012927 -0.008180 0.002519 0.010295 -0.012711 0.042466
#
#
# Mechanical properties :
#
#
# Convention : Reuss Voigt Hill
#
# Bulk Modulus (GPa) = 25.34392 44.80506 35.07449
# Shear Modulus (GPa) = 29.74961 44.22784 36.98872
#
# Velocity S-wave (km/s) = 3.59389 4.38199 4.00736
# Velocity P-wave (km/s) = 5.31269 6.71230 6.05308
#
# Compressibility (1/GPa) = 0.03945720
#
# Stress axis : x y z
#
# Youngs Moduli (GPa) = 47.52353 107.18180 75.69105
#
# Poissons Ratio (x) = 0.04509 0.11651
# Poissons Ratio (y) = 0.01999 0.00782
# Poissons Ratio (z) = 0.07315 0.01107
#
# Static dielectric constant tensor:
#      x y z
#    x 1.925880 -0.031050 0.055910 
#    y -0.031050 1.886210 -0.029450 
#    z 0.055910 -0.029450 1.952660 
# 
# From -- ./inp_files/445709.got.cif
#   From: 2010.05.17/outbox.cif.g08.bks.cpg/sg2_223_cif.got.tgz:445709.got - 2010.06.03 11:33:40.
