data_PCOD9111833
_publ_section_title
;
Structure prediction by ZEFSAII (Michael W. Deem and Ramdas Pophale) SiO2 
 PCOD9111833
Probable space group: P -1
;
_chemical_formula_sum "Si O2"
_cell_formula_units_Z 14
_cell_length_a 12.367014
_cell_length_b 9.006736
_cell_length_c 9.213145
_cell_angle_alpha 48.275616
_cell_angle_beta 61.636013
_cell_angle_gamma 78.151652
_cell_volume 664.301303
_symmetry_space_group_name_H-M "P -1"
_symmetry_group_IT_number 2
_symmetry_cell_setting 'triclinic'
loop_
_space_group_symop_operation_xyz
x,y,z
-x,-y,-z
loop_
_atom_site_type_symbol
_atom_site_label
_atom_site_fract_x
_atom_site_fract_y
_atom_site_fract_z
Si Si1 0.027371 0.724852 0.762172
Si Si2 0.256932 0.863915 0.926181
Si Si3 0.851086 0.793235 0.062137
Si Si4 0.505087 0.854272 0.951520
Si Si5 0.689242 0.111093 0.446932
Si Si6 0.022888 0.533066 0.294811
Si Si7 0.404295 0.476220 0.709699
O O1 0.170088 0.821470 0.629732
O O2 0.994600 0.674143 0.649866
O O3 0.000000 0.500000 0.000000
O O4 0.938607 0.844502 0.832263
O O5 0.373457 0.830408 0.970024
O O6 0.302996 0.955401 0.681344
O O7 0.182606 0.014191 0.960877
O O8 0.159898 0.658874 0.095836
O O9 0.724530 0.655766 0.177624
O O10 0.924196 0.665744 0.207293
O O11 0.610643 0.954362 0.707328
O O12 0.538227 0.645975 0.123543
O O13 0.500000 0.000000 0.000000
O O14 0.623878 0.309136 0.361712
O O15 0.000000 0.500000 0.500000
O O16 0.500000 0.500000 0.500000
#
# Coordination Sequence:
#
# PCOD9111833 Si02
#       7
#     2   2   2   2   2   2   2
#     4  10  20  43  71  96 136 187 226 280 357 415
#     4  12  25  46  68 102 148 177 235 297 340 416
#     4  11  22  45  69  98 138 187 228 276 365 403
#     4  12  27  45  71 107 134 189 241 285 350 421
#     4  12  24  48  72 100 145 184 234 296 347 416
#     4  11  24  40  69 105 136 176 235 287 345 417
#     4  12  24  44  76  97 138 192 231 284 354 418
#
# _framework density 21.074773
#
# number of rings (size 3 to 8) (size 9 to 14) (size 15 to 20)
#    0.000    0.571    8.571    0.857    4.000    0.571 
#    5.143    1.429    0.000    0.000    0.000    0.000 
#    0.000    0.000    0.000    0.000    0.000    0.000 
#
# Total GULP energy -78377.643596 kJ/mol
# GULP energy per Si atom -5598.403114 kJ/mol
# Density = 2.102681 g / cm^3
# Si number density = 21.074773 Si / 1000 Ang^3
#
#
#
# Elastic Constant Matrix: (Units=GPa)
#
#
# Indices 1 2 3 4 5 6 
#
# 1 152.2046 49.0209 71.5861 19.1054 -7.5031 4.5505
# 2 49.0209 124.7986 53.8978 31.1477 6.9054 -8.1857
# 3 71.5861 53.8978 121.0148 24.4122 12.8884 -17.3757
# 4 19.1054 31.1477 24.4122 37.6843 2.8389 2.2373
# 5 -7.5031 6.9054 12.8884 2.8389 26.7378 17.1712
# 6 4.5505 -8.1857 -17.3757 2.2373 17.1712 26.1021
#
#
#
# Elastic Compliance Matrix: (Units=1/GPa)
#
#
# Indices 1 2 3 4 5 6 
#
# 1 0.073704 -0.025203 -0.099135 0.045000 0.222302 -0.236844
# 2 -0.025203 0.020314 0.031908 -0.023749 -0.081448 0.087621
# 3 -0.099135 0.031908 0.151518 -0.070439 -0.325170 0.348102
# 4 0.045000 -0.023749 -0.070439 0.067414 0.154455 -0.169569
# 5 0.222302 -0.081448 -0.325170 0.154455 0.779126 -0.806542
# 6 -0.236844 0.087621 0.348102 -0.169569 -0.806542 0.883921
#
#
# Mechanical properties :
#
#
# Convention : Reuss Voigt Hill
#
# Bulk Modulus (GPa) = 16.48118 83.00306 49.74212
# Shear Modulus (GPa) = 2.29244 33.00572 17.64908
#
# Velocity S-wave (km/s) = 1.04409 3.96172 2.89701
# Velocity P-wave (km/s) = 3.04808 7.77158 5.90290
#
# Compressibility (1/GPa) = 0.06067525
#
# Stress axis : x y z
#
# Youngs Moduli (GPa) = 13.56770 49.22802 6.59988
#
# Poissons Ratio (x) = 1.24071 0.65428
# Poissons Ratio (y) = 0.34195 -0.21059
# Poissons Ratio (z) = 1.34503 -1.57076
#
# Static dielectric constant tensor:
#      x y z
#    x 1.733310 0.007040 0.011060 
#    y 0.007040 1.784840 -0.001150 
#    z 0.011060 -0.001150 1.755950 
# 
# From -- ./inp_files/204893.got.cif
#   From: 2010.05.17/outbox.cif.g08.bks.cpg/sg2_103_cif.got.tgz:204893.got - 2010.06.03 11:33:40.
