data_PCOD9111356
_publ_section_title
;
Structure prediction by ZEFSAII (Michael W. Deem and Ramdas Pophale) SiO2 
 PCOD9111356
Probable space group: P -1
;
_chemical_formula_sum "Si O2"
_cell_formula_units_Z 15
_cell_length_a 7.076800
_cell_length_b 5.122184
_cell_length_c 18.086484
_cell_angle_alpha 68.672104
_cell_angle_beta 115.197729
_cell_angle_gamma 103.581635
_cell_volume 550.104374
_symmetry_space_group_name_H-M "P -1"
_symmetry_group_IT_number 2
_symmetry_cell_setting 'triclinic'
loop_
_space_group_symop_operation_xyz
x,y,z
-x,-y,-z
loop_
_atom_site_type_symbol
_atom_site_label
_atom_site_fract_x
_atom_site_fract_y
_atom_site_fract_z
Si Si1 0.386539 0.409272 0.743042
Si Si2 0.331328 0.828570 0.578933
Si Si3 0.232445 0.914439 0.207057
Si Si4 0.119987 0.309133 0.438403
Si Si5 0.500000 0.500000 0.500000
Si Si6 0.988183 0.034059 0.289300
Si Si7 0.850353 0.731099 0.975750
Si Si8 0.214282 0.452366 0.860656
O O1 0.577585 0.272020 0.752987
O O2 0.161861 0.253999 0.695116
O O3 0.383457 0.727054 0.679823
O O4 0.376037 0.375944 0.832773
O O5 0.677876 0.834309 0.471830
O O6 0.461078 0.663029 0.560905
O O7 0.081273 0.733792 0.539501
O O8 0.182070 0.030584 0.266591
O O9 0.264417 0.161712 0.126017
O O10 0.011379 0.727109 0.172295
O O11 0.261394 0.596459 0.423558
O O12 0.056584 0.170316 0.364684
O O13 0.835841 0.233057 0.199536
O O14 0.726336 0.611593 0.039423
O O15 0.000000 0.500000 0.000000
O O16 0.000000 0.000000 0.000000
#
# Coordination Sequence:
#
# PCOD9111356 Si02
#       8
#     2   2   2   2   1   2   2   2
#     4  11  26  42  66 103 135 178 233 287 343 425
#     4  11  27  45  65  94 134 175 223 284 350 410
#     4  10  24  43  69 102 138 182 231 282 349 418
#     4  11  27  47  67  94 134 180 223 291 348 415
#     4  12  28  44  68  98 124 174 234 284 346 422
#     4  11  24  43  69  99 135 179 224 289 347 413
#     4  10  20  42  74 105 145 192 237 291 360 426
#     4  10  22  44  68  97 144 181 228 283 347 416
#
# _framework density 27.267555000000002
#
# number of rings (size 3 to 8) (size 9 to 14) (size 15 to 20)
#    0.000    1.333    2.667    0.800    9.333    2.667 
#    0.000    0.667    0.000    0.000    0.000    0.000 
#    0.000    0.000    0.000    0.000    0.000    0.000 
#
# Total GULP energy -83918.289169 kJ/mol
# GULP energy per Si atom -5594.552611 kJ/mol
# Density = 2.720549 g / cm^3
# Si number density = 27.267555 Si / 1000 Ang^3
#
#
#
# Elastic Constant Matrix: (Units=GPa)
#
#
# Indices 1 2 3 4 5 6 
#
# 1 193.5852 17.7939 31.0897 15.1317 -13.2010 1.9962
# 2 17.7939 101.0818 38.5954 -6.8468 -2.0235 3.8608
# 3 31.0897 38.5954 125.0062 -30.8073 -38.3835 -2.2470
# 4 15.1317 -6.8468 -30.8073 48.7741 -0.6739 10.4258
# 5 -13.2010 -2.0235 -38.3835 -0.6739 45.9707 14.3107
# 6 1.9962 3.8608 -2.2470 10.4258 14.3107 53.0829
#
#
#
# Elastic Compliance Matrix: (Units=1/GPa)
#
#
# Indices 1 2 3 4 5 6 
#
# 1 0.005802 -0.000404 -0.002304 -0.003429 -0.000487 0.000518
# 2 -0.000404 0.011727 -0.005148 -0.001610 -0.004030 0.000347
# 3 -0.002304 -0.005148 0.018278 0.012986 0.016345 -0.005722
# 4 -0.003429 -0.001610 0.012986 0.031632 0.013031 -0.008930
# 5 -0.000487 -0.004030 0.016345 0.013031 0.039035 -0.012079
# 6 0.000518 0.000347 -0.005722 -0.008930 -0.012079 0.023562
#
#
# Mechanical properties :
#
#
# Convention : Reuss Voigt Hill
#
# Bulk Modulus (GPa) = 49.76033 66.07013 57.91523
# Shear Modulus (GPa) = 32.79853 51.71184 42.25519
#
# Velocity S-wave (km/s) = 3.47196 4.35956 3.94083
# Velocity P-wave (km/s) = 5.86185 7.04443 6.48017
#
# Compressibility (1/GPa) = 0.02009633
#
# Stress axis : x y z
#
# Youngs Moduli (GPa) = 172.34575 85.27527 54.70926
#
# Poissons Ratio (x) = 0.03442 0.12604
# Poissons Ratio (y) = 0.06956 0.28165
# Poissons Ratio (z) = 0.39704 0.43901
#
# Static dielectric constant tensor:
#      x y z
#    x 2.101330 0.055450 0.067200 
#    y 0.055450 2.291770 -0.061660 
#    z 0.067200 -0.061660 2.144530 
# 
# From -- ./inp_files/580621.got.cif
#   From: 2010.05.17/outbox.cif.g08.bks.cpg/sg2_291_cif.got.tgz:580621.got - 2010.06.03 11:33:40.
