data_PCOD9111139
_publ_section_title
;
Structure prediction by ZEFSAII (Michael W. Deem and Ramdas Pophale) SiO2 
 PCOD9111139
Probable space group: P -1
;
_chemical_formula_sum "Si O2"
_cell_formula_units_Z 15
_cell_length_a 12.663708
_cell_length_b 11.014330
_cell_length_c 11.318097
_cell_angle_alpha 88.585885
_cell_angle_beta 68.640637
_cell_angle_gamma 32.347455
_cell_volume 647.458943
_symmetry_space_group_name_H-M "P -1"
_symmetry_group_IT_number 2
_symmetry_cell_setting 'triclinic'
loop_
_space_group_symop_operation_xyz
x,y,z
-x,-y,-z
loop_
_atom_site_type_symbol
_atom_site_label
_atom_site_fract_x
_atom_site_fract_y
_atom_site_fract_z
Si Si1 0.594385 0.644889 0.650042
Si Si2 0.499521 0.768204 0.949852
Si Si3 0.717026 0.272473 0.666288
Si Si4 0.579734 0.693270 0.180695
Si Si5 0.100435 0.268874 0.442161
Si Si6 0.500000 0.500000 0.000000
Si Si7 0.026287 0.399343 0.113173
Si Si8 0.263311 0.138544 0.626477
O O1 0.563118 0.531073 0.661553
O O2 0.864032 0.420444 0.483618
O O3 0.365739 0.944149 0.683966
O O4 0.629682 0.651700 0.771993
O O5 0.660203 0.609015 0.011489
O O6 0.376211 0.752015 0.005342
O O7 0.292860 0.074638 0.029618
O O8 0.562683 0.294089 0.725151
O O9 0.706917 0.312110 0.809257
O O10 0.000000 0.000000 0.500000
O O11 0.805939 0.509952 0.180949
O O12 0.359979 0.007675 0.269205
O O13 0.184312 0.144398 0.540945
O O14 0.000000 0.500000 0.500000
O O15 0.953037 0.563858 0.241524
O O16 0.000000 0.500000 0.000000
O O17 0.500000 0.000000 0.500000
#
# Coordination Sequence:
#
# PCOD9111139 Si02
#       8
#     2   2   2   2   2   1   2   2
#     4  11  23  42  65  96 129 172 220 273 334 396
#     4  10  23  42  67  92 133 171 218 276 327 398
#     4  10  20  42  69  95 133 173 226 280 332 401
#     4  11  24  43  65  99 126 177 225 266 339 399
#     4  12  23  39  65  93 127 171 213 271 330 390
#     4   8  20  40  64  98 128 174 222 272 332 390
#     4  12  25  42  63  98 136 172 219 273 334 400
#     4  12  24  41  61  96 134 169 218 270 330 402
#
# _framework density 23.167493
#
# number of rings (size 3 to 8) (size 9 to 14) (size 15 to 20)
#    0.000    1.067    5.333    0.800    1.867    0.533 
#    0.000   10.667    0.000    0.000    0.000    0.000 
#    0.000    0.000    0.000    0.000    0.000    0.000 
#
# Total GULP energy -83535.572731 kJ/mol
# GULP energy per Si atom -5569.038182 kJ/mol
# Density = 2.311476 g / cm^3
# Si number density = 23.167493 Si / 1000 Ang^3
#
#
#
# Elastic Constant Matrix: (Units=GPa)
#
#
# Indices 1 2 3 4 5 6 
#
# 1 62.8703 26.6478 10.2203 -2.0991 -4.6337 9.2814
# 2 26.6478 87.6224 16.0026 -7.0519 -1.9265 29.3589
# 3 10.2203 16.0026 98.6813 -4.2713 8.3649 4.8466
# 4 -2.0991 -7.0519 -4.2713 34.0171 1.1371 4.8287
# 5 -4.6337 -1.9265 8.3649 1.1371 34.7976 -2.4542
# 6 9.2814 29.3589 4.8466 4.8287 -2.4542 38.8767
#
#
#
# Elastic Compliance Matrix: (Units=1/GPa)
#
#
# Indices 1 2 3 4 5 6 
#
# 1 0.018568 -0.005362 -0.001271 -0.000202 0.002485 -0.000043
# 2 -0.005362 0.017990 -0.001480 0.005040 -0.000428 -0.012774
# 3 -0.001271 -0.001480 0.010811 0.001104 -0.002904 -0.000247
# 4 -0.000202 0.005040 0.001104 0.031749 -0.001611 -0.007941
# 5 0.002485 -0.000428 -0.002904 -0.001611 0.029949 0.002183
# 6 -0.000043 -0.012774 -0.000247 -0.007941 0.002183 0.036534
#
#
# Mechanical properties :
#
#
# Convention : Reuss Voigt Hill
#
# Bulk Modulus (GPa) = 32.10965 39.43503 35.77234
# Shear Modulus (GPa) = 29.03455 34.62516 31.82985
#
# Velocity S-wave (km/s) = 3.54396 3.87015 3.71064
# Velocity P-wave (km/s) = 5.53499 6.08518 5.81659
#
# Compressibility (1/GPa) = 0.03114329
#
# Stress axis : x y z
#
# Youngs Moduli (GPa) = 53.85682 55.58663 92.49539
#
# Poissons Ratio (x) = 0.29805 0.11754
# Poissons Ratio (y) = 0.28878 0.13691
# Poissons Ratio (z) = 0.06844 0.08228
#
# Static dielectric constant tensor:
#      x y z
#    x 1.936760 0.009020 -0.001620 
#    y 0.009020 1.834870 -0.019070 
#    z -0.001620 -0.019070 1.934180 
# 
# From -- ./inp_files/266621.got.cif
#   From: 2010.05.17/outbox.cif.g08.bks.cpg/sg2_134_cif.got.tgz:266621.got - 2010.06.03 11:33:40.
