data_PCOD9111708
_publ_section_title
;
Structure prediction by ZEFSAII (Michael W. Deem and Ramdas Pophale) SiO2 
 PCOD9111708
Probable space group: P -1
;
_chemical_formula_sum "Si O2"
_cell_formula_units_Z 14
_cell_length_a 9.393535
_cell_length_b 10.240099
_cell_length_c 7.789667
_cell_angle_alpha 113.276858
_cell_angle_beta 129.364579
_cell_angle_gamma 77.112521
_cell_volume 531.744875
_symmetry_space_group_name_H-M "P -1"
_symmetry_group_IT_number 2
_symmetry_cell_setting 'triclinic'
loop_
_space_group_symop_operation_xyz
x,y,z
-x,-y,-z
loop_
_atom_site_type_symbol
_atom_site_label
_atom_site_fract_x
_atom_site_fract_y
_atom_site_fract_z
Si Si1 0.528303 0.930005 0.168193
Si Si2 0.540047 0.328453 0.622712
Si Si3 0.140819 0.326877 0.411533
Si Si4 0.828579 0.136913 0.933239
Si Si5 0.485515 0.654330 0.798814
Si Si6 0.901684 0.092579 0.615486
Si Si7 0.924669 0.383888 0.587696
O O1 0.339866 0.941095 0.136402
O O2 0.695568 0.021079 0.424802
O O3 0.571550 0.769425 0.055775
O O4 0.500000 0.000000 0.000000
O O5 0.343908 0.272559 0.518947
O O6 0.709294 0.251987 0.795641
O O7 0.556026 0.495196 0.773089
O O8 0.518171 0.311079 0.390856
O O9 0.111514 0.451182 0.310444
O O10 0.100016 0.389010 0.600303
O O11 0.977021 0.212795 0.207572
O O12 0.955628 0.077245 0.846508
O O13 0.268500 0.651670 0.676887
O O14 0.934586 0.256463 0.664465
O O15 0.000000 0.000000 0.500000
#
# Coordination Sequence:
#
# PCOD9111708 Si02
#       7
#     2   2   2   2   2   2   2
#     4  12  24  46  71  92 140 189 221 275 339 403
#     4  10  23  41  71 105 134 173 225 285 342 406
#     4  10  23  41  75 100 133 176 219 286 348 398
#     4  12  25  47  70 101 136 178 232 287 338 399
#     4  10  20  43  68  99 138 177 222 279 347 396
#     4  12  28  44  65 100 136 180 236 276 327 416
#     4  10  20  47  64  98 142 170 220 287 339 396
#
# _framework density 26.328416000000001
#
# number of rings (size 3 to 8) (size 9 to 14) (size 15 to 20)
#    0.000    1.143    4.286    0.429    4.000    2.286 
#    0.000    1.429    0.000    0.000    0.000    0.000 
#    0.000    0.000    0.000    0.000    0.000    0.000 
#
# Total GULP energy -78308.141029 kJ/mol
# GULP energy per Si atom -5593.438645 kJ/mol
# Density = 2.626849 g / cm^3
# Si number density = 26.328416 Si / 1000 Ang^3
#
#
#
# Elastic Constant Matrix: (Units=GPa)
#
#
# Indices 1 2 3 4 5 6 
#
# 1 140.4628 37.3473 0.0581 9.1431 -3.4627 9.6922
# 2 37.3473 115.6904 2.5832 16.0201 -6.5321 12.6310
# 3 0.0581 2.5832 30.2079 13.1144 -6.8661 -3.9876
# 4 9.1431 16.0201 13.1144 24.7418 0.3036 -3.6184
# 5 -3.4627 -6.5321 -6.8661 0.3036 45.1797 0.0764
# 6 9.6922 12.6310 -3.9876 -3.6184 0.0764 45.0915
#
#
#
# Elastic Compliance Matrix: (Units=1/GPa)
#
#
# Indices 1 2 3 4 5 6 
#
# 1 0.007926 -0.002098 0.001141 -0.002358 0.000495 -0.001205
# 2 -0.002098 0.010813 0.002610 -0.008070 0.001858 -0.002998
# 3 0.001141 0.002610 0.046303 -0.026607 0.007679 0.000970
# 4 -0.002358 -0.008070 -0.026607 0.061472 -0.005813 0.005357
# 5 0.000495 0.001858 0.007679 -0.005813 0.023647 -0.000455
# 6 -0.001205 -0.002998 0.000970 0.005357 -0.000455 0.023792
#
#
# Mechanical properties :
#
#
# Convention : Reuss Voigt Hill
#
# Bulk Modulus (GPa) = 14.63123 40.70425 27.66774
# Shear Modulus (GPa) = 25.84928 39.42746 32.63837
#
# Velocity S-wave (km/s) = 3.13677 3.87398 3.52470
# Velocity P-wave (km/s) = 4.32301 5.95853 5.20540
#
# Compressibility (1/GPa) = 0.06834693
#
# Stress axis : x y z
#
# Youngs Moduli (GPa) = 126.17500 92.48541 21.59684
#
# Poissons Ratio (x) = 0.19404 -0.02465
# Poissons Ratio (y) = 0.26472 -0.05636
# Poissons Ratio (z) = -0.14399 -0.24136
#
# Static dielectric constant tensor:
#      x y z
#    x 2.255610 -0.217350 -0.631630 
#    y -0.217350 2.369150 0.605760 
#    z -0.631630 0.605760 3.932430 
# 
# From -- ./inp_files/190382.got.cif
#   From: 2010.05.17/outbox.cif.g08.bks.cpg/sg2_96_cif.got.tgz:190382.got - 2010.06.03 11:33:40.
