data_PCOD9111099
_publ_section_title
;
Structure prediction by ZEFSAII (Michael W. Deem and Ramdas Pophale) SiO2 
 PCOD9111099
Probable space group: P -1
;
_chemical_formula_sum "Si O2"
_cell_formula_units_Z 10
_cell_length_a 14.263227
_cell_length_b 5.017781
_cell_length_c 12.743294
_cell_angle_alpha 118.911669
_cell_angle_beta 138.258247
_cell_angle_gamma 93.766924
_cell_volume 362.303637
_symmetry_space_group_name_H-M "P -1"
_symmetry_group_IT_number 2
_symmetry_cell_setting 'triclinic'
loop_
_space_group_symop_operation_xyz
x,y,z
-x,-y,-z
loop_
_atom_site_type_symbol
_atom_site_label
_atom_site_fract_x
_atom_site_fract_y
_atom_site_fract_z
Si Si1 0.032408 0.905011 0.876969
Si Si2 0.558432 0.454798 0.765253
Si Si3 0.273044 0.082989 0.281855
Si Si4 0.836828 0.464025 0.406374
Si Si5 0.413120 0.770286 0.023621
O O1 0.858926 0.831029 0.774858
O O2 0.935871 0.707259 0.645141
O O3 0.257188 0.393440 0.122980
O O4 0.113764 0.753170 0.989880
O O5 0.345437 0.058453 0.449460
O O6 0.578008 0.352606 0.877390
O O7 0.582562 0.857013 0.878518
O O8 0.500000 0.500000 0.500000
O O9 0.000000 0.500000 0.500000
O O10 0.614812 0.993051 0.169414
O O11 0.774084 0.588415 0.281835
#
# Coordination Sequence:
#
# PCOD9111099 Si02
#       5
#     2   2   2   2   2
#     4  10  20  42  69 100 133 178 228 273 336 401
#     4  11  23  46  68  99 137 176 225 278 337 397
#     4   9  20  40  71  97 136 175 224 281 334 395
#     4  11  23  43  68 100 137 178 224 276 335 404
#     4  11  26  43  68 100 138 179 220 280 337 399
#
# _framework density 27.60116
#
# number of rings (size 3 to 8) (size 9 to 14) (size 15 to 20)
#    0.000    1.600    4.000    0.000    0.000    5.600 
#    0.000   10.000    0.000    0.000    0.000    0.000 
#    0.000    0.000    0.000    0.000    0.000    0.000 
#
# Total GULP energy -55838.309196 kJ/mol
# GULP energy per Si atom -5583.830920 kJ/mol
# Density = 2.753834 g / cm^3
# Si number density = 27.601160 Si / 1000 Ang^3
#
#
#
# Elastic Constant Matrix: (Units=GPa)
#
#
# Indices 1 2 3 4 5 6 
#
# 1 179.4752 45.4182 58.7384 -13.5630 27.5290 24.2797
# 2 45.4182 140.3665 66.2155 -53.4277 3.5839 14.8902
# 3 58.7384 66.2155 272.1996 -74.8461 -2.9155 23.4154
# 4 -13.5630 -53.4277 -74.8461 69.8075 24.4915 -1.8549
# 5 27.5290 3.5839 -2.9155 24.4915 84.8521 6.2089
# 6 24.2797 14.8902 23.4154 -1.8549 6.2089 36.5994
#
#
#
# Elastic Compliance Matrix: (Units=1/GPa)
#
#
# Indices 1 2 3 4 5 6 
#
# 1 0.006963 -0.001516 -0.000954 -0.000233 -0.001936 -0.003076
# 2 -0.001516 0.011543 0.000469 0.009877 -0.002607 -0.003048
# 3 -0.000954 0.000469 0.005870 0.006845 -0.001283 -0.002749
# 4 -0.000233 0.009877 0.006845 0.032212 -0.009032 -0.005078
# 5 -0.001936 -0.002607 -0.001283 -0.009032 0.015075 0.000150
# 6 -0.003076 -0.003048 -0.002749 -0.005078 0.000150 0.032079
#
#
# Mechanical properties :
#
#
# Convention : Reuss Voigt Hill
#
# Bulk Modulus (GPa) = 49.08082 103.64283 76.36182
# Shear Modulus (GPa) = 43.65468 66.36306 55.00887
#
# Velocity S-wave (km/s) = 3.98128 4.90874 4.46914
# Velocity P-wave (km/s) = 6.24138 8.35221 7.37273
#
# Compressibility (1/GPa) = 0.02037456
#
# Stress axis : x y z
#
# Youngs Moduli (GPa) = 143.61629 86.63608 170.34611
#
# Poissons Ratio (x) = 0.13134 0.16251
# Poissons Ratio (y) = 0.21772 -0.07994
# Poissons Ratio (z) = 0.13701 -0.04065
#
# Static dielectric constant tensor:
#      x y z
#    x 2.156020 -0.173200 -0.107150 
#    y -0.173200 1.776700 0.046770 
#    z -0.107150 0.046770 2.158130 
# 
# From -- ./inp_files/33463.got.cif
#   From: 2010.05.17/outbox.cif.g08.bks.cpg/sg2_17_cif.got.tgz:33463.got - 2010.06.03 11:33:40.
