data_PCOD9111721
_publ_section_title
;
Structure prediction by ZEFSAII (Michael W. Deem and Ramdas Pophale) SiO2 
 PCOD9111721
Probable space group: P -1
;
_chemical_formula_sum "Si O2"
_cell_formula_units_Z 14
_cell_length_a 7.987434
_cell_length_b 13.589926
_cell_length_c 12.122086
_cell_angle_alpha 44.698242
_cell_angle_beta 102.204218
_cell_angle_gamma 133.400904
_cell_volume 565.096076
_symmetry_space_group_name_H-M "P -1"
_symmetry_group_IT_number 2
_symmetry_cell_setting 'triclinic'
loop_
_space_group_symop_operation_xyz
x,y,z
-x,-y,-z
loop_
_atom_site_type_symbol
_atom_site_label
_atom_site_fract_x
_atom_site_fract_y
_atom_site_fract_z
Si Si1 0.157807 0.253393 0.542012
Si Si2 0.169163 0.561717 0.296663
Si Si3 0.338847 0.042827 0.430987
Si Si4 0.184780 0.439466 0.860895
Si Si5 0.137515 0.932268 0.717892
Si Si6 0.945619 0.807846 0.176477
Si Si7 0.339047 0.839216 0.291557
O O1 0.258116 0.467455 0.339569
O O2 0.207287 0.293252 0.647643
O O3 0.232480 0.149331 0.589829
O O4 0.829202 0.049344 0.631322
O O5 0.549619 0.302389 0.275772
O O6 0.900532 0.365810 0.495095
O O7 0.059209 0.601627 0.160428
O O8 0.108320 0.903882 0.605732
O O9 0.500000 0.000000 0.500000
O O10 0.196229 0.366122 0.804117
O O11 0.107377 0.278858 0.072358
O O12 0.612286 0.010393 0.262421
O O13 0.622741 0.240613 0.743728
O O14 0.228796 0.908029 0.163767
O O15 0.000000 0.000000 0.000000
#
# Coordination Sequence:
#
# PCOD9111721 Si02
#       7
#     2   2   2   2   2   2   2
#     4  11  23  42  70 103 140 178 231 281 342 404
#     4   9  18  40  67  94 131 184 220 270 341 404
#     4  12  25  49  72  93 140 193 223 282 343 405
#     4  11  23  44  75 100 138 178 236 273 347 406
#     4  12  25  42  70 107 136 176 232 286 333 414
#     4  10  20  43  69 104 138 176 223 289 336 407
#     4   9  19  37  68  94 137 179 219 270 345 396
#
# _framework density 24.774547999999999
#
# number of rings (size 3 to 8) (size 9 to 14) (size 15 to 20)
#    0.000    1.429    4.286    2.143    0.000    4.000 
#    0.000    0.000    0.000    0.000    0.000    0.000 
#    0.000    0.000    0.000    0.000    0.000    0.000 
#
# Total GULP energy -78335.312064 kJ/mol
# GULP energy per Si atom -5595.379433 kJ/mol
# Density = 2.471816 g / cm^3
# Si number density = 24.774548 Si / 1000 Ang^3
#
#
#
# Elastic Constant Matrix: (Units=GPa)
#
#
# Indices 1 2 3 4 5 6 
#
# 1 86.2284 22.0468 36.6926 -6.1437 20.3472 -16.4420
# 2 22.0468 122.9057 37.3040 2.5160 -3.9218 -18.9549
# 3 36.6926 37.3040 114.3591 -2.3016 10.7924 -22.8511
# 4 -6.1437 2.5160 -2.3016 20.8374 -17.3025 5.1460
# 5 20.3472 -3.9218 10.7924 -17.3025 35.7021 -3.3566
# 6 -16.4420 -18.9549 -22.8511 5.1460 -3.3566 48.2661
#
#
#
# Elastic Compliance Matrix: (Units=1/GPa)
#
#
# Indices 1 2 3 4 5 6 
#
# 1 0.016067 -0.001697 -0.003084 -0.004874 -0.010478 0.003138
# 2 -0.001697 0.009619 -0.002420 -0.000039 0.002949 0.002263
# 3 -0.003084 -0.002420 0.011444 -0.002639 -0.002918 0.003496
# 4 -0.004874 -0.000039 -0.002639 0.084909 0.043882 -0.008926
# 5 -0.010478 0.002949 -0.002918 0.043882 0.056024 -0.004575
# 6 0.003138 0.002263 0.003496 -0.008926 -0.004575 0.024965
#
#
# Mechanical properties :
#
#
# Convention : Reuss Voigt Hill
#
# Bulk Modulus (GPa) = 43.99799 57.28665 50.64232
# Shear Modulus (GPa) = 22.22178 36.12446 29.17312
#
# Velocity S-wave (km/s) = 2.99818 3.82269 3.43526
# Velocity P-wave (km/s) = 5.45741 6.53126 6.01833
#
# Compressibility (1/GPa) = 0.02272831
#
# Stress axis : x y z
#
# Youngs Moduli (GPa) = 62.24055 103.95891 87.38104
#
# Poissons Ratio (x) = 0.17638 0.26947
# Poissons Ratio (y) = 0.10560 0.21149
# Poissons Ratio (z) = 0.19194 0.25161
#
# Static dielectric constant tensor:
#      x y z
#    x 2.028000 -0.009290 -0.023910 
#    y -0.009290 1.914910 -0.020840 
#    z -0.023910 -0.020840 1.992180 
# 
# From -- ./inp_files/396953.got.cif
#   From: 2010.05.17/outbox.cif.g08.bks.cpg/sg2_199_cif.got.tgz:396953.got - 2010.06.03 11:33:40.
