data_PCOD9111970
_publ_section_title
;
Structure prediction by ZEFSAII (Michael W. Deem and Ramdas Pophale) SiO2 
 PCOD9111970
Probable space group: P -1
;
_chemical_formula_sum "Si O2"
_cell_formula_units_Z 16
_cell_length_a 12.476854
_cell_length_b 8.416784
_cell_length_c 8.541002
_cell_angle_alpha 51.871299
_cell_angle_beta 84.644394
_cell_angle_gamma 61.782290
_cell_volume 595.636140
_symmetry_space_group_name_H-M "P -1"
_symmetry_group_IT_number 2
_symmetry_cell_setting 'triclinic'
loop_
_space_group_symop_operation_xyz
x,y,z
-x,-y,-z
loop_
_atom_site_type_symbol
_atom_site_label
_atom_site_fract_x
_atom_site_fract_y
_atom_site_fract_z
Si Si1 0.935865 0.843606 0.900968
Si Si2 0.203147 0.635660 0.445421
Si Si3 0.411252 0.683025 0.582027
Si Si4 0.744187 0.036935 0.263108
Si Si5 0.273915 0.197838 0.872708
Si Si6 0.616620 0.855160 0.797955
Si Si7 0.110145 0.339748 0.286988
Si Si8 0.657619 0.464403 0.815691
O O1 0.955656 0.741329 0.783607
O O2 0.915379 0.101583 0.732350
O O3 0.804748 0.892289 0.966912
O O4 0.036801 0.624108 0.125150
O O5 0.313715 0.657264 0.503829
O O6 0.181585 0.467814 0.662380
O O7 0.265084 0.508942 0.350203
O O8 0.544045 0.451905 0.755137
O O9 0.333606 0.811952 0.669548
O O10 0.448550 0.864229 0.392314
O O11 0.676705 0.950750 0.203301
O O12 0.861545 0.801715 0.468592
O O13 0.754402 0.229591 0.042503
O O14 0.368764 0.193817 0.989899
O O15 0.756494 0.750147 0.764814
O O16 0.583037 0.691206 0.803051
#
# Coordination Sequence:
#
# PCOD9111970 Si02
#       8
#     2   2   2   2   2   2   2   2
#     4  10  20  44  65  93 126 166 204 260 316 370
#     4  12  22  42  65  95 128 165 210 260 311 375
#     4  11  22  42  64  89 130 167 210 263 314 367
#     4  11  21  41  60  93 129 163 211 262 307 371
#     4  11  23  40  65  91 132 166 207 258 311 368
#     4  10  21  42  61  92 130 164 211 263 307 371
#     4   9  20  40  68  87 127 166 201 261 318 365
#     4  12  24  39  64  94 127 170 211 258 315 373
#
# _framework density 26.862037999999998
#
# number of rings (size 3 to 8) (size 9 to 14) (size 15 to 20)
#    0.000    1.250    5.000    3.375    0.000    0.500 
#    2.250    5.000    0.000    0.000    0.000    0.000 
#    0.000    0.000    0.000    0.000    0.000    0.000 
#
# Total GULP energy -89513.475308 kJ/mol
# GULP energy per Si atom -5594.592207 kJ/mol
# Density = 2.680090 g / cm^3
# Si number density = 26.862038 Si / 1000 Ang^3
#
#
#
# Elastic Constant Matrix: (Units=GPa)
#
#
# Indices 1 2 3 4 5 6 
#
# 1 42.9105 15.0614 16.3027 6.6136 8.9815 7.6124
# 2 15.0614 144.0970 42.3097 28.5552 8.4575 19.6389
# 3 16.3027 42.3097 203.7588 -4.5158 1.5264 3.5895
# 4 6.6136 28.5552 -4.5158 47.2680 2.8254 7.5694
# 5 8.9815 8.4575 1.5264 2.8254 41.9953 -4.5617
# 6 7.6124 19.6389 3.5895 7.5694 -4.5617 25.1135
#
#
#
# Elastic Compliance Matrix: (Units=1/GPa)
#
#
# Indices 1 2 3 4 5 6 
#
# 1 0.027314 -0.000361 -0.001963 -0.002082 -0.006455 -0.008261
# 2 -0.000361 0.009407 -0.001910 -0.004743 -0.002072 -0.005920
# 3 -0.001963 -0.001910 0.005481 0.001777 0.000581 0.000875
# 4 -0.002082 -0.004743 0.001777 0.025106 -0.000746 -0.003617
# 5 -0.006455 -0.002072 0.000581 -0.000746 0.026567 0.008544
# 6 -0.008261 -0.005920 0.000875 -0.003617 0.008544 0.049470
#
#
# Mechanical properties :
#
#
# Convention : Reuss Voigt Hill
#
# Bulk Modulus (GPa) = 29.64305 59.79045 44.71675
# Shear Modulus (GPa) = 30.66408 44.01485 37.33947
#
# Velocity S-wave (km/s) = 3.38233 4.05229 3.73238
# Velocity P-wave (km/s) = 5.12960 6.64842 5.93777
#
# Compressibility (1/GPa) = 0.03373472
#
# Stress axis : x y z
#
# Youngs Moduli (GPa) = 36.61080 106.30911 182.45032
#
# Poissons Ratio (x) = 0.03841 0.35809
# Poissons Ratio (y) = 0.01323 0.34841
# Poissons Ratio (z) = 0.07185 0.20301
#
# Static dielectric constant tensor:
#      x y z
#    x 2.135570 0.049670 0.024390 
#    y 0.049670 2.088270 -0.043180 
#    z 0.024390 -0.043180 2.071640 
# 
# From -- ./inp_files/214837.got.cif
#   From: 2010.05.17/outbox.cif.g08.bks.cpg/sg2_108_cif.got.tgz:214837.got - 2010.06.03 11:33:40.
