data_PCOD9111547
_publ_section_title
;
Structure prediction by ZEFSAII (Michael W. Deem and Ramdas Pophale) SiO2 
 PCOD9111547
Probable space group: P -1
;
_chemical_formula_sum "Si O2"
_cell_formula_units_Z 16
_cell_length_a 17.248374
_cell_length_b 19.381515
_cell_length_c 8.101985
_cell_angle_alpha 119.782345
_cell_angle_beta 128.036454
_cell_angle_gamma 20.010837
_cell_volume 695.167764
_symmetry_space_group_name_H-M "P -1"
_symmetry_group_IT_number 2
_symmetry_cell_setting 'triclinic'
loop_
_space_group_symop_operation_xyz
x,y,z
-x,-y,-z
loop_
_atom_site_type_symbol
_atom_site_label
_atom_site_fract_x
_atom_site_fract_y
_atom_site_fract_z
Si Si1 0.577286 0.090899 0.909526
Si Si2 0.979469 0.294724 0.378676
Si Si3 0.806967 0.716742 0.552420
Si Si4 0.888020 0.520877 0.007472
Si Si5 0.081262 0.676534 0.286607
Si Si6 0.382585 0.597990 0.706786
Si Si7 0.929199 0.164575 0.072530
Si Si8 0.408084 0.743865 0.019407
O O1 0.476896 0.103175 0.656525
O O2 0.358080 0.253750 0.959262
O O3 0.564367 0.190928 0.947807
O O4 0.855948 0.862823 0.081031
O O5 0.030756 0.248829 0.585408
O O6 0.062064 0.152423 0.226144
O O7 0.103180 0.278495 0.438667
O O8 0.664995 0.534694 0.218049
O O9 0.000000 0.500000 0.500000
O O10 0.880497 0.671454 0.785960
O O11 0.800382 0.499435 0.801842
O O12 0.000000 0.500000 0.000000
O O13 0.263777 0.618685 0.460614
O O14 0.198523 0.738315 0.796930
O O15 0.391961 0.685881 0.792137
O O16 0.676143 0.351835 0.845588
O O17 0.154611 0.937460 0.035388
#
# Coordination Sequence:
#
# PCOD9111547 Si02
#       8
#     2   2   2   2   2   2   2   2
#     4  11  26  43  64  99 135 171 225 266 317 398
#     4  10  21  41  67  94 135 168 219 274 316 391
#     4  10  20  43  66  90 130 171 211 269 322 382
#     4  11  25  44  69  95 134 174 214 270 336 381
#     4  11  25  42  64 100 135 171 217 272 329 378
#     4   9  21  41  61  97 138 163 215 280 318 384
#     4   9  20  38  67  98 124 173 221 267 327 385
#     4  11  21  39  71  94 127 178 223 261 326 391
#
# _framework density 23.016027999999999
#
# number of rings (size 3 to 8) (size 9 to 14) (size 15 to 20)
#    0.000    1.750    2.500    2.625    1.750    6.000 
#    0.000    1.250    0.000    0.000    0.000    0.000 
#    0.000    0.000    0.000    0.000    0.000    0.000 
#
# Total GULP energy -89427.515677 kJ/mol
# GULP energy per Si atom -5589.219730 kJ/mol
# Density = 2.296364 g / cm^3
# Si number density = 23.016028 Si / 1000 Ang^3
#
#
#
# Elastic Constant Matrix: (Units=GPa)
#
#
# Indices 1 2 3 4 5 6 
#
# 1 78.9778 -23.7390 20.5869 9.9743 16.8299 4.7620
# 2 -23.7390 79.2013 10.8565 12.8746 10.0193 -1.1370
# 3 20.5869 10.8565 140.8360 13.6204 24.5739 13.0603
# 4 9.9743 12.8746 13.6204 25.4557 6.5568 5.2321
# 5 16.8299 10.0193 24.5739 6.5568 41.4870 2.8046
# 6 4.7620 -1.1370 13.0603 5.2321 2.8046 33.9361
#
#
#
# Elastic Compliance Matrix: (Units=1/GPa)
#
#
# Indices 1 2 3 4 5 6 
#
# 1 0.017902 0.007814 -0.001161 -0.008532 -0.007120 0.000100
# 2 0.007814 0.017486 -0.000693 -0.010508 -0.005445 0.001826
# 3 -0.001161 -0.000693 0.008435 -0.002215 -0.003842 -0.002448
# 4 -0.008532 -0.010508 -0.002215 0.050436 -0.000251 -0.006058
# 5 -0.007120 -0.005445 -0.003842 -0.000251 0.030636 -0.000198
# 6 0.000100 0.001826 -0.002448 -0.006058 -0.000198 0.031406
#
#
# Mechanical properties :
#
#
# Convention : Reuss Voigt Hill
#
# Bulk Modulus (GPa) = 17.93955 34.93600 26.43777
# Shear Modulus (GPa) = 30.68162 39.59649 35.13905
#
# Velocity S-wave (km/s) = 3.65506 4.15226 3.91157
# Velocity P-wave (km/s) = 5.06201 6.18063 5.64908
#
# Compressibility (1/GPa) = 0.05574276
#
# Stress axis : x y z
#
# Youngs Moduli (GPa) = 55.86015 57.18774 118.54996
#
# Poissons Ratio (x) = -0.44686 0.13764
# Poissons Ratio (y) = -0.43649 0.08218
# Poissons Ratio (z) = 0.06485 0.03964
#
# Static dielectric constant tensor:
#      x y z
#    x 1.912000 -0.016030 0.042780 
#    y -0.016030 1.870760 0.027720 
#    z 0.042780 0.027720 1.880450 
# 
# From -- ./inp_files/337762.got.cif
#   From: 2010.05.17/outbox.cif.g08.bks.cpg/sg2_169_cif.got.tgz:337762.got - 2010.06.03 11:33:40.
