data_PCOD9111345
_publ_section_title
;
Structure prediction by ZEFSAII (Michael W. Deem and Ramdas Pophale) SiO2 
 PCOD9111345
Probable space group: P -1
;
_chemical_formula_sum "Si O2"
_cell_formula_units_Z 15
_cell_length_a 11.560817
_cell_length_b 11.381365
_cell_length_c 11.149920
_cell_angle_alpha 42.470989
_cell_angle_beta 56.321795
_cell_angle_gamma 39.944538
_cell_volume 635.805868
_symmetry_space_group_name_H-M "P -1"
_symmetry_group_IT_number 2
_symmetry_cell_setting 'triclinic'
loop_
_space_group_symop_operation_xyz
x,y,z
-x,-y,-z
loop_
_atom_site_type_symbol
_atom_site_label
_atom_site_fract_x
_atom_site_fract_y
_atom_site_fract_z
Si Si1 0.747730 0.970719 0.886908
Si Si2 0.592896 0.301179 0.249694
Si Si3 0.402711 0.339206 0.954462
Si Si4 0.171938 0.353303 0.277672
Si Si5 0.529488 0.293416 0.571030
Si Si6 0.819752 0.529643 0.233174
Si Si7 0.050446 0.849291 0.969167
Si Si8 0.500000 0.000000 0.500000
O O1 0.558722 0.123304 0.952187
O O2 0.696913 0.076510 0.706361
O O3 0.885100 0.979140 0.873859
O O4 0.827635 0.716137 0.033184
O O5 0.510202 0.562875 0.104001
O O6 0.569907 0.267394 0.428122
O O7 0.783213 0.196468 0.161022
O O8 0.506272 0.204855 0.308667
O O9 0.252224 0.519445 0.805139
O O10 0.308500 0.285611 0.140757
O O11 0.009103 0.360843 0.317850
O O12 0.285601 0.169421 0.454498
O O13 0.093703 0.610976 0.156489
O O14 0.500000 0.500000 0.500000
O O15 0.340699 0.348383 0.667998
O O16 0.000000 0.000000 0.000000
#
# Coordination Sequence:
#
# PCOD9111345 Si02
#       8
#     2   2   2   2   2   2   2   1
#     4  10  22  38  72 105 136 184 229 289 351 414
#     4  11  26  45  65 104 139 190 232 284 352 411
#     4  10  20  42  73  97 137 180 231 282 351 420
#     4  10  25  44  69  99 137 180 234 290 342 418
#     4  11  21  40  69 104 148 180 221 294 357 418
#     4  10  21  41  68 107 133 179 229 287 350 415
#     4  10  25  46  73  99 134 191 244 286 335 425
#     4  12  30  44  64 104 142 194 230 286 354 414
#
# _framework density 23.592105
#
# number of rings (size 3 to 8) (size 9 to 14) (size 15 to 20)
#    0.000    1.600    2.667    2.000    7.467    3.733 
#    0.000    1.333    0.000    0.000    0.000    0.000 
#    0.000    0.000    0.000    0.000    0.000    0.000 
#
# Total GULP energy -83566.802164 kJ/mol
# GULP energy per Si atom -5571.120144 kJ/mol
# Density = 2.353841 g / cm^3
# Si number density = 23.592105 Si / 1000 Ang^3
#
#
#
# Elastic Constant Matrix: (Units=GPa)
#
#
# Indices 1 2 3 4 5 6 
#
# 1 113.4262 28.3480 24.9293 -9.7331 -4.8084 -17.1075
# 2 28.3480 74.2303 13.2093 6.1704 12.4298 7.7455
# 3 24.9293 13.2093 65.9627 4.0412 9.5800 1.8685
# 4 -9.7331 6.1704 4.0412 38.8284 2.2107 6.3793
# 5 -4.8084 12.4298 9.5800 2.2107 41.1399 -15.2110
# 6 -17.1075 7.7455 1.8685 6.3793 -15.2110 33.6089
#
#
#
# Elastic Compliance Matrix: (Units=1/GPa)
#
#
# Indices 1 2 3 4 5 6 
#
# 1 0.015069 -0.008178 -0.006199 0.002764 0.010801 0.014264
# 2 -0.008178 0.020085 0.001415 -0.002376 -0.012417 -0.014039
# 3 -0.006199 0.001415 0.018777 -0.001954 -0.008354 -0.007936
# 4 0.002764 -0.002376 -0.001954 0.027740 -0.001416 -0.003843
# 5 0.010801 -0.012417 -0.008354 -0.001416 0.041679 0.027956
# 6 0.014264 -0.014039 -0.007936 -0.003843 0.027956 0.054073
#
#
# Mechanical properties :
#
#
# Convention : Reuss Voigt Hill
#
# Bulk Modulus (GPa) = 35.70621 42.95473 39.33047
# Shear Modulus (GPa) = 23.50902 35.19097 29.34999
#
# Velocity S-wave (km/s) = 3.16013 3.86637 3.53095
# Velocity P-wave (km/s) = 5.33694 6.17888 5.77327
#
# Compressibility (1/GPa) = 0.02800634
#
# Stress axis : x y z
#
# Youngs Moduli (GPa) = 66.36033 49.78946 53.25555
#
# Poissons Ratio (x) = 0.40720 0.33016
# Poissons Ratio (y) = 0.54272 -0.07538
# Poissons Ratio (z) = 0.41140 -0.07047
#
# Static dielectric constant tensor:
#      x y z
#    x 2.020480 -0.035520 0.048300 
#    y -0.035520 2.010290 -0.128600 
#    z 0.048300 -0.128600 1.998260 
# 
# From -- ./inp_files/424894.got.cif
#   From: 2010.05.17/outbox.cif.g08.bks.cpg/sg2_213_cif.got.tgz:424894.got - 2010.06.03 11:33:40.
