data_PCOD9111519
_publ_section_title
;
Structure prediction by ZEFSAII (Michael W. Deem and Ramdas Pophale) SiO2 
 PCOD9111519
Probable space group: P -1
;
_chemical_formula_sum "Si O2"
_cell_formula_units_Z 16
_cell_length_a 14.680570
_cell_length_b 12.513194
_cell_length_c 19.320688
_cell_angle_alpha 154.439958
_cell_angle_beta 152.081051
_cell_angle_gamma 44.754232
_cell_volume 647.106769
_symmetry_space_group_name_H-M "P -1"
_symmetry_group_IT_number 2
_symmetry_cell_setting 'triclinic'
loop_
_space_group_symop_operation_xyz
x,y,z
-x,-y,-z
loop_
_atom_site_type_symbol
_atom_site_label
_atom_site_fract_x
_atom_site_fract_y
_atom_site_fract_z
Si Si1 0.774273 0.126546 0.540135
Si Si2 0.373976 0.446366 0.269357
Si Si3 0.019494 0.442319 0.399833
Si Si4 0.222589 0.024176 0.136553
Si Si5 0.021825 0.229816 0.556953
Si Si6 0.421913 0.929566 0.768908
Si Si7 0.482219 0.504923 0.758745
Si Si8 0.561713 0.267523 0.810754
O O1 0.795974 0.430696 0.751321
O O2 0.608899 0.039442 0.314342
O O3 0.972693 0.066202 0.612346
O O4 0.657919 0.903319 0.392743
O O5 0.398801 0.176760 0.153132
O O6 0.384604 0.453703 0.197759
O O7 0.601633 0.674033 0.585171
O O8 0.234166 0.400040 0.509397
O O9 0.000000 0.500000 0.500000
O O10 0.020582 0.694719 0.504212
O O11 0.833071 0.183334 0.086286
O O12 0.322249 0.927428 0.211145
O O13 0.000000 0.000000 0.000000
O O14 0.828122 0.255807 0.483727
O O15 0.258404 0.445177 0.868849
O O16 0.472560 0.207155 0.006208
O O17 0.516543 0.320949 0.733662
#
# Coordination Sequence:
#
# PCOD9111519 Si02
#       8
#     2   2   2   2   2   2   2   2
#     4  11  24  41  71  99 132 172 238 282 329 397
#     4  11  24  44  65 102 138 181 222 279 350 400
#     4  11  24  40  71 102 135 173 233 285 332 396
#     4  10  20  43  65  96 137 175 222 276 342 402
#     4  11  22  45  66 102 132 181 230 271 342 412
#     4  12  25  44  72  95 140 188 226 269 340 421
#     4  12  24  43  70 101 138 179 230 279 339 408
#     4  10  23  40  73  99 132 175 232 281 335 390
#
# _framework density 24.725439999999999
#
# number of rings (size 3 to 8) (size 9 to 14) (size 15 to 20)
#    0.000    1.000    3.750    3.000    5.250    2.000 
#    2.250    0.625    0.000    0.000    0.000    0.000 
#    0.000    0.000    0.000    0.000    0.000    0.000 
#
# Total GULP energy -89432.057746 kJ/mol
# GULP energy per Si atom -5589.503609 kJ/mol
# Density = 2.466916 g / cm^3
# Si number density = 24.725440 Si / 1000 Ang^3
#
#
#
# Elastic Constant Matrix: (Units=GPa)
#
#
# Indices 1 2 3 4 5 6 
#
# 1 61.3993 36.1524 5.6581 -1.7745 -23.6286 -1.3209
# 2 36.1524 134.6467 25.5860 -19.2891 -7.9191 1.8295
# 3 5.6581 25.5860 52.1322 -3.7559 -20.8449 2.5499
# 4 -1.7745 -19.2891 -3.7559 37.4075 -1.9645 -9.2633
# 5 -23.6286 -7.9191 -20.8449 -1.9645 37.3736 -10.7799
# 6 -1.3209 1.8295 2.5499 -9.2633 -10.7799 53.4444
#
#
#
# Elastic Compliance Matrix: (Units=1/GPa)
#
#
# Indices 1 2 3 4 5 6 
#
# 1 0.030057 -0.008604 0.010652 0.000763 0.024794 0.005663
# 2 -0.008604 0.011264 -0.007080 0.004075 -0.007070 -0.000980
# 3 0.010652 -0.007080 0.030999 0.002269 0.023864 0.004233
# 4 0.000763 0.004075 0.002269 0.030994 0.006078 0.006369
# 5 0.024794 -0.007070 0.023864 0.006078 0.058171 0.012503
# 6 0.005663 -0.000980 0.004233 0.006369 0.012503 0.022308
#
#
# Mechanical properties :
#
#
# Convention : Reuss Voigt Hill
#
# Bulk Modulus (GPa) = 16.06234 42.55236 29.30735
# Shear Modulus (GPa) = 23.29842 37.69719 30.49781
#
# Velocity S-wave (km/s) = 3.07300 3.90889 3.51587
# Velocity P-wave (km/s) = 4.37052 6.13350 5.32547
#
# Compressibility (1/GPa) = 0.06225745
#
# Stress axis : x y z
#
# Youngs Moduli (GPa) = 33.27031 88.78231 32.25912
#
# Poissons Ratio (x) = 0.76386 -0.34364
# Poissons Ratio (y) = 0.28625 0.22838
# Poissons Ratio (z) = -0.35441 0.62855
#
# Static dielectric constant tensor:
#      x y z
#    x 2.036220 -0.014010 0.065800 
#    y -0.014010 1.987380 0.071920 
#    z 0.065800 0.071920 2.051550 
# 
# From -- ./inp_files/306883.got.cif
#   From: 2010.05.17/outbox.cif.g08.bks.cpg/sg2_154_cif.got.tgz:306883.got - 2010.06.03 11:33:40.
