data_PCOD9111090
_publ_section_title
;
Structure prediction by ZEFSAII (Michael W. Deem and Ramdas Pophale) SiO2 
 PCOD9111090
Probable space group: P -1
;
_chemical_formula_sum "Si O2"
_cell_formula_units_Z 16
_cell_length_a 9.269264
_cell_length_b 14.409521
_cell_length_c 5.295203
_cell_angle_alpha 74.034750
_cell_angle_beta 95.825596
_cell_angle_gamma 102.315288
_cell_volume 663.639143
_symmetry_space_group_name_H-M "P -1"
_symmetry_group_IT_number 2
_symmetry_cell_setting 'triclinic'
loop_
_space_group_symop_operation_xyz
x,y,z
-x,-y,-z
loop_
_atom_site_type_symbol
_atom_site_label
_atom_site_fract_x
_atom_site_fract_y
_atom_site_fract_z
Si Si1 0.346971 0.466526 0.350856
Si Si2 0.092388 0.943248 0.880672
Si Si3 0.076639 0.555340 0.221285
Si Si4 0.471506 0.864851 0.868958
Si Si5 0.855586 0.857103 0.501640
Si Si6 0.111147 0.303300 0.738589
Si Si7 0.630657 0.709482 0.830940
Si Si8 0.656045 0.077978 0.695656
O O1 0.500000 0.500000 0.500000
O O2 0.250891 0.551842 0.228133
O O3 0.216113 0.388044 0.524968
O O4 0.397357 0.402536 0.180551
O O5 0.976500 0.875262 0.732398
O O6 0.172953 0.035518 0.656566
O O7 0.198868 0.902346 0.120179
O O8 0.000000 0.000000 0.000000
O O9 0.000000 0.500000 0.500000
O O10 0.023806 0.658604 0.178133
O O11 0.000000 0.500000 0.000000
O O12 0.509348 0.758150 0.908963
O O13 0.350579 0.877918 0.619697
O O14 0.601092 0.959445 0.758114
O O15 0.447035 0.880039 0.150333
O O16 0.928258 0.793902 0.360662
O O17 0.696616 0.787307 0.568783
O O18 0.227522 0.282887 0.976592
#
# Coordination Sequence:
#
# PCOD9111090 Si02
#       8
#     2   2   2   2   2   2   2   2
#     4  10  23  42  67 100 131 169 218 277 336 399
#     4  11  23  40  62  90 131 169 221 271 324 372
#     4  10  20  42  68  99 129 175 216 271 337 404
#     4  10  23  38  63  89 126 171 213 262 321 388
#     4  10  23  37  64  94 123 169 220 269 318 386
#     4  10  21  40  71  93 130 173 223 266 331 406
#     4  11  22  41  66  92 125 168 221 261 332 394
#     4  10  23  39  61  90 128 170 215 261 323 385
#
# _framework density 24.109491999999999
#
# number of rings (size 3 to 8) (size 9 to 14) (size 15 to 20)
#    0.000    1.750    1.250    2.250   12.250    0.500 
#    2.250    0.000    0.000    0.000    0.000    0.000 
#    0.000    0.000    0.000    0.000    0.000    0.000 
#
# Total GULP energy -89237.837787 kJ/mol
# GULP energy per Si atom -5577.364862 kJ/mol
# Density = 2.405462 g / cm^3
# Si number density = 24.109492 Si / 1000 Ang^3
#
#
#
# Elastic Constant Matrix: (Units=GPa)
#
#
# Indices 1 2 3 4 5 6 
#
# 1 76.4177 50.9326 26.5713 14.9205 24.4319 -29.0418
# 2 50.9326 118.2421 50.3117 37.8604 10.9097 -30.3020
# 3 26.5713 50.3117 110.3770 36.9503 25.1303 -5.8831
# 4 14.9205 37.8604 36.9503 52.9304 3.1389 -5.8783
# 5 24.4319 10.9097 25.1303 3.1389 41.4210 -1.3799
# 6 -29.0418 -30.3020 -5.8831 -5.8783 -1.3799 48.2281
#
#
#
# Elastic Compliance Matrix: (Units=1/GPa)
#
#
# Indices 1 2 3 4 5 6 
#
# 1 0.026422 -0.007536 0.001057 -0.000775 -0.013822 0.010814
# 2 -0.007536 0.016327 -0.003936 -0.006490 0.003176 0.004540
# 3 0.001057 -0.003936 0.014904 -0.007536 -0.008097 -0.001169
# 4 -0.000775 -0.006490 -0.007536 0.028541 0.004514 -0.001856
# 5 -0.013822 0.003176 -0.008097 0.004514 0.035838 -0.005740
# 6 0.010814 0.004540 -0.001169 -0.001856 -0.005740 0.029566
#
#
# Mechanical properties :
#
#
# Convention : Reuss Voigt Hill
#
# Bulk Modulus (GPa) = 27.15774 62.29645 44.72709
# Shear Modulus (GPa) = 27.07080 40.33064 33.70072
#
# Velocity S-wave (km/s) = 3.35450 4.09444 3.74280
# Velocity P-wave (km/s) = 5.12760 6.94605 6.10491
#
# Compressibility (1/GPa) = 0.03682192
#
# Stress axis : x y z
#
# Youngs Moduli (GPa) = 37.84788 61.24902 67.09807
#
# Poissons Ratio (x) = 0.46158 -0.07095
# Poissons Ratio (y) = 0.28522 0.26412
# Poissons Ratio (z) = -0.04002 0.24109
#
# Static dielectric constant tensor:
#      x y z
#    x 1.978240 0.019610 -0.136740 
#    y 0.019610 1.987840 -0.075850 
#    z -0.136740 -0.075850 1.979060 
# 
# From -- ./inp_files/38252.got.cif
#   From: 2010.05.17/outbox.cif.g08.bks.cpg/sg2_20_cif.got.tgz:38252.got - 2010.06.03 11:33:40.
