data_PCOD9111587
_publ_section_title
;
Structure prediction by ZEFSAII (Michael W. Deem and Ramdas Pophale) SiO2 
 PCOD9111587
Probable space group: P -1
;
_chemical_formula_sum "Si O2"
_cell_formula_units_Z 14
_cell_length_a 7.167398
_cell_length_b 5.536740
_cell_length_c 15.349133
_cell_angle_alpha 102.634431
_cell_angle_beta 105.811057
_cell_angle_gamma 67.596278
_cell_volume 537.296046
_symmetry_space_group_name_H-M "P -1"
_symmetry_group_IT_number 2
_symmetry_cell_setting 'triclinic'
loop_
_space_group_symop_operation_xyz
x,y,z
-x,-y,-z
loop_
_atom_site_type_symbol
_atom_site_label
_atom_site_fract_x
_atom_site_fract_y
_atom_site_fract_z
Si Si1 0.462433 0.057017 0.733156
Si Si2 0.164488 0.435215 0.287590
Si Si3 0.314453 0.729315 0.091922
Si Si4 0.984909 0.988229 0.210650
Si Si5 0.461037 0.683666 0.412508
Si Si6 0.581892 0.197941 0.076075
Si Si7 0.225413 0.859260 0.557291
O O1 0.488450 0.213557 0.834419
O O2 0.549778 0.185861 0.673025
O O3 0.630349 0.769694 0.745373
O O4 0.264737 0.018050 0.658780
O O5 0.044587 0.698839 0.239399
O O6 0.280260 0.549981 0.383660
O O7 0.037144 0.238770 0.278363
O O8 0.117976 0.917473 0.132090
O O9 0.376927 0.425074 0.098253
O O10 0.303209 0.724582 0.985875
O O11 0.746138 0.096596 0.164343
O O12 0.385468 0.866475 0.501954
O O13 0.682733 0.449758 0.428014
O O14 0.500000 0.000000 0.000000
O O15 0.000000 0.000000 0.500000
#
# Coordination Sequence:
#
# PCOD9111587 Si02
#       7
#     2   2   2   2   2   2   2
#     4  10  21  43  70  94 139 178 225 278 340 396
#     4  10  21  41  71 104 127 183 227 272 334 398
#     4  10  24  45  65  99 132 183 225 285 338 401
#     4  11  24  44  72  96 137 181 229 274 340 402
#     4  10  20  43  66  96 138 176 219 282 325 403
#     4  11  27  43  66 100 138 179 229 286 337 402
#     4  10  23  39  66 102 135 176 222 272 340 402
#
# _framework density 26.056397
#
# number of rings (size 3 to 8) (size 9 to 14) (size 15 to 20)
#    0.000    1.714    2.857    0.857    8.000    2.286 
#    2.571    0.000    0.000    0.000    0.000    0.000 
#    0.000    0.000    0.000    0.000    0.000    0.000 
#
# Total GULP energy -78067.322594 kJ/mol
# GULP energy per Si atom -5576.237328 kJ/mol
# Density = 2.599709 g / cm^3
# Si number density = 26.056397 Si / 1000 Ang^3
#
#
#
# Elastic Constant Matrix: (Units=GPa)
#
#
# Indices 1 2 3 4 5 6 
#
# 1 56.8375 42.1330 5.7056 -11.2878 8.8703 -8.4056
# 2 42.1330 124.0728 44.2617 -36.6174 5.6424 1.4650
# 3 5.7056 44.2617 127.4562 -15.7038 3.3230 1.1300
# 4 -11.2878 -36.6174 -15.7038 45.5532 -7.0168 -0.0821
# 5 8.8703 5.6424 3.3230 -7.0168 54.8636 -3.5916
# 6 -8.4056 1.4650 1.1300 -0.0821 -3.5916 34.4592
#
#
#
# Elastic Compliance Matrix: (Units=1/GPa)
#
#
# Indices 1 2 3 4 5 6 
#
# 1 0.025835 -0.009830 0.002130 -0.001222 -0.003037 0.006330
# 2 -0.009830 0.015314 -0.003808 0.008739 0.001181 -0.002780
# 3 0.002130 -0.003808 0.009149 0.000558 -0.000413 0.000340
# 4 -0.001222 0.008739 0.000558 0.029327 0.002996 -0.000306
# 5 -0.003037 0.001181 -0.000413 0.002996 0.019085 0.001219
# 6 0.006330 -0.002780 0.000340 -0.000306 0.001219 0.030797
#
#
# Mechanical properties :
#
#
# Convention : Reuss Voigt Hill
#
# Bulk Modulus (GPa) = 36.65407 54.72970 45.69189
# Shear Modulus (GPa) = 30.93717 41.39293 36.16505
#
# Velocity S-wave (km/s) = 3.44948 3.99004 3.72957
# Velocity P-wave (km/s) = 5.47385 6.50208 6.01000
#
# Compressibility (1/GPa) = 0.02728210
#
# Stress axis : x y z
#
# Youngs Moduli (GPa) = 38.70782 65.29780 109.29808
#
# Poissons Ratio (x) = 0.64189 -0.23277
# Poissons Ratio (y) = 0.38050 0.41617
# Poissons Ratio (z) = -0.08243 0.24863
#
# Static dielectric constant tensor:
#      x y z
#    x 2.251790 0.141030 -0.113820 
#    y 0.141030 2.160690 0.030640 
#    z -0.113820 0.030640 2.293580 
# 
# From -- ./inp_files/552965.got.cif
#   From: 2010.05.17/outbox.cif.g08.bks.cpg/sg2_277_cif.got.tgz:552965.got - 2010.06.03 11:33:40.
