data_PCOD9111940
_publ_section_title
;
Structure prediction by ZEFSAII (Michael W. Deem and Ramdas Pophale) SiO2 
 PCOD9111940
Probable space group: P -1
;
_chemical_formula_sum "Si O2"
_cell_formula_units_Z 16
_cell_length_a 6.732513
_cell_length_b 16.614038
_cell_length_c 9.016646
_cell_angle_alpha 79.238778
_cell_angle_beta 119.559996
_cell_angle_gamma 67.744249
_cell_volume 719.215766
_symmetry_space_group_name_H-M "P -1"
_symmetry_group_IT_number 2
_symmetry_cell_setting 'triclinic'
loop_
_space_group_symop_operation_xyz
x,y,z
-x,-y,-z
loop_
_atom_site_type_symbol
_atom_site_label
_atom_site_fract_x
_atom_site_fract_y
_atom_site_fract_z
Si Si1 0.020157 0.222959 0.160799
Si Si2 0.542630 0.870225 0.107552
Si Si3 0.292816 0.623111 0.555577
Si Si4 0.380755 0.601884 0.256746
Si Si5 0.693241 0.695544 0.375916
Si Si6 0.455500 0.777479 0.574664
Si Si7 0.073438 0.126535 0.518073
Si Si8 0.638526 0.958004 0.831261
O O1 0.287160 0.228588 0.258107
O O2 0.973462 0.199554 0.317532
O O3 0.105259 0.125408 0.133761
O O4 0.792245 0.320948 0.961497
O O5 0.558152 0.770400 0.161761
O O6 0.815435 0.843963 0.308941
O O7 0.320635 0.966527 0.085288
O O8 0.559754 0.904517 0.941149
O O9 0.232396 0.633788 0.351590
O O10 0.521585 0.508521 0.703606
O O11 0.408798 0.689593 0.616944
O O12 0.014079 0.650182 0.522898
O O13 0.640213 0.610047 0.375334
O O14 0.522671 0.765953 0.428028
O O15 0.178774 0.872517 0.504432
O O16 0.359078 0.027339 0.611554
#
# Coordination Sequence:
#
# PCOD9111940 Si02
#       8
#     2   2   2   2   2   2   2   2
#     4  12  23  39  59  97 124 161 200 251 307 359
#     4   9  18  38  63  88 117 162 200 249 291 360
#     4  10  20  44  63  91 120 161 204 253 304 364
#     4  10  25  37  65  93 123 156 206 256 303 360
#     4  11  20  40  66  88 119 164 206 250 301 364
#     4  11  22  38  65  85 125 167 196 248 310 363
#     4  10  21  40  58  87 127 163 198 246 303 355
#     4   9  20  37  64  86 127 159 204 250 294 362
#
# _framework density 22.246455000000001
#
# number of rings (size 3 to 8) (size 9 to 14) (size 15 to 20)
#    0.750    1.000    2.500    1.500    1.750    3.000 
#    0.000    6.250    0.000    0.000    0.000    0.000 
#    0.000    0.000    0.000    0.000    0.000    0.000 
#
# Total GULP energy -89214.820245 kJ/mol
# GULP energy per Si atom -5575.926265 kJ/mol
# Density = 2.219582 g / cm^3
# Si number density = 22.246455 Si / 1000 Ang^3
#
#
#
# Elastic Constant Matrix: (Units=GPa)
#
#
# Indices 1 2 3 4 5 6 
#
# 1 83.9549 -1.3368 9.9792 2.1257 -2.5192 -15.5444
# 2 -1.3368 51.9212 -2.5271 -6.3801 -14.2046 -6.7815
# 3 9.9792 -2.5271 97.7905 -12.2648 -19.6857 -15.9107
# 4 2.1257 -6.3801 -12.2648 19.1675 5.9929 2.0739
# 5 -2.5192 -14.2046 -19.6857 5.9929 24.8603 1.0810
# 6 -15.5444 -6.7815 -15.9107 2.0739 1.0810 30.4531
#
#
#
# Elastic Compliance Matrix: (Units=1/GPa)
#
#
# Indices 1 2 3 4 5 6 
#
# 1 0.013437 0.001759 0.000114 -0.002486 0.002735 0.007382
# 2 0.001759 0.026692 0.006533 0.006013 0.018754 0.009180
# 3 0.000114 0.006533 0.015446 0.006742 0.013975 0.008628
# 4 -0.002486 0.006013 0.006742 0.060704 -0.006096 -0.000325
# 5 0.002735 0.018754 0.013975 -0.006096 0.063273 0.011043
# 6 0.007382 0.009180 0.008628 -0.000325 0.011043 0.042788
#
#
# Mechanical properties :
#
#
# Convention : Reuss Voigt Hill
#
# Bulk Modulus (GPa) = 13.81461 27.32190 20.56825
# Shear Modulus (GPa) = 21.77162 30.06628 25.91895
#
# Velocity S-wave (km/s) = 3.13174 3.68028 3.41703
# Velocity P-wave (km/s) = 4.39322 5.51066 4.98336
#
# Compressibility (1/GPa) = 0.07238716
#
# Stress axis : x y z
#
# Youngs Moduli (GPa) = 74.41877 37.46463 64.74293
#
# Poissons Ratio (x) = -0.06588 -0.00739
# Poissons Ratio (y) = -0.13087 -0.42299
# Poissons Ratio (z) = -0.00850 -0.24477
#
# Static dielectric constant tensor:
#      x y z
#    x 1.844680 -0.018580 0.006660 
#    y -0.018580 1.894540 -0.004970 
#    z 0.006660 -0.004970 1.803790 
# 
# From -- ./inp_files/138887.got.cif
#   From: 2010.05.17/outbox.cif.g08.bks.cpg/sg2_70_cif.got.tgz:138887.got - 2010.06.03 11:33:40.
