data_PCOD9111784
_publ_section_title
;
Structure prediction by ZEFSAII (Michael W. Deem and Ramdas Pophale) SiO2 
 PCOD9111784
Probable space group: P -1
;
_chemical_formula_sum "Si O2"
_cell_formula_units_Z 16
_cell_length_a 12.353424
_cell_length_b 11.719033
_cell_length_c 13.080068
_cell_angle_alpha 126.546972
_cell_angle_beta 143.422246
_cell_angle_gamma 81.525185
_cell_volume 655.264094
_symmetry_space_group_name_H-M "P -1"
_symmetry_group_IT_number 2
_symmetry_cell_setting 'triclinic'
loop_
_space_group_symop_operation_xyz
x,y,z
-x,-y,-z
loop_
_atom_site_type_symbol
_atom_site_label
_atom_site_fract_x
_atom_site_fract_y
_atom_site_fract_z
Si Si1 0.848506 0.278233 0.734869
Si Si2 0.815563 0.803105 0.132478
Si Si3 0.821895 0.782660 0.565989
Si Si4 0.193514 0.270570 0.689140
Si Si5 0.674410 0.059103 0.895125
Si Si6 0.107396 0.864196 0.121459
Si Si7 0.917986 0.466770 0.301582
Si Si8 0.684298 0.514447 0.500888
O O1 0.756641 0.168479 0.716182
O O2 0.016757 0.244552 0.794045
O O3 0.597488 0.156305 0.411602
O O4 0.000000 0.500000 0.000000
O O5 0.703516 0.716734 0.115264
O O6 0.971325 0.032548 0.380257
O O7 0.595213 0.693223 0.823910
O O8 0.687678 0.643490 0.488459
O O9 0.672766 0.677792 0.291873
O O10 0.873396 0.973350 0.727374
O O11 0.098335 0.858435 0.812917
O O12 0.110514 0.389782 0.684298
O O13 0.781248 0.068069 0.871044
O O14 0.673785 0.231131 0.982910
O O15 0.823147 0.651626 0.778106
O O16 0.128909 0.503204 0.412641
O O17 0.000000 0.500000 0.500000
#
# Coordination Sequence:
#
# PCOD9111784 Si02
#       8
#     2   2   2   2   2   2   2   2
#     4  12  28  43  61  97 138 173 214 266 335 396
#     4  11  28  44  60  97 143 177 215 256 338 403
#     4  10  20  43  70  96 123 167 227 274 321 380
#     4  11  23  47  63  96 136 177 217 266 324 394
#     4  10  23  42  70  98 125 167 220 277 328 381
#     4  10  22  44  69  94 126 166 228 273 329 380
#     4  10  20  43  71 100 122 166 234 273 318 373
#     4  10  23  41  69 100 124 171 219 276 330 387
#
# _framework density 24.417636000000002
#
# number of rings (size 3 to 8) (size 9 to 14) (size 15 to 20)
#    0.000    1.750    3.750    1.875    7.000    5.500 
#    0.000    0.000    0.000    0.000    0.000    0.000 
#    0.000    0.000    0.000    0.000    0.000    0.000 
#
# Total GULP energy -89428.095857 kJ/mol
# GULP energy per Si atom -5589.255991 kJ/mol
# Density = 2.436206 g / cm^3
# Si number density = 24.417636 Si / 1000 Ang^3
#
#
#
# Elastic Constant Matrix: (Units=GPa)
#
#
# Indices 1 2 3 4 5 6 
#
# 1 61.9500 15.0149 13.0820 3.7567 -24.0117 -4.1143
# 2 15.0149 126.7158 12.4097 22.5838 -7.0094 -17.1448
# 3 13.0820 12.4097 125.5292 12.8184 0.6974 -20.1182
# 4 3.7567 22.5838 12.8184 43.5585 4.3811 -16.9539
# 5 -24.0117 -7.0094 0.6974 4.3811 38.8337 3.4247
# 6 -4.1143 -17.1448 -20.1182 -16.9539 3.4247 40.5321
#
#
#
# Elastic Compliance Matrix: (Units=1/GPa)
#
#
# Indices 1 2 3 4 5 6 
#
# 1 0.022499 -0.001427 -0.002295 -0.002631 0.014147 -0.001755
# 2 -0.001427 0.009084 -0.000042 -0.003918 0.001028 0.001951
# 3 -0.002295 -0.000042 0.008939 -0.000634 -0.001875 0.004079
# 4 -0.002631 -0.003918 -0.000634 0.030373 -0.006722 0.011033
# 5 0.014147 0.001028 -0.001875 -0.006722 0.035908 -0.004906
# 6 -0.001755 0.001951 0.004079 0.011033 -0.004906 0.032373
#
#
# Mechanical properties :
#
#
# Convention : Reuss Voigt Hill
#
# Bulk Modulus (GPa) = 30.30948 43.91201 37.11074
# Shear Modulus (GPa) = 31.70538 42.83076 37.26807
#
# Velocity S-wave (km/s) = 3.60733 4.19273 3.91100
# Velocity P-wave (km/s) = 5.45805 6.43905 5.96874
#
# Compressibility (1/GPa) = 0.03299298
#
# Stress axis : x y z
#
# Youngs Moduli (GPa) = 44.44691 110.08257 111.87532
#
# Poissons Ratio (x) = 0.15711 0.25673
# Poissons Ratio (y) = 0.06343 0.00473
# Poissons Ratio (z) = 0.10200 0.00465
#
# Static dielectric constant tensor:
#      x y z
#    x 1.976830 0.043490 0.053300 
#    y 0.043490 1.954640 0.031890 
#    z 0.053300 0.031890 1.973490 
# 
# From -- ./inp_files/532689.got.cif
#   From: 2010.05.17/outbox.cif.g08.bks.cpg/sg2_267_cif.got.tgz:532689.got - 2010.06.03 11:33:40.
