data_PCOD9111327
_publ_section_title
;
Structure prediction by ZEFSAII (Michael W. Deem and Ramdas Pophale) SiO2 
 PCOD9111327
Probable space group: P -1
;
_chemical_formula_sum "Si O2"
_cell_formula_units_Z 16
_cell_length_a 28.697430
_cell_length_b 8.541027
_cell_length_c 12.847384
_cell_angle_alpha 151.548637
_cell_angle_beta 152.657197
_cell_angle_gamma 34.080386
_cell_volume 672.800799
_symmetry_space_group_name_H-M "P -1"
_symmetry_group_IT_number 2
_symmetry_cell_setting 'triclinic'
loop_
_space_group_symop_operation_xyz
x,y,z
-x,-y,-z
loop_
_atom_site_type_symbol
_atom_site_label
_atom_site_fract_x
_atom_site_fract_y
_atom_site_fract_z
Si Si1 0.546342 0.814372 0.743837
Si Si2 0.824013 0.666893 0.578404
Si Si3 0.112927 0.288700 0.620937
Si Si4 0.708109 0.610067 0.108160
Si Si5 0.038287 0.633883 0.046176
Si Si6 0.833223 0.924174 0.169819
Si Si7 0.617562 0.833097 0.669545
Si Si8 0.334589 0.136482 0.434614
O O1 0.500000 0.500000 0.500000
O O2 0.604942 0.705353 0.686639
O O3 0.446743 0.110623 0.696513
O O4 0.619083 0.859825 0.011516
O O5 0.746700 0.742322 0.370194
O O6 0.756488 0.744728 0.594585
O O7 0.930089 0.802191 0.870010
O O8 0.871066 0.267305 0.436116
O O9 0.193070 0.436929 0.798501
O O10 0.139427 0.275616 0.786609
O O11 0.000000 0.500000 0.500000
O O12 0.106917 0.909598 0.358032
O O13 0.674486 0.248974 0.838906
O O14 0.111484 0.319952 0.952158
O O15 0.000000 0.500000 0.000000
O O16 0.707863 0.037654 0.987298
O O17 0.662652 0.658319 0.547500
O O18 0.500000 0.000000 0.500000
#
# Coordination Sequence:
#
# PCOD9111327 Si02
#       8
#     2   2   2   2   2   2   2   2
#     4   9  20  41  68 100 138 184 220 287 347 403
#     4  12  25  42  71 103 134 185 233 284 343 413
#     4  12  27  44  69 101 138 181 231 289 347 406
#     4  11  23  42  67  98 146 177 229 284 347 411
#     4  12  27  45  71  99 135 182 233 285 343 406
#     4  12  25  45  71  99 137 181 232 281 345 412
#     4  10  20  42  72  98 136 178 226 283 340 405
#     4  10  22  42  71 101 138 180 233 283 342 408
#
# _framework density 23.781186999999999
#
# number of rings (size 3 to 8) (size 9 to 14) (size 15 to 20)
#    0.000    1.000    3.750    2.625    1.750    3.500 
#    0.000    3.750    0.000    0.000    0.000    0.000 
#    0.000    0.000    0.000    0.000    0.000    0.000 
#
# Total GULP energy -89323.393833 kJ/mol
# GULP energy per Si atom -5582.712115 kJ/mol
# Density = 2.372706 g / cm^3
# Si number density = 23.781187 Si / 1000 Ang^3
#
#
#
# Elastic Constant Matrix: (Units=GPa)
#
#
# Indices 1 2 3 4 5 6 
#
# 1 151.6904 25.7303 34.1684 -10.5773 -9.0319 7.0879
# 2 25.7303 52.5952 26.1748 -20.0880 -3.1288 -2.3522
# 3 34.1684 26.1748 76.0056 -30.2492 3.2108 1.5566
# 4 -10.5773 -20.0880 -30.2492 48.9780 -0.6638 -4.0261
# 5 -9.0319 -3.1288 3.2108 -0.6638 38.6571 -8.8328
# 6 7.0879 -2.3522 1.5566 -4.0261 -8.8328 41.7984
#
#
#
# Elastic Compliance Matrix: (Units=1/GPa)
#
#
# Indices 1 2 3 4 5 6 
#
# 1 0.007828 -0.002765 -0.003206 -0.001499 0.001577 -0.001175
# 2 -0.002765 0.025943 -0.004978 0.007286 0.002769 0.003401
# 3 -0.003206 -0.004978 0.020316 0.009767 -0.002700 -0.000123
# 4 -0.001499 0.007286 0.009767 0.029392 0.000681 0.003276
# 5 0.001577 0.002769 -0.002700 0.000681 0.028065 0.005985
# 6 -0.001175 0.003401 -0.000123 0.003276 0.005985 0.025900
#
#
# Mechanical properties :
#
#
# Convention : Reuss Voigt Hill
#
# Bulk Modulus (GPa) = 31.06707 50.27091 40.66899
# Shear Modulus (GPa) = 29.39948 38.83456 34.11702
#
# Velocity S-wave (km/s) = 3.51985 4.04542 3.79175
# Velocity P-wave (km/s) = 5.44162 6.55785 6.02564
#
# Compressibility (1/GPa) = 0.03218842
#
# Stress axis : x y z
#
# Youngs Moduli (GPa) = 127.74966 38.54619 49.22236
#
# Poissons Ratio (x) = 0.10659 0.15779
# Poissons Ratio (y) = 0.35325 0.24504
# Poissons Ratio (z) = 0.40953 0.19189
#
# Static dielectric constant tensor:
#      x y z
#    x 1.871010 0.028660 -0.032110 
#    y 0.028660 1.896400 -0.088940 
#    z -0.032110 -0.088940 1.970370 
# 
# From -- ./inp_files/476423.got.cif
#   From: 2010.05.17/outbox.cif.g08.bks.cpg/sg2_239_cif.got.tgz:476423.got - 2010.06.03 11:33:40.
