data_PCOD9111759
_publ_section_title
;
Structure prediction by ZEFSAII (Michael W. Deem and Ramdas Pophale) SiO2 
 PCOD9111759
Probable space group: P -1
;
_chemical_formula_sum "Si O2"
_cell_formula_units_Z 16
_cell_length_a 14.973032
_cell_length_b 11.787375
_cell_length_c 9.210350
_cell_angle_alpha 132.003410
_cell_angle_beta 134.306298
_cell_angle_gamma 38.512417
_cell_volume 696.388188
_symmetry_space_group_name_H-M "P -1"
_symmetry_group_IT_number 2
_symmetry_cell_setting 'triclinic'
loop_
_space_group_symop_operation_xyz
x,y,z
-x,-y,-z
loop_
_atom_site_type_symbol
_atom_site_label
_atom_site_fract_x
_atom_site_fract_y
_atom_site_fract_z
Si Si1 0.959767 0.914779 0.062611
Si Si2 0.280800 0.375869 0.337507
Si Si3 0.572784 0.962102 0.315567
Si Si4 0.336773 0.919238 0.951736
Si Si5 0.763100 0.111506 0.730372
Si Si6 0.530770 0.485831 0.350600
Si Si7 0.777652 0.745387 0.108125
Si Si8 0.962399 0.561206 0.677140
O O1 0.003319 0.708356 0.887786
O O2 0.853868 0.062603 0.941424
O O3 0.108366 0.914517 0.257737
O O4 0.834637 0.991776 0.111856
O O5 0.315959 0.526372 0.520045
O O6 0.208311 0.351321 0.377263
O O7 0.449005 0.182548 0.323425
O O8 0.191751 0.397148 0.108066
O O9 0.652124 0.808566 0.145631
O O10 0.708787 0.972925 0.540791
O O11 0.446571 0.930227 0.203810
O O12 0.432536 0.705202 0.831109
O O13 0.295720 0.056007 0.884963
O O14 0.615153 0.327670 0.732064
O O15 0.500000 0.500000 0.500000
O O16 0.936455 0.631254 0.278384
O O17 0.000000 0.500000 0.500000
#
# Coordination Sequence:
#
# PCOD9111759 Si02
#       8
#     2   2   2   2   2   2   2   2
#     4  11  25  47  66  98 139 189 230 279 352 414
#     4  10  22  43  69 101 141 174 240 289 342 424
#     4  10  20  43  69  99 134 176 225 289 348 401
#     4  11  23  41  73 101 134 177 234 284 350 410
#     4  10  25  45  67  96 148 177 230 288 341 424
#     4  11  24  43  72 105 136 176 232 293 359 403
#     4  11  22  42  70 102 138 182 231 293 340 421
#     4  12  26  44  69 100 142 192 236 283 352 418
#
# _framework density 22.975693
#
# number of rings (size 3 to 8) (size 9 to 14) (size 15 to 20)
#    0.000    1.250    2.500    4.875    3.500    4.000 
#    4.500    1.875    0.000    0.000    0.000    0.000 
#    0.000    0.000    0.000    0.000    0.000    0.000 
#
# Total GULP energy -89138.108717 kJ/mol
# GULP energy per Si atom -5571.131795 kJ/mol
# Density = 2.292340 g / cm^3
# Si number density = 22.975693 Si / 1000 Ang^3
#
#
#
# Elastic Constant Matrix: (Units=GPa)
#
#
# Indices 1 2 3 4 5 6 
#
# 1 101.9025 8.0859 38.1280 9.0238 15.5861 -20.1312
# 2 8.0859 96.5206 41.1148 15.5797 5.6524 -1.6512
# 3 38.1280 41.1148 94.6268 12.3800 20.3705 -4.9199
# 4 9.0238 15.5797 12.3800 25.2551 5.2430 -0.1054
# 5 15.5861 5.6524 20.3705 5.2430 31.5705 7.8224
# 6 -20.1312 -1.6512 -4.9199 -0.1054 7.8224 31.0800
#
#
#
# Elastic Compliance Matrix: (Units=1/GPa)
#
#
# Indices 1 2 3 4 5 6 
#
# 1 0.014676 0.001575 -0.004179 -0.002661 -0.007038 0.010690
# 2 0.001575 0.013781 -0.006131 -0.006409 0.001692 0.000334
# 3 -0.004179 -0.006131 0.016879 -0.001350 -0.007909 0.001626
# 4 -0.002661 -0.006409 -0.001350 0.045995 -0.004032 -0.001107
# 5 -0.007038 0.001692 -0.007909 -0.004032 0.044836 -0.017019
# 6 0.010690 0.000334 0.001626 -0.001107 -0.017019 0.043654
#
#
# Mechanical properties :
#
#
# Convention : Reuss Voigt Hill
#
# Bulk Modulus (GPa) = 35.88446 51.96749 43.92597
# Shear Modulus (GPa) = 24.20372 31.29586 27.74979
#
# Velocity S-wave (km/s) = 3.24921 3.69471 3.47910
# Velocity P-wave (km/s) = 5.45242 6.39286 5.94128
#
# Compressibility (1/GPa) = 0.02786722
#
# Stress axis : x y z
#
# Youngs Moduli (GPa) = 68.13889 72.56242 59.24454
#
# Poissons Ratio (x) = -0.11430 0.24756
# Poissons Ratio (y) = -0.10733 0.36323
# Poissons Ratio (z) = 0.28473 0.44488
#
# Static dielectric constant tensor:
#      x y z
#    x 1.997460 -0.014700 0.063380 
#    y -0.014700 1.891430 -0.045520 
#    z 0.063380 -0.045520 1.944660 
# 
# From -- ./inp_files/308602.got.cif
#   From: 2010.05.17/outbox.cif.g08.bks.cpg/sg2_155_cif.got.tgz:308602.got - 2010.06.03 11:33:40.
