data_PCOD9111413
_publ_section_title
;
Structure prediction by ZEFSAII (Michael W. Deem and Ramdas Pophale) SiO2 
 PCOD9111413
Probable space group: P -1
;
_chemical_formula_sum "Si O2"
_cell_formula_units_Z 12
_cell_length_a 11.892046
_cell_length_b 5.989110
_cell_length_c 8.765731
_cell_angle_alpha 71.928589
_cell_angle_beta 60.954392
_cell_angle_gamma 94.831078
_cell_volume 497.735406
_symmetry_space_group_name_H-M "P -1"
_symmetry_group_IT_number 2
_symmetry_cell_setting 'triclinic'
loop_
_space_group_symop_operation_xyz
x,y,z
-x,-y,-z
loop_
_atom_site_type_symbol
_atom_site_label
_atom_site_fract_x
_atom_site_fract_y
_atom_site_fract_z
Si Si1 0.037562 0.199798 0.603031
Si Si2 0.715922 0.887836 0.139030
Si Si3 0.545890 0.037257 0.788422
Si Si4 0.256235 0.537545 0.581824
Si Si5 0.099069 0.767098 0.846011
Si Si6 0.220158 0.126350 0.240785
O O1 0.114230 0.409158 0.622499
O O2 0.127970 0.243214 0.380849
O O3 0.045450 0.946369 0.733655
O O4 0.882776 0.143936 0.669429
O O5 0.592105 0.004419 0.201642
O O6 0.697742 0.671105 0.317340
O O7 0.850413 0.089284 0.061467
O O8 0.730670 0.787161 0.980297
O O9 0.632517 0.312919 0.637918
O O10 0.652788 0.882167 0.738763
O O11 0.500000 0.000000 0.000000
O O12 0.226448 0.723519 0.684901
O O13 0.000000 0.500000 0.000000
#
# Coordination Sequence:
#
# PCOD9111413 Si02
#       6
#     2   2   2   2   2   2
#     4  10  22  40  66  92 128 158 212 258 309 369
#     4  10  23  42  64  92 128 161 212 254 303 376
#     4  10  22  43  63  90 127 166 210 253 310 368
#     4  11  22  42  65  93 122 168 208 255 311 364
#     4  11  22  40  66  96 125 164 206 257 313 366
#     4  10  20  43  62  91 130 160 201 263 307 366
#
# _framework density 24.109195
#
# number of rings (size 3 to 8) (size 9 to 14) (size 15 to 20)
#    0.000    1.667    1.667    2.500    0.000    4.000 
#   21.000    1.667    0.000    0.000    0.000    0.000 
#    0.000    0.000    0.000    0.000    0.000    0.000 
#
# Total GULP energy -67051.831485 kJ/mol
# GULP energy per Si atom -5587.652624 kJ/mol
# Density = 2.405432 g / cm^3
# Si number density = 24.109195 Si / 1000 Ang^3
#
#
#
# Elastic Constant Matrix: (Units=GPa)
#
#
# Indices 1 2 3 4 5 6 
#
# 1 104.6789 13.1957 19.0242 1.1444 1.5816 -9.4699
# 2 13.1957 46.2871 32.1802 -8.1698 21.5109 2.3231
# 3 19.0242 32.1802 131.5325 -19.3625 -2.1277 1.3511
# 4 1.1444 -8.1698 -19.3625 39.1130 -2.3853 4.8979
# 5 1.5816 21.5109 -2.1277 -2.3853 33.1312 3.6632
# 6 -9.4699 2.3231 1.3511 4.8979 3.6632 23.3383
#
#
#
# Elastic Compliance Matrix: (Units=1/GPa)
#
#
# Indices 1 2 3 4 5 6 
#
# 1 0.010629 -0.003308 -0.001076 -0.002109 0.000865 0.005011
# 2 -0.003308 0.043274 -0.010185 0.002513 -0.028284 -0.001148
# 3 -0.001076 -0.010185 0.011004 0.004105 0.007905 -0.002162
# 4 -0.002109 0.002513 0.004105 0.029259 0.001696 -0.007750
# 5 0.000865 -0.028284 0.007905 0.001696 0.049739 -0.005454
# 6 0.005011 -0.001148 -0.002162 -0.007750 -0.005454 0.047603
#
#
# Mechanical properties :
#
#
# Convention : Reuss Voigt Hill
#
# Bulk Modulus (GPa) = 27.95663 45.69985 36.82824
# Shear Modulus (GPa) = 21.49902 33.65639 27.57771
#
# Velocity S-wave (km/s) = 2.98943 3.74036 3.38578
# Velocity P-wave (km/s) = 4.85146 6.13598 5.53113
#
# Compressibility (1/GPa) = 0.03576970
#
# Stress axis : x y z
#
# Youngs Moduli (GPa) = 94.08295 23.10878 90.87330
#
# Poissons Ratio (x) = 0.07644 0.09778
# Poissons Ratio (y) = 0.31123 0.92550
# Poissons Ratio (z) = 0.10123 0.23535
#
# Static dielectric constant tensor:
#      x y z
#    x 1.963510 -0.022570 -0.003900 
#    y -0.022570 1.893650 0.013770 
#    z -0.003900 0.013770 1.939070 
# 
# From -- ./inp_files/21772.got.cif
#   From: 2010.05.17/outbox.cif.g08.bks.cpg/sg2_11_cif.got.tgz:21772.got - 2010.06.03 11:33:40.
