data_PCOD9111853
_publ_section_title
;
Structure prediction by ZEFSAII (Michael W. Deem and Ramdas Pophale) SiO2 
 PCOD9111853
Probable space group: P -1
;
_chemical_formula_sum "Si O2"
_cell_formula_units_Z 14
_cell_length_a 10.284411
_cell_length_b 9.533918
_cell_length_c 11.082764
_cell_angle_alpha 126.077703
_cell_angle_beta 128.000206
_cell_angle_gamma 46.103462
_cell_volume 591.402711
_symmetry_space_group_name_H-M "P -1"
_symmetry_group_IT_number 2
_symmetry_cell_setting 'triclinic'
loop_
_space_group_symop_operation_xyz
x,y,z
-x,-y,-z
loop_
_atom_site_type_symbol
_atom_site_label
_atom_site_fract_x
_atom_site_fract_y
_atom_site_fract_z
Si Si1 0.086119 0.259494 0.285464
Si Si2 0.442780 0.870561 0.189086
Si Si3 0.725343 0.522262 0.353391
Si Si4 0.627951 0.435590 0.695385
Si Si5 0.404762 0.832114 0.640105
Si Si6 0.331861 0.952130 0.913622
Si Si7 0.970151 0.358457 0.002678
O O1 0.240207 0.024655 0.220416
O O2 0.194848 0.357054 0.464284
O O3 0.904614 0.317387 0.297286
O O4 0.993933 0.378904 0.167934
O O5 0.536801 0.011792 0.296748
O O6 0.587445 0.676036 0.249387
O O7 0.415329 0.809293 0.007086
O O8 0.584765 0.492639 0.343446
O O9 0.597862 0.623763 0.691585
O O10 0.688910 0.239976 0.549559
O O11 0.766912 0.391051 0.863411
O O12 0.281377 0.913943 0.732566
O O13 0.142708 0.137668 0.955012
O O14 0.500000 0.000000 0.000000
O O15 0.000000 0.500000 0.000000
#
# Coordination Sequence:
#
# PCOD9111853 Si02
#       7
#     2   2   2   2   2   2   2
#     4  10  23  42  64  98 130 174 220 264 325 405
#     4  10  20  43  72  93 131 176 220 266 330 399
#     4  11  24  42  70  95 133 181 216 268 334 396
#     4  11  24  42  65  99 134 170 215 282 332 378
#     4  10  22  41  66  95 135 167 217 278 327 387
#     4   9  20  39  63  97 122 168 217 268 324 391
#     4  11  24  41  68  94 131 174 223 271 334 393
#
# _framework density 23.672530999999999
#
# number of rings (size 3 to 8) (size 9 to 14) (size 15 to 20)
#    0.000    1.714    1.429    3.000    8.000    1.143 
#    2.571    1.429    0.000    0.000    0.000    0.000 
#    0.000    0.000    0.000    0.000    0.000    0.000 
#
# Total GULP energy -78263.704815 kJ/mol
# GULP energy per Si atom -5590.264630 kJ/mol
# Density = 2.361865 g / cm^3
# Si number density = 23.672531 Si / 1000 Ang^3
#
#
#
# Elastic Constant Matrix: (Units=GPa)
#
#
# Indices 1 2 3 4 5 6 
#
# 1 79.6530 15.8958 30.2781 5.0135 -10.2567 -19.2979
# 2 15.8958 57.1794 13.3423 -8.3021 -3.3788 -5.1238
# 3 30.2781 13.3423 79.1429 -14.0247 -22.8866 -20.1704
# 4 5.0135 -8.3021 -14.0247 39.4232 -7.1430 -5.2188
# 5 -10.2567 -3.3788 -22.8866 -7.1430 37.6471 5.9608
# 6 -19.2979 -5.1238 -20.1704 -5.2188 5.9608 41.9705
#
#
#
# Elastic Compliance Matrix: (Units=1/GPa)
#
#
# Indices 1 2 3 4 5 6 
#
# 1 0.016617 -0.003625 -0.005771 -0.004548 -0.000798 0.003973
# 2 -0.003625 0.019446 -0.000470 0.004729 0.001227 0.000895
# 3 -0.005771 -0.000470 0.023033 0.012324 0.013463 0.007979
# 4 -0.004548 0.004729 0.012324 0.034441 0.012108 0.006972
# 5 -0.000798 0.001227 0.013463 0.012108 0.036530 0.002570
# 6 0.003973 0.000895 0.007979 0.006972 0.002570 0.030099
#
#
# Mechanical properties :
#
#
# Convention : Reuss Voigt Hill
#
# Bulk Modulus (GPa) = 25.40338 37.22310 31.31324
# Shear Modulus (GPa) = 25.90416 34.23875 30.07145
#
# Velocity S-wave (km/s) = 3.31157 3.80722 3.56801
# Velocity P-wave (km/s) = 5.03750 5.92325 5.49824
#
# Compressibility (1/GPa) = 0.03936484
#
# Stress axis : x y z
#
# Youngs Moduli (GPa) = 60.17809 51.42543 43.41565
#
# Poissons Ratio (x) = 0.18640 0.25053
# Poissons Ratio (y) = 0.21812 0.02042
# Poissons Ratio (z) = 0.34726 0.02419
#
# Static dielectric constant tensor:
#      x y z
#    x 1.907530 0.034320 0.013650 
#    y 0.034320 1.908340 0.066420 
#    z 0.013650 0.066420 1.915710 
# 
# From -- ./inp_files/424305.got.cif
#   From: 2010.05.17/outbox.cif.g08.bks.cpg/sg2_213_cif.got.tgz:424305.got - 2010.06.03 11:33:40.
