data_PCOD9111990
_publ_section_title
;
Structure prediction by ZEFSAII (Michael W. Deem and Ramdas Pophale) SiO2 
 PCOD9111990
Probable space group: P -1
;
_chemical_formula_sum "Si O2"
_cell_formula_units_Z 15
_cell_length_a 16.630590
_cell_length_b 14.707478
_cell_length_c 11.604567
_cell_angle_alpha 150.995273
_cell_angle_beta 31.493234
_cell_angle_gamma 153.944468
_cell_volume 573.827332
_symmetry_space_group_name_H-M "P -1"
_symmetry_group_IT_number 2
_symmetry_cell_setting 'triclinic'
loop_
_space_group_symop_operation_xyz
x,y,z
-x,-y,-z
loop_
_atom_site_type_symbol
_atom_site_label
_atom_site_fract_x
_atom_site_fract_y
_atom_site_fract_z
Si Si1 0.267882 0.996744 0.185967
Si Si2 0.604355 0.953348 0.676448
Si Si3 0.128098 0.332227 0.428992
Si Si4 0.676944 0.541953 0.434056
Si Si5 0.935533 0.591723 0.982556
Si Si6 0.907363 0.799924 0.022504
Si Si7 0.286923 0.053827 0.711489
Si Si8 0.500000 0.500000 0.000000
O O1 0.095183 0.824912 0.119176
O O2 0.239395 0.931494 0.284116
O O3 0.336968 0.260337 0.378955
O O4 0.438562 0.982163 0.928968
O O5 0.503440 0.680949 0.527308
O O6 0.661285 0.016495 0.544047
O O7 0.169298 0.331754 0.512004
O O8 0.994177 0.064349 0.249167
O O9 0.330899 0.461376 0.257348
O O10 0.034231 0.470098 0.688292
O O11 0.759632 0.467654 0.150677
O O12 0.868486 0.648322 0.012009
O O13 0.084378 0.846945 0.784082
O O14 0.729774 0.734220 0.083596
O O15 0.443057 0.229419 0.807337
#
# Coordination Sequence:
#
# PCOD9111990 Si02
#       8
#     2   2   2   2   2   2   2   1
#     4  11  24  39  63  95 129 171 210 256 323 370
#     4  11  24  42  61  95 133 167 210 265 314 384
#     4  11  23  41  67  93 128 170 209 263 319 369
#     4  12  23  39  62  94 130 165 211 259 317 376
#     4  12  24  41  65 100 125 170 215 258 317 382
#     4  10  24  43  66  93 128 167 215 265 310 379
#     4  10  21  44  67  91 127 171 211 262 321 369
#     4  10  20  44  66  90 124 168 210 258 314 372
#
# _framework density 26.140267000000001
#
# number of rings (size 3 to 8) (size 9 to 14) (size 15 to 20)
#    0.000    1.067    4.000    2.000    1.867    1.067 
#    2.400    8.000    0.000    0.000    0.000    0.000 
#    0.000    0.000    0.000    0.000    0.000    0.000 
#
# Total GULP energy -83734.032542 kJ/mol
# GULP energy per Si atom -5582.268836 kJ/mol
# Density = 2.608077 g / cm^3
# Si number density = 26.140267 Si / 1000 Ang^3
#
#
#
# Elastic Constant Matrix: (Units=GPa)
#
#
# Indices 1 2 3 4 5 6 
#
# 1 89.3979 0.1789 20.9030 0.4092 10.1945 -10.8260
# 2 0.1789 72.5028 38.0591 -1.5193 5.8496 -2.3875
# 3 20.9030 38.0591 127.8716 -25.2737 13.8556 -27.7190
# 4 0.4092 -1.5193 -25.2737 55.6303 -12.4382 5.7991
# 5 10.1945 5.8496 13.8556 -12.4382 42.9335 -4.7060
# 6 -10.8260 -2.3875 -27.7190 5.7991 -4.7060 35.1260
#
#
#
# Elastic Compliance Matrix: (Units=1/GPa)
#
#
# Indices 1 2 3 4 5 6 
#
# 1 0.012227 0.001243 -0.001937 -0.001778 -0.002716 0.002254
# 2 0.001243 0.017065 -0.006285 -0.002430 -0.001651 -0.003237
# 3 -0.001937 -0.006285 0.012769 0.004664 -0.000553 0.008208
# 4 -0.001778 -0.002430 0.004664 0.021234 0.005420 0.000188
# 5 -0.002716 -0.001651 -0.000553 0.005420 0.026043 0.001208
# 6 0.002254 -0.003237 0.008208 0.000188 0.001208 0.035551
#
#
# Mechanical properties :
#
#
# Convention : Reuss Voigt Hill
#
# Bulk Modulus (GPa) = 35.58593 45.33936 40.46265
# Shear Modulus (GPa) = 33.73466 42.11337 37.92402
#
# Velocity S-wave (km/s) = 3.59628 4.01815 3.81305
# Velocity P-wave (km/s) = 5.55764 6.23776 5.90750
#
# Compressibility (1/GPa) = 0.02810099
#
# Stress axis : x y z
#
# Youngs Moduli (GPa) = 81.78484 58.60102 78.31547
#
# Poissons Ratio (x) = -0.07283 0.15172
# Poissons Ratio (y) = -0.10165 0.49224
# Poissons Ratio (z) = 0.15844 0.36833
#
# Static dielectric constant tensor:
#      x y z
#    x 3.238330 1.145020 0.401130 
#    y 1.145020 3.063690 0.386710 
#    z 0.401130 0.386710 2.231520 
# 
# From -- ./inp_files/465955.got.cif
#   From: 2010.05.17/outbox.cif.g08.bks.cpg/sg2_233_cif.got.tgz:465955.got - 2010.06.03 11:33:40.
