data_PCOD9111195
_publ_section_title
;
Structure prediction by ZEFSAII (Michael W. Deem and Ramdas Pophale) SiO2 
 PCOD9111195
Probable space group: P -1
;
_chemical_formula_sum "Si O2"
_cell_formula_units_Z 13
_cell_length_a 14.701413
_cell_length_b 10.090488
_cell_length_c 9.649207
_cell_angle_alpha 40.507297
_cell_angle_beta 144.084898
_cell_angle_gamma 141.025984
_cell_volume 493.864363
_symmetry_space_group_name_H-M "P -1"
_symmetry_group_IT_number 2
_symmetry_cell_setting 'triclinic'
loop_
_space_group_symop_operation_xyz
x,y,z
-x,-y,-z
loop_
_atom_site_type_symbol
_atom_site_label
_atom_site_fract_x
_atom_site_fract_y
_atom_site_fract_z
Si Si1 0.323481 0.508680 0.728343
Si Si2 0.825031 0.785658 0.981569
Si Si3 0.146139 0.442676 0.064119
Si Si4 0.500000 0.000000 0.000000
Si Si5 0.211251 0.825005 0.036105
Si Si6 0.596098 0.023231 0.412397
Si Si7 0.721974 0.760233 0.375257
O O1 0.320869 0.734815 0.604075
O O2 0.305965 0.448919 0.592892
O O3 0.500000 0.500000 0.000000
O O4 0.182283 0.303384 0.802513
O O5 0.820262 0.595182 0.020653
O O6 0.674309 0.861683 0.701771
O O7 0.000000 0.000000 0.000000
O O8 0.240944 0.696943 0.038098
O O9 0.206255 0.290256 0.355449
O O10 0.944558 0.345758 0.929823
O O11 0.444334 0.198505 0.831690
O O12 0.388775 0.976912 0.734817
O O13 0.390572 0.935046 0.248135
O O14 0.170623 0.017979 0.760683
#
# Coordination Sequence:
#
# PCOD9111195 Si02
#       7
#     2   2   2   1   2   2   2
#     4  12  27  47  74 111 150 195 246 305 381 437
#     4  12  30  49  74 111 155 193 247 313 373 439
#     4  11  25  46  73 107 145 197 249 303 369 437
#     4  10  20  42  70 106 136 184 246 300 352 426
#     4  10  24  42  73 109 141 188 254 301 362 443
#     4  11  26  47  77 108 149 193 254 303 371 443
#     4  11  23  45  72 103 147 192 244 305 363 438
#
# _framework density 26.323018000000001
#
# number of rings (size 3 to 8) (size 9 to 14) (size 15 to 20)
#    0.000    0.923    4.615    1.385    6.462    5.538 
#    0.000    0.000    0.000    0.000    0.000    0.000 
#    0.000    0.000    0.000    0.000    0.000    0.000 
#
# Total GULP energy -72704.220924 kJ/mol
# GULP energy per Si atom -5592.632379 kJ/mol
# Density = 2.626311 g / cm^3
# Si number density = 26.323018 Si / 1000 Ang^3
#
#
#
# Elastic Constant Matrix: (Units=GPa)
#
#
# Indices 1 2 3 4 5 6 
#
# 1 100.6246 36.3056 21.6762 3.4487 -13.1495 -39.5899
# 2 36.3056 122.0957 15.1427 -18.1987 3.1188 -23.2270
# 3 21.6762 15.1427 93.4368 -5.1884 11.0675 -9.2579
# 4 3.4487 -18.1987 -5.1884 33.1031 -2.7650 6.7704
# 5 -13.1495 3.1188 11.0675 -2.7650 43.6665 3.3456
# 6 -39.5899 -23.2270 -9.2579 6.7704 3.3456 58.6236
#
#
#
# Elastic Compliance Matrix: (Units=1/GPa)
#
#
# Indices 1 2 3 4 5 6 
#
# 1 0.016602 -0.003702 -0.003210 -0.005821 0.004971 0.009626
# 2 -0.003702 0.010406 -0.000230 0.005737 -0.001514 0.001010
# 3 -0.003210 -0.000230 0.012007 0.001841 -0.003850 -0.000355
# 4 -0.005821 0.005737 0.001841 0.035376 0.000028 -0.005455
# 5 0.004971 -0.001514 -0.003850 0.000028 0.025430 0.000695
# 6 0.009626 0.001010 -0.000355 -0.005455 0.000695 0.024493
#
#
# Mechanical properties :
#
#
# Convention : Reuss Voigt Hill
#
# Bulk Modulus (GPa) = 40.43316 51.37844 45.90580
# Shear Modulus (GPa) = 34.05067 43.28081 38.66574
#
# Velocity S-wave (km/s) = 3.60053 4.05930 3.83677
# Velocity P-wave (km/s) = 5.71653 6.44448 6.09139
#
# Compressibility (1/GPa) = 0.02473218
#
# Stress axis : x y z
#
# Youngs Moduli (GPa) = 60.23533 96.10268 83.28288
#
# Poissons Ratio (x) = 0.35576 0.26731
# Poissons Ratio (y) = 0.22298 0.01912
# Poissons Ratio (z) = 0.19334 0.02206
#
# Static dielectric constant tensor:
#      x y z
#    x 1.789960 -0.073680 -0.038110 
#    y -0.073680 2.029400 -0.029950 
#    z -0.038110 -0.029950 2.011620 
# 
# From -- ./inp_files/294392.got.cif
#   From: 2010.05.17/outbox.cif.g08.bks.cpg/sg2_148_cif.got.tgz:294392.got - 2010.06.03 11:33:40.
