data_PCOD9111691
_publ_section_title
;
Structure prediction by ZEFSAII (Michael W. Deem and Ramdas Pophale) SiO2 
 PCOD9111691
Probable space group: P -1
;
_chemical_formula_sum "Si O2"
_cell_formula_units_Z 12
_cell_length_a 9.045794
_cell_length_b 14.413485
_cell_length_c 7.143048
_cell_angle_alpha 59.449022
_cell_angle_beta 75.154922
_cell_angle_gamma 117.284690
_cell_volume 548.170714
_symmetry_space_group_name_H-M "P -1"
_symmetry_group_IT_number 2
_symmetry_cell_setting 'triclinic'
loop_
_space_group_symop_operation_xyz
x,y,z
-x,-y,-z
loop_
_atom_site_type_symbol
_atom_site_label
_atom_site_fract_x
_atom_site_fract_y
_atom_site_fract_z
Si Si1 0.549584 0.707231 0.284618
Si Si2 0.031119 0.707835 0.750525
Si Si3 0.547102 0.514453 0.188087
Si Si4 0.616681 0.164095 0.214652
Si Si5 0.152530 0.655794 0.402742
Si Si6 0.799838 0.965929 0.677181
O O1 0.510232 0.603334 0.232043
O O2 0.587817 0.649596 0.507158
O O3 0.341924 0.678862 0.408970
O O4 0.736993 0.881301 0.981465
O O5 0.192069 0.719993 0.819014
O O6 0.018411 0.647279 0.614932
O O7 0.134624 0.876838 0.505047
O O8 0.801138 0.610848 0.022027
O O9 0.500000 0.500000 0.000000
O O10 0.420864 0.149966 0.257072
O O11 0.500000 0.000000 0.500000
O O12 0.729869 0.209418 0.927708
O O13 0.000000 0.500000 0.500000
O O14 0.000000 0.000000 0.500000
#
# Coordination Sequence:
#
# PCOD9111691 Si02
#       6
#     2   2   2   2   2   2
#     4  10  23  40  63  90 133 164 216 269 320 375
#     4  11  23  42  69  95 132 172 217 264 330 386
#     4  11  23  41  63  94 130 174 215 264 322 387
#     4   9  22  40  67  94 133 167 211 270 323 382
#     4  11  23  41  65  98 129 169 219 267 322 390
#     4  10  20  43  68  97 129 171 216 269 323 389
#
# _framework density 21.890992000000001
#
# number of rings (size 3 to 8) (size 9 to 14) (size 15 to 20)
#    0.000    1.667    1.667    2.000    0.000   12.667 
#    0.000    2.500    0.000    0.000    0.000    0.000 
#    0.000    0.000    0.000    0.000    0.000    0.000 
#
# Total GULP energy -67035.924728 kJ/mol
# GULP energy per Si atom -5586.327061 kJ/mol
# Density = 2.184117 g / cm^3
# Si number density = 21.890992 Si / 1000 Ang^3
#
#
#
# Elastic Constant Matrix: (Units=GPa)
#
#
# Indices 1 2 3 4 5 6 
#
# 1 73.1347 15.2192 27.9682 -0.7715 0.9259 -0.5495
# 2 15.2192 40.7470 -1.8414 12.4290 7.5075 -2.4680
# 3 27.9682 -1.8414 100.9124 -10.3359 34.0494 -7.6556
# 4 -0.7715 12.4290 -10.3359 33.2438 4.1343 -1.6130
# 5 0.9259 7.5075 34.0494 4.1343 44.1381 0.3239
# 6 -0.5495 -2.4680 -7.6556 -1.6130 0.3239 30.9712
#
#
#
# Elastic Compliance Matrix: (Units=1/GPa)
#
#
# Indices 1 2 3 4 5 6 
#
# 1 0.018374 -0.008753 -0.007804 0.000273 0.007116 -0.002361
# 2 -0.008753 0.032744 0.005150 -0.009628 -0.008482 0.003314
# 3 -0.007804 0.005150 0.018381 0.005788 -0.015473 0.005279
# 4 0.000273 -0.009628 0.005788 0.036393 -0.006261 0.002629
# 5 0.007116 -0.008482 -0.015473 -0.006261 0.036509 -0.005082
# 6 -0.002361 0.003314 0.005279 0.002629 -0.005082 0.034005
#
#
# Mechanical properties :
#
#
# Convention : Reuss Voigt Hill
#
# Bulk Modulus (GPa) = 21.41989 33.05401 27.23695
# Shear Modulus (GPa) = 23.27946 33.23382 28.25664
#
# Velocity S-wave (km/s) = 3.26456 3.90057 3.59665
# Velocity P-wave (km/s) = 4.90060 5.95131 5.45133
#
# Compressibility (1/GPa) = 0.04668558
#
# Stress axis : x y z
#
# Youngs Moduli (GPa) = 54.42348 30.53993 54.40533
#
# Poissons Ratio (x) = 0.26731 0.42459
# Poissons Ratio (y) = 0.47636 -0.28021
# Poissons Ratio (z) = 0.42474 -0.15729
#
# Static dielectric constant tensor:
#      x y z
#    x 1.822120 0.026810 0.012910 
#    y 0.026810 1.792650 -0.019810 
#    z 0.012910 -0.019810 1.812470 
# 
# From -- ./inp_files/22979.got.cif
#   From: 2010.05.17/outbox.cif.g08.bks.cpg/sg2_12_cif.got.tgz:22979.got - 2010.06.03 11:33:40.
