data_PCOD9111676
_publ_section_title
;
Structure prediction by ZEFSAII (Michael W. Deem and Ramdas Pophale) SiO2 
 PCOD9111676
Probable space group: P -1
;
_chemical_formula_sum "Si O2"
_cell_formula_units_Z 16
_cell_length_a 22.292701
_cell_length_b 8.668797
_cell_length_c 6.439359
_cell_angle_alpha 100.930925
_cell_angle_beta 43.395571
_cell_angle_gamma 117.180064
_cell_volume 739.643214
_symmetry_space_group_name_H-M "P -1"
_symmetry_group_IT_number 2
_symmetry_cell_setting 'triclinic'
loop_
_space_group_symop_operation_xyz
x,y,z
-x,-y,-z
loop_
_atom_site_type_symbol
_atom_site_label
_atom_site_fract_x
_atom_site_fract_y
_atom_site_fract_z
Si Si1 0.781085 0.354523 0.765030
Si Si2 0.649179 0.526591 0.150543
Si Si3 0.465099 0.363357 0.861829
Si Si4 0.049531 0.283998 0.496212
Si Si5 0.129684 0.833687 0.793135
Si Si6 0.274112 0.097272 0.821072
Si Si7 0.091024 0.997939 0.540109
Si Si8 0.400113 0.015771 0.761154
O O1 0.867889 0.517033 0.714393
O O2 0.837034 0.291308 0.446579
O O3 0.715786 0.445074 0.873510
O O4 0.696225 0.176794 0.037106
O O5 0.559350 0.397799 0.490611
O O6 0.604902 0.585875 0.086708
O O7 0.707538 0.701506 0.191068
O O8 0.409127 0.148144 0.963642
O O9 0.500000 0.500000 0.000000
O O10 0.002260 0.159843 0.383242
O O11 0.089549 0.178839 0.520944
O O12 0.958083 0.278047 0.853805
O O13 0.093936 0.941437 0.753793
O O14 0.222902 0.978660 0.722599
O O15 0.375375 0.101321 0.642565
O O16 0.191626 0.015132 0.189458
O O17 0.500000 0.000000 0.500000
#
# Coordination Sequence:
#
# PCOD9111676 Si02
#       8
#     2   2   2   2   2   2   2   2
#     4  12  23  42  63  94 134 169 206 269 324 374
#     4  10  22  42  63  90 129 168 212 264 319 379
#     4  10  23  42  66  91 121 169 221 264 310 383
#     4  10  23  42  65  95 131 169 215 265 319 379
#     4  11  24  41  67  99 127 167 219 268 317 378
#     4  10  22  42  66  93 131 172 213 261 317 387
#     4  10  20  43  68  92 128 171 214 265 316 382
#     4  11  23  43  66  94 133 170 209 263 331 376
#
# _framework density 21.632052000000002
#
# number of rings (size 3 to 8) (size 9 to 14) (size 15 to 20)
#    0.000    1.500    3.750    0.750    1.750    1.500 
#    2.250    1.250    0.000    0.000    0.000    0.000 
#    0.000    0.000    0.000    0.000    0.000    0.000 
#
# Total GULP energy -89270.116509 kJ/mol
# GULP energy per Si atom -5579.382282 kJ/mol
# Density = 2.158282 g / cm^3
# Si number density = 21.632052 Si / 1000 Ang^3
#
#
#
# Elastic Constant Matrix: (Units=GPa)
#
#
# Indices 1 2 3 4 5 6 
#
# 1 79.5818 33.0786 16.8189 13.1436 -16.9278 0.8559
# 2 33.0786 136.8707 13.7922 -4.8998 -9.0722 7.2574
# 3 16.8189 13.7922 43.2657 -3.9196 -17.6623 -7.9382
# 4 13.1436 -4.8998 -3.9196 35.9662 -1.7035 -11.2662
# 5 -16.9278 -9.0722 -17.6623 -1.7035 27.7133 8.0197
# 6 0.8559 7.2574 -7.9382 -11.2662 8.0197 26.7160
#
#
#
# Elastic Compliance Matrix: (Units=1/GPa)
#
#
# Indices 1 2 3 4 5 6 
#
# 1 0.018582 -0.003343 -0.004907 -0.009853 0.008823 -0.007949
# 2 -0.003343 0.008461 -0.001426 0.001585 0.000526 -0.002105
# 3 -0.004907 -0.001426 0.034842 0.009266 0.016457 0.009864
# 4 -0.009853 0.001585 0.009266 0.038708 -0.002959 0.019850
# 5 0.008823 0.000526 0.016457 -0.002959 0.055875 -0.013556
# 6 -0.007949 -0.002105 0.009864 0.019850 -0.013556 0.053628
#
#
# Mechanical properties :
#
#
# Convention : Reuss Voigt Hill
#
# Bulk Modulus (GPa) = 23.51042 43.01085 33.26063
# Shear Modulus (GPa) = 20.52343 31.14765 25.83554
#
# Velocity S-wave (km/s) = 3.08352 3.79870 3.45964
# Velocity P-wave (km/s) = 4.85483 6.25829 5.60070
#
# Compressibility (1/GPa) = 0.04253434
#
# Stress axis : x y z
#
# Youngs Moduli (GPa) = 53.81661 118.19137 28.70060
#
# Poissons Ratio (x) = 0.39508 0.14083
# Poissons Ratio (y) = 0.17990 0.04092
# Poissons Ratio (z) = 0.26407 0.16850
#
# Static dielectric constant tensor:
#      x y z
#    x 1.785870 -0.001930 -0.014940 
#    y -0.001930 1.866470 -0.037660 
#    z -0.014940 -0.037660 1.820020 
# 
# From -- ./inp_files/39731.got.cif
#   From: 2010.05.17/outbox.cif.g08.bks.cpg/sg2_20_cif.got.tgz:39731.got - 2010.06.03 11:33:40.
