data_PCOD9111190
_publ_section_title
;
Structure prediction by ZEFSAII (Michael W. Deem and Ramdas Pophale) SiO2 
 PCOD9111190
Probable space group: P -1
;
_chemical_formula_sum "Si O2"
_cell_formula_units_Z 16
_cell_length_a 6.337904
_cell_length_b 10.638086
_cell_length_c 11.362499
_cell_angle_alpha 118.550809
_cell_angle_beta 87.279434
_cell_angle_gamma 92.848031
_cell_volume 671.856725
_symmetry_space_group_name_H-M "P -1"
_symmetry_group_IT_number 2
_symmetry_cell_setting 'triclinic'
loop_
_space_group_symop_operation_xyz
x,y,z
-x,-y,-z
loop_
_atom_site_type_symbol
_atom_site_label
_atom_site_fract_x
_atom_site_fract_y
_atom_site_fract_z
Si Si1 0.453461 0.286613 0.319215
Si Si2 0.678004 0.010141 0.598682
Si Si3 0.803046 0.317361 0.118574
Si Si4 0.639182 0.617958 0.197392
Si Si5 0.682458 0.399962 0.585591
Si Si6 0.832899 0.868259 0.923011
Si Si7 0.965061 0.776697 0.418662
Si Si8 0.510079 0.172497 0.890626
O O1 0.649952 0.301837 0.228742
O O2 0.564795 0.291266 0.447042
O O3 0.335055 0.438279 0.387196
O O4 0.299849 0.164992 0.208235
O O5 0.558321 0.062660 0.738887
O O6 0.846456 0.129145 0.600823
O O7 0.500000 0.000000 0.500000
O O8 0.821116 0.872297 0.548049
O O9 0.759970 0.470310 0.131554
O O10 0.037025 0.276635 0.126761
O O11 0.720013 0.205246 0.973284
O O12 0.445297 0.606249 0.290112
O O13 0.808879 0.728811 0.298049
O O14 0.563492 0.681564 0.105152
O O15 0.920988 0.352212 0.577885
O O16 0.664241 0.880505 0.036846
O O17 0.000000 0.000000 0.000000
#
# Coordination Sequence:
#
# PCOD9111190 Si02
#       8
#     2   2   2   2   2   2   2   2
#     4   9  22  44  70  97 137 176 227 289 330 399
#     4  11  23  44  60  97 147 173 218 270 340 409
#     4  10  24  45  69  97 135 180 229 275 336 405
#     4  11  22  42  70 108 136 164 222 291 346 396
#     4  10  20  42  70 104 136 172 222 284 350 395
#     4  11  26  49  66  96 134 188 238 272 327 410
#     4  11  22  38  67 100 138 176 216 272 340 418
#     4  11  24  44  69  98 137 178 221 281 342 395
#
# _framework density 23.814599999999999
#
# number of rings (size 3 to 8) (size 9 to 14) (size 15 to 20)
#    0.000    1.500    2.500    1.125    1.750    3.500 
#   13.500    3.750    0.000    0.000    0.000    0.000 
#    0.000    0.000    0.000    0.000    0.000    0.000 
#
# Total GULP energy -89542.081271 kJ/mol
# GULP energy per Si atom -5596.380079 kJ/mol
# Density = 2.376040 g / cm^3
# Si number density = 23.814600 Si / 1000 Ang^3
#
#
#
# Elastic Constant Matrix: (Units=GPa)
#
#
# Indices 1 2 3 4 5 6 
#
# 1 82.0911 22.6104 21.0642 4.3714 -13.4575 -18.5596
# 2 22.6104 57.2135 16.7322 -4.7959 -4.5225 -12.8601
# 3 21.0642 16.7322 117.8133 0.4814 -12.1497 2.2336
# 4 4.3714 -4.7959 0.4814 35.0857 -7.7388 0.4039
# 5 -13.4575 -4.5225 -12.1497 -7.7388 18.1354 13.4935
# 6 -18.5596 -12.8601 2.2336 0.4039 13.4935 46.6440
#
#
#
# Elastic Compliance Matrix: (Units=1/GPa)
#
#
# Indices 1 2 3 4 5 6 
#
# 1 0.015707 -0.004628 -0.001517 -0.001132 0.006677 0.003125
# 2 -0.004628 0.021179 -0.002489 0.003008 -0.002014 0.004673
# 3 -0.001517 -0.002489 0.010125 0.001762 0.009073 -0.004415
# 4 -0.001132 0.003008 0.001762 0.033407 0.019550 -0.005650
# 5 0.006677 -0.002014 0.009073 0.019550 0.092894 -0.025375
# 6 0.003125 0.004673 -0.004415 -0.005650 -0.025375 0.031572
#
#
# Mechanical properties :
#
#
# Convention : Reuss Voigt Hill
#
# Bulk Modulus (GPa) = 33.62258 41.99237 37.80748
# Shear Modulus (GPa) = 21.54559 33.08711 27.31635
#
# Velocity S-wave (km/s) = 3.01112 3.73146 3.39048
# Velocity P-wave (km/s) = 5.12233 6.01966 5.58904
#
# Compressibility (1/GPa) = 0.02974191
#
# Stress axis : x y z
#
# Youngs Moduli (GPa) = 63.66615 47.21717 98.76619
#
# Poissons Ratio (x) = 0.21854 0.14983
# Poissons Ratio (y) = 0.29467 0.24582
# Poissons Ratio (z) = 0.09658 0.11752
#
# Static dielectric constant tensor:
#      x y z
#    x 1.831210 0.005390 0.007660 
#    y 0.005390 2.002770 0.044260 
#    z 0.007660 0.044260 1.897070 
# 
# From -- ./inp_files/83243.got.cif
#   From: 2010.05.17/outbox.cif.g08.bks.cpg/sg2_42_cif.got.tgz:83243.got - 2010.06.03 11:33:40.
