data_PCOD9111314
_publ_section_title
;
Structure prediction by ZEFSAII (Michael W. Deem and Ramdas Pophale) SiO2 
 PCOD9111314
Probable space group: P -1
;
_chemical_formula_sum "Si O2"
_cell_formula_units_Z 12
_cell_length_a 7.659836
_cell_length_b 7.024791
_cell_length_c 11.905692
_cell_angle_alpha 85.121916
_cell_angle_beta 69.734750
_cell_angle_gamma 125.797894
_cell_volume 451.270300
_symmetry_space_group_name_H-M "P -1"
_symmetry_group_IT_number 2
_symmetry_cell_setting 'triclinic'
loop_
_space_group_symop_operation_xyz
x,y,z
-x,-y,-z
loop_
_atom_site_type_symbol
_atom_site_label
_atom_site_fract_x
_atom_site_fract_y
_atom_site_fract_z
Si Si1 0.409842 0.455654 0.699637
Si Si2 0.044379 0.741950 0.794950
Si Si3 0.069063 0.256418 0.429581
Si Si4 0.878289 0.208464 0.817789
Si Si5 0.707502 0.744765 0.014246
Si Si6 0.407844 0.982406 0.338760
O O1 0.655961 0.516735 0.596092
O O2 0.504618 0.738192 0.678725
O O3 0.137316 0.285032 0.714621
O O4 0.355998 0.333214 0.839956
O O5 0.337541 0.956517 0.703661
O O6 0.919738 0.731218 0.708356
O O7 0.958903 0.464731 0.838326
O O8 0.951454 0.794411 0.920027
O O9 0.000000 0.000000 0.500000
O O10 0.828553 0.216386 0.519537
O O11 0.743292 0.981029 0.947616
O O12 0.700518 0.117315 0.756400
O O13 0.500000 0.500000 0.000000
#
# Coordination Sequence:
#
# PCOD9111314 Si02
#       6
#     2   2   2   2   2   2
#     4  10  22  43  66 101 132 175 225 266 326 392
#     4  11  25  43  68 101 132 172 221 273 330 394
#     4  10  20  42  72  93 133 176 216 274 326 388
#     4  11  25  43  67 100 135 174 220 271 330 391
#     4  12  22  46  69  95 136 175 220 273 330 389
#     4  10  22  42  65  98 136 173 218 271 330 387
#
# _framework density 26.591601000000001
#
# number of rings (size 3 to 8) (size 9 to 14) (size 15 to 20)
#    0.000    1.333    3.333    2.000    0.000    6.000 
#    3.000    1.667    0.000    0.000    0.000    0.000 
#    0.000    0.000    0.000    0.000    0.000    0.000 
#
# Total GULP energy -67293.069483 kJ/mol
# GULP energy per Si atom -5607.755790 kJ/mol
# Density = 2.653108 g / cm^3
# Si number density = 26.591601 Si / 1000 Ang^3
#
#
#
# Elastic Constant Matrix: (Units=GPa)
#
#
# Indices 1 2 3 4 5 6 
#
# 1 109.2834 12.3268 18.6142 -13.1068 -19.5494 17.6812
# 2 12.3268 112.5631 -1.2699 -42.8877 5.7193 -5.7616
# 3 18.6142 -1.2699 105.0364 -21.6441 -5.4208 -24.1354
# 4 -13.1068 -42.8877 -21.6441 42.1430 8.8781 -5.3691
# 5 -19.5494 5.7193 -5.4208 8.8781 45.5913 -0.6907
# 6 17.6812 -5.7616 -24.1354 -5.3691 -0.6907 40.5507
#
#
#
# Elastic Compliance Matrix: (Units=1/GPa)
#
#
# Indices 1 2 3 4 5 6 
#
# 1 0.012732 -0.004844 -0.005736 -0.006615 0.006515 -0.010418
# 2 -0.004844 0.022558 0.010569 0.030842 -0.009421 0.015531
# 3 -0.005736 0.010569 0.019177 0.022324 -0.005575 0.018277
# 4 -0.006615 0.030842 0.022324 0.072032 -0.017627 0.029791
# 5 0.006515 -0.009421 -0.005575 -0.017627 0.028538 -0.009346
# 6 -0.010418 0.015531 0.018277 0.029791 -0.009346 0.046074
#
#
# Mechanical properties :
#
#
# Convention : Reuss Voigt Hill
#
# Bulk Modulus (GPa) = 18.36688 42.91391 30.64039
# Shear Modulus (GPa) = 22.80196 45.47113 34.13654
#
# Velocity S-wave (km/s) = 2.93146 4.13968 3.58681
# Velocity P-wave (km/s) = 4.28719 6.24679 5.35735
#
# Compressibility (1/GPa) = 0.05444583
#
# Stress axis : x y z
#
# Youngs Moduli (GPa) = 78.54532 44.32972 52.14603
#
# Poissons Ratio (x) = 0.21472 0.29909
# Poissons Ratio (y) = 0.38045 -0.55113
# Poissons Ratio (z) = 0.45051 -0.46852
#
# Static dielectric constant tensor:
#      x y z
#    x 2.143150 -0.024270 -0.105840 
#    y -0.024270 2.072260 0.002050 
#    z -0.105840 0.002050 2.032850 
# 
# From -- ./inp_files/341536.got.cif
#   From: 2010.05.17/outbox.cif.g08.bks.cpg/sg2_171_cif.got.tgz:341536.got - 2010.06.03 11:33:40.
