data_PCOD9111036
_publ_section_title
;
Structure prediction by ZEFSAII (Michael W. Deem and Ramdas Pophale) SiO2 
 PCOD9111036
Probable space group: P -1
;
_chemical_formula_sum "Si O2"
_cell_formula_units_Z 16
_cell_length_a 16.285697
_cell_length_b 10.558809
_cell_length_c 12.478491
_cell_angle_alpha 124.880120
_cell_angle_beta 32.470811
_cell_angle_gamma 143.718092
_cell_volume 640.928228
_symmetry_space_group_name_H-M "P -1"
_symmetry_group_IT_number 2
_symmetry_cell_setting 'triclinic'
loop_
_space_group_symop_operation_xyz
x,y,z
-x,-y,-z
loop_
_atom_site_type_symbol
_atom_site_label
_atom_site_fract_x
_atom_site_fract_y
_atom_site_fract_z
Si Si1 0.638900 0.717699 0.812036
Si Si2 0.273538 0.606735 0.669842
Si Si3 0.892886 0.860070 0.380954
Si Si4 0.993105 0.620486 0.840853
Si Si5 0.354518 0.930419 0.419903
Si Si6 0.459346 0.245178 0.769611
Si Si7 0.943905 0.876405 0.111960
Si Si8 0.328741 0.779471 0.155204
O O1 0.538791 0.474006 0.828291
O O2 0.728623 0.784707 0.622444
O O3 0.452258 0.712803 0.023172
O O4 0.500000 0.000000 0.000000
O O5 0.140993 0.348737 0.703406
O O6 0.109123 0.614198 0.806046
O O7 0.427846 0.797007 0.683341
O O8 0.448301 0.702205 0.427165
O O9 0.740241 0.168984 0.642160
O O10 0.141686 0.085622 0.261044
O O11 0.833142 0.879307 0.336834
O O12 0.837389 0.637123 0.072147
O O13 0.873078 0.413493 0.794074
O O14 0.174808 0.834186 0.664269
O O15 0.438761 0.822651 0.312129
O O16 0.192715 0.028719 0.958287
O O17 0.000000 0.000000 0.000000
#
# Coordination Sequence:
#
# PCOD9111036 Si02
#       8
#     2   2   2   2   2   2   2   2
#     4  10  23  46  65  95 133 172 223 270 323 390
#     4  10  20  43  72  95 124 168 222 270 317 390
#     4  10  24  42  70  95 127 177 223 270 323 385
#     4  11  23  42  64  99 133 162 217 272 327 388
#     4  11  22  43  72  95 126 174 220 270 322 387
#     4  10  20  42  68  94 125 165 223 269 316 386
#     4  12  24  38  61  99 132 172 213 265 330 389
#     4  12  27  41  61  99 138 174 213 267 336 388
#
# _framework density 24.963792999999999
#
# number of rings (size 3 to 8) (size 9 to 14) (size 15 to 20)
#    0.000    1.250    2.500    3.375    1.750    5.500 
#    0.000    1.875    0.000    0.000    0.000    0.000 
#    0.000    0.000    0.000    0.000    0.000    0.000 
#
# Total GULP energy -89541.326336 kJ/mol
# GULP energy per Si atom -5596.332896 kJ/mol
# Density = 2.490697 g / cm^3
# Si number density = 24.963793 Si / 1000 Ang^3
#
#
#
# Elastic Constant Matrix: (Units=GPa)
#
#
# Indices 1 2 3 4 5 6 
#
# 1 128.1055 29.5868 18.9282 6.0647 35.1750 25.4510
# 2 29.5868 150.0577 4.4314 1.4081 -1.1507 22.2970
# 3 18.9282 4.4314 52.1575 15.7583 9.6066 7.2196
# 4 6.0647 1.4081 15.7583 37.4818 10.6069 3.9943
# 5 35.1750 -1.1507 9.6066 10.6069 34.4115 -1.5123
# 6 25.4510 22.2970 7.2196 3.9943 -1.5123 43.7141
#
#
#
# Elastic Compliance Matrix: (Units=1/GPa)
#
#
# Indices 1 2 3 4 5 6 
#
# 1 0.014161 -0.001708 -0.002240 0.003933 -0.015467 -0.007898
# 2 -0.001708 0.007418 0.000099 -0.000304 0.001941 -0.002711
# 3 -0.002240 0.000099 0.023158 -0.008742 -0.001557 -0.001826
# 4 0.003933 -0.000304 -0.008742 0.033609 -0.012134 -0.004182
# 5 -0.015467 0.001941 -0.001557 -0.012134 0.049597 0.011097
# 6 -0.007898 -0.002711 -0.001826 -0.004182 0.011097 0.029925
#
#
# Mechanical properties :
#
#
# Convention : Reuss Voigt Hill
#
# Bulk Modulus (GPa) = 26.99804 48.46818 37.73311
# Shear Modulus (GPa) = 28.10342 41.61308 34.85825
#
# Velocity S-wave (km/s) = 3.35889 4.08724 3.74083
# Velocity P-wave (km/s) = 5.08735 6.46000 5.81433
#
# Compressibility (1/GPa) = 0.03703972
#
# Stress axis : x y z
#
# Youngs Moduli (GPa) = 70.61470 134.79846 43.18132
#
# Poissons Ratio (x) = 0.23023 0.09675
# Poissons Ratio (y) = 0.12061 -0.00429
# Poissons Ratio (z) = 0.15821 -0.01338
#
# Static dielectric constant tensor:
#      x y z
#    x 1.997310 -0.026860 0.039350 
#    y -0.026860 2.006220 -0.009310 
#    z 0.039350 -0.009310 1.990770 
# 
# From -- ./inp_files/575310.got.cif
#   From: 2010.05.17/outbox.cif.g08.bks.cpg/sg2_288_cif.got.tgz:575310.got - 2010.06.03 11:33:40.
