data_PCOD9111328
_publ_section_title
;
Structure prediction by ZEFSAII (Michael W. Deem and Ramdas Pophale) SiO2 
 PCOD9111328
Probable space group: P -1
;
_chemical_formula_sum "Si O2"
_cell_formula_units_Z 12
_cell_length_a 7.632429
_cell_length_b 11.644926
_cell_length_c 7.953352
_cell_angle_alpha 110.230962
_cell_angle_beta 122.165527
_cell_angle_gamma 103.897067
_cell_volume 474.660988
_symmetry_space_group_name_H-M "P -1"
_symmetry_group_IT_number 2
_symmetry_cell_setting 'triclinic'
loop_
_space_group_symop_operation_xyz
x,y,z
-x,-y,-z
loop_
_atom_site_type_symbol
_atom_site_label
_atom_site_fract_x
_atom_site_fract_y
_atom_site_fract_z
Si Si1 0.579910 0.903645 0.891182
Si Si2 0.097914 0.645224 0.012574
Si Si3 0.278805 0.598523 0.769627
Si Si4 0.301075 0.390570 0.470729
Si Si5 0.895953 0.890320 0.605826
Si Si6 0.207163 0.883076 0.460617
O O1 0.435769 0.741991 0.809868
O O2 0.463844 0.904152 0.655968
O O3 0.500000 0.000000 0.000000
O O4 0.867860 0.985207 0.107828
O O5 0.121697 0.765855 0.211656
O O6 0.303321 0.648676 0.999513
O O7 0.000000 0.500000 0.000000
O O8 0.939944 0.650935 0.779969
O O9 0.357981 0.485808 0.715152
O O10 0.000000 0.500000 0.500000
O O11 0.500000 0.500000 0.500000
O O12 0.276595 0.242843 0.430920
O O13 0.013983 0.836765 0.495366
O O14 0.769144 0.968075 0.501883
#
# Coordination Sequence:
#
# PCOD9111328 Si02
#       6
#     2   2   2   2   2   2
#     4  10  20  42  72  98 136 188 221 282 357 403
#     4  11  22  42  68 104 137 179 235 282 339 424
#     4  10  21  42  71  94 141 183 226 281 350 413
#     4  11  25  47  67  99 140 185 225 288 355 408
#     4  10  23  46  70 101 144 180 230 291 345 415
#     4  10  21  41  74 106 136 177 237 284 345 413
#
# _framework density 25.281200999999999
#
# number of rings (size 3 to 8) (size 9 to 14) (size 15 to 20)
#    0.000    1.667    0.000    7.000    2.333    0.667 
#   15.000    9.167    0.000    0.000    0.000    0.000 
#    0.000    0.000    0.000    0.000    0.000    0.000 
#
# Total GULP energy -67049.649701 kJ/mol
# GULP energy per Si atom -5587.470808 kJ/mol
# Density = 2.522366 g / cm^3
# Si number density = 25.281201 Si / 1000 Ang^3
#
#
#
# Elastic Constant Matrix: (Units=GPa)
#
#
# Indices 1 2 3 4 5 6 
#
# 1 85.3450 39.5626 48.9317 4.9334 -31.6770 4.4094
# 2 39.5626 186.8149 43.5304 22.6411 15.1968 -3.4305
# 3 48.9317 43.5304 122.3363 13.5168 -37.0922 -4.6576
# 4 4.9334 22.6411 13.5168 46.2152 2.5961 2.6657
# 5 -31.6770 15.1968 -37.0922 2.5961 35.5291 8.2864
# 6 4.4094 -3.4305 -4.6576 2.6657 8.2864 34.1800
#
#
#
# Elastic Compliance Matrix: (Units=1/GPa)
#
#
# Indices 1 2 3 4 5 6 
#
# 1 0.028446 -0.009508 0.001997 -0.000167 0.034488 -0.012700
# 2 -0.009508 0.010720 -0.005783 -0.001775 -0.020516 0.006626
# 3 0.001997 -0.005783 0.016504 -0.003257 0.022612 -0.003817
# 4 -0.000167 -0.001775 -0.003257 0.023797 -0.004193 -0.001440
# 5 0.034488 -0.020516 0.022612 -0.004193 0.097838 -0.026819
# 6 -0.012700 0.006626 -0.003817 -0.001440 -0.026819 0.037654
#
#
# Mechanical properties :
#
#
# Convention : Reuss Voigt Hill
#
# Bulk Modulus (GPa) = 34.38647 73.17173 53.77910
# Shear Modulus (GPa) = 19.90126 40.68295 30.29211
#
# Velocity S-wave (km/s) = 2.80874 4.01586 3.46527
# Velocity P-wave (km/s) = 4.91425 7.10695 6.10977
#
# Compressibility (1/GPa) = 0.02908120
#
# Stress axis : x y z
#
# Youngs Moduli (GPa) = 35.15427 93.28639 60.59186
#
# Poissons Ratio (x) = 0.88695 -0.12100
# Poissons Ratio (y) = 0.33424 0.35042
# Poissons Ratio (z) = -0.07020 0.53951
#
# Static dielectric constant tensor:
#      x y z
#    x 2.175650 -0.015020 0.008380 
#    y -0.015020 1.968880 -0.042050 
#    z 0.008380 -0.042050 2.033680 
# 
# From -- ./inp_files/189565.got.cif
#   From: 2010.05.17/outbox.cif.g08.bks.cpg/sg2_95_cif.got.tgz:189565.got - 2010.06.03 11:33:40.
