data_PCOD9111040
_publ_section_title
;
Structure prediction by ZEFSAII (Michael W. Deem and Ramdas Pophale) SiO2 
 PCOD9111040
Probable space group: P -1
;
_chemical_formula_sum "Si O2"
_cell_formula_units_Z 16
_cell_length_a 7.340185
_cell_length_b 9.730664
_cell_length_c 10.405898
_cell_angle_alpha 101.549851
_cell_angle_beta 61.660908
_cell_angle_gamma 118.733459
_cell_volume 573.238034
_symmetry_space_group_name_H-M "P -1"
_symmetry_group_IT_number 2
_symmetry_cell_setting 'triclinic'
loop_
_space_group_symop_operation_xyz
x,y,z
-x,-y,-z
loop_
_atom_site_type_symbol
_atom_site_label
_atom_site_fract_x
_atom_site_fract_y
_atom_site_fract_z
Si Si1 0.643436 0.383521 0.982019
Si Si2 0.735776 0.533376 0.549081
Si Si3 0.980130 0.588611 0.724858
Si Si4 0.249639 0.008868 0.394615
Si Si5 0.576931 0.321694 0.266677
Si Si6 0.271656 0.055483 0.938104
Si Si7 0.620502 0.825408 0.348720
Si Si8 0.105635 0.811213 0.170581
O O1 0.424532 0.230859 0.974469
O O2 0.858191 0.338418 0.904456
O O3 0.747008 0.524073 0.873962
O O4 0.620603 0.421362 0.142374
O O5 0.911133 0.526585 0.383323
O O6 0.565126 0.609749 0.586564
O O7 0.593838 0.350145 0.608644
O O8 0.903786 0.638610 0.627763
O O9 0.199722 0.692875 0.757646
O O10 0.390439 0.146325 0.272634
O O11 0.367178 0.077535 0.506923
O O12 0.198699 0.860457 0.294056
O O13 0.000000 0.000000 0.500000
O O14 0.366233 0.071164 0.762307
O O15 0.256063 0.934274 0.032309
O O16 0.000000 0.000000 0.000000
O O17 0.849736 0.798070 0.255456
#
# Coordination Sequence:
#
# PCOD9111040 Si02
#       8
#     2   2   2   2   2   2   2   2
#     4  12  24  43  66  95 134 175 228 270 335 401
#     4  11  24  44  69  97 137 175 220 280 338 394
#     4  11  25  44  67 101 134 173 229 278 331 401
#     4  10  22  39  67  98 125 174 230 266 334 409
#     4  12  25  43  67  99 135 180 223 275 337 401
#     4  10  21  40  63  93 130 174 218 270 339 398
#     4  10  20  42  68  94 131 175 221 276 341 397
#     4  10  22  41  68  95 130 177 221 277 332 401
#
# _framework density 27.911615999999999
#
# number of rings (size 3 to 8) (size 9 to 14) (size 15 to 20)
#    0.000    1.250    3.750    1.875    3.500    0.500 
#    4.500    0.625    0.000    0.000    0.000    0.000 
#    0.000    0.000    0.000    0.000    0.000    0.000 
#
# Total GULP energy -89463.496373 kJ/mol
# GULP energy per Si atom -5591.468523 kJ/mol
# Density = 2.784809 g / cm^3
# Si number density = 27.911616 Si / 1000 Ang^3
#
#
#
# Elastic Constant Matrix: (Units=GPa)
#
#
# Indices 1 2 3 4 5 6 
#
# 1 125.3113 17.5377 21.4739 -10.7037 -12.2791 22.3527
# 2 17.5377 87.6390 32.3283 -14.5720 0.9587 10.6713
# 3 21.4739 32.3283 133.6588 -11.1092 21.6895 4.2687
# 4 -10.7037 -14.5720 -11.1092 50.8045 5.0694 -8.3618
# 5 -12.2791 0.9587 21.6895 5.0694 40.4518 -5.7136
# 6 22.3527 10.6713 4.2687 -8.3618 -5.7136 38.2331
#
#
#
# Elastic Compliance Matrix: (Units=1/GPa)
#
#
# Indices 1 2 3 4 5 6 
#
# 1 0.009532 -0.000691 -0.001691 0.000365 0.003114 -0.004646
# 2 -0.000691 0.013331 -0.002877 0.002624 0.000353 -0.002369
# 3 -0.001691 -0.002877 0.009491 0.001496 -0.005692 0.000209
# 4 0.000365 0.002624 0.001496 0.021664 -0.003020 0.003174
# 5 0.003114 0.000353 -0.005692 -0.003020 0.029435 0.002454
# 6 -0.004646 -0.002369 0.000209 0.003174 0.002454 0.030570
#
#
# Mechanical properties :
#
#
# Convention : Reuss Voigt Hill
#
# Bulk Modulus (GPa) = 45.79858 54.36543 50.08200
# Shear Modulus (GPa) = 37.93104 44.24915 41.09010
#
# Velocity S-wave (km/s) = 3.69042 3.98594 3.84102
# Velocity P-wave (km/s) = 5.88243 6.37994 6.13623
#
# Compressibility (1/GPa) = 0.02183474
#
# Stress axis : x y z
#
# Youngs Moduli (GPa) = 104.91358 75.01397 105.36798
#
# Poissons Ratio (x) = 0.05187 0.17816
# Poissons Ratio (y) = 0.07254 0.30313
# Poissons Ratio (z) = 0.17739 0.21581
#
# Static dielectric constant tensor:
#      x y z
#    x 2.264280 0.080140 0.068290 
#    y 0.080140 2.254770 0.024500 
#    z 0.068290 0.024500 2.180520 
# 
# From -- ./inp_files/390630.got.cif
#   From: 2010.05.17/outbox.cif.g08.bks.cpg/sg2_196_cif.got.tgz:390630.got - 2010.06.03 11:33:40.
