data_PCOD9111344
_publ_section_title
;
Structure prediction by ZEFSAII (Michael W. Deem and Ramdas Pophale) SiO2 
 PCOD9111344
Probable space group: P -1
;
_chemical_formula_sum "Si O2"
_cell_formula_units_Z 14
_cell_length_a 13.658293
_cell_length_b 9.027467
_cell_length_c 9.588039
_cell_angle_alpha 41.919445
_cell_angle_beta 97.492916
_cell_angle_gamma 119.964643
_cell_volume 621.972006
_symmetry_space_group_name_H-M "P -1"
_symmetry_group_IT_number 2
_symmetry_cell_setting 'triclinic'
loop_
_space_group_symop_operation_xyz
x,y,z
-x,-y,-z
loop_
_atom_site_type_symbol
_atom_site_label
_atom_site_fract_x
_atom_site_fract_y
_atom_site_fract_z
Si Si1 0.130639 0.656317 0.988789
Si Si2 0.330504 0.253654 0.647897
Si Si3 0.754272 0.818231 0.019345
Si Si4 0.246448 0.670958 0.735657
Si Si5 0.982392 0.386901 0.731086
Si Si6 0.527853 0.144279 0.754597
Si Si7 0.592370 0.839754 0.771877
O O1 0.101860 0.579422 0.200641
O O2 0.215665 0.619754 0.931191
O O3 0.000000 0.500000 0.000000
O O4 0.199271 0.986061 0.759242
O O5 0.329350 0.231066 0.830456
O O6 0.431371 0.209191 0.650809
O O7 0.350469 0.537753 0.422976
O O8 0.719714 0.525272 0.173892
O O9 0.716753 0.928789 0.811362
O O10 0.896258 0.050911 0.929083
O O11 0.114890 0.539978 0.724218
O O12 0.353571 0.987792 0.483644
O O13 0.000000 0.500000 0.500000
O O14 0.538544 0.970295 0.761663
O O15 0.500000 0.000000 0.000000
O O16 0.500000 0.500000 0.000000
#
# Coordination Sequence:
#
# PCOD9111344 Si02
#       7
#     2   2   2   2   2   2   2
#     4   9  22  41  67  99 131 167 213 270 339 388
#     4  10  22  41  68  91 127 173 218 271 322 392
#     4  11  22  42  65  96 126 176 222 263 340 393
#     4  11  23  43  66  95 138 171 214 280 333 393
#     4  10  20  42  73  96 127 168 224 275 327 404
#     4  11  23  41  63  94 125 172 228 270 317 385
#     4  12  27  40  63  99 134 174 225 275 329 388
#
# _framework density 22.509052000000001
#
# number of rings (size 3 to 8) (size 9 to 14) (size 15 to 20)
#    0.000    1.429    4.286    0.429    4.000    0.571 
#    0.000    0.714    3.143    0.000    0.000    0.000 
#    0.000    0.000    0.000    0.000    0.000    0.000 
#
# Total GULP energy -78067.994469 kJ/mol
# GULP energy per Si atom -5576.285319 kJ/mol
# Density = 2.245782 g / cm^3
# Si number density = 22.509052 Si / 1000 Ang^3
#
#
#
# Elastic Constant Matrix: (Units=GPa)
#
#
# Indices 1 2 3 4 5 6 
#
# 1 83.8789 42.4448 34.2028 -6.1058 -7.9825 -23.2643
# 2 42.4448 116.2399 47.7608 -14.5360 -11.5195 -20.3765
# 3 34.2028 47.7608 101.9324 -7.6316 -17.8933 -10.4204
# 4 -6.1058 -14.5360 -7.6316 52.3797 -2.2864 -5.9636
# 5 -7.9825 -11.5195 -17.8933 -2.2864 27.8555 0.1592
# 6 -23.2643 -20.3765 -10.4204 -5.9636 0.1592 33.5514
#
#
#
# Elastic Compliance Matrix: (Units=1/GPa)
#
#
# Indices 1 2 3 4 5 6 
#
# 1 0.017780 -0.003077 -0.003017 0.001990 0.001992 0.009867
# 2 -0.003077 0.012812 -0.003821 0.003310 0.002205 0.005039
# 3 -0.003017 -0.003821 0.013822 0.000887 0.006507 0.000007
# 4 0.001990 0.003310 0.000887 0.021404 0.004223 0.007450
# 5 0.001992 0.002205 0.006507 0.004223 0.041879 0.005293
# 6 0.009867 0.005039 0.000007 0.007450 0.005293 0.041008
#
#
# Mechanical properties :
#
#
# Convention : Reuss Voigt Hill
#
# Bulk Modulus (GPa) = 40.67456 61.20757 50.94107
# Shear Modulus (GPa) = 28.29182 34.60018 31.44600
#
# Velocity S-wave (km/s) = 3.54914 3.92493 3.74175
# Velocity P-wave (km/s) = 5.90802 6.91314 6.43025
#
# Compressibility (1/GPa) = 0.02458539
#
# Stress axis : x y z
#
# Youngs Moduli (GPa) = 56.24205 78.05170 72.34654
#
# Poissons Ratio (x) = 0.24016 0.21828
# Poissons Ratio (y) = 0.17305 0.27641
# Poissons Ratio (z) = 0.16969 0.29821
#
# Static dielectric constant tensor:
#      x y z
#    x 1.887490 0.039300 -0.034280 
#    y 0.039300 1.880390 0.001570 
#    z -0.034280 0.001570 1.887510 
# 
# From -- ./inp_files/39599.got.cif
#   From: 2010.05.17/outbox.cif.g08.bks.cpg/sg2_20_cif.got.tgz:39599.got - 2010.06.03 11:33:40.
