data_PCOD9111080
_publ_section_title
;
Structure prediction by ZEFSAII (Michael W. Deem and Ramdas Pophale) SiO2 
 PCOD9111080
Probable space group: P -1
;
_chemical_formula_sum "Si O2"
_cell_formula_units_Z 16
_cell_length_a 9.744735
_cell_length_b 28.222718
_cell_length_c 9.298844
_cell_angle_alpha 130.454679
_cell_angle_beta 99.172575
_cell_angle_gamma 38.765752
_cell_volume 836.271713
_symmetry_space_group_name_H-M "P -1"
_symmetry_group_IT_number 2
_symmetry_cell_setting 'triclinic'
loop_
_space_group_symop_operation_xyz
x,y,z
-x,-y,-z
loop_
_atom_site_type_symbol
_atom_site_label
_atom_site_fract_x
_atom_site_fract_y
_atom_site_fract_z
Si Si1 0.284685 0.099748 0.018728
Si Si2 0.341846 0.701399 0.563964
Si Si3 0.168707 0.479818 0.096316
Si Si4 0.218276 0.565320 0.048826
Si Si5 0.229665 0.367985 0.381224
Si Si6 0.533177 0.865002 0.085886
Si Si7 0.878797 0.183678 0.572602
Si Si8 0.280492 0.145607 0.606439
O O1 0.338924 0.146492 0.052495
O O2 0.417475 0.000140 0.721053
O O3 0.924313 0.229427 0.257830
O O4 0.500000 0.000000 0.000000
O O5 0.646434 0.535716 0.249450
O O6 0.465466 0.712204 0.687643
O O7 0.197925 0.777514 0.533552
O O8 0.971844 0.560728 0.367223
O O9 0.164211 0.547400 0.147312
O O10 0.539735 0.311292 0.843590
O O11 0.000000 0.500000 0.000000
O O12 0.500000 0.500000 0.000000
O O13 0.908308 0.726254 0.262158
O O14 0.000000 0.500000 0.500000
O O15 0.334955 0.257781 0.127574
O O16 0.633395 0.862299 0.239963
O O17 0.148105 0.023210 0.323294
O O18 0.044037 0.181456 0.646291
#
# Coordination Sequence:
#
# PCOD9111080 Si02
#       8
#     2   2   2   2   2   2   2   2
#     4  11  21  41  69 101 128 165 225 274 325 385
#     4  11  22  42  64  99 133 166 216 285 311 384
#     4  11  23  43  71  93 129 180 219 269 328 384
#     4  11  20  39  70  97 125 165 223 270 324 381
#     4  12  28  47  62  96 142 173 221 272 326 396
#     4  11  26  42  67  97 135 179 210 269 346 391
#     4  10  20  42  68  98 128 163 223 272 323 387
#     4  11  22  41  67  98 136 163 213 279 330 385
#
# _framework density 19.132536999999999
#
# number of rings (size 3 to 8) (size 9 to 14) (size 15 to 20)
#    0.000    1.000    7.500    2.250    3.500    2.500 
#    2.250    3.125    0.000    0.000    0.000    0.000 
#    0.000    0.000    0.000    0.000    0.000    0.000 
#
# Total GULP energy -89394.974947 kJ/mol
# GULP energy per Si atom -5587.185934 kJ/mol
# Density = 1.908899 g / cm^3
# Si number density = 19.132537 Si / 1000 Ang^3
#
#
#
# Elastic Constant Matrix: (Units=GPa)
#
#
# Indices 1 2 3 4 5 6 
#
# 1 78.1219 26.6459 21.7872 2.0371 11.6449 6.3219
# 2 26.6459 71.0741 19.0471 9.1379 23.0543 5.2891
# 3 21.7872 19.0471 85.9128 12.8574 13.0214 3.8563
# 4 2.0371 9.1379 12.8574 36.3864 -2.6952 8.0970
# 5 11.6449 23.0543 13.0214 -2.6952 41.3570 2.1985
# 6 6.3219 5.2891 3.8563 8.0970 2.1985 33.7313
#
#
#
# Elastic Compliance Matrix: (Units=1/GPa)
#
#
# Indices 1 2 3 4 5 6 
#
# 1 0.015510 -0.004961 -0.002950 0.001881 -0.000433 -0.002215
# 2 -0.004961 0.020028 -0.000924 -0.005097 -0.009796 -0.000243
# 3 -0.002950 -0.000924 0.013801 -0.004838 -0.003341 0.000499
# 4 0.001881 -0.005097 -0.004838 0.032438 0.006332 -0.007199
# 5 -0.000433 -0.009796 -0.003341 0.006332 0.031310 -0.001561
# 6 -0.002215 -0.000243 0.000499 -0.007199 -0.001561 0.031872
#
#
# Mechanical properties :
#
#
# Convention : Reuss Voigt Hill
#
# Bulk Modulus (GPa) = 31.57573 41.11882 36.34727
# Shear Modulus (GPa) = 28.87085 33.47016 31.17050
#
# Velocity S-wave (km/s) = 3.88879 4.18710 4.04070
# Velocity P-wave (km/s) = 6.05831 6.70179 6.38816
#
# Compressibility (1/GPa) = 0.03166990
#
# Stress axis : x y z
#
# Youngs Moduli (GPa) = 64.47482 49.92949 72.46019
#
# Poissons Ratio (x) = 0.24769 0.21375
# Poissons Ratio (y) = 0.31985 0.06694
# Poissons Ratio (z) = 0.19020 0.04612
#
# Static dielectric constant tensor:
#      x y z
#    x 1.636690 0.002140 0.016280 
#    y 0.002140 1.673060 0.007780 
#    z 0.016280 0.007780 1.672460 
# 
# From -- ./inp_files/179272.got.cif
#   From: 2010.05.17/outbox.cif.g08.bks.cpg/sg2_90_cif.got.tgz:179272.got - 2010.06.03 11:33:40.
