data_PCOD9111787
_publ_section_title
;
Structure prediction by ZEFSAII (Michael W. Deem and Ramdas Pophale) SiO2 
 PCOD9111787
Probable space group: P -1
;
_chemical_formula_sum "Si O2"
_cell_formula_units_Z 16
_cell_length_a 9.087852
_cell_length_b 7.425912
_cell_length_c 11.695573
_cell_angle_alpha 95.571479
_cell_angle_beta 69.292242
_cell_angle_gamma 67.486376
_cell_volume 656.878012
_symmetry_space_group_name_H-M "P -1"
_symmetry_group_IT_number 2
_symmetry_cell_setting 'triclinic'
loop_
_space_group_symop_operation_xyz
x,y,z
-x,-y,-z
loop_
_atom_site_type_symbol
_atom_site_label
_atom_site_fract_x
_atom_site_fract_y
_atom_site_fract_z
Si Si1 0.380722 0.123351 0.283852
Si Si2 0.575597 0.800737 0.386698
Si Si3 0.427205 0.446617 0.901801
Si Si4 0.036390 0.774364 0.990507
Si Si5 0.383871 0.549157 0.374902
Si Si6 0.968452 0.685339 0.261360
Si Si7 0.246897 0.268465 0.094502
Si Si8 0.991274 0.723884 0.503343
O O1 0.408849 0.315842 0.338654
O O2 0.370290 0.125162 0.149822
O O3 0.190146 0.141966 0.375548
O O4 0.522289 0.917731 0.287881
O O5 0.499714 0.639241 0.416911
O O6 0.784665 0.677702 0.326394
O O7 0.500000 0.000000 0.500000
O O8 0.572999 0.400627 0.762425
O O9 0.500000 0.500000 0.000000
O O10 0.244275 0.625872 0.914707
O O11 0.357823 0.296800 0.964574
O O12 0.979188 0.753479 0.134266
O O13 0.914019 0.746723 0.926534
O O14 0.000000 0.000000 0.000000
O O15 0.185786 0.682667 0.481782
O O16 0.972823 0.801687 0.381925
O O17 0.140560 0.473582 0.209236
O O18 0.000000 0.500000 0.500000
#
# Coordination Sequence:
#
# PCOD9111787 Si02
#       8
#     2   2   2   2   2   2   2   2
#     4  11  24  45  70 100 135 180 235 277 346 411
#     4  12  27  44  66 103 140 174 229 291 340 402
#     4  11  21  43  73 100 130 181 227 276 350 403
#     4  11  26  42  64 105 137 177 226 281 347 412
#     4  11  23  44  71  97 136 180 228 278 343 406
#     4  11  21  45  69  94 139 178 220 288 341 401
#     4  11  22  45  71  93 138 183 223 281 341 418
#     4  10  20  43  70  96 131 181 229 274 336 414
#
# _framework density 24.35764
#
# number of rings (size 3 to 8) (size 9 to 14) (size 15 to 20)
#    0.000    1.000    5.000    3.750    1.750    3.000 
#    2.250    1.875    0.000    0.000    0.000    0.000 
#    0.000    0.000    0.000    0.000    0.000    0.000 
#
# Total GULP energy -89314.974571 kJ/mol
# GULP energy per Si atom -5582.185911 kJ/mol
# Density = 2.430220 g / cm^3
# Si number density = 24.357640 Si / 1000 Ang^3
#
#
#
# Elastic Constant Matrix: (Units=GPa)
#
#
# Indices 1 2 3 4 5 6 
#
# 1 131.9126 41.5990 0.2721 1.1262 -16.4172 3.0222
# 2 41.5990 90.4170 23.6534 -4.0715 1.9337 -9.6169
# 3 0.2721 23.6534 92.5516 4.6912 -6.2512 8.6255
# 4 1.1262 -4.0715 4.6912 22.9343 -10.6864 6.5496
# 5 -16.4172 1.9337 -6.2512 -10.6864 46.6282 -5.7915
# 6 3.0222 -9.6169 8.6255 6.5496 -5.7915 26.3206
#
#
#
# Elastic Compliance Matrix: (Units=1/GPa)
#
#
# Indices 1 2 3 4 5 6 
#
# 1 0.009792 -0.005354 0.001836 0.000801 0.003719 -0.003063
# 2 -0.005354 0.015648 -0.004846 0.001014 -0.002055 0.007216
# 3 0.001836 -0.004846 0.012720 -0.001246 0.001585 -0.005491
# 4 0.000801 0.001014 -0.001246 0.051806 0.010723 -0.009845
# 5 0.003719 -0.002055 0.001585 0.010723 0.025670 0.001283
# 6 -0.003063 0.007216 -0.005491 -0.009845 0.001283 0.045513
#
#
# Mechanical properties :
#
#
# Convention : Reuss Voigt Hill
#
# Bulk Modulus (GPa) = 46.66366 49.54780 48.10573
# Shear Modulus (GPa) = 27.02372 35.80041 31.41206
#
# Velocity S-wave (km/s) = 3.33446 3.83793 3.59502
# Velocity P-wave (km/s) = 5.83302 6.32658 6.08481
#
# Compressibility (1/GPa) = 0.02142995
#
# Stress axis : x y z
#
# Youngs Moduli (GPa) = 102.12730 63.90490 78.61710
#
# Poissons Ratio (x) = 0.34218 -0.14432
# Poissons Ratio (y) = 0.54684 0.38099
# Poissons Ratio (z) = -0.18748 0.30970
#
# Static dielectric constant tensor:
#      x y z
#    x 1.870690 0.025560 0.097400 
#    y 0.025560 1.881200 0.078080 
#    z 0.097400 0.078080 1.976090 
# 
# From -- ./inp_files/382232.got.cif
#   From: 2010.05.17/outbox.cif.g08.bks.cpg/sg2_192_cif.got.tgz:382232.got - 2010.06.03 11:33:40.
