data_PCOD9111736
_publ_section_title
;
Structure prediction by ZEFSAII (Michael W. Deem and Ramdas Pophale) SiO2 
 PCOD9111736
Probable space group: P -1
;
_chemical_formula_sum "Si O2"
_cell_formula_units_Z 16
_cell_length_a 8.843301
_cell_length_b 14.087331
_cell_length_c 16.917671
_cell_angle_alpha 147.994074
_cell_angle_beta 135.584009
_cell_angle_gamma 43.687988
_cell_volume 741.572999
_symmetry_space_group_name_H-M "P -1"
_symmetry_group_IT_number 2
_symmetry_cell_setting 'triclinic'
loop_
_space_group_symop_operation_xyz
x,y,z
-x,-y,-z
loop_
_atom_site_type_symbol
_atom_site_label
_atom_site_fract_x
_atom_site_fract_y
_atom_site_fract_z
Si Si1 0.618522 0.026674 0.861509
Si Si2 0.837093 0.007539 0.707591
Si Si3 0.541478 0.698337 0.153299
Si Si4 0.046375 0.687564 0.307924
Si Si5 0.292543 0.926709 0.896565
Si Si6 0.887409 0.978554 0.330902
Si Si7 0.501112 0.530184 0.617071
Si Si8 0.798803 0.691079 0.580755
O O1 0.559637 0.181862 0.879374
O O2 0.374681 0.996679 0.769005
O O3 0.792687 0.833601 0.753314
O O4 0.698228 0.093687 0.019883
O O5 0.603770 0.176047 0.742386
O O6 0.954114 0.984974 0.651606
O O7 0.783703 0.827296 0.596708
O O8 0.035502 0.048576 0.864232
O O9 0.805446 0.679556 0.242666
O O10 0.500000 0.500000 0.000000
O O11 0.246861 0.501722 0.276561
O O12 0.998527 0.766103 0.256205
O O13 0.116851 0.856730 0.493456
O O14 0.339512 0.733156 0.728268
O O15 0.500000 0.000000 0.000000
O O16 0.500000 0.500000 0.500000
O O17 0.409373 0.381695 0.524980
O O18 0.000000 0.500000 0.500000
#
# Coordination Sequence:
#
# PCOD9111736 Si02
#       8
#     2   2   2   2   2   2   2   2
#     4  10  22  44  70  94 141 177 223 282 333 408
#     4  11  24  43  66  98 139 168 228 287 334 396
#     4  10  25  45  62  96 139 178 220 282 339 399
#     4  10  23  42  70  93 125 185 227 265 341 405
#     4  12  24  41  70 103 131 185 221 269 354 398
#     4  10  20  43  69  94 129 175 228 279 327 401
#     4  12  25  46  71 101 134 176 233 282 327 417
#     4  11  23  43  64 100 138 172 220 288 339 385
#
# _framework density 21.575759999999999
#
# number of rings (size 3 to 8) (size 9 to 14) (size 15 to 20)
#    0.000    1.250    3.750    1.500    3.500    3.500 
#    4.500    2.500    0.000    0.000    0.000    0.000 
#    0.000    0.000    0.000    0.000    0.000    0.000 
#
# Total GULP energy -89269.430675 kJ/mol
# GULP energy per Si atom -5579.339417 kJ/mol
# Density = 2.152665 g / cm^3
# Si number density = 21.575760 Si / 1000 Ang^3
#
#
#
# Elastic Constant Matrix: (Units=GPa)
#
#
# Indices 1 2 3 4 5 6 
#
# 1 133.6165 38.5072 25.3260 10.1812 3.4104 -13.6520
# 2 38.5072 80.5636 17.7434 7.0785 -1.9652 -26.2124
# 3 25.3260 17.7434 59.9807 11.7798 5.4961 -4.4825
# 4 10.1812 7.0785 11.7798 37.6757 -0.6274 2.5791
# 5 3.4104 -1.9652 5.4961 -0.6274 50.2831 -1.1887
# 6 -13.6520 -26.2124 -4.4825 2.5791 -1.1887 23.9152
#
#
#
# Elastic Compliance Matrix: (Units=1/GPa)
#
#
# Indices 1 2 3 4 5 6 
#
# 1 0.009144 -0.003341 -0.002517 -0.001145 -0.000462 0.001187
# 2 -0.003341 0.022403 -0.002935 -0.003905 0.001909 0.022614
# 3 -0.002517 -0.002935 0.019732 -0.004938 -0.002175 -0.000530
# 4 -0.001145 -0.003905 -0.004938 0.029759 0.000622 -0.009038
# 5 -0.000462 0.001909 -0.002175 0.000622 0.020295 0.002362
# 6 0.001187 0.022614 -0.000530 -0.009038 0.002362 0.068271
#
#
# Mechanical properties :
#
#
# Convention : Reuss Voigt Hill
#
# Bulk Modulus (GPa) = 29.67775 48.59045 39.13410
# Shear Modulus (GPa) = 25.19907 35.21375 30.20641
#
# Velocity S-wave (km/s) = 3.42121 4.04431 3.74574
# Velocity P-wave (km/s) = 5.42137 6.66170 6.07328
#
# Compressibility (1/GPa) = 0.03369528
#
# Stress axis : x y z
#
# Youngs Moduli (GPa) = 109.35776 44.63665 50.67847
#
# Poissons Ratio (x) = 0.14912 0.12755
# Poissons Ratio (y) = 0.36534 0.14872
# Poissons Ratio (z) = 0.27523 0.13099
#
# Static dielectric constant tensor:
#      x y z
#    x 1.787560 0.013010 -0.012310 
#    y 0.013010 1.862970 -0.017070 
#    z -0.012310 -0.017070 1.805970 
# 
# From -- ./inp_files/207702.got.cif
#   From: 2010.05.17/outbox.cif.g08.bks.cpg/sg2_104_cif.got.tgz:207702.got - 2010.06.03 11:33:40.
