data_PCOD9111321
_publ_section_title
;
Structure prediction by ZEFSAII (Michael W. Deem and Ramdas Pophale) SiO2 
 PCOD9111321
Probable space group: P -1
;
_chemical_formula_sum "Si O2"
_cell_formula_units_Z 14
_cell_length_a 18.838366
_cell_length_b 12.532078
_cell_length_c 14.391770
_cell_angle_alpha 144.938869
_cell_angle_beta 159.608599
_cell_angle_gamma 36.492294
_cell_volume 668.540299
_symmetry_space_group_name_H-M "P -1"
_symmetry_group_IT_number 2
_symmetry_cell_setting 'triclinic'
loop_
_space_group_symop_operation_xyz
x,y,z
-x,-y,-z
loop_
_atom_site_type_symbol
_atom_site_label
_atom_site_fract_x
_atom_site_fract_y
_atom_site_fract_z
Si Si1 0.248942 0.081543 0.533803
Si Si2 0.458638 0.091785 0.373516
Si Si3 0.060225 0.393264 0.093613
Si Si4 0.172861 0.731803 0.561632
Si Si5 0.218908 0.864990 0.046216
Si Si6 0.883155 0.058933 0.550829
Si Si7 0.588446 0.551382 0.046285
O O1 0.280830 0.282950 0.677801
O O2 0.445777 0.940801 0.633876
O O3 0.245511 0.057009 0.623221
O O4 0.024270 0.058626 0.202986
O O5 0.298687 0.288240 0.322081
O O6 0.656791 0.071460 0.669530
O O7 0.329989 0.937735 0.144351
O O8 0.035057 0.565882 0.259629
O O9 0.057583 0.783498 0.192171
O O10 0.000000 0.500000 0.000000
O O11 0.203242 0.825478 0.565087
O O12 0.389859 0.629386 0.795423
O O13 0.065561 0.899865 0.617722
O O14 0.269581 0.639932 0.950514
O O15 0.500000 0.500000 0.000000
#
# Coordination Sequence:
#
# PCOD9111321 Si02
#       7
#     2   2   2   2   2   2   2
#     4  12  24  41  67  98 136 176 231 279 333 409
#     4  11  22  42  67  94 137 174 217 285 342 397
#     4  10  20  42  72  96 128 177 224 277 339 397
#     4  10  22  43  71  96 136 179 225 279 344 403
#     4  11  23  41  63  96 133 180 222 272 344 401
#     4  10  22  43  68 101 133 177 227 283 338 400
#     4  12  23  41  64  95 135 175 226 283 336 396
#
# _framework density 20.941147000000001
#
# number of rings (size 3 to 8) (size 9 to 14) (size 15 to 20)
#    0.000    1.143    4.286    2.571    0.000    0.571 
#    5.143    2.857    0.000    0.000    0.000    0.000 
#    0.000    0.000    0.000    0.000    0.000    0.000 
#
# Total GULP energy -78017.121240 kJ/mol
# GULP energy per Si atom -5572.651517 kJ/mol
# Density = 2.089348 g / cm^3
# Si number density = 20.941147 Si / 1000 Ang^3
#
#
#
# Elastic Constant Matrix: (Units=GPa)
#
#
# Indices 1 2 3 4 5 6 
#
# 1 97.1719 20.6130 31.3405 -5.6956 12.9803 26.7173
# 2 20.6130 109.7098 19.0602 -1.8087 -0.5357 18.9182
# 3 31.3405 19.0602 73.7586 12.5027 -2.2713 12.3794
# 4 -5.6956 -1.8087 12.5027 30.6902 4.1140 -4.4548
# 5 12.9803 -0.5357 -2.2713 4.1140 28.5988 0.2608
# 6 26.7173 18.9182 12.3794 -4.4548 0.2608 27.3555
#
#
#
# Elastic Compliance Matrix: (Units=1/GPa)
#
#
# Indices 1 2 3 4 5 6 
#
# 1 0.017513 0.000172 -0.006383 0.005129 -0.009068 -0.013413
# 2 0.000172 0.010531 -0.001760 0.000416 -0.000020 -0.006586
# 3 -0.006383 -0.001760 0.019148 -0.010307 0.005895 -0.002948
# 4 0.005129 0.000416 -0.010307 0.039817 -0.008921 0.005936
# 5 -0.009068 -0.000020 0.005895 -0.008921 0.040794 0.004361
# 6 -0.013413 -0.006586 -0.002948 0.005936 0.004361 0.056470
#
#
# Mechanical properties :
#
#
# Convention : Reuss Voigt Hill
#
# Bulk Modulus (GPa) = 32.00093 46.96308 39.48201
# Shear Modulus (GPa) = 23.73799 31.30400 27.52100
#
# Velocity S-wave (km/s) = 3.37049 3.87053 3.62913
# Velocity P-wave (km/s) = 5.51919 6.51534 6.03784
#
# Compressibility (1/GPa) = 0.03124909
#
# Stress axis : x y z
#
# Youngs Moduli (GPa) = 57.09937 94.95835 52.22353
#
# Poissons Ratio (x) = -0.01630 0.33336
# Poissons Ratio (y) = -0.00980 0.09192
# Poissons Ratio (z) = 0.36449 0.16713
#
# Static dielectric constant tensor:
#      x y z
#    x 1.668740 0.178720 0.052390 
#    y 0.178720 1.336410 -0.124470 
#    z 0.052390 -0.124470 1.729500 
# 
# From -- ./inp_files/267645.got.cif
#   From: 2010.05.17/outbox.cif.g08.bks.cpg/sg2_134_cif.got.tgz:267645.got - 2010.06.03 11:33:40.
