data_PCOD9111081
_publ_section_title
;
Structure prediction by ZEFSAII (Michael W. Deem and Ramdas Pophale) SiO2 
 PCOD9111081
Probable space group: P -1
;
_chemical_formula_sum "Si O2"
_cell_formula_units_Z 16
_cell_length_a 20.965151
_cell_length_b 7.943270
_cell_length_c 7.371678
_cell_angle_alpha 77.527355
_cell_angle_beta 145.343823
_cell_angle_gamma 98.881945
_cell_volume 681.012771
_symmetry_space_group_name_H-M "P -1"
_symmetry_group_IT_number 2
_symmetry_cell_setting 'triclinic'
loop_
_space_group_symop_operation_xyz
x,y,z
-x,-y,-z
loop_
_atom_site_type_symbol
_atom_site_label
_atom_site_fract_x
_atom_site_fract_y
_atom_site_fract_z
Si Si1 0.719992 0.916832 0.776604
Si Si2 0.240331 0.844030 0.644514
Si Si3 0.669554 0.403035 0.825563
Si Si4 0.762254 0.313622 0.700917
Si Si5 0.991063 0.493683 0.264460
Si Si6 0.845864 0.800985 0.751405
Si Si7 0.522944 0.126260 0.690508
Si Si8 0.772128 0.674052 0.252950
O O1 0.793515 0.812082 0.825738
O O2 0.589646 0.876743 0.457248
O O3 0.740005 0.116723 0.748830
O O4 0.759400 0.859249 0.081794
O O5 0.252946 0.700153 0.548404
O O6 0.233907 0.737603 0.840817
O O7 0.234297 0.295690 0.555127
O O8 0.363822 0.925963 0.923520
O O9 0.686639 0.421741 0.646447
O O10 0.557735 0.307443 0.641778
O O11 0.689408 0.565398 0.961355
O O12 0.847580 0.999730 0.641447
O O13 0.887082 0.375500 0.005386
O O14 0.000000 0.500000 0.500000
O O15 0.104667 0.409780 0.472013
O O16 0.958974 0.682535 0.062346
O O17 0.500000 0.000000 0.500000
#
# Coordination Sequence:
#
# PCOD9111081 Si02
#       8
#     2   2   2   2   2   2   2   2
#     4  11  23  42  66  98 130 165 214 265 315 384
#     4   9  23  41  64  98 127 164 217 256 315 384
#     4  10  21  40  66  92 131 165 211 259 320 369
#     4  11  21  41  67  91 129 169 213 264 316 379
#     4  12  24  44  66  93 128 174 213 265 329 371
#     4  11  23  42  65  93 129 171 208 266 320 377
#     4  10  20  42  68  98 128 171 210 258 324 375
#     4  12  24  44  66  93 135 166 215 268 316 384
#
# _framework density 23.494420999999999
#
# number of rings (size 3 to 8) (size 9 to 14) (size 15 to 20)
#    0.750    0.500    3.750    2.625    0.000    3.000 
#    2.250    3.750    0.000    0.000    0.000    0.000 
#    0.000    0.000    0.000    0.000    0.000    0.000 
#
# Total GULP energy -89347.291297 kJ/mol
# GULP energy per Si atom -5584.205706 kJ/mol
# Density = 2.344095 g / cm^3
# Si number density = 23.494421 Si / 1000 Ang^3
#
#
#
# Elastic Constant Matrix: (Units=GPa)
#
#
# Indices 1 2 3 4 5 6 
#
# 1 76.8550 4.2955 22.4674 11.1882 -17.3752 -5.6688
# 2 4.2955 66.5945 9.7440 10.5018 -2.3495 0.3278
# 3 22.4674 9.7440 79.4130 7.5226 -3.7336 -7.1545
# 4 11.1882 10.5018 7.5226 48.3102 -7.2830 -6.9902
# 5 -17.3752 -2.3495 -3.7336 -7.2830 48.1712 13.1662
# 6 -5.6688 0.3278 -7.1545 -6.9902 13.1662 30.8646
#
#
#
# Elastic Compliance Matrix: (Units=1/GPa)
#
#
# Indices 1 2 3 4 5 6 
#
# 1 0.015647 0.000143 -0.004050 -0.002358 0.005205 -0.000821
# 2 0.000143 0.015822 -0.001779 -0.003330 0.000611 -0.001569
# 3 -0.004050 -0.001779 0.014226 -0.000662 -0.001367 0.003006
# 4 -0.002358 -0.003330 -0.000662 0.022856 0.001276 0.004081
# 5 0.005205 0.000611 -0.001367 0.001276 0.025471 -0.009944
# 6 -0.000821 -0.001569 0.003006 0.004081 -0.009944 0.038128
#
#
# Mechanical properties :
#
#
# Convention : Reuss Voigt Hill
#
# Bulk Modulus (GPa) = 29.13578 32.87514 31.00546
# Shear Modulus (GPa) = 32.26582 37.89291 35.07937
#
# Velocity S-wave (km/s) = 3.70988 4.02038 3.86825
# Velocity P-wave (km/s) = 5.54788 5.96443 5.75992
#
# Compressibility (1/GPa) = 0.03432206
#
# Stress axis : x y z
#
# Youngs Moduli (GPa) = 63.91021 63.20395 70.29500
#
# Poissons Ratio (x) = -0.00903 0.28471
# Poissons Ratio (y) = -0.00913 0.12505
# Poissons Ratio (z) = 0.25885 0.11244
#
# Static dielectric constant tensor:
#      x y z
#    x 1.868860 0.005120 -0.015200 
#    y 0.005120 1.961510 -0.020810 
#    z -0.015200 -0.020810 1.873880 
# 
# From -- ./inp_files/351433.got.cif
#   From: 2010.05.17/outbox.cif.g08.bks.cpg/sg2_176_cif.got.tgz:351433.got - 2010.06.03 11:33:40.
