data_PCOD9111978
_publ_section_title
;
Structure prediction by ZEFSAII (Michael W. Deem and Ramdas Pophale) SiO2 
 PCOD9111978
Probable space group: P -1
;
_chemical_formula_sum "Si O2"
_cell_formula_units_Z 16
_cell_length_a 5.447094
_cell_length_b 11.895750
_cell_length_c 15.046789
_cell_angle_alpha 90.084771
_cell_angle_beta 105.316877
_cell_angle_gamma 49.880148
_cell_volume 700.017477
_symmetry_space_group_name_H-M "P -1"
_symmetry_group_IT_number 2
_symmetry_cell_setting 'triclinic'
loop_
_space_group_symop_operation_xyz
x,y,z
-x,-y,-z
loop_
_atom_site_type_symbol
_atom_site_label
_atom_site_fract_x
_atom_site_fract_y
_atom_site_fract_z
Si Si1 0.701635 0.982877 0.863568
Si Si2 0.633913 0.948889 0.662756
Si Si3 0.465357 0.849967 0.491169
Si Si4 0.409574 0.810120 0.015881
Si Si5 0.280307 0.655815 0.532295
Si Si6 0.639957 0.347354 0.257404
Si Si7 0.471921 0.448666 0.901022
Si Si8 0.251236 0.295802 0.123440
O O1 0.548948 0.029418 0.749786
O O2 0.761269 0.833993 0.885085
O O3 0.486805 0.112293 0.917296
O O4 0.075884 0.926980 0.921445
O O5 0.405114 0.937126 0.577321
O O6 0.950658 0.772505 0.712930
O O7 0.720398 0.026057 0.604632
O O8 0.347687 0.757256 0.493669
O O9 0.875490 0.741796 0.504907
O O10 0.346429 0.724360 0.075916
O O11 0.693926 0.686061 0.973305
O O12 0.500000 0.500000 0.500000
O O13 0.430962 0.617013 0.646518
O O14 0.459761 0.488983 0.174470
O O15 0.560006 0.247655 0.212390
O O16 0.065446 0.552627 0.859208
O O17 0.500000 0.500000 0.000000
#
# Coordination Sequence:
#
# PCOD9111978 Si02
#       8
#     2   2   2   2   2   2   2   2
#     4  11  22  40  60  90 133 163 212 272 327 380
#     4  10  20  44  65  97 127 167 224 276 329 401
#     4  10  24  42  75  98 129 176 220 276 335 399
#     4  11  24  38  59  92 128 172 209 271 326 381
#     4  11  25  47  67 100 140 171 216 277 341 401
#     4  11  24  39  69  91 120 176 216 268 328 399
#     4  12  22  41  60  91 128 165 223 267 315 397
#     4  12  20  39  65  86 122 173 221 257 326 389
#
# _framework density 22.856574999999999
#
# number of rings (size 3 to 8) (size 9 to 14) (size 15 to 20)
#    0.000    1.000    5.000    1.875    1.750    6.500 
#    2.250    0.000    0.000    0.000    0.000    0.000 
#    0.000    0.000    0.000    0.000    0.000    0.000 
#
# Total GULP energy -89248.317939 kJ/mol
# GULP energy per Si atom -5578.019871 kJ/mol
# Density = 2.280455 g / cm^3
# Si number density = 22.856575 Si / 1000 Ang^3
#
#
#
# Elastic Constant Matrix: (Units=GPa)
#
#
# Indices 1 2 3 4 5 6 
#
# 1 84.0334 33.9866 23.0774 0.0826 -13.1551 13.7910
# 2 33.9866 106.4723 49.4238 18.8285 -5.7939 15.8413
# 3 23.0774 49.4238 126.4340 9.9431 -13.7005 12.9146
# 4 0.0826 18.8285 9.9431 45.4398 3.8871 -3.5569
# 5 -13.1551 -5.7939 -13.7005 3.8871 20.9042 -3.9743
# 6 13.7910 15.8413 12.9146 -3.5569 -3.9743 32.6143
#
#
#
# Elastic Compliance Matrix: (Units=1/GPa)
#
#
# Indices 1 2 3 4 5 6 
#
# 1 0.015331 -0.004052 -0.000088 0.000743 0.007671 -0.003464
# 2 -0.004052 0.014034 -0.004035 -0.005156 -0.001146 -0.004207
# 3 -0.000088 -0.004035 0.010356 -0.001189 0.005538 -0.001558
# 4 0.000743 -0.005156 -0.001189 0.025247 -0.005535 0.004740
# 5 0.007671 -0.001146 0.005538 -0.005535 0.057291 0.001498
# 6 -0.003464 -0.004207 -0.001558 0.004740 0.001498 0.035486
#
#
# Mechanical properties :
#
#
# Convention : Reuss Voigt Hill
#
# Bulk Modulus (GPa) = 42.78742 58.87946 50.83344
# Shear Modulus (GPa) = 27.48984 33.82178 30.65581
#
# Velocity S-wave (km/s) = 3.47177 3.85091 3.66625
# Velocity P-wave (km/s) = 5.90183 6.75196 6.34116
#
# Compressibility (1/GPa) = 0.02337135
#
# Stress axis : x y z
#
# Youngs Moduli (GPa) = 65.22532 71.25531 96.56615
#
# Poissons Ratio (x) = 0.28870 0.00849
# Poissons Ratio (y) = 0.26427 0.38968
# Poissons Ratio (z) = 0.00573 0.28754
#
# Static dielectric constant tensor:
#      x y z
#    x 2.003400 -0.118650 0.038390 
#    y -0.118650 1.929570 -0.083820 
#    z 0.038390 -0.083820 1.941010 
# 
# From -- ./inp_files/90557.got.cif
#   From: 2010.05.17/outbox.cif.g08.bks.cpg/sg2_46_cif.got.tgz:90557.got - 2010.06.03 11:33:40.
