data_PCOD9111531
_publ_section_title
;
Structure prediction by ZEFSAII (Michael W. Deem and Ramdas Pophale) SiO2 
 PCOD9111531
Probable space group: P -1
;
_chemical_formula_sum "Si O2"
_cell_formula_units_Z 16
_cell_length_a 21.580946
_cell_length_b 20.164464
_cell_length_c 5.671346
_cell_angle_alpha 64.949294
_cell_angle_beta 125.209068
_cell_angle_gamma 159.121232
_cell_volume 659.938145
_symmetry_space_group_name_H-M "P -1"
_symmetry_group_IT_number 2
_symmetry_cell_setting 'triclinic'
loop_
_space_group_symop_operation_xyz
x,y,z
-x,-y,-z
loop_
_atom_site_type_symbol
_atom_site_label
_atom_site_fract_x
_atom_site_fract_y
_atom_site_fract_z
Si Si1 0.479712 0.414928 0.905329
Si Si2 0.806453 0.645217 0.961318
Si Si3 0.300525 0.722202 0.554280
Si Si4 0.080430 0.103185 0.270783
Si Si5 0.675038 0.989860 0.256398
Si Si6 0.512908 0.312895 0.440691
Si Si7 0.636068 0.080048 0.371720
Si Si8 0.904943 0.603010 0.566269
O O1 0.708135 0.599257 0.036464
O O2 0.324092 0.299314 0.532606
O O3 0.500000 0.500000 0.000000
O O4 0.409638 0.276294 0.086107
O O5 0.949628 0.836289 0.877681
O O6 0.623254 0.461929 0.654216
O O7 0.883788 0.638008 0.241726
O O8 0.226438 0.732726 0.486102
O O9 0.127374 0.511081 0.395012
O O10 0.467139 0.895548 0.459882
O O11 0.448010 0.809234 0.927817
O O12 0.000000 0.000000 0.500000
O O13 0.000000 0.000000 0.000000
O O14 0.739988 0.107428 0.420075
O O15 0.855297 0.160841 0.193929
O O16 0.638426 0.879737 0.468039
O O17 0.708488 0.446895 0.538962
O O18 0.500000 0.000000 0.000000
#
# Coordination Sequence:
#
# PCOD9111531 Si02
#       8
#     2   2   2   2   2   2   2   2
#     4  11  24  46  73  96 133 193 238 297 377 437
#     4  11  25  46  69  96 142 188 235 298 368 431
#     4  10  20  43  66 101 140 178 232 294 340 427
#     4  12  28  45  70 108 144 181 249 315 368 451
#     4  11  23  42  70  99 138 187 229 287 365 421
#     4  11  24  45  68 101 142 183 240 300 359 439
#     4   9  20  40  70  97 138 181 228 286 350 418
#     4  11  25  42  68 103 140 183 241 290 354 437
#
# _framework density 24.244696000000001
#
# number of rings (size 3 to 8) (size 9 to 14) (size 15 to 20)
#    0.000    1.250    3.750    1.125    5.250    1.500 
#    0.000    5.625    0.000    0.000    0.000    0.000 
#    0.000    0.000    0.000    0.000    0.000    0.000 
#
# Total GULP energy -89407.122599 kJ/mol
# GULP energy per Si atom -5587.945162 kJ/mol
# Density = 2.418951 g / cm^3
# Si number density = 24.244696 Si / 1000 Ang^3
#
#
#
# Elastic Constant Matrix: (Units=GPa)
#
#
# Indices 1 2 3 4 5 6 
#
# 1 92.3771 44.9501 12.3821 0.0061 -11.8113 -20.4343
# 2 44.9501 165.1488 18.2269 -20.8080 -0.7937 -19.4818
# 3 12.3821 18.2269 77.6826 -11.4942 -5.3866 -12.4185
# 4 0.0061 -20.8080 -11.4942 40.4276 -0.1429 6.9390
# 5 -11.8113 -0.7937 -5.3866 -0.1429 20.2718 -1.9208
# 6 -20.4343 -19.4818 -12.4185 6.9390 -1.9208 37.0257
#
#
#
# Elastic Compliance Matrix: (Units=1/GPa)
#
#
# Indices 1 2 3 4 5 6 
#
# 1 0.015564 -0.003667 -0.000205 -0.003235 0.009576 0.007694
# 2 -0.003667 0.007691 -0.000655 0.003589 -0.001887 0.001032
# 3 -0.000205 -0.000655 0.014444 0.003094 0.004096 0.004019
# 4 -0.003235 0.003589 0.003094 0.028180 -0.001121 -0.004199
# 5 0.009576 -0.001887 0.004096 -0.001121 0.056751 0.008820
# 6 0.007694 0.001032 0.004019 -0.004199 0.008820 0.034391
#
#
# Mechanical properties :
#
#
# Convention : Reuss Voigt Hill
#
# Bulk Modulus (GPa) = 34.91139 54.03632 44.47385
# Shear Modulus (GPa) = 28.47031 36.85497 32.66264
#
# Velocity S-wave (km/s) = 3.43051 3.90311 3.67441
# Velocity P-wave (km/s) = 5.48836 6.53059 6.03203
#
# Compressibility (1/GPa) = 0.02864395
#
# Stress axis : x y z
#
# Youngs Moduli (GPa) = 64.25133 130.03032 69.23511
#
# Poissons Ratio (x) = 0.47688 0.01419
# Poissons Ratio (y) = 0.23564 0.04532
# Poissons Ratio (z) = 0.01316 0.08512
#
# Static dielectric constant tensor:
#      x y z
#    x 1.881530 0.017280 0.018620 
#    y 0.017280 1.989030 0.015060 
#    z 0.018620 0.015060 1.965280 
# 
# From -- ./inp_files/53342.got.cif
#   From: 2010.05.17/outbox.cif.g08.bks.cpg/sg2_27_cif.got.tgz:53342.got - 2010.06.03 11:33:40.
