data_PCOD9111872
_publ_section_title
;
Structure prediction by ZEFSAII (Michael W. Deem and Ramdas Pophale) SiO2 
 PCOD9111872
Probable space group: P -1
;
_chemical_formula_sum "Si O2"
_cell_formula_units_Z 16
_cell_length_a 19.162038
_cell_length_b 10.866142
_cell_length_c 8.431687
_cell_angle_alpha 54.791042
_cell_angle_beta 43.624186
_cell_angle_gamma 34.428955
_cell_volume 683.872930
_symmetry_space_group_name_H-M "P -1"
_symmetry_group_IT_number 2
_symmetry_cell_setting 'triclinic'
loop_
_space_group_symop_operation_xyz
x,y,z
-x,-y,-z
loop_
_atom_site_type_symbol
_atom_site_label
_atom_site_fract_x
_atom_site_fract_y
_atom_site_fract_z
Si Si1 0.136358 0.758867 0.522844
Si Si2 0.991181 0.660688 0.048158
Si Si3 0.282553 0.876889 0.307864
Si Si4 0.516771 0.008620 0.775183
Si Si5 0.543121 0.616264 0.276731
Si Si6 0.237171 0.170587 0.937231
Si Si7 0.250465 0.498842 0.229172
Si Si8 0.040526 0.281865 0.595003
O O1 0.222796 0.773503 0.491523
O O2 0.251186 0.595661 0.315874
O O3 0.000000 0.000000 0.500000
O O4 0.069364 0.685840 0.774307
O O5 0.834996 0.766239 0.164645
O O6 0.972337 0.759754 0.173211
O O7 0.106065 0.400311 0.070378
O O8 0.449009 0.721911 0.190710
O O9 0.198505 0.071788 0.426762
O O10 0.250083 0.985579 0.112214
O O11 0.504461 0.203830 0.652916
O O12 0.386899 0.088752 0.811993
O O13 0.660567 0.752147 0.698909
O O14 0.500000 0.000000 0.000000
O O15 0.500000 0.500000 0.500000
O O16 0.698080 0.487683 0.035792
O O17 0.077962 0.661196 0.368438
O O18 0.000000 0.500000 0.500000
#
# Coordination Sequence:
#
# PCOD9111872 Si02
#       8
#     2   2   2   2   2   2   2   2
#     4  12  26  46  67 106 151 187 232 306 366 427
#     4  11  25  41  70 106 151 183 248 300 358 435
#     4  12  24  46  72 100 149 190 237 304 367 426
#     4  10  20  43  73 101 140 189 240 294 352 431
#     4  11  26  46  72 111 145 187 244 299 361 436
#     4  11  21  43  69 104 141 188 235 303 354 425
#     4  11  24  47  76 100 144 198 239 290 372 429
#     4  12  24  42  77 107 133 190 249 302 362 421
#
# _framework density 23.396159000000001
#
# number of rings (size 3 to 8) (size 9 to 14) (size 15 to 20)
#    0.000    0.750    6.250    2.250    5.250    2.000 
#    0.000    0.625    0.000    0.000    0.000    0.000 
#    0.000    0.000    0.000    0.000    0.000    0.000 
#
# Total GULP energy -89292.899821 kJ/mol
# GULP energy per Si atom -5580.806239 kJ/mol
# Density = 2.334291 g / cm^3
# Si number density = 23.396159 Si / 1000 Ang^3
#
#
#
# Elastic Constant Matrix: (Units=GPa)
#
#
# Indices 1 2 3 4 5 6 
#
# 1 92.5027 11.3151 1.9723 -5.0128 -12.4244 -1.6661
# 2 11.3151 62.9251 18.0191 -4.5911 7.2909 13.8471
# 3 1.9723 18.0191 70.3033 -14.8027 -2.8516 16.2133
# 4 -5.0128 -4.5911 -14.8027 25.9171 10.6382 -5.6137
# 5 -12.4244 7.2909 -2.8516 10.6382 34.2717 2.4397
# 6 -1.6661 13.8471 16.2133 -5.6137 2.4397 49.0117
#
#
#
# Elastic Compliance Matrix: (Units=1/GPa)
#
#
# Indices 1 2 3 4 5 6 
#
# 1 0.011846 -0.003004 0.000482 0.000239 0.004837 0.000879
# 2 -0.003004 0.019175 -0.003724 0.002317 -0.005932 -0.003727
# 3 0.000482 -0.003724 0.017911 0.008836 -0.000012 -0.003844
# 4 0.000239 0.002317 0.008836 0.051240 -0.015796 0.003086
# 5 0.004837 -0.005932 -0.000012 -0.015796 0.037226 -0.001818
# 6 0.000879 -0.003727 -0.003844 0.003086 -0.001818 0.023202
#
#
# Mechanical properties :
#
#
# Convention : Reuss Voigt Hill
#
# Bulk Modulus (GPa) = 27.44271 32.03822 29.74047
# Shear Modulus (GPa) = 26.99201 34.80174 30.89687
#
# Velocity S-wave (km/s) = 3.40029 3.86099 3.63794
# Velocity P-wave (km/s) = 5.21258 5.79654 5.51230
#
# Compressibility (1/GPa) = 0.03643955
#
# Stress axis : x y z
#
# Youngs Moduli (GPa) = 84.41525 52.15125 55.83009
#
# Poissons Ratio (x) = 0.15669 -0.02689
# Poissons Ratio (y) = 0.25362 0.20789
# Poissons Ratio (z) = -0.04065 0.19419
#
# Static dielectric constant tensor:
#      x y z
#    x 1.994110 0.010220 0.003460 
#    y 0.010220 1.876820 -0.050260 
#    z 0.003460 -0.050260 1.913930 
# 
# From -- ./inp_files/345934.got.cif
#   From: 2010.05.17/outbox.cif.g08.bks.cpg/sg2_173_cif.got.tgz:345934.got - 2010.06.03 11:33:40.
