data_PCOD9111578
_publ_section_title
;
Structure prediction by ZEFSAII (Michael W. Deem and Ramdas Pophale) SiO2 
 PCOD9111578
Probable space group: P -1
;
_chemical_formula_sum "Si O2"
_cell_formula_units_Z 16
_cell_length_a 7.964638
_cell_length_b 18.180239
_cell_length_c 18.757197
_cell_angle_alpha 23.343252
_cell_angle_beta 40.716107
_cell_angle_gamma 51.220917
_cell_volume 676.089786
_symmetry_space_group_name_H-M "P -1"
_symmetry_group_IT_number 2
_symmetry_cell_setting 'triclinic'
loop_
_space_group_symop_operation_xyz
x,y,z
-x,-y,-z
loop_
_atom_site_type_symbol
_atom_site_label
_atom_site_fract_x
_atom_site_fract_y
_atom_site_fract_z
Si Si1 0.477333 0.726651 0.915558
Si Si2 0.946647 0.085759 0.080672
Si Si3 0.817280 0.604590 0.385795
Si Si4 0.685817 0.415024 0.189337
Si Si5 0.266782 0.806240 0.180779
Si Si6 0.723020 0.028134 0.461645
Si Si7 0.295056 0.074243 0.188096
Si Si8 0.464638 0.738249 0.480993
O O1 0.218258 0.805761 0.909960
O O2 0.548419 0.800614 0.907784
O O3 0.697163 0.843293 0.685143
O O4 0.508254 0.509838 0.109416
O O5 0.714095 0.914066 0.271540
O O6 0.176303 0.969101 0.110228
O O7 0.086889 0.268648 0.825731
O O8 0.757513 0.377436 0.597830
O O9 0.553660 0.641644 0.470338
O O10 0.046296 0.704112 0.281916
O O11 0.657869 0.190405 0.387745
O O12 0.609908 0.419656 0.292503
O O13 0.000000 0.500000 0.000000
O O14 0.533593 0.878021 0.982132
O O15 0.002091 0.101107 0.265779
O O16 0.500000 0.000000 0.500000
O O17 0.258241 0.851893 0.420277
#
# Coordination Sequence:
#
# PCOD9111578 Si02
#       8
#     2   2   2   2   2   2   2   2
#     4  11  22  38  64  90 118 161 204 251 299 363
#     4  10  18  31  50  86 126 151 191 248 302 355
#     4  10  17  26  47  88 128 149 183 249 310 342
#     4  12  23  38  64  92 119 160 211 255 299 356
#     4  10  18  28  50  86 127 152 187 248 306 345
#     4  12  27  44  61  88 126 163 202 255 312 360
#     4  11  18  38  61  88 123 160 203 247 298 358
#     4  10  18  31  54  89 123 155 194 252 301 349
#
# _framework density 23.665495
#
# number of rings (size 3 to 8) (size 9 to 14) (size 15 to 20)
#    0.000    1.250    7.500    2.625    3.500    0.500 
#    0.000    0.000    0.000    0.750    0.000    1.750 
#    0.000    0.000    0.000    0.000    0.000    0.000 
#
# Total GULP energy -89123.889048 kJ/mol
# GULP energy per Si atom -5570.243065 kJ/mol
# Density = 2.361163 g / cm^3
# Si number density = 23.665495 Si / 1000 Ang^3
#
#
#
# Elastic Constant Matrix: (Units=GPa)
#
#
# Indices 1 2 3 4 5 6 
#
# 1 28.2589 26.4413 21.5021 4.8299 8.9221 7.0468
# 2 26.4413 102.1427 43.4708 22.2838 7.1625 -43.0898
# 3 21.5021 43.4708 131.7362 5.7022 43.3114 -13.5897
# 4 4.8299 22.2838 5.7022 26.6274 -16.1563 7.1092
# 5 8.9221 7.1625 43.3114 -16.1563 15.9311 -5.8764
# 6 7.0468 -43.0898 -13.5897 7.1092 -5.8764 12.5365
#
#
#
# Elastic Compliance Matrix: (Units=1/GPa)
#
#
# Indices 1 2 3 4 5 6 
#
# 1 0.018739 0.011570 -0.012296 -0.002511 0.026088 0.029558
# 2 0.011570 -0.003289 -0.001502 0.003831 -0.006048 -0.024442
# 3 -0.012296 -0.001502 0.000116 0.019962 0.029023 0.004159
# 4 -0.002511 0.003831 0.019962 -0.008280 -0.057903 0.013772
# 5 0.026088 -0.006048 0.029023 -0.057903 -0.092018 -0.014289
# 6 0.029558 -0.024442 0.004159 0.013772 -0.014289 -0.030859
#
#
# Mechanical properties :
#
#
# Convention : Reuss Voigt Hill
#
# Bulk Modulus (GPa) = 90.00062 49.44067 69.72064
# Shear Modulus (GPa) = -46.54132 22.40055 -12.07038
#
# Velocity S-wave (km/s) = -4.43948 3.07994 -2.26086
# Velocity P-wave (km/s) = 3.44009 5.79524 4.76545
#
# Compressibility (1/GPa) = 0.01111103
#
# Stress axis : x y z
#
# Youngs Moduli (GPa) = 53.36531 -304.08773 8591.28066
#
# Poissons Ratio (x) = 3.51826 105.63545
# Poissons Ratio (y) = -0.61743 12.90436
# Poissons Ratio (z) = 0.65616 -0.45675
#
# Static dielectric constant tensor:
#      x y z
#    x 1.986340 -0.118760 0.032650 
#    y -0.118760 1.868980 0.000020 
#    z 0.032650 0.000020 1.888750 
# 
# From -- ./inp_files/591590.got.cif
#   From: 2010.05.17/outbox.cif.g08.bks.cpg/sg2_296_cif.got.tgz:591590.got - 2010.06.03 11:33:40.
