data_PCOD9111493
_publ_section_title
;
Structure prediction by ZEFSAII (Michael W. Deem and Ramdas Pophale) SiO2 
 PCOD9111493
Probable space group: P -1
;
_chemical_formula_sum "Si O2"
_cell_formula_units_Z 16
_cell_length_a 13.568847
_cell_length_b 12.350744
_cell_length_c 9.202523
_cell_angle_alpha 71.498816
_cell_angle_beta 76.224607
_cell_angle_gamma 135.371075
_cell_volume 737.333038
_symmetry_space_group_name_H-M "P -1"
_symmetry_group_IT_number 2
_symmetry_cell_setting 'triclinic'
loop_
_space_group_symop_operation_xyz
x,y,z
-x,-y,-z
loop_
_atom_site_type_symbol
_atom_site_label
_atom_site_fract_x
_atom_site_fract_y
_atom_site_fract_z
Si Si1 0.498597 0.840364 0.336661
Si Si2 0.497263 0.591107 0.590427
Si Si3 0.134166 0.425159 0.445242
Si Si4 0.068835 0.412534 0.146702
Si Si5 0.757685 0.292823 0.290629
Si Si6 0.096281 0.774938 0.113952
Si Si7 0.930133 0.802911 0.961272
Si Si8 0.869855 0.847890 0.469286
O O1 0.526990 0.745462 0.446974
O O2 0.319048 0.652460 0.369014
O O3 0.428097 0.860966 0.477120
O O4 0.690442 0.053642 0.087260
O O5 0.500000 0.500000 0.500000
O O6 0.287278 0.387949 0.825585
O O7 0.665970 0.720087 0.589914
O O8 0.108983 0.454394 0.284343
O O9 0.165631 0.320482 0.458087
O O10 0.946266 0.262393 0.684309
O O11 0.854062 0.261005 0.261010
O O12 0.230312 0.636821 0.901242
O O13 0.069182 0.286276 0.134750
O O14 0.933223 0.534209 0.205955
O O15 0.047800 0.851561 0.026478
O O16 0.023981 0.006219 0.776679
O O17 0.000000 0.000000 0.500000
#
# Coordination Sequence:
#
# PCOD9111493 Si02
#       8
#     2   2   2   2   2   2   2   2
#     4  11  21  40  63  96 122 165 219 257 305 386
#     4  12  23  40  65  90 126 174 212 254 311 379
#     4  11  23  40  60  94 129 163 209 263 319 369
#     4  10  20  43  65  87 128 165 201 268 328 365
#     4   9  21  43  68  87 120 168 211 260 322 374
#     4  10  21  39  64  92 121 164 214 257 303 382
#     4  11  22  41  64  88 126 166 212 252 310 383
#     4  12  25  39  61  94 130 166 208 261 316 369
#
# _framework density 21.699829000000001
#
# number of rings (size 3 to 8) (size 9 to 14) (size 15 to 20)
#    0.000    1.250    7.500    0.000    1.750    3.500 
#    2.250   11.875    0.000    0.000    0.000    0.000 
#    0.000    0.000    0.000    0.000    0.000    0.000 
#
# Total GULP energy -89523.058073 kJ/mol
# GULP energy per Si atom -5595.191130 kJ/mol
# Density = 2.165044 g / cm^3
# Si number density = 21.699829 Si / 1000 Ang^3
#
#
#
# Elastic Constant Matrix: (Units=GPa)
#
#
# Indices 1 2 3 4 5 6 
#
# 1 70.4046 28.6823 46.7778 14.5172 -12.9366 8.8644
# 2 28.6823 89.3693 39.6201 28.5355 -5.8270 9.2470
# 3 46.7778 39.6201 173.8609 15.2504 -26.7913 22.4326
# 4 14.5172 28.5355 15.2504 37.3959 3.9794 -4.0731
# 5 -12.9366 -5.8270 -26.7913 3.9794 43.2709 -0.9595
# 6 8.8644 9.2470 22.4326 -4.0731 -0.9595 26.2206
#
#
#
# Elastic Compliance Matrix: (Units=1/GPa)
#
#
# Indices 1 2 3 4 5 6 
#
# 1 0.019611 -0.002616 -0.003144 -0.005156 0.003957 -0.003673
# 2 -0.002616 0.017293 -0.001025 -0.012647 0.001937 -0.006231
# 3 -0.003144 -0.001025 0.008506 -0.002587 0.004291 -0.006098
# 4 -0.005156 -0.012647 -0.002587 0.041932 -0.008378 0.014623
# 5 0.003957 0.001937 0.004291 -0.008378 0.027849 -0.005974
# 6 -0.003673 -0.006231 -0.006098 0.014623 -0.005974 0.048847
#
#
# Mechanical properties :
#
#
# Convention : Reuss Voigt Hill
#
# Bulk Modulus (GPa) = 31.40775 62.64393 47.02584
# Shear Modulus (GPa) = 26.56453 35.94780 31.25617
#
# Velocity S-wave (km/s) = 3.50263 4.07454 3.79936
# Velocity P-wave (km/s) = 5.55545 7.14611 6.40039
#
# Compressibility (1/GPa) = 0.03183927
#
# Stress axis : x y z
#
# Youngs Moduli (GPa) = 50.99149 57.82849 117.56019
#
# Poissons Ratio (x) = 0.15126 0.36966
# Poissons Ratio (y) = 0.13337 0.12053
# Poissons Ratio (z) = 0.16034 0.05929
#
# Static dielectric constant tensor:
#      x y z
#    x 1.797590 -0.019710 -0.007360 
#    y -0.019710 1.836830 -0.014850 
#    z -0.007360 -0.014850 1.780930 
# 
# From -- ./inp_files/215637.got.cif
#   From: 2010.05.17/outbox.cif.g08.bks.cpg/sg2_108_cif.got.tgz:215637.got - 2010.06.03 11:33:40.
