data_PCOD9111160
_publ_section_title
;
Structure prediction by ZEFSAII (Michael W. Deem and Ramdas Pophale) SiO2 
 PCOD9111160
Probable space group: P -1
;
_chemical_formula_sum "Si O2"
_cell_formula_units_Z 16
_cell_length_a 9.120733
_cell_length_b 8.252943
_cell_length_c 27.856551
_cell_angle_alpha 133.246830
_cell_angle_beta 141.440092
_cell_angle_gamma 75.799328
_cell_volume 731.800476
_symmetry_space_group_name_H-M "P -1"
_symmetry_group_IT_number 2
_symmetry_cell_setting 'triclinic'
loop_
_space_group_symop_operation_xyz
x,y,z
-x,-y,-z
loop_
_atom_site_type_symbol
_atom_site_label
_atom_site_fract_x
_atom_site_fract_y
_atom_site_fract_z
Si Si1 0.179743 0.158494 0.713433
Si Si2 0.661858 0.769841 0.561951
Si Si3 0.531319 0.841006 0.855200
Si Si4 0.806447 0.157023 0.079781
Si Si5 0.779161 0.396351 0.967889
Si Si6 0.324443 0.226977 0.655160
Si Si7 0.950000 0.513708 0.703149
Si Si8 0.910440 0.294210 0.796903
O O1 0.471648 0.323459 0.855644
O O2 0.275775 0.146667 0.682482
O O3 0.054197 0.334457 0.712407
O O4 0.908614 0.842530 0.600830
O O5 0.500000 0.500000 0.500000
O O6 0.380338 0.712833 0.450710
O O7 0.854667 0.041564 0.701684
O O8 0.451969 0.557115 0.753433
O O9 0.209705 0.732555 0.774393
O O10 0.681099 0.106230 0.910601
O O11 0.749862 0.943154 0.979514
O O12 0.054690 0.316874 0.218717
O O13 0.862877 0.409554 0.113945
O O14 0.500000 0.000000 0.000000
O O15 0.000000 0.500000 0.000000
O O16 0.953590 0.646284 0.103312
O O17 0.586337 0.225794 0.702099
O O18 0.000000 0.000000 0.500000
#
# Coordination Sequence:
#
# PCOD9111160 Si02
#       8
#     2   2   2   2   2   2   2   2
#     4  11  23  43  71  95 130 181 218 273 332 391
#     4  12  26  45  67 101 135 172 220 276 338 397
#     4   9  21  41  65  97 133 170 221 271 323 393
#     4   9  19  37  65  99 128 165 216 275 322 383
#     4  11  23  45  65  96 142 176 220 271 329 393
#     4  11  24  43  69  98 130 177 222 274 332 391
#     4  10  20  42  69  98 132 167 222 276 330 396
#     4  11  23  44  67  95 137 175 219 275 333 392
#
# _framework density 21.863880999999999
#
# number of rings (size 3 to 8) (size 9 to 14) (size 15 to 20)
#    0.000    1.500    2.500    2.625    1.750    2.500 
#   13.500    1.250    0.000    0.000    0.000    0.000 
#    0.000    0.000    0.000    0.000    0.000    0.000 
#
# Total GULP energy -89389.789640 kJ/mol
# GULP energy per Si atom -5586.861852 kJ/mol
# Density = 2.181412 g / cm^3
# Si number density = 21.863881 Si / 1000 Ang^3
#
#
#
# Elastic Constant Matrix: (Units=GPa)
#
#
# Indices 1 2 3 4 5 6 
#
# 1 69.4143 30.7978 19.5145 0.1076 9.2563 29.3040
# 2 30.7978 67.5601 25.9419 3.9842 13.8636 24.6506
# 3 19.5145 25.9419 98.2357 -9.1022 5.2938 15.1918
# 4 0.1076 3.9842 -9.1022 43.4398 -0.7379 5.4014
# 5 9.2563 13.8636 5.2938 -0.7379 39.6598 4.1306
# 6 29.3040 24.6506 15.1918 5.4014 4.1306 33.6384
#
#
#
# Elastic Compliance Matrix: (Units=1/GPa)
#
#
# Indices 1 2 3 4 5 6 
#
# 1 0.024246 -0.003871 -0.000654 0.002368 -0.002290 -0.018088
# 2 -0.003871 0.023205 -0.003481 -0.001561 -0.005614 -0.011120
# 3 -0.000654 -0.003481 0.011949 0.003175 0.000125 -0.002801
# 4 0.002368 -0.001561 0.003175 0.024630 0.000693 -0.006393
# 5 -0.002290 -0.005614 0.000125 0.000693 0.027440 0.002572
# 6 -0.018088 -0.011120 -0.002801 -0.006393 0.002572 0.055610
#
#
# Mechanical properties :
#
#
# Convention : Reuss Voigt Hill
#
# Bulk Modulus (GPa) = 23.04846 43.07982 33.06414
# Shear Modulus (GPa) = 25.30948 33.94465 29.62707
#
# Velocity S-wave (km/s) = 3.40603 3.94451 3.68512
# Velocity P-wave (km/s) = 5.10223 6.36333 5.76735
#
# Compressibility (1/GPa) = 0.04338685
#
# Stress axis : x y z
#
# Youngs Moduli (GPa) = 41.24450 43.09508 83.68590
#
# Poissons Ratio (x) = 0.16683 0.05473
# Poissons Ratio (y) = 0.15967 0.29133
# Poissons Ratio (z) = 0.02697 0.15002
#
# Static dielectric constant tensor:
#      x y z
#    x 1.844880 0.011820 0.014780 
#    y 0.011820 1.820800 0.020840 
#    z 0.014780 0.020840 1.881290 
# 
# From -- ./inp_files/616696.got.cif
#   From: 2010.05.17/outbox.cif.g08.bks.cpg/sg2_309_cif.got.tgz:616696.got - 2010.06.03 11:33:40.
