data_PCOD9111110
_publ_section_title
;
Structure prediction by ZEFSAII (Michael W. Deem and Ramdas Pophale) SiO2 
 PCOD9111110
Probable space group: P -1
;
_chemical_formula_sum "Si O2"
_cell_formula_units_Z 16
_cell_length_a 18.304256
_cell_length_b 10.728591
_cell_length_c 5.232554
_cell_angle_alpha 60.748360
_cell_angle_beta 71.152320
_cell_angle_gamma 42.508809
_cell_volume 604.583859
_symmetry_space_group_name_H-M "P -1"
_symmetry_group_IT_number 2
_symmetry_cell_setting 'triclinic'
loop_
_space_group_symop_operation_xyz
x,y,z
-x,-y,-z
loop_
_atom_site_type_symbol
_atom_site_label
_atom_site_fract_x
_atom_site_fract_y
_atom_site_fract_z
Si Si1 0.334888 0.014514 0.059210
Si Si2 0.978790 0.316992 0.288667
Si Si3 0.590006 0.797978 0.437299
Si Si4 0.472096 0.383039 0.043634
Si Si5 0.148627 0.307853 0.286693
Si Si6 0.167666 0.566791 0.274865
Si Si7 0.176241 0.989825 0.065133
Si Si8 0.764718 0.264092 0.249281
O O1 0.241372 0.055877 0.950511
O O2 0.270887 0.096146 0.316695
O O3 0.438285 0.791721 0.077788
O O4 0.375635 0.127155 0.883521
O O5 0.066082 0.285328 0.401155
O O6 0.916319 0.281135 0.562244
O O7 0.052435 0.174172 0.108812
O O8 0.890976 0.544840 0.058738
O O9 0.537209 0.709657 0.605177
O O10 0.708458 0.605999 0.604240
O O11 0.500000 0.000000 0.500000
O O12 0.500000 0.500000 0.000000
O O13 0.360097 0.538393 0.861081
O O14 0.139914 0.439290 0.374853
O O15 0.169834 0.673279 0.930566
O O16 0.221796 0.829100 0.402047
O O17 0.197055 0.885930 0.878554
#
# Coordination Sequence:
#
# PCOD9111110 Si02
#       8
#     2   2   2   2   2   2   2   2
#     4  10  20  42  69 102 140 180 240 298 355 423
#     4  10  23  42  69  98 139 183 240 296 357 422
#     4   9  20  39  66 101 136 178 240 286 359 415
#     4  10  20  43  71 104 141 194 232 301 358 438
#     4  10  22  41  66 103 135 181 241 297 361 421
#     4  11  23  41  70  97 145 187 235 303 354 427
#     4  11  26  45  69 104 140 192 239 293 358 429
#     4  11  27  46  69 104 147 192 241 289 365 435
#
# _framework density 26.464487999999999
#
# number of rings (size 3 to 8) (size 9 to 14) (size 15 to 20)
#    0.000    1.750    2.500    0.375    3.500    3.500 
#    0.000    6.875    0.000    0.000    0.000    0.000 
#    0.000    0.000    0.000    0.000    0.000    0.000 
#
# Total GULP energy -89438.263461 kJ/mol
# GULP energy per Si atom -5589.891466 kJ/mol
# Density = 2.640425 g / cm^3
# Si number density = 26.464488 Si / 1000 Ang^3
#
#
#
# Elastic Constant Matrix: (Units=GPa)
#
#
# Indices 1 2 3 4 5 6 
#
# 1 72.9684 46.7324 49.3343 11.0943 -19.9972 -9.5147
# 2 46.7324 149.7992 53.2606 11.3572 -13.5572 -12.6586
# 3 49.3343 53.2606 138.8728 1.9501 -28.2872 -0.1387
# 4 11.0943 11.3572 1.9501 40.3427 5.1350 -10.8787
# 5 -19.9972 -13.5572 -28.2872 5.1350 30.5530 7.1777
# 6 -9.5147 -12.6586 -0.1387 -10.8787 7.1777 44.5520
#
#
#
# Elastic Compliance Matrix: (Units=1/GPa)
#
#
# Indices 1 2 3 4 5 6 
#
# 1 0.023200 -0.004216 -0.004498 -0.006077 0.010019 0.000645
# 2 -0.004216 0.008825 -0.002089 -0.000657 -0.001045 0.001608
# 3 -0.004498 -0.002089 0.011038 -0.000345 0.007050 -0.002740
# 4 -0.006077 -0.000657 -0.000345 0.030210 -0.011484 0.007741
# 5 0.010019 -0.001045 0.007050 -0.011484 0.049371 -0.008894
# 6 0.000645 0.001608 -0.002740 0.007741 -0.008894 0.026355
#
#
# Mechanical properties :
#
#
# Convention : Reuss Voigt Hill
#
# Bulk Modulus (GPa) = 46.60544 73.36611 59.98577
# Shear Modulus (GPa) = 28.12849 37.24375 32.68612
#
# Velocity S-wave (km/s) = 3.26372 3.75548 3.51820
# Velocity P-wave (km/s) = 5.64369 6.82551 6.26254
#
# Compressibility (1/GPa) = 0.02145672
#
# Stress axis : x y z
#
# Youngs Moduli (GPa) = 43.10394 113.31782 90.59704
#
# Poissons Ratio (x) = 0.47779 0.40749
# Poissons Ratio (y) = 0.18174 0.18922
# Poissons Ratio (z) = 0.19387 0.23668
#
# Static dielectric constant tensor:
#      x y z
#    x 2.147310 0.028870 0.041050 
#    y 0.028870 2.044160 0.000900 
#    z 0.041050 0.000900 2.142960 
# 
# From -- ./inp_files/118067.got.cif
#   From: 2010.05.17/outbox.cif.g08.bks.cpg/sg2_60_cif.got.tgz:118067.got - 2010.06.03 11:33:40.
