data_PCOD9111097
_publ_section_title
;
Structure prediction by ZEFSAII (Michael W. Deem and Ramdas Pophale) SiO2 
 PCOD9111097
Probable space group: P -1
;
_chemical_formula_sum "Si O2"
_cell_formula_units_Z 16
_cell_length_a 10.790836
_cell_length_b 14.068089
_cell_length_c 8.656258
_cell_angle_alpha 88.001574
_cell_angle_beta 78.983385
_cell_angle_gamma 145.833264
_cell_volume 678.549082
_symmetry_space_group_name_H-M "P -1"
_symmetry_group_IT_number 2
_symmetry_cell_setting 'triclinic'
loop_
_space_group_symop_operation_xyz
x,y,z
-x,-y,-z
loop_
_atom_site_type_symbol
_atom_site_label
_atom_site_fract_x
_atom_site_fract_y
_atom_site_fract_z
Si Si1 0.895799 0.828234 0.068336
Si Si2 0.932931 0.685830 0.386840
Si Si3 0.773642 0.788598 0.545286
Si Si4 0.512711 0.972401 0.674123
Si Si5 0.660771 0.501380 0.132101
Si Si6 0.390209 0.063399 0.900833
Si Si7 0.282487 0.674129 0.928465
Si Si8 0.511575 0.322988 0.654999
O O1 0.784904 0.669178 0.004890
O O2 0.651271 0.700913 0.221531
O O3 0.000000 0.000000 0.000000
O O4 0.148632 0.941980 0.052666
O O5 0.855358 0.743818 0.446082
O O6 0.823632 0.597062 0.246255
O O7 0.786216 0.526413 0.552605
O O8 0.213955 0.851849 0.338568
O O9 0.612665 0.659739 0.738064
O O10 0.602885 0.743559 0.482623
O O11 0.000000 0.000000 0.500000
O O12 0.401014 0.796889 0.741495
O O13 0.500000 0.000000 0.500000
O O14 0.363593 0.951017 0.816038
O O15 0.658961 0.399061 0.055809
O O16 0.462345 0.192671 0.756796
O O17 0.601135 0.193136 0.966708
O O18 0.000000 0.500000 0.000000
#
# Coordination Sequence:
#
# PCOD9111097 Si02
#       8
#     2   2   2   2   2   2   2   2
#     4  10  20  42  68  99 140 183 230 283 361 424
#     4  11  22  43  71  97 148 178 242 293 365 410
#     4  11  22  37  70 105 142 178 236 290 366 417
#     4  12  29  47  73 106 140 190 248 303 354 427
#     4  11  21  41  71 100 135 187 237 286 357 429
#     4  11  26  46  72  98 151 187 235 297 364 422
#     4  12  27  47  71 103 143 195 247 290 366 432
#     4  10  22  42  70 104 137 189 227 299 353 432
#
# _framework density 23.579722
#
# number of rings (size 3 to 8) (size 9 to 14) (size 15 to 20)
#    0.000    1.000    2.500    4.125    8.750    0.500 
#    0.000    2.500    0.000    0.000    0.000    0.000 
#    0.000    0.000    0.000    0.000    0.000    0.000 
#
# Total GULP energy -89302.611701 kJ/mol
# GULP energy per Si atom -5581.413231 kJ/mol
# Density = 2.352605 g / cm^3
# Si number density = 23.579722 Si / 1000 Ang^3
#
#
#
# Elastic Constant Matrix: (Units=GPa)
#
#
# Indices 1 2 3 4 5 6 
#
# 1 82.3216 15.2548 27.7225 -4.6149 3.0752 -5.4925
# 2 15.2548 107.3587 23.9202 -33.9359 4.5307 -6.1986
# 3 27.7225 23.9202 54.9874 -13.6180 9.2201 0.2263
# 4 -4.6149 -33.9359 -13.6180 50.0060 -4.7272 -4.3687
# 5 3.0752 4.5307 9.2201 -4.7272 45.9338 -8.3295
# 6 -5.4925 -6.1986 0.2263 -4.3687 -8.3295 54.4636
#
#
#
# Elastic Compliance Matrix: (Units=1/GPa)
#
#
# Indices 1 2 3 4 5 6 
#
# 1 0.014834 -0.000667 -0.007555 -0.000939 0.000763 0.001493
# 2 -0.000667 0.012763 -0.003372 0.007931 0.000666 0.002137
# 3 -0.007555 -0.003372 0.024974 0.003284 -0.004130 -0.001618
# 4 -0.000939 0.007931 0.003284 0.026654 0.001950 0.003231
# 5 0.000763 0.000666 -0.004130 0.001950 0.023391 0.003904
# 6 0.001493 0.002137 -0.001618 0.003231 0.003904 0.019618
#
#
# Mechanical properties :
#
#
# Convention : Reuss Voigt Hill
#
# Bulk Modulus (GPa) = 34.03369 42.05142 38.04256
# Shear Modulus (GPa) = 32.21302 41.93204 37.07253
#
# Velocity S-wave (km/s) = 3.70013 4.22158 3.96943
# Velocity P-wave (km/s) = 5.72009 6.45250 6.09730
#
# Compressibility (1/GPa) = 0.02938265
#
# Stress axis : x y z
#
# Youngs Moduli (GPa) = 67.41367 78.35117 40.04138
#
# Poissons Ratio (x) = 0.05228 0.30251
# Poissons Ratio (y) = 0.04498 0.13502
# Poissons Ratio (z) = 0.50931 0.26420
#
# Static dielectric constant tensor:
#      x y z
#    x 1.971680 -0.069520 0.112560 
#    y -0.069520 1.955370 -0.048150 
#    z 0.112560 -0.048150 2.092150 
# 
# From -- ./inp_files/273152.got.cif
#   From: 2010.05.17/outbox.cif.g08.bks.cpg/sg2_137_cif.got.tgz:273152.got - 2010.06.03 11:33:40.
