data_PCOD9111932
_publ_section_title
;
Structure prediction by ZEFSAII (Michael W. Deem and Ramdas Pophale) SiO2 
 PCOD9111932
Probable space group: P -1
;
_chemical_formula_sum "Si O2"
_cell_formula_units_Z 16
_cell_length_a 11.868576
_cell_length_b 18.363941
_cell_length_c 7.995475
_cell_angle_alpha 133.723928
_cell_angle_beta 36.159752
_cell_angle_gamma 138.677070
_cell_volume 662.645847
_symmetry_space_group_name_H-M "P -1"
_symmetry_group_IT_number 2
_symmetry_cell_setting 'triclinic'
loop_
_space_group_symop_operation_xyz
x,y,z
-x,-y,-z
loop_
_atom_site_type_symbol
_atom_site_label
_atom_site_fract_x
_atom_site_fract_y
_atom_site_fract_z
Si Si1 0.853002 0.405230 0.157303
Si Si2 0.976520 0.652023 0.845651
Si Si3 0.168735 0.062649 0.146792
Si Si4 0.923083 0.187656 0.647923
Si Si5 0.310298 0.905862 0.930707
Si Si6 0.507857 0.475011 0.750191
Si Si7 0.707411 0.875550 0.278100
Si Si8 0.844471 0.702038 0.758225
O O1 0.621575 0.400882 0.432918
O O2 0.906322 0.410515 0.300361
O O3 0.890096 0.298380 0.891428
O O4 0.000000 0.500000 0.000000
O O5 0.953816 0.650013 0.669983
O O6 0.100644 0.786458 0.946974
O O7 0.737955 0.587560 0.104342
O O8 0.118716 0.162429 0.437054
O O9 0.291348 0.102504 0.887782
O O10 0.929465 0.967346 0.235995
O O11 0.279610 0.006269 0.040105
O O12 0.972661 0.196894 0.405383
O O13 0.714146 0.092744 0.837157
O O14 0.501632 0.880090 0.604889
O O15 0.670816 0.602019 0.695031
O O16 0.500000 0.500000 0.000000
O O17 0.715879 0.757035 0.099515
#
# Coordination Sequence:
#
# PCOD9111932 Si02
#       8
#     2   2   2   2   2   2   2   2
#     4  11  23  45  63  95 133 165 212 271 316 383
#     4  10  24  39  69  93 127 174 214 259 326 374
#     4  10  21  43  65  92 130 169 212 260 328 375
#     4  10  23  39  65  94 133 167 205 272 320 375
#     4  11  22  40  67  95 128 168 215 264 321 380
#     4  10  23  41  68  91 130 168 220 260 318 376
#     4  10  22  39  69  93 128 167 217 269 307 381
#     4  10  20  44  62  94 132 172 215 265 317 381
#
# _framework density 24.145627999999999
#
# number of rings (size 3 to 8) (size 9 to 14) (size 15 to 20)
#    0.000    1.750    2.500    0.750    7.000    3.000 
#    0.000    2.500    2.750    0.000    0.000    0.000 
#    0.000    0.000    0.000    0.000    0.000    0.000 
#
# Total GULP energy -89224.440193 kJ/mol
# GULP energy per Si atom -5576.527512 kJ/mol
# Density = 2.409067 g / cm^3
# Si number density = 24.145628 Si / 1000 Ang^3
#
#
#
# Elastic Constant Matrix: (Units=GPa)
#
#
# Indices 1 2 3 4 5 6 
#
# 1 47.3534 22.1726 12.0707 -0.8355 -7.2734 -19.6302
# 2 22.1726 70.4820 21.8143 22.8825 2.8725 -12.1699
# 3 12.0707 21.8143 152.4526 4.9185 4.7492 -6.3957
# 4 -0.8355 22.8825 4.9185 52.3782 -7.5892 3.0890
# 5 -7.2734 2.8725 4.7492 -7.5892 23.0887 -3.3474
# 6 -19.6302 -12.1699 -6.3957 3.0890 -3.3474 51.5919
#
#
#
# Elastic Compliance Matrix: (Units=1/GPa)
#
#
# Indices 1 2 3 4 5 6 
#
# 1 0.033895 -0.011490 -0.001343 0.007431 0.016368 0.010637
# 2 -0.011490 0.022505 -0.001611 -0.011315 -0.009693 0.000786
# 3 -0.001343 -0.001611 0.006952 -0.000215 -0.001742 -0.000129
# 4 0.007431 -0.011315 -0.000215 0.025985 0.012243 -0.000630
# 5 0.016368 -0.009693 -0.001742 0.012243 0.055007 0.006561
# 6 0.010637 0.000786 -0.000129 -0.000630 0.006561 0.024063
#
#
# Mechanical properties :
#
#
# Convention : Reuss Voigt Hill
#
# Bulk Modulus (GPa) = 29.01495 42.48925 35.75210
# Shear Modulus (GPa) = 23.94839 39.69377 31.82108
#
# Velocity S-wave (km/s) = 3.15275 4.05894 3.63420
# Velocity P-wave (km/s) = 5.02950 6.29301 5.69639
#
# Compressibility (1/GPa) = 0.03446499
#
# Stress axis : x y z
#
# Youngs Moduli (GPa) = 29.50300 44.43415 143.84343
#
# Poissons Ratio (x) = 0.51055 0.19318
# Poissons Ratio (y) = 0.33899 0.23167
# Poissons Ratio (z) = 0.03962 0.07156
#
# Static dielectric constant tensor:
#      x y z
#    x 2.046960 0.049010 0.103590 
#    y 0.049010 2.023820 0.017810 
#    z 0.103590 0.017810 1.933610 
# 
# From -- ./inp_files/279752.got.cif
#   From: 2010.05.17/outbox.cif.g08.bks.cpg/sg2_140_cif.got.tgz:279752.got - 2010.06.03 11:33:40.
