data_PCOD9111211
_publ_section_title
;
Structure prediction by ZEFSAII (Michael W. Deem and Ramdas Pophale) SiO2 
 PCOD9111211
Probable space group: P -1
;
_chemical_formula_sum "Si O2"
_cell_formula_units_Z 12
_cell_length_a 9.225583
_cell_length_b 16.852611
_cell_length_c 12.680927
_cell_angle_alpha 149.753439
_cell_angle_beta 151.128281
_cell_angle_gamma 41.696571
_cell_volume 479.139297
_symmetry_space_group_name_H-M "P -1"
_symmetry_group_IT_number 2
_symmetry_cell_setting 'triclinic'
loop_
_space_group_symop_operation_xyz
x,y,z
-x,-y,-z
loop_
_atom_site_type_symbol
_atom_site_label
_atom_site_fract_x
_atom_site_fract_y
_atom_site_fract_z
Si Si1 0.901743 0.498930 0.264841
Si Si2 0.485410 0.154265 0.093573
Si Si3 0.562154 0.628947 0.024427
Si Si4 0.579598 0.408742 0.615723
Si Si5 0.677228 0.071270 0.891092
Si Si6 0.211098 0.794858 0.296598
O O1 0.701018 0.489095 0.230366
O O2 0.251506 0.482955 0.485662
O O3 0.795565 0.637258 0.279697
O O4 0.810259 0.340560 0.959872
O O5 0.602037 0.314438 0.411942
O O6 0.651415 0.125773 0.058027
O O7 0.133155 0.168896 0.858532
O O8 0.500000 0.000000 0.000000
O O9 0.735291 0.557238 0.950547
O O10 0.396667 0.783500 0.063991
O O11 0.628590 0.270706 0.572938
O O12 0.410321 0.942124 0.553605
O O13 0.000000 0.000000 0.000000
#
# Coordination Sequence:
#
# PCOD9111211 Si02
#       6
#     2   2   2   2   2   2
#     4   9  20  41  66  96 132 188 217 262 348 405
#     4  11  24  45  72  97 132 187 225 264 345 410
#     4  10  22  39  63 100 140 169 221 284 330 394
#     4  10  20  42  70  92 128 184 225 262 334 411
#     4  12  26  43  67 108 138 169 227 289 329 386
#     4  10  22  43  72  97 133 182 224 272 332 409
#
# _framework density 25.044908
#
# number of rings (size 3 to 8) (size 9 to 14) (size 15 to 20)
#    0.000    1.667    1.667    2.000    2.333    4.000 
#    3.000    7.500    0.000    0.000    0.000    0.000 
#    0.000    0.000    0.000    0.000    0.000    0.000 
#
# Total GULP energy -67119.718736 kJ/mol
# GULP energy per Si atom -5593.309895 kJ/mol
# Density = 2.498790 g / cm^3
# Si number density = 25.044908 Si / 1000 Ang^3
#
#
#
# Elastic Constant Matrix: (Units=GPa)
#
#
# Indices 1 2 3 4 5 6 
#
# 1 158.4634 70.3441 33.9348 -19.6146 -8.9012 -19.3348
# 2 70.3441 211.7797 25.9601 -26.1155 6.5617 5.7135
# 3 33.9348 25.9601 87.9625 -2.4883 -10.6138 3.8922
# 4 -19.6146 -26.1155 -2.4883 31.3457 0.7847 -3.5738
# 5 -8.9012 6.5617 -10.6138 0.7847 32.5337 -2.9893
# 6 -19.3348 5.7135 3.8922 -3.5738 -2.9893 41.9052
#
#
#
# Elastic Compliance Matrix: (Units=1/GPa)
#
#
# Indices 1 2 3 4 5 6 
#
# 1 0.009293 -0.002481 -0.002666 0.004088 0.002571 0.005406
# 2 -0.002481 0.006215 -0.001004 0.003404 -0.002506 -0.001787
# 3 -0.002666 -0.001004 0.013176 -0.001802 0.003612 -0.002213
# 4 0.004088 0.003404 -0.001802 0.037712 -0.000628 0.004761
# 5 0.002571 -0.002506 0.003612 -0.000628 0.033464 0.003526
# 6 0.005406 -0.001787 -0.002213 0.004761 0.003526 0.027464
#
#
# Mechanical properties :
#
#
# Convention : Reuss Voigt Hill
#
# Bulk Modulus (GPa) = 61.04538 79.85372 70.44955
# Shear Modulus (GPa) = 34.46187 43.02134 38.74161
#
# Velocity S-wave (km/s) = 3.71348 4.14909 3.93731
# Velocity P-wave (km/s) = 6.54323 7.40991 6.99001
#
# Compressibility (1/GPa) = 0.01638126
#
# Stress axis : x y z
#
# Youngs Moduli (GPa) = 107.60652 160.90557 75.89509
#
# Poissons Ratio (x) = 0.39926 0.20235
# Poissons Ratio (y) = 0.26701 0.07619
# Poissons Ratio (z) = 0.28689 0.16153
#
# Static dielectric constant tensor:
#      x y z
#    x 1.980230 -0.001960 -0.010460 
#    y -0.001960 1.956880 -0.012200 
#    z -0.010460 -0.012200 2.066140 
# 
# From -- ./inp_files/399877.got.cif
#   From: 2010.05.17/outbox.cif.g08.bks.cpg/sg2_200_cif.got.tgz:399877.got - 2010.06.03 11:33:40.
