data_PCOD9111303
_publ_section_title
;
Structure prediction by ZEFSAII (Michael W. Deem and Ramdas Pophale) SiO2 
 PCOD9111303
Probable space group: P -1
;
_chemical_formula_sum "Si O2"
_cell_formula_units_Z 14
_cell_length_a 9.420547
_cell_length_b 14.569467
_cell_length_c 12.212742
_cell_angle_alpha 28.358772
_cell_angle_beta 58.743971
_cell_angle_gamma 51.285544
_cell_volume 618.997317
_symmetry_space_group_name_H-M "P -1"
_symmetry_group_IT_number 2
_symmetry_cell_setting 'triclinic'
loop_
_space_group_symop_operation_xyz
x,y,z
-x,-y,-z
loop_
_atom_site_type_symbol
_atom_site_label
_atom_site_fract_x
_atom_site_fract_y
_atom_site_fract_z
Si Si1 0.749256 0.342137 0.430546
Si Si2 0.622497 0.530575 0.820924
Si Si3 0.033055 0.389946 0.860483
Si Si4 0.592223 0.994851 0.586334
Si Si5 0.980417 0.741235 0.764470
Si Si6 0.696743 0.993183 0.964919
Si Si7 0.574018 0.259109 0.941098
O O1 0.878743 0.444899 0.322956
O O2 0.735821 0.159092 0.699367
O O3 0.553147 0.536822 0.292116
O O4 0.836784 0.264890 0.356289
O O5 0.507138 0.768685 0.574728
O O6 0.661540 0.349016 0.905191
O O7 0.817416 0.511033 0.803786
O O8 0.500000 0.500000 0.000000
O O9 0.053168 0.231627 0.121375
O O10 0.147324 0.239851 0.874504
O O11 0.500000 0.000000 0.500000
O O12 0.810146 0.904787 0.592481
O O13 0.555143 0.828828 0.851564
O O14 0.000000 0.500000 0.000000
O O15 0.691968 0.075337 0.004093
O O16 0.500000 0.000000 0.000000
#
# Coordination Sequence:
#
# PCOD9111303 Si02
#       7
#     2   2   2   2   2   2   2
#     4  11  24  44  78 104 146 186 247 314 359 428
#     4  12  28  45  72 111 154 188 237 304 378 435
#     4  11  25  48  71 111 146 188 251 301 358 449
#     4  12  23  44  73 105 152 186 236 305 373 431
#     4  10  20  42  72 109 136 182 245 302 360 426
#     4  12  27  47  76 107 144 196 257 300 358 434
#     4  12  26  46  71 108 147 196 243 300 370 436
#
# _framework density 22.617222999999999
#
# number of rings (size 3 to 8) (size 9 to 14) (size 15 to 20)
#    0.000    0.571    5.714    3.000    6.000    2.286 
#    0.000    1.429    0.000    0.000    0.000    0.000 
#    0.000    0.000    0.000    0.000    0.000    0.000 
#
# Total GULP energy -78346.401947 kJ/mol
# GULP energy per Si atom -5596.171568 kJ/mol
# Density = 2.256575 g / cm^3
# Si number density = 22.617223 Si / 1000 Ang^3
#
#
#
# Elastic Constant Matrix: (Units=GPa)
#
#
# Indices 1 2 3 4 5 6 
#
# 1 104.4354 38.7762 16.3932 -8.5561 -6.2339 0.8035
# 2 38.7762 126.0123 2.8869 -7.6834 -0.3277 16.1083
# 3 16.3932 2.8869 71.4275 -8.2636 -19.7594 -0.4371
# 4 -8.5561 -7.6834 -8.2636 34.1157 -9.9241 4.0606
# 5 -6.2339 -0.3277 -19.7594 -9.9241 34.8415 -7.5614
# 6 0.8035 16.1083 -0.4371 4.0606 -7.5614 41.6475
#
#
#
# Elastic Compliance Matrix: (Units=1/GPa)
#
#
# Indices 1 2 3 4 5 6 
#
# 1 0.011417 -0.003505 -0.001705 0.002065 0.001905 0.001262
# 2 -0.003505 0.009606 0.000388 0.001642 -0.000702 -0.003931
# 3 -0.001705 0.000388 0.018887 0.007816 0.013001 0.001679
# 4 0.002065 0.001642 0.007816 0.036609 0.014930 -0.001452
# 5 0.001905 -0.000702 0.013001 0.014930 0.042084 0.006556
# 6 0.001262 -0.003931 0.001679 -0.001452 0.006556 0.026857
#
#
# Mechanical properties :
#
#
# Convention : Reuss Voigt Hill
#
# Bulk Modulus (GPa) = 33.04013 46.44310 39.74162
# Shear Modulus (GPa) = 30.26754 38.37552 34.32153
#
# Velocity S-wave (km/s) = 3.66218 4.12362 3.89973
# Velocity P-wave (km/s) = 5.70282 6.57657 6.15522
#
# Compressibility (1/GPa) = 0.03026623
#
# Stress axis : x y z
#
# Youngs Moduli (GPa) = 87.58551 104.09992 52.94665
#
# Poissons Ratio (x) = 0.36484 0.09028
# Poissons Ratio (y) = 0.30696 -0.02053
# Poissons Ratio (z) = 0.14935 -0.04036
#
# Static dielectric constant tensor:
#      x y z
#    x 1.882690 0.051560 0.005390 
#    y 0.051560 1.898210 -0.000370 
#    z 0.005390 -0.000370 1.805100 
# 
# From -- ./inp_files/274458.got.cif
#   From: 2010.05.17/outbox.cif.g08.bks.cpg/sg2_138_cif.got.tgz:274458.got - 2010.06.03 11:33:40.
