data_PCOD9111974
_publ_section_title
;
Structure prediction by ZEFSAII (Michael W. Deem and Ramdas Pophale) SiO2 
 PCOD9111974
Probable space group: P -1
;
_chemical_formula_sum "Si O2"
_cell_formula_units_Z 16
_cell_length_a 19.768978
_cell_length_b 14.300442
_cell_length_c 11.287297
_cell_angle_alpha 126.206293
_cell_angle_beta 33.316064
_cell_angle_gamma 151.010925
_cell_volume 721.934103
_symmetry_space_group_name_H-M "P -1"
_symmetry_group_IT_number 2
_symmetry_cell_setting 'triclinic'
loop_
_space_group_symop_operation_xyz
x,y,z
-x,-y,-z
loop_
_atom_site_type_symbol
_atom_site_label
_atom_site_fract_x
_atom_site_fract_y
_atom_site_fract_z
Si Si1 0.221201 0.437178 0.542839
Si Si2 0.392800 0.791137 0.177465
Si Si3 0.942954 0.547806 0.016370
Si Si4 0.937262 0.261364 0.378506
Si Si5 0.682257 0.693374 0.545726
Si Si6 0.625481 0.215243 0.531617
Si Si7 0.774044 0.587298 0.133010
Si Si8 0.876533 0.092084 0.582217
O O1 0.025588 0.314822 0.839613
O O2 0.353660 0.431592 0.393784
O O3 0.384846 0.683489 0.465555
O O4 0.087444 0.308281 0.519508
O O5 0.295019 0.843437 0.356210
O O6 0.451865 0.814857 0.246582
O O7 0.171446 0.531874 0.264363
O O8 0.631149 0.958596 0.879800
O O9 0.732944 0.437761 0.161454
O O10 0.000000 0.500000 0.000000
O O11 0.100478 0.611033 0.732899
O O12 0.923522 0.158296 0.426692
O O13 0.986703 0.241395 0.165304
O O14 0.785147 0.706060 0.292333
O O15 0.439292 0.557187 0.753310
O O16 0.847918 0.932097 0.523864
O O17 0.500000 0.000000 0.500000
#
# Coordination Sequence:
#
# PCOD9111974 Si02
#       8
#     2   2   2   2   2   2   2   2
#     4  10  22  42  65  98 136 175 228 281 330 401
#     4  11  23  41  65 100 139 171 222 279 346 406
#     4   9  19  37  66  93 127 171 212 279 334 388
#     4  11  23  42  67  96 141 174 220 284 336 407
#     4  10  23  42  69  97 132 185 229 274 326 401
#     4  11  21  40  63  98 133 172 218 278 344 398
#     4  10  20  44  65  94 137 173 229 278 326 399
#     4  12  23  42  67  99 134 184 227 271 343 394
#
# _framework density 22.162686999999998
#
# number of rings (size 3 to 8) (size 9 to 14) (size 15 to 20)
#    0.000    1.500    3.750    1.500    0.000    0.500 
#   13.500    6.250    0.000    0.000    0.000    0.000 
#    0.000    0.000    0.000    0.000    0.000    0.000 
#
# Total GULP energy -89114.116942 kJ/mol
# GULP energy per Si atom -5569.632309 kJ/mol
# Density = 2.211224 g / cm^3
# Si number density = 22.162687 Si / 1000 Ang^3
#
#
#
# Elastic Constant Matrix: (Units=GPa)
#
#
# Indices 1 2 3 4 5 6 
#
# 1 136.0485 24.4617 35.3846 1.0587 -22.3024 -31.0945
# 2 24.4617 71.8534 10.8912 10.5740 -12.3274 -18.6029
# 3 35.3846 10.8912 65.4397 18.1937 -0.9597 -7.3178
# 4 1.0587 10.5740 18.1937 20.0421 -1.5044 -3.4771
# 5 -22.3024 -12.3274 -0.9597 -1.5044 37.8607 11.3591
# 6 -31.0945 -18.6029 -7.3178 -3.4771 11.3591 28.1087
#
#
#
# Elastic Compliance Matrix: (Units=1/GPa)
#
#
# Indices 1 2 3 4 5 6 
#
# 1 0.012669 -0.000974 -0.008004 0.009288 0.004075 0.010788
# 2 -0.000974 0.018142 0.000970 -0.008635 0.002253 0.009202
# 3 -0.008004 0.000970 0.025827 -0.024333 -0.003825 -0.002953
# 4 0.009288 -0.008635 -0.024333 0.077419 0.003162 0.006524
# 5 0.004075 0.002253 -0.003825 0.003162 0.031814 -0.007462
# 6 0.010788 0.009202 -0.002953 0.006524 -0.007462 0.056654
#
#
# Mechanical properties :
#
#
# Convention : Reuss Voigt Hill
#
# Bulk Modulus (GPa) = 24.61806 46.09074 35.35440
# Shear Modulus (GPa) = 19.83488 30.70925 25.27206
#
# Velocity S-wave (km/s) = 2.99485 3.72644 3.38049
# Velocity P-wave (km/s) = 4.80529 6.27350 5.58783
#
# Compressibility (1/GPa) = 0.04062058
#
# Stress axis : x y z
#
# Youngs Moduli (GPa) = 78.93458 55.12138 38.71951
#
# Poissons Ratio (x) = 0.05371 0.30992
# Poissons Ratio (y) = 0.07692 -0.03758
# Poissons Ratio (z) = 0.63182 -0.05349
#
# Static dielectric constant tensor:
#      x y z
#    x 2.351050 0.422510 -0.141360 
#    y 0.422510 2.243760 -0.204120 
#    z -0.141360 -0.204120 1.919350 
# 
# From -- ./inp_files/471742.got.cif
#   From: 2010.05.17/outbox.cif.g08.bks.cpg/sg2_236_cif.got.tgz:471742.got - 2010.06.03 11:33:40.
