data_PCOD9112231
_publ_section_title
;
Structure prediction by ZEFSAII (Michael W. Deem and Ramdas Pophale) SiO2 
 PCOD9112231
Probable space group: P -1
;
_chemical_formula_sum "Si O2"
_cell_formula_units_Z 13
_cell_length_a 11.370993
_cell_length_b 8.658487
_cell_length_c 5.939676
_cell_angle_alpha 71.982312
_cell_angle_beta 78.084573
_cell_angle_gamma 70.309933
_cell_volume 520.174350
_symmetry_space_group_name_H-M "P -1"
_symmetry_group_IT_number 2
_symmetry_cell_setting 'triclinic'
loop_
_space_group_symop_operation_xyz
x,y,z
-x,-y,-z
loop_
_atom_site_type_symbol
_atom_site_label
_atom_site_fract_x
_atom_site_fract_y
_atom_site_fract_z
Si Si1 0.067630 0.646546 0.418887
Si Si2 0.334883 0.493047 0.137859
Si Si3 0.000000 0.000000 0.000000
Si Si4 0.211678 0.734721 0.702071
Si Si5 0.602084 0.825314 0.475920
Si Si6 0.413776 0.759787 0.245731
Si Si7 0.224330 0.019433 0.905304
O O1 0.205766 0.561556 0.298243
O O2 0.099416 0.694714 0.635290
O O3 0.000000 0.500000 0.500000
O O4 0.008686 0.819915 0.228194
O O5 0.382453 0.295764 0.260352
O O6 0.424408 0.590137 0.177183
O O7 0.292470 0.569704 0.877921
O O8 0.892407 0.944960 0.899997
O O9 0.309305 0.779916 0.473571
O O10 0.167360 0.888948 0.832802
O O11 0.540784 0.754921 0.322542
O O12 0.500000 0.000000 0.500000
O O13 0.730930 0.854587 0.327362
O O14 0.350518 0.911989 0.029986
#
# Coordination Sequence:
#
# PCOD9112231 Si02
#       7
#     2   2   1   2   2   2   2
#     4  11  24  45  67 101 136 185 236 284 353 409
#     4  10  23  45  64  98 141 177 227 284 353 412
#     4  12  22  46  74  94 138 186 228 288 348 412
#     4  10  20  45  65  92 139 173 224 283 342 413
#     4  12  24  42  70 105 135 181 231 285 345 418
#     4  10  21  45  67  94 138 182 219 281 350 402
#     4  11  23  44  66 101 136 174 234 279 343 407
#
# _framework density 24.991620000000001
#
# number of rings (size 3 to 8) (size 9 to 14) (size 15 to 20)
#    0.000    1.231    6.154    1.846    0.000    1.846 
#   16.615    0.000    0.000    0.000    0.000    0.000 
#    0.000    0.000    0.000    0.000    0.000    0.000 
#
# Total GULP energy -72570.987809 kJ/mol
# GULP energy per Si atom -5582.383678 kJ/mol
# Density = 2.493474 g / cm^3
# Si number density = 24.991620 Si / 1000 Ang^3
#
#
#
# Elastic Constant Matrix: (Units=GPa)
#
#
# Indices 1 2 3 4 5 6 
#
# 1 139.6141 39.4074 34.1980 -10.1611 -3.0839 34.8997
# 2 39.4074 114.8794 65.9021 -27.5276 13.6897 -3.6628
# 3 34.1980 65.9021 121.1484 -30.8119 10.8312 19.9379
# 4 -10.1611 -27.5276 -30.8119 59.7171 -4.9721 0.5872
# 5 -3.0839 13.6897 10.8312 -4.9721 43.0284 -4.8442
# 6 34.8997 -3.6628 19.9379 0.5872 -4.8442 54.2340
#
#
#
# Elastic Compliance Matrix: (Units=1/GPa)
#
#
# Indices 1 2 3 4 5 6 
#
# 1 0.009877 -0.003902 0.000393 0.000244 0.001128 -0.006665
# 2 -0.003902 0.015337 -0.007439 0.002313 -0.002338 0.006047
# 3 0.000393 -0.007439 0.014355 0.003984 -0.001457 -0.006206
# 4 0.000244 0.002313 0.003984 0.019959 0.000400 -0.001646
# 5 0.001128 -0.002338 -0.001457 0.000400 0.024687 0.001852
# 6 -0.006665 0.006047 -0.006206 -0.001646 0.001852 0.025601
#
#
# Mechanical properties :
#
#
# Convention : Reuss Voigt Hill
#
# Bulk Modulus (GPa) = 56.58827 72.73965 64.66396
# Shear Modulus (GPa) = 36.33684 47.13821 41.73753
#
# Velocity S-wave (km/s) = 3.81722 4.34771 4.09107
# Velocity P-wave (km/s) = 6.49001 7.37375 6.94595
#
# Compressibility (1/GPa) = 0.01767151
#
# Stress axis : x y z
#
# Youngs Moduli (GPa) = 101.25004 65.20368 69.66162
#
# Poissons Ratio (x) = 0.25440 -0.02735
# Poissons Ratio (y) = 0.39504 0.51823
# Poissons Ratio (z) = -0.03975 0.48507
#
# Static dielectric constant tensor:
#      x y z
#    x 3.715870 -1.196330 -1.137020 
#    y -1.196330 2.841480 0.858610 
#    z -1.137020 0.858610 2.836020 
# 
# From -- ./inp_files/23058.got.cif
#   From: 2010.05.17/outbox.cif.g08.bks.cpg/sg2_12_cif.got.tgz:23058.got - 2010.06.03 11:33:40.
