data_PCOD9112974
_publ_section_title
;
Structure prediction by ZEFSAII (Michael W. Deem and Ramdas Pophale) SiO2 
 PCOD9112974
Probable space group: P 2
;
_chemical_formula_sum "Si O2"
_cell_formula_units_Z 15
_cell_length_a 10.553588
_cell_length_b 9.179926
_cell_length_c 8.887895
_cell_angle_alpha 90.000000
_cell_angle_beta 48.424653
_cell_angle_gamma 90.000000
_cell_volume 644.152089
_symmetry_space_group_name_H-M "P 2"
_symmetry_group_IT_number 3
_symmetry_cell_setting 'monoclinic'
loop_
_space_group_symop_operation_xyz
x,y,z
-x,y,-z
loop_
_atom_site_type_symbol
_atom_site_label
_atom_site_fract_x
_atom_site_fract_y
_atom_site_fract_z
Si Si1 0.574891 0.029420 0.280087
Si Si2 0.785038 0.991577 0.565824
Si Si3 0.014343 0.440920 0.761441
Si Si4 0.227917 0.720792 0.607958
Si Si5 0.725628 0.344330 0.220319
Si Si6 0.315904 0.833311 0.068221
Si Si7 0.406492 0.624377 0.772628
Si Si8 0.000000 0.255100 0.500000
O O1 0.500000 0.972154 0.500000
O O2 0.667605 0.180499 0.241338
O O3 0.406269 0.043246 0.314234
O O4 0.690101 0.931111 0.079177
O O5 0.829591 0.881782 0.394485
O O6 0.801183 0.897365 0.708026
O O7 0.882397 0.140691 0.507351
O O8 0.078511 0.606372 0.692928
O O9 0.189655 0.366358 0.683652
O O10 0.937758 0.365158 0.675717
O O11 0.873487 0.405332 0.995846
O O12 0.292454 0.691186 0.726655
O O13 0.403172 0.689985 0.377522
O O14 0.579287 0.456304 0.285656
O O15 0.500000 0.845954 0.000000
O O16 0.316254 0.670230 0.999069
#
# Coordination Sequence:
#
# PCOD9112974 Si02
#       8
#     2   2   2   2   2   2   2   1
#     4  11  21  37  65  95 124 168 219 274 320 376
#     4  11  24  40  63  94 131 177 216 269 326 391
#     4  10  24  45  61  94 134 173 216 261 329 393
#     4  10  21  40  67  92 124 168 219 267 316 389
#     4  10  23  41  67  93 129 168 216 277 319 377
#     4  10  20  37  55  89 132 156 206 270 320 378
#     4  10  20  37  65  97 122 159 219 274 319 371
#     4  12  26  42  60  90 134 180 216 254 336 402
#
# _framework density 23.286425000000001
#
# number of rings (size 3 to 8) (size 9 to 14) (size 15 to 20)
#    0.000    1.600    2.667    2.400    5.600    2.667 
#    0.000    2.000    0.000    1.600    0.000    0.000 
#    0.000    0.000    0.000    0.000    0.000    0.000 
#
# Total GULP energy -83646.071548 kJ/mol
# GULP energy per Si atom -5576.404770 kJ/mol
# Density = 2.323342 g / cm^3
# Si number density = 23.286425 Si / 1000 Ang^3
#
#
#
# Elastic Constant Matrix: (Units=GPa)
#
#
# Indices 1 2 3 4 5 6 
#
# 1 41.5665 20.6733 1.7167 0.0000 -8.9501 0.0000
# 2 20.6733 95.0363 9.8918 0.0000 3.1013 0.0000
# 3 1.7167 9.8918 76.1798 0.0000 11.8931 0.0000
# 4 0.0000 0.0000 0.0000 36.3883 0.0000 4.7112
# 5 -8.9501 3.1013 11.8931 0.0000 29.5932 0.0000
# 6 0.0000 0.0000 0.0000 4.7112 0.0000 42.6372
#
#
#
# Elastic Compliance Matrix: (Units=1/GPa)
#
#
# Indices 1 2 3 4 5 6 
#
# 1 0.029612 -0.006629 -0.001401 0.000000 0.010213 0.000000
# 2 -0.006629 0.012160 -0.000979 0.000000 -0.002886 0.000000
# 3 -0.001401 -0.000979 0.014228 0.000000 -0.006039 0.000000
# 4 0.000000 0.000000 0.000000 0.027880 0.000000 -0.003081
# 5 0.010213 -0.002886 -0.006039 0.000000 0.039610 0.000000
# 6 0.000000 0.000000 0.000000 -0.003081 0.000000 0.023794
#
#
# Mechanical properties :
#
#
# Convention : Reuss Voigt Hill
#
# Bulk Modulus (GPa) = 26.32802 30.81625 28.57214
# Shear Modulus (GPa) = 28.09560 33.75712 30.92636
#
# Velocity S-wave (km/s) = 3.47727 3.81155 3.64824
# Velocity P-wave (km/s) = 5.23952 5.71252 5.48113
#
# Compressibility (1/GPa) = 0.03798234
#
# Stress axis : x y z
#
# Youngs Moduli (GPa) = 33.77037 82.23438 70.28193
#
# Poissons Ratio (x) = 0.54513 0.09847
# Poissons Ratio (y) = 0.22386 0.06881
# Poissons Ratio (z) = 0.04731 0.08052
#
# Static dielectric constant tensor:
#      x y z
#    x 1.922270 0.000000 -0.026310 
#    y 0.000000 1.897610 0.000000 
#    z -0.026310 0.000000 1.762810 
# 
# From -- ./inp_files/7148.got.cif
#   From: 2010.05.17/outbox.cif.g08.bks.cpg/sg3_4_cif.got.tgz:7148.got - 2010.06.03 18:33:08.
