data_PCOD9112369
_publ_section_title
;
Structure prediction by ZEFSAII (Michael W. Deem and Ramdas Pophale) SiO2 
 PCOD9112369
Probable space group: P -1
;
_chemical_formula_sum "Si O2"
_cell_formula_units_Z 15
_cell_length_a 9.650507
_cell_length_b 4.957311
_cell_length_c 14.184988
_cell_angle_alpha 71.013065
_cell_angle_beta 89.163705
_cell_angle_gamma 76.647381
_cell_volume 622.996014
_symmetry_space_group_name_H-M "P -1"
_symmetry_group_IT_number 2
_symmetry_cell_setting 'triclinic'
loop_
_space_group_symop_operation_xyz
x,y,z
-x,-y,-z
loop_
_atom_site_type_symbol
_atom_site_label
_atom_site_fract_x
_atom_site_fract_y
_atom_site_fract_z
Si Si1 0.227353 0.431433 0.229620
Si Si2 0.075849 0.601474 0.699427
Si Si3 0.738300 0.038513 0.248239
Si Si4 0.282330 0.573685 0.419771
Si Si5 0.398286 0.413269 0.930293
Si Si6 0.662760 0.022990 0.880217
Si Si7 0.000000 0.500000 0.500000
Si Si8 0.528394 0.881056 0.407196
O O1 0.290238 0.406365 0.338472
O O2 0.496273 0.768238 0.129624
O O3 0.066462 0.396358 0.240589
O O4 0.236281 0.753636 0.157683
O O5 0.147309 0.863200 0.696927
O O6 0.031007 0.616513 0.589786
O O7 0.192502 0.291185 0.748719
O O8 0.698937 0.286906 0.141338
O O9 0.598560 0.053503 0.311735
O O10 0.391019 0.779311 0.385069
O O11 0.341397 0.396476 0.534786
O O12 0.116056 0.675908 0.429995
O O13 0.685990 0.803871 0.817195
O O14 0.317395 0.188396 0.004825
O O15 0.500000 0.500000 0.000000
O O16 0.500000 0.000000 0.500000
#
# Coordination Sequence:
#
# PCOD9112369 Si02
#       8
#     2   2   2   2   2   2   1   2
#     4  11  25  45  76 105 149 191 251 305 374 452
#     4  11  26  48  74 109 146 208 244 303 369 450
#     4  12  28  48  73 107 154 188 252 313 373 441
#     4  10  24  42  68 106 144 196 247 301 371 444
#     4  11  27  48  79 108 143 195 247 308 394 446
#     4  11  25  47  74 110 138 192 243 312 370 452
#     4  10  20  50  70 104 152 204 250 294 358 456
#     4  11  25  42  66 107 147 193 246 309 375 431
#
# _framework density 24.077200999999999
#
# number of rings (size 3 to 8) (size 9 to 14) (size 15 to 20)
#    0.000    1.067    2.667    1.600   11.200    0.533 
#    2.400    4.000    0.000    0.000    0.000    0.000 
#    0.000    0.000    0.000    0.000    0.000    0.000 
#
# Total GULP energy -83724.270033 kJ/mol
# GULP energy per Si atom -5581.618002 kJ/mol
# Density = 2.402240 g / cm^3
# Si number density = 24.077201 Si / 1000 Ang^3
#
#
#
# Elastic Constant Matrix: (Units=GPa)
#
#
# Indices 1 2 3 4 5 6 
#
# 1 117.9163 48.2461 31.3946 15.7130 -27.8909 17.4650
# 2 48.2461 115.1841 17.2610 8.8979 -13.4438 -2.8622
# 3 31.3946 17.2610 78.5701 4.4638 -20.5634 -14.9883
# 4 15.7130 8.8979 4.4638 31.7232 2.2402 -1.5391
# 5 -27.8909 -13.4438 -20.5634 2.2402 40.4799 -2.9271
# 6 17.4650 -2.8622 -14.9883 -1.5391 -2.9271 34.2686
#
#
#
# Elastic Compliance Matrix: (Units=1/GPa)
#
#
# Indices 1 2 3 4 5 6 
#
# 1 0.015766 -0.004841 -0.005237 -0.006662 0.006204 -0.010499
# 2 -0.004841 0.010868 0.000487 -0.000601 0.000817 0.003631
# 3 -0.005237 0.000487 0.018713 -0.000106 0.006896 0.011479
# 4 -0.006662 -0.000601 -0.000106 0.035676 -0.006504 0.004345
# 5 0.006204 0.000817 0.006896 -0.006504 0.033292 0.002474
# 6 -0.010499 0.003631 0.011479 0.004345 0.002474 0.040262
#
#
# Mechanical properties :
#
#
# Convention : Reuss Voigt Hill
#
# Bulk Modulus (GPa) = 38.21593 56.16376 47.18984
# Shear Modulus (GPa) = 27.40012 35.61226 31.50619
#
# Velocity S-wave (km/s) = 3.37710 3.85006 3.62131
# Velocity P-wave (km/s) = 5.57791 6.56819 6.09320
#
# Compressibility (1/GPa) = 0.02616710
#
# Stress axis : x y z
#
# Youngs Moduli (GPa) = 63.42807 92.00909 53.43763
#
# Poissons Ratio (x) = 0.44542 0.27984
# Poissons Ratio (y) = 0.30706 -0.02605
# Poissons Ratio (z) = 0.33215 -0.04485
#
# Static dielectric constant tensor:
#      x y z
#    x 1.952640 -0.073020 0.053030 
#    y -0.073020 1.967550 -0.053350 
#    z 0.053030 -0.053350 1.953240 
# 
# From -- ./inp_files/551885.got.cif
#   From: 2010.05.17/outbox.cif.g08.bks.cpg/sg2_276_cif.got.tgz:551885.got - 2010.06.03 11:33:40.
