data_PCOD9112929
_publ_section_title
;
Structure prediction by ZEFSAII (Michael W. Deem and Ramdas Pophale) SiO2 
 PCOD9112929
Probable space group: P 2
;
_chemical_formula_sum "Si O2"
_cell_formula_units_Z 15
_cell_length_a 12.322080
_cell_length_b 5.178046
_cell_length_c 19.833102
_cell_angle_alpha 90.000000
_cell_angle_beta 141.684488
_cell_angle_gamma 90.000000
_cell_volume 784.560235
_symmetry_space_group_name_H-M "P 2"
_symmetry_group_IT_number 3
_symmetry_cell_setting 'monoclinic'
loop_
_space_group_symop_operation_xyz
x,y,z
-x,y,-z
loop_
_atom_site_type_symbol
_atom_site_label
_atom_site_fract_x
_atom_site_fract_y
_atom_site_fract_z
Si Si1 0.168520 0.130810 0.318606
Si Si2 0.730647 0.499132 0.511964
Si Si3 0.941854 0.751567 0.284924
Si Si4 0.379622 0.887842 0.008120
Si Si5 0.212527 0.472465 0.608989
Si Si6 0.500000 0.840757 0.500000
Si Si7 0.317943 0.977567 0.742673
Si Si8 0.158692 0.402873 0.873260
O O1 0.212041 0.266681 0.411337
O O2 0.046558 0.323234 0.215928
O O3 0.356788 0.016948 0.391416
O O4 0.043095 0.890334 0.273501
O O5 0.693936 0.426892 0.417788
O O6 0.593607 0.662538 0.489569
O O7 0.906045 0.669738 0.590823
O O8 0.814242 0.941305 0.259549
O O9 0.844573 0.506170 0.205827
O O10 0.495900 0.930628 0.131258
O O11 0.500000 0.835620 0.000000
O O12 0.249409 0.644688 0.954213
O O13 0.274494 0.150703 0.941528
O O14 0.265500 0.751593 0.664535
O O15 0.000000 0.445443 0.500000
O O16 0.285864 0.253538 0.694328
#
# Coordination Sequence:
#
# PCOD9112929 Si02
#       8
#     2   2   2   2   2   1   2   2
#     4  10  20  38  62  92 128 155 203 261 328 380
#     4  10  22  38  61  92 131 165 209 259 316 377
#     4  10  20  36  58  86 126 163 213 250 300 379
#     4  12  23  35  58  83 126 171 222 263 304 354
#     4  12  25  39  61  86 132 181 207 242 312 387
#     4  10  22  38  66  98 130 154 210 278 320 374
#     4  12  25  38  55  91 124 177 221 247 294 382
#     4  11  21  36  57  86 122 168 201 272 317 360
#
# _framework density 19.118988999999999
#
# number of rings (size 3 to 8) (size 9 to 14) (size 15 to 20)
#    0.000    1.067    4.000    2.800    7.467    0.000 
#    0.000    0.000    0.000    0.000    0.000    0.933 
#    8.000    0.000    0.000    0.000    0.000    0.000 
#
# Total GULP energy -83643.533429 kJ/mol
# GULP energy per Si atom -5576.235562 kJ/mol
# Density = 1.907547 g / cm^3
# Si number density = 19.118989 Si / 1000 Ang^3
#
#
#
# Elastic Constant Matrix: (Units=GPa)
#
#
# Indices 1 2 3 4 5 6 
#
# 1 55.4626 15.7391 33.7366 0.0000 8.4690 0.0000
# 2 15.7391 92.2173 25.1365 0.0000 13.1919 0.0000
# 3 33.7366 25.1365 99.3037 0.0000 10.6125 0.0000
# 4 0.0000 0.0000 0.0000 50.3697 0.0000 2.1398
# 5 8.4690 13.1919 10.6125 0.0000 17.7162 0.0000
# 6 0.0000 0.0000 0.0000 2.1398 0.0000 15.7965
#
#
#
# Elastic Compliance Matrix: (Units=1/GPa)
#
#
# Indices 1 2 3 4 5 6 
#
# 1 0.023607 -0.001227 -0.007052 0.000000 -0.006146 0.000000
# 2 -0.001227 0.012690 -0.001975 0.000000 -0.007680 0.000000
# 3 -0.007052 -0.001975 0.013300 0.000000 -0.003125 0.000000
# 4 0.000000 0.000000 0.000000 0.019968 0.000000 -0.002705
# 5 -0.006146 -0.007680 -0.003125 0.000000 0.066974 0.000000
# 6 0.000000 0.000000 0.000000 -0.002705 0.000000 0.063672
#
#
# Mechanical properties :
#
#
# Convention : Reuss Voigt Hill
#
# Bulk Modulus (GPa) = 34.37827 44.02314 39.20071
# Shear Modulus (GPa) = 21.69986 28.26790 24.98388
#
# Velocity S-wave (km/s) = 3.37262 3.84933 3.61883
# Velocity P-wave (km/s) = 5.76076 6.54464 6.16517
#
# Compressibility (1/GPa) = 0.02908814
#
# Stress axis : x y z
#
# Youngs Moduli (GPa) = 42.36056 78.80043 75.18871
#
# Poissons Ratio (x) = 0.09673 0.53026
# Poissons Ratio (y) = 0.05200 0.14846
# Poissons Ratio (z) = 0.29875 0.15559
#
# Static dielectric constant tensor:
#      x y z
#    x 1.664480 0.000000 0.021490 
#    y 0.000000 1.720320 0.000000 
#    z 0.021490 0.000000 1.718610 
# 
# From -- ./inp_files/12068.got.cif
#   From: 2010.05.17/outbox.cif.g08.bks.cpg/sg3_7_cif.got.tgz:12068.got - 2010.06.03 18:33:08.
