data_PCOD9112162
_publ_section_title
;
Structure prediction by ZEFSAII (Michael W. Deem and Ramdas Pophale) SiO2 
 PCOD9112162
Probable space group: P -1
;
_chemical_formula_sum "Si O2"
_cell_formula_units_Z 15
_cell_length_a 9.065815
_cell_length_b 15.795562
_cell_length_c 9.386706
_cell_angle_alpha 58.969314
_cell_angle_beta 138.959822
_cell_angle_gamma 96.438103
_cell_volume 658.497580
_symmetry_space_group_name_H-M "P -1"
_symmetry_group_IT_number 2
_symmetry_cell_setting 'triclinic'
loop_
_space_group_symop_operation_xyz
x,y,z
-x,-y,-z
loop_
_atom_site_type_symbol
_atom_site_label
_atom_site_fract_x
_atom_site_fract_y
_atom_site_fract_z
Si Si1 0.254053 0.880565 0.267130
Si Si2 0.500000 0.500000 0.000000
Si Si3 0.382220 0.440441 0.253025
Si Si4 0.941780 0.291666 0.817208
Si Si5 0.627314 0.972727 0.962122
Si Si6 0.118115 0.753033 0.614155
Si Si7 0.525647 0.815147 0.827960
Si Si8 0.927945 0.679684 0.804883
O O1 0.156932 0.794372 0.225742
O O2 0.411532 0.845975 0.558729
O O3 0.393209 0.913769 0.216958
O O4 0.000000 0.000000 0.000000
O O5 0.357666 0.457321 0.050407
O O6 0.731772 0.365528 0.258612
O O7 0.677159 0.411113 0.516826
O O8 0.306799 0.347272 0.330234
O O9 0.183114 0.555629 0.084310
O O10 0.173265 0.275536 0.897423
O O11 0.045590 0.268253 0.073596
O O12 0.918229 0.867130 0.287203
O O13 0.505111 0.922159 0.804655
O O14 0.500000 0.000000 0.000000
O O15 0.356012 0.770183 0.824166
O O16 0.952648 0.741716 0.630742
#
# Coordination Sequence:
#
# PCOD9112162 Si02
#       8
#     2   1   2   2   2   2   2   2
#     4  12  25  46  68  99 135 182 238 283 341 420
#     4  10  20  44  72  94 136 176 226 288 334 408
#     4  10  22  44  67 102 139 179 232 286 350 413
#     4  12  24  41  73  99 136 184 234 283 352 414
#     4  12  29  45  70 102 142 183 231 293 348 415
#     4  11  25  45  68 105 138 181 233 286 348 418
#     4  12  25  46  71 100 136 184 236 285 349 413
#     4  10  24  42  70 101 144 182 226 290 351 411
#
# _framework density 22.779128
#
# number of rings (size 3 to 8) (size 9 to 14) (size 15 to 20)
#    0.000    0.800    2.667    4.000    5.600    0.533 
#    0.000   14.667    0.000    0.000    0.000    0.000 
#    0.000    0.000    0.000    0.000    0.000    0.000 
#
# Total GULP energy -83586.987318 kJ/mol
# GULP energy per Si atom -5572.465821 kJ/mol
# Density = 2.272728 g / cm^3
# Si number density = 22.779128 Si / 1000 Ang^3
#
#
#
# Elastic Constant Matrix: (Units=GPa)
#
#
# Indices 1 2 3 4 5 6 
#
# 1 159.9620 41.8623 11.7905 4.7518 8.0492 12.8357
# 2 41.8623 69.3398 35.2241 3.9910 -5.3371 -0.3106
# 3 11.7905 35.2241 57.2065 -4.2669 25.3039 10.2105
# 4 4.7518 3.9910 -4.2669 34.3135 -3.8938 -4.2373
# 5 8.0492 -5.3371 25.3039 -3.8938 41.3796 -9.4170
# 6 12.8357 -0.3106 10.2105 -4.2373 -9.4170 44.5973
#
#
#
# Elastic Compliance Matrix: (Units=1/GPa)
#
#
# Indices 1 2 3 4 5 6 
#
# 1 0.011740 -0.018934 0.020258 -0.000712 -0.020012 -0.012442
# 2 -0.018934 0.069645 -0.075427 -0.002676 0.066980 0.037092
# 3 0.020258 -0.075427 0.109690 0.002918 -0.091990 -0.050616
# 4 -0.000712 -0.002676 0.002918 0.030421 0.001491 0.002724
# 5 -0.020012 0.066980 -0.091990 0.001491 0.104348 0.049463
# 6 -0.012442 0.037092 -0.050616 0.002724 0.049463 0.048554
#
#
# Mechanical properties :
#
#
# Convention : Reuss Voigt Hill
#
# Bulk Modulus (GPa) = 23.32700 51.58469 37.45585
# Shear Modulus (GPa) = 9.31285 37.23351 23.27318
#
# Velocity S-wave (km/s) = 2.02415 4.04734 3.19985
# Velocity P-wave (km/s) = 3.96556 6.67353 5.48916
#
# Compressibility (1/GPa) = 0.04286877
#
# Stress axis : x y z
#
# Youngs Moduli (GPa) = 85.18008 14.35861 9.11661
#
# Poissons Ratio (x) = 0.27186 -0.18469
# Poissons Ratio (y) = 1.61278 0.68764
# Poissons Ratio (z) = -1.72559 1.08303
#
# Static dielectric constant tensor:
#      x y z
#    x 1.887380 -0.024360 0.015260 
#    y -0.024360 1.846690 -0.023790 
#    z 0.015260 -0.023790 1.914130 
# 
# From -- ./inp_files/206100.got.cif
#   From: 2010.05.17/outbox.cif.g08.bks.cpg/sg2_104_cif.got.tgz:206100.got - 2010.06.03 11:33:40.
