data_PCOD9112698
_publ_section_title
;
Structure prediction by ZEFSAII (Michael W. Deem and Ramdas Pophale) SiO2 
 PCOD9112698
Probable space group: P 2
;
_chemical_formula_sum "Si O2"
_cell_formula_units_Z 13
_cell_length_a 8.690172
_cell_length_b 7.993333
_cell_length_c 15.752963
_cell_angle_alpha 90.000000
_cell_angle_beta 146.117044
_cell_angle_gamma 90.000000
_cell_volume 610.045156
_symmetry_space_group_name_H-M "P 2"
_symmetry_group_IT_number 3
_symmetry_cell_setting 'monoclinic'
loop_
_space_group_symop_operation_xyz
x,y,z
-x,y,-z
loop_
_atom_site_type_symbol
_atom_site_label
_atom_site_fract_x
_atom_site_fract_y
_atom_site_fract_z
Si Si1 0.439696 0.261530 0.350551
Si Si2 0.764210 0.912944 0.656750
Si Si3 0.627096 0.210447 0.875039
Si Si4 0.151290 0.842961 0.982640
Si Si5 0.500000 0.681365 0.000000
Si Si6 0.094579 0.402042 0.847633
Si Si7 0.959982 0.160958 0.325195
O O1 0.347282 0.255632 0.211109
O O2 0.237158 0.403073 0.295469
O O3 0.768404 0.258820 0.516317
O O4 0.347273 0.087257 0.352559
O O5 0.500000 0.819136 0.500000
O O6 0.922920 0.828342 0.805060
O O7 0.952062 0.975661 0.664531
O O8 0.300979 0.174435 0.734749
O O9 0.749932 0.353173 0.993450
O O10 0.776960 0.036222 0.965685
O O11 0.418979 0.774334 0.051644
O O12 0.000000 0.775853 0.000000
O O13 0.762080 0.558908 0.130224
O O14 0.147957 0.246638 0.810191
#
# Coordination Sequence:
#
# PCOD9112698 Si02
#       7
#     2   2   2   2   1   2   2
#     4  10  20  34  63  98 121 152 201 275 329 371
#     4   9  18  35  58  90 126 159 203 258 328 381
#     4  12  19  36  66  97 122 152 213 276 320 370
#     4  12  23  41  65  96 130 173 220 267 324 387
#     4  12  28  40  62  92 134 180 224 260 314 388
#     4  11  21  41  59  87 121 164 218 256 313 376
#     4  10  19  33  61  97 124 153 198 269 334 373
#
# _framework density 21.309896999999999
#
# number of rings (size 3 to 8) (size 9 to 14) (size 15 to 20)
#    0.000    1.231    6.154    3.231    0.000    1.231 
#    0.000    1.538    0.000    0.000    0.000    0.000 
#    0.000    0.000    0.000    0.000    0.000    0.000 
#
# Total GULP energy -72399.901899 kJ/mol
# GULP energy per Si atom -5569.223223 kJ/mol
# Density = 2.126139 g / cm^3
# Si number density = 21.309897 Si / 1000 Ang^3
#
#
#
# Elastic Constant Matrix: (Units=GPa)
#
#
# Indices 1 2 3 4 5 6 
#
# 1 130.6874 34.6706 47.7615 0.0000 16.7708 0.0000
# 2 34.6706 22.1710 19.1575 0.0000 2.7523 0.0000
# 3 47.7615 19.1575 135.5573 0.0000 9.5058 0.0000
# 4 0.0000 0.0000 0.0000 6.8029 0.0000 9.2562
# 5 16.7708 2.7523 9.5058 0.0000 47.7420 0.0000
# 6 0.0000 0.0000 0.0000 9.2562 0.0000 20.3953
#
#
#
# Elastic Compliance Matrix: (Units=1/GPa)
#
#
# Indices 1 2 3 4 5 6 
#
# 1 0.014077 -0.019946 -0.001901 0.000000 -0.003416 0.000000
# 2 -0.019946 0.079751 -0.004475 0.000000 0.003300 0.000000
# 3 -0.001901 -0.004475 0.008736 0.000000 -0.000814 0.000000
# 4 0.000000 0.000000 0.000000 0.384315 0.000000 -0.174418
# 5 -0.003416 0.003300 -0.000814 0.000000 0.022118 0.000000
# 6 0.000000 0.000000 0.000000 -0.174418 0.000000 0.128189
#
#
# Mechanical properties :
#
#
# Convention : Reuss Voigt Hill
#
# Bulk Modulus (GPa) = 20.03165 54.62165 37.32665
# Shear Modulus (GPa) = 7.07745 27.44311 17.26028
#
# Velocity S-wave (km/s) = 1.82439 3.59250 2.84908
# Velocity P-wave (km/s) = 3.72269 6.54949 5.32702
#
# Compressibility (1/GPa) = 0.04992101
#
# Stress axis : x y z
#
# Youngs Moduli (GPa) = 71.03994 12.53898 114.46535
#
# Poissons Ratio (x) = 0.25010 0.21763
# Poissons Ratio (y) = 1.41694 0.51218
# Poissons Ratio (z) = 0.13507 0.05611
#
# Static dielectric constant tensor:
#      x y z
#    x 1.859220 0.000000 0.067680 
#    y 0.000000 1.805380 0.000000 
#    z 0.067680 0.000000 1.817730 
# 
# From -- ./inp_files/15005.got.cif
#   From: 2010.05.17/outbox.cif.g08.bks.cpg/sg3_8_cif.got.tgz:15005.got - 2010.06.03 18:33:08.
