data_PCOD9112829
_publ_section_title
;
Structure prediction by ZEFSAII (Michael W. Deem and Ramdas Pophale) SiO2 
 PCOD9112829
Probable space group: P 2
;
_chemical_formula_sum "Si O2"
_cell_formula_units_Z 16
_cell_length_a 11.480260
_cell_length_b 7.771308
_cell_length_c 13.058461
_cell_angle_alpha 90.000000
_cell_angle_beta 45.324198
_cell_angle_gamma 90.000000
_cell_volume 828.450129
_symmetry_space_group_name_H-M "P 2"
_symmetry_group_IT_number 3
_symmetry_cell_setting 'monoclinic'
loop_
_space_group_symop_operation_xyz
x,y,z
-x,y,-z
loop_
_atom_site_type_symbol
_atom_site_label
_atom_site_fract_x
_atom_site_fract_y
_atom_site_fract_z
Si Si1 0.673162 0.063570 0.833813
Si Si2 0.997333 0.937508 0.269267
Si Si3 0.844044 0.417712 0.667683
Si Si4 0.947659 0.551303 0.274645
Si Si5 0.643338 0.572658 0.611695
Si Si6 0.094749 0.226616 0.837728
Si Si7 0.531005 0.267302 0.363609
Si Si8 0.675829 0.954919 0.599448
O O1 0.738376 0.255957 0.769578
O O2 0.819010 0.968522 0.804709
O O3 0.659830 0.981223 0.729962
O O4 0.500000 0.062499 0.000000
O O5 0.972896 0.750995 0.232968
O O6 0.864593 0.944995 0.444369
O O7 0.951560 0.089531 0.220415
O O8 0.736699 0.541742 0.661523
O O9 0.000000 0.362137 0.500000
O O10 0.916753 0.506267 0.723364
O O11 0.776525 0.530624 0.441383
O O12 0.944731 0.414551 0.185361
O O13 0.502641 0.432169 0.686290
O O14 0.596254 0.769978 0.624804
O O15 0.283353 0.209371 0.751504
O O16 0.000000 0.196429 0.000000
O O17 0.500000 0.316773 0.500000
O O18 0.411127 0.113816 0.403203
#
# Coordination Sequence:
#
# PCOD9112829 Si02
#       8
#     2   2   2   2   2   2   2   2
#     4  12  25  40  66  99 133 165 206 266 331 385
#     4  11  23  44  70  94 126 170 217 262 318 387
#     4  10  19  38  70  95 122 162 211 264 323 384
#     4  10  21  41  68  96 122 163 216 264 318 378
#     4  10  21  39  68 100 123 157 215 273 312 371
#     4  12  27  43  64  93 134 176 215 261 317 375
#     4  12  23  41  66  97 128 169 222 266 305 370
#     4  11  23  42  70  97 126 169 213 267 320 374
#
# _framework density 19.313171000000001
#
# number of rings (size 3 to 8) (size 9 to 14) (size 15 to 20)
#    0.000    1.000    5.000    1.875    1.750    4.000 
#    2.250    1.250    0.000    0.000    0.000    0.000 
#    0.000    0.000    0.000    0.000    0.000    0.000 
#
# Total GULP energy -89387.087711 kJ/mol
# GULP energy per Si atom -5586.692982 kJ/mol
# Density = 1.926921 g / cm^3
# Si number density = 19.313171 Si / 1000 Ang^3
#
#
#
# Elastic Constant Matrix: (Units=GPa)
#
#
# Indices 1 2 3 4 5 6 
#
# 1 87.2576 29.5384 21.0887 0.0000 -11.1853 0.0000
# 2 29.5384 115.4705 19.0857 0.0000 -0.1860 0.0000
# 3 21.0887 19.0857 85.0507 0.0000 -5.9640 0.0000
# 4 0.0000 0.0000 0.0000 0.5215 0.0000 0.8506
# 5 -11.1853 -0.1860 -5.9640 0.0000 19.9057 0.0000
# 6 0.0000 0.0000 0.0000 0.8506 0.0000 -5.5610
#
#
#
# Elastic Compliance Matrix: (Units=1/GPa)
#
#
# Indices 1 2 3 4 5 6 
#
# 1 0.014006 -0.003199 -0.002253 0.000000 0.007165 0.000000
# 2 -0.003199 0.009730 -0.001542 0.000000 -0.002169 0.000000
# 3 -0.002253 -0.001542 0.012842 0.000000 0.002568 0.000000
# 4 0.000000 0.000000 0.000000 1.534604 0.000000 0.234730
# 5 0.007165 -0.002169 0.002568 0.000000 0.055012 0.000000
# 6 0.000000 0.000000 0.000000 0.234730 0.000000 -0.143919
#
#
# Mechanical properties :
#
#
# Convention : Reuss Voigt Hill
#
# Bulk Modulus (GPa) = 44.26596 47.46718 45.86657
# Shear Modulus (GPa) = 3.32492 17.51097 10.41794
#
# Velocity S-wave (km/s) = 1.31351 3.01439 2.32507
# Velocity P-wave (km/s) = 5.02695 6.06188 5.56851
#
# Compressibility (1/GPa) = 0.02259072
#
# Stress axis : x y z
#
# Youngs Moduli (GPa) = 71.39705 102.77502 77.86727
#
# Poissons Ratio (x) = 0.32878 0.17540
# Poissons Ratio (y) = 0.22840 0.12010
# Poissons Ratio (z) = 0.16083 0.15851
#
# Static dielectric constant tensor:
#      x y z
#    x 1.663620 0.000000 0.002660 
#    y 0.000000 1.696150 0.000000 
#    z 0.002660 0.000000 1.622990 
# 
# From -- ./inp_files/11706.got.cif
#   From: 2010.05.17/outbox.cif.g08.bks.cpg/sg3_6_cif.got.tgz:11706.got - 2010.06.03 18:33:08.
