data_PCOD9112918
_publ_section_title
;
Structure prediction by ZEFSAII (Michael W. Deem and Ramdas Pophale) SiO2 
 PCOD9112918
Probable space group: P 2
;
_chemical_formula_sum "Si O2"
_cell_formula_units_Z 15
_cell_length_a 20.726925
_cell_length_b 8.924728
_cell_length_c 5.545836
_cell_angle_alpha 90.000000
_cell_angle_beta 139.189159
_cell_angle_gamma 90.000000
_cell_volume 670.478557
_symmetry_space_group_name_H-M "P 2"
_symmetry_group_IT_number 3
_symmetry_cell_setting 'monoclinic'
loop_
_space_group_symop_operation_xyz
x,y,z
-x,y,-z
loop_
_atom_site_type_symbol
_atom_site_label
_atom_site_fract_x
_atom_site_fract_y
_atom_site_fract_z
Si Si1 0.884295 0.923820 0.175250
Si Si2 0.357873 0.315653 0.110205
Si Si3 0.209303 0.235509 0.070455
Si Si4 0.396944 0.731062 0.840050
Si Si5 0.880117 0.767220 0.662354
Si Si6 0.399402 0.085524 0.860559
Si Si7 0.500000 0.548113 0.500000
Si Si8 0.239498 0.516071 0.431655
O O1 0.846876 0.839986 0.313100
O O2 0.000000 0.891404 0.500000
O O3 0.851521 0.869295 0.815494
O O4 0.867431 0.101196 0.156546
O O5 0.255204 0.284443 0.948138
O O6 0.435744 0.423186 0.468484
O O7 0.399512 0.161222 0.123845
O O8 0.326045 0.416745 0.794375
O O9 0.305133 0.157092 0.463010
O O10 0.179677 0.390462 0.115987
O O11 0.303238 0.642029 0.470112
O O12 0.385128 0.907759 0.820842
O O13 0.500000 0.697886 0.000000
O O14 0.420106 0.662857 0.167461
O O15 0.827591 0.609256 0.572732
O O16 0.000000 0.752764 0.000000
O O17 0.500000 0.118432 0.000000
#
# Coordination Sequence:
#
# PCOD9112918 Si02
#       8
#     2   2   2   2   2   2   1   2
#     4  10  24  45  72  98 132 177 223 278 337 407
#     4  10  22  37  58  88 125 169 214 267 337 395
#     4  11  23  39  63  91 131 171 220 275 339 402
#     4  10  21  37  57  84 123 162 224 268 328 391
#     4  10  23  47  71 100 133 175 225 277 340 401
#     4  10  22  38  58  89 123 171 224 273 325 404
#     4  10  20  36  54  80 120 164 206 270 328 382
#     4  10  23  39  61  95 128 171 216 275 337 402
#
# _framework density 22.372081999999999
#
# number of rings (size 3 to 8) (size 9 to 14) (size 15 to 20)
#    0.000    1.867    0.000    2.400    7.467    6.400 
#    7.200    0.000    0.000    0.000    0.000    0.000 
#    0.000    0.000    0.000    0.000    0.000    0.000 
#
# Total GULP energy -83560.988031 kJ/mol
# GULP energy per Si atom -5570.732535 kJ/mol
# Density = 2.232116 g / cm^3
# Si number density = 22.372082 Si / 1000 Ang^3
#
#
#
# Elastic Constant Matrix: (Units=GPa)
#
#
# Indices 1 2 3 4 5 6 
#
# 1 97.5670 56.7713 7.1339 0.0000 -5.7591 0.0000
# 2 56.7713 145.2364 3.4295 0.0000 -13.6087 0.0000
# 3 7.1339 3.4295 23.4673 0.0000 -8.5982 0.0000
# 4 0.0000 0.0000 0.0000 29.2013 0.0000 5.5872
# 5 -5.7591 -13.6087 -8.5982 0.0000 19.9819 0.0000
# 6 0.0000 0.0000 0.0000 5.5872 0.0000 46.0012
#
#
#
# Elastic Compliance Matrix: (Units=1/GPa)
#
#
# Indices 1 2 3 4 5 6 
#
# 1 0.013555 -0.005337 -0.003848 0.000000 -0.001384 0.000000
# 2 -0.005337 0.009472 0.002420 0.000000 0.005954 0.000000
# 3 -0.003848 0.002420 0.051791 0.000000 0.022825 0.000000
# 4 0.000000 0.000000 0.000000 0.035060 0.000000 -0.004258
# 5 -0.001384 0.005954 0.022825 0.000000 0.063523 0.000000
# 6 0.000000 0.000000 0.000000 -0.004258 0.000000 0.022256
#
#
# Mechanical properties :
#
#
# Convention : Reuss Voigt Hill
#
# Bulk Modulus (GPa) = 16.31641 44.54889 30.43265
# Shear Modulus (GPa) = 21.77554 32.29930 27.03742
#
# Velocity S-wave (km/s) = 3.12322 3.80377 3.48017
# Velocity P-wave (km/s) = 4.50722 6.26478 5.45722
#
# Compressibility (1/GPa) = 0.06128800
#
# Stress axis : x y z
#
# Youngs Moduli (GPa) = 73.77611 105.57080 19.30834
#
# Poissons Ratio (x) = 0.56344 0.07429
# Poissons Ratio (y) = 0.39375 -0.04672
# Poissons Ratio (z) = 0.28385 -0.25545
#
# Static dielectric constant tensor:
#      x y z
#    x 1.830730 0.000000 -0.129800 
#    y 0.000000 1.832970 0.000000 
#    z -0.129800 0.000000 1.900570 
# 
# From -- ./inp_files/3741.got.cif
#   From: 2010.05.17/outbox.cif.g08.bks.cpg/sg3_2_cif.got.tgz:3741.got - 2010.06.03 18:33:08.
