data_PCOD9112042
_publ_section_title
;
Structure prediction by ZEFSAII (Michael W. Deem and Ramdas Pophale) SiO2 
 PCOD9112042
Probable space group: P -1
;
_chemical_formula_sum "Si O2"
_cell_formula_units_Z 16
_cell_length_a 8.937706
_cell_length_b 11.706744
_cell_length_c 15.826474
_cell_angle_alpha 112.333845
_cell_angle_beta 50.923030
_cell_angle_gamma 142.347018
_cell_volume 760.132454
_symmetry_space_group_name_H-M "P -1"
_symmetry_group_IT_number 2
_symmetry_cell_setting 'triclinic'
loop_
_space_group_symop_operation_xyz
x,y,z
-x,-y,-z
loop_
_atom_site_type_symbol
_atom_site_label
_atom_site_fract_x
_atom_site_fract_y
_atom_site_fract_z
Si Si1 0.850967 0.056589 0.830756
Si Si2 0.320569 0.635318 0.467277
Si Si3 0.885192 0.058029 0.312268
Si Si4 0.009073 0.442558 0.771670
Si Si5 0.915004 0.153124 0.640634
Si Si6 0.669731 0.653404 0.611198
Si Si7 0.180759 0.706731 0.027466
Si Si8 0.727061 0.224865 0.314930
O O1 0.945670 0.117659 0.715549
O O2 0.968336 0.230477 0.892753
O O3 0.956915 0.976437 0.802309
O O4 0.489173 0.877648 0.915606
O O5 0.382908 0.519802 0.411394
O O6 0.311543 0.685655 0.578101
O O7 0.000000 0.500000 0.500000
O O8 0.568079 0.842839 0.392228
O O9 0.834903 0.155837 0.304222
O O10 0.093405 0.191504 0.357000
O O11 0.351494 0.567162 0.709178
O O12 0.034312 0.597938 0.784159
O O13 0.919427 0.303607 0.690880
O O14 0.780175 0.305083 0.890655
O O15 0.171936 0.243710 0.507175
O O16 0.593342 0.954932 0.664477
O O17 0.000000 0.500000 0.000000
#
# Coordination Sequence:
#
# PCOD9112042 Si02
#       8
#     2   2   2   2   2   2   2   2
#     4  10  24  41  67  93 119 158 208 260 309 368
#     4  12  23  39  57  88 130 178 209 245 299 368
#     4  12  25  40  60  93 128 172 208 243 307 375
#     4  11  25  39  64  96 122 163 209 262 308 365
#     4  11  22  40  59  93 127 163 204 256 307 362
#     4  12  23  39  62  92 133 167 209 251 302 367
#     4  10  20  44  68  90 118 154 208 264 314 358
#     4  12  24  38  59  88 132 171 204 249 308 368
#
# _framework density 21.048964999999999
#
# number of rings (size 3 to 8) (size 9 to 14) (size 15 to 20)
#    0.000    0.750    3.750    5.250    1.750    1.000 
#    0.000    0.625    0.000   10.500    0.000    0.000 
#    0.000    0.000    0.000    0.000    0.000    0.000 
#
# Total GULP energy -89439.729161 kJ/mol
# GULP energy per Si atom -5589.983073 kJ/mol
# Density = 2.100106 g / cm^3
# Si number density = 21.048965 Si / 1000 Ang^3
#
#
#
# Elastic Constant Matrix: (Units=GPa)
#
#
# Indices 1 2 3 4 5 6 
#
# 1 70.5388 51.8650 24.2215 4.7206 -3.2050 -19.4378
# 2 51.8650 163.8789 25.0510 12.2389 -5.4349 -12.0486
# 3 24.2215 25.0510 65.2582 -6.0775 3.4880 -9.9254
# 4 4.7206 12.2389 -6.0775 38.5681 -11.4247 2.5435
# 5 -3.2050 -5.4349 3.4880 -11.4247 11.1471 -0.4732
# 6 -19.4378 -12.0486 -9.9254 2.5435 -0.4732 53.5202
#
#
#
# Elastic Compliance Matrix: (Units=1/GPa)
#
#
# Indices 1 2 3 4 5 6 
#
# 1 0.021950 -0.005462 -0.005498 -0.000774 0.004821 0.005802
# 2 -0.005462 0.008190 -0.001385 -0.001847 0.000950 -0.000301
# 3 -0.005498 -0.001385 0.018561 0.002293 -0.005673 0.000975
# 4 -0.000774 -0.001847 0.002293 0.038080 0.037113 -0.001753
# 5 0.004821 0.000950 -0.005673 0.037113 0.131385 0.000311
# 6 0.005802 -0.000301 0.000975 -0.001753 0.000311 0.020991
#
#
# Mechanical properties :
#
#
# Convention : Reuss Voigt Hill
#
# Bulk Modulus (GPa) = 41.64721 55.77233 48.70977
# Shear Modulus (GPa) = 18.39248 33.88298 26.13773
#
# Velocity S-wave (km/s) = 2.95921 4.01649 3.52768
# Velocity P-wave (km/s) = 5.61291 6.93279 6.30747
#
# Compressibility (1/GPa) = 0.02401121
#
# Stress axis : x y z
#
# Youngs Moduli (GPa) = 45.55746 122.10224 53.87670
#
# Poissons Ratio (x) = 0.66695 0.29619
# Poissons Ratio (y) = 0.24885 0.07462
# Poissons Ratio (z) = 0.25046 0.16912
#
# Static dielectric constant tensor:
#      x y z
#    x 1.764220 -0.039110 0.016660 
#    y -0.039110 1.793430 -0.013280 
#    z 0.016660 -0.013280 1.833290 
# 
# From -- ./inp_files/353742.got.cif
#   From: 2010.05.17/outbox.cif.g08.bks.cpg/sg2_177_cif.got.tgz:353742.got - 2010.06.03 11:33:40.
