data_PCOD9112116
_publ_section_title
;
Structure prediction by ZEFSAII (Michael W. Deem and Ramdas Pophale) SiO2 
 PCOD9112116
Probable space group: P -1
;
_chemical_formula_sum "Si O2"
_cell_formula_units_Z 15
_cell_length_a 7.688992
_cell_length_b 16.960712
_cell_length_c 22.975422
_cell_angle_alpha 159.641071
_cell_angle_beta 143.255236
_cell_angle_gamma 44.937745
_cell_volume 609.919123
_symmetry_space_group_name_H-M "P -1"
_symmetry_group_IT_number 2
_symmetry_cell_setting 'triclinic'
loop_
_space_group_symop_operation_xyz
x,y,z
-x,-y,-z
loop_
_atom_site_type_symbol
_atom_site_label
_atom_site_fract_x
_atom_site_fract_y
_atom_site_fract_z
Si Si1 0.896876 0.676558 0.901277
Si Si2 0.408683 0.055783 0.912899
Si Si3 0.696635 0.456960 0.424492
Si Si4 0.036203 0.087749 0.136102
Si Si5 0.000000 0.500000 0.000000
Si Si6 0.807615 0.985411 0.295350
Si Si7 0.807407 0.182035 0.553867
Si Si8 0.447213 0.211092 0.591941
O O1 0.590725 0.567882 0.710362
O O2 0.010453 0.443079 0.784312
O O3 0.830920 0.802728 0.030083
O O4 0.051636 0.882843 0.043541
O O5 0.424503 0.068503 0.856758
O O6 0.324074 0.786221 0.718158
O O7 0.704626 0.145907 0.092472
O O8 0.000000 0.500000 0.500000
O O9 0.729279 0.676646 0.627723
O O10 0.000000 0.000000 0.000000
O O11 0.332755 0.571105 0.169995
O O12 0.920971 0.747412 0.172654
O O13 0.702356 0.085627 0.395464
O O14 0.091459 0.178326 0.480523
O O15 0.552460 0.187405 0.537284
O O16 0.000000 0.000000 0.500000
O O17 0.500000 0.000000 0.500000
#
# Coordination Sequence:
#
# PCOD9112116 Si02
#       8
#     2   2   2   2   1   2   2   2
#     4  11  25  44  70 104 140 185 240 287 354 427
#     4  11  24  43  69 104 138 184 236 286 356 435
#     4  11  21  43  73  97 136 183 227 292 353 420
#     4  11  25  44  70 107 142 180 234 290 358 429
#     4  10  20  44  70  94 134 174 236 288 338 418
#     4  11  26  44  69 102 140 186 233 291 363 412
#     4  12  25  47  71 101 145 184 241 297 342 426
#     4  10  22  45  71  94 131 185 230 290 357 404
#
# _framework density 24.593423999999999
#
# number of rings (size 3 to 8) (size 9 to 14) (size 15 to 20)
#    0.000    1.067    5.333    1.600    5.600    2.133 
#    0.000    6.000    0.000    0.000    0.000    0.000 
#    0.000    0.000    0.000    0.000    0.000    0.000 
#
# Total GULP energy -83626.404714 kJ/mol
# GULP energy per Si atom -5575.093648 kJ/mol
# Density = 2.453745 g / cm^3
# Si number density = 24.593424 Si / 1000 Ang^3
#
#
#
# Elastic Constant Matrix: (Units=GPa)
#
#
# Indices 1 2 3 4 5 6 
#
# 1 108.6291 8.8213 57.9929 -13.6909 -20.5044 22.7792
# 2 8.8213 87.6453 36.4931 7.3219 -4.9374 8.3674
# 3 57.9929 36.4931 180.9872 -2.5953 -29.7375 3.2037
# 4 -13.6909 7.3219 -2.5953 42.7215 -15.3120 -3.8669
# 5 -20.5044 -4.9374 -29.7375 -15.3120 39.1747 -9.9204
# 6 22.7792 8.3674 3.2037 -3.8669 -9.9204 32.3717
#
#
#
# Elastic Compliance Matrix: (Units=1/GPa)
#
#
# Indices 1 2 3 4 5 6 
#
# 1 0.014359 0.000680 -0.003723 0.005302 0.004877 -0.007784
# 2 0.000680 0.013407 -0.003451 -0.003983 -0.003430 -0.005129
# 3 -0.003723 -0.003451 0.008389 0.002587 0.006237 0.004902
# 4 0.005302 -0.003983 0.002587 0.033386 0.019024 0.006860
# 5 0.004877 -0.003430 0.006237 0.019024 0.042923 0.012264
# 6 -0.007784 -0.005129 0.004902 0.006860 0.012264 0.041787
#
#
# Mechanical properties :
#
#
# Convention : Reuss Voigt Hill
#
# Bulk Modulus (GPa) = 43.16488 64.87514 54.02001
# Shear Modulus (GPa) = 28.57761 41.11718 34.84740
#
# Velocity S-wave (km/s) = 3.41251 4.09330 3.76831
# Velocity P-wave (km/s) = 5.75469 6.98401 6.39894
#
# Compressibility (1/GPa) = 0.02316698
#
# Stress axis : x y z
#
# Youngs Moduli (GPa) = 69.64314 74.58584 119.20084
#
# Poissons Ratio (x) = -0.05070 0.44378
# Poissons Ratio (y) = -0.04734 0.41137
# Poissons Ratio (z) = 0.25928 0.25740
#
# Static dielectric constant tensor:
#      x y z
#    x 2.090590 -0.078310 0.013580 
#    y -0.078310 1.997350 -0.023290 
#    z 0.013580 -0.023290 1.959550 
# 
# From -- ./inp_files/608373.got.cif
#   From: 2010.05.17/outbox.cif.g08.bks.cpg/sg2_305_cif.got.tgz:608373.got - 2010.06.03 11:33:40.
