data_PCOD9112914
_publ_section_title
;
Structure prediction by ZEFSAII (Michael W. Deem and Ramdas Pophale) SiO2 
 PCOD9112914
Probable space group: P 2
;
_chemical_formula_sum "Si O2"
_cell_formula_units_Z 15
_cell_length_a 8.656223
_cell_length_b 9.540365
_cell_length_c 7.926078
_cell_angle_alpha 90.000000
_cell_angle_beta 77.931476
_cell_angle_gamma 90.000000
_cell_volume 640.096475
_symmetry_space_group_name_H-M "P 2"
_symmetry_group_IT_number 3
_symmetry_cell_setting 'monoclinic'
loop_
_space_group_symop_operation_xyz
x,y,z
-x,y,-z
loop_
_atom_site_type_symbol
_atom_site_label
_atom_site_fract_x
_atom_site_fract_y
_atom_site_fract_z
Si Si1 0.207747 0.688290 0.282646
Si Si2 0.237850 0.980641 0.439826
Si Si3 0.609360 0.434933 0.633124
Si Si4 0.664180 0.335781 0.120325
Si Si5 0.162242 0.245865 0.271902
Si Si6 0.500000 0.810016 0.000000
Si Si7 0.607318 0.020970 0.257004
Si Si8 0.948414 0.481068 0.205848
O O1 0.183777 0.828986 0.391286
O O2 0.282012 0.569795 0.384072
O O3 0.045373 0.616665 0.251794
O O4 0.356470 0.722480 0.121044
O O5 0.143374 0.087943 0.338416
O O6 0.424710 0.002895 0.356151
O O7 0.254384 0.988617 0.638936
O O8 0.500000 0.435939 0.500000
O O9 0.502664 0.415712 0.824868
O O10 0.722893 0.302897 0.610035
O O11 0.629790 0.183310 0.207059
O O12 0.767604 0.441571 0.212739
O O13 0.752403 0.285156 0.927254
O O14 0.012661 0.346239 0.292993
O O15 0.400240 0.912811 0.897759
O O16 0.000000 0.477157 0.000000
#
# Coordination Sequence:
#
# PCOD9112914 Si02
#       8
#     2   2   2   2   2   1   2   2
#     4  10  23  39  61  91 125 168 204 263 321 382
#     4  10  20  38  62  91 135 152 205 270 324 373
#     4  11  23  35  59  91 123 163 209 265 322 371
#     4  11  20  37  66  91 122 164 216 268 311 378
#     4  10  20  38  62  90 120 161 212 264 312 371
#     4  10  22  36  64  96 128 158 222 266 318 382
#     4  10  20  35  62 100 119 161 207 274 315 368
#     4   9  22  40  60  89 129 165 211 256 316 381
#
# _framework density 23.433966999999999
#
# number of rings (size 3 to 8) (size 9 to 14) (size 15 to 20)
#    0.000    1.867    1.333    2.800    9.333    0.000 
#    0.000    9.333    0.000    4.800    0.000    0.000 
#    0.000    0.000    0.000    0.000    0.000    0.000 
#
# Total GULP energy -83521.793668 kJ/mol
# GULP energy per Si atom -5568.119578 kJ/mol
# Density = 2.338063 g / cm^3
# Si number density = 23.433967 Si / 1000 Ang^3
#
#
#
# Elastic Constant Matrix: (Units=GPa)
#
#
# Indices 1 2 3 4 5 6 
#
# 1 78.1169 30.0080 18.5266 0.0000 4.3024 0.0000
# 2 30.0080 152.6281 28.0687 0.0000 16.2891 0.0000
# 3 18.5266 28.0687 88.6603 0.0000 13.8694 0.0000
# 4 0.0000 0.0000 0.0000 4.4588 0.0000 6.9961
# 5 4.3024 16.2891 13.8694 0.0000 34.6067 0.0000
# 6 0.0000 0.0000 0.0000 6.9961 0.0000 31.5275
#
#
#
# Elastic Compliance Matrix: (Units=1/GPa)
#
#
# Indices 1 2 3 4 5 6 
#
# 1 0.014249 -0.002416 -0.002255 0.000000 0.000269 0.000000
# 2 -0.002416 0.007584 -0.001477 0.000000 -0.002677 0.000000
# 3 -0.002255 -0.001477 0.012872 0.000000 -0.004183 0.000000
# 4 0.000000 0.000000 0.000000 0.344078 0.000000 -0.076352
# 5 0.000269 -0.002677 -0.004183 0.000000 0.031799 0.000000
# 6 0.000000 0.000000 0.000000 -0.076352 0.000000 0.048661
#
#
# Mechanical properties :
#
#
# Convention : Reuss Voigt Hill
#
# Bulk Modulus (GPa) = 44.62319 52.51243 48.56781
# Shear Modulus (GPa) = 10.43819 30.30539 20.37179
#
# Velocity S-wave (km/s) = 2.11281 3.60004 2.95163
# Velocity P-wave (km/s) = 5.00354 6.30379 5.69092
#
# Compressibility (1/GPa) = 0.02240987
#
# Stress axis : x y z
#
# Youngs Moduli (GPa) = 70.17938 131.85215 77.68612
#
# Poissons Ratio (x) = 0.31850 0.17517
# Poissons Ratio (y) = 0.16952 0.11478
# Poissons Ratio (z) = 0.15825 0.19481
#
# Static dielectric constant tensor:
#      x y z
#    x 1.985470 0.000000 -0.079510 
#    y 0.000000 1.867230 0.000000 
#    z -0.079510 0.000000 2.046770 
# 
# From -- ./inp_files/5595.got.cif
#   From: 2010.05.17/outbox.cif.g08.bks.cpg/sg3_3_cif.got.tgz:5595.got - 2010.06.03 18:33:08.
