data_PCOD9112608
_publ_section_title
;
Structure prediction by ZEFSAII (Michael W. Deem and Ramdas Pophale) SiO2 
 PCOD9112608
Probable space group: P 2
;
_chemical_formula_sum "Si O2"
_cell_formula_units_Z 14
_cell_length_a 9.048559
_cell_length_b 8.637478
_cell_length_c 7.694486
_cell_angle_alpha 90.000000
_cell_angle_beta 95.862713
_cell_angle_gamma 90.000000
_cell_volume 598.230364
_symmetry_space_group_name_H-M "P 2"
_symmetry_group_IT_number 3
_symmetry_cell_setting 'monoclinic'
loop_
_space_group_symop_operation_xyz
x,y,z
-x,y,-z
loop_
_atom_site_type_symbol
_atom_site_label
_atom_site_fract_x
_atom_site_fract_y
_atom_site_fract_z
Si Si1 0.000000 0.699620 0.500000
Si Si2 0.795066 0.310650 0.084084
Si Si3 0.301359 0.857810 0.587349
Si Si4 0.088118 0.427538 0.270156
Si Si5 0.408392 0.753989 0.220477
Si Si6 0.163581 0.976436 0.062289
Si Si7 0.837884 0.135949 0.560419
Si Si8 0.500000 0.474159 0.000000
O O1 0.865019 0.796391 0.401478
O O2 0.931458 0.592454 0.644026
O O3 0.846998 0.400166 0.913563
O O4 0.805372 0.126563 0.053710
O O5 0.630021 0.369683 0.096884
O O6 0.920524 0.358729 0.236217
O O7 0.349917 0.775778 0.411317
O O8 0.425080 0.821353 0.743235
O O9 0.285826 0.041669 0.557739
O O10 0.184936 0.315833 0.404203
O O11 0.292847 0.850761 0.090141
O O12 0.430735 0.586070 0.139529
O O13 0.156923 0.051691 0.252737
O O14 0.000000 0.912403 0.000000
O O15 0.000000 0.115078 0.500000
#
# Coordination Sequence:
#
# PCOD9112608 Si02
#       8
#     1   2   2   2   2   2   2   1
#     4  12  20  34  62  94 114 174 200 248 306 374
#     4  10  21  42  60  88 128 159 202 263 305 364
#     4  10  22  41  60  88 131 159 205 254 309 368
#     4  10  20  37  62  91 118 156 212 252 301 360
#     4  10  24  43  60  91 127 165 205 255 310 371
#     4  10  20  42  67  90 120 162 211 265 306 354
#     4  10  18  36  61  90 121 151 204 259 298 358
#     4  12  24  42  58  92 130 170 200 244 320 378
#
# _framework density 23.402355
#
# number of rings (size 3 to 8) (size 9 to 14) (size 15 to 20)
#    0.000    1.714    4.286    1.714    0.000    1.714 
#   10.286    0.000    0.000    1.714    0.000    0.000 
#    0.000    0.000    0.000    0.000    0.000    0.000 
#
# Total GULP energy -78252.740907 kJ/mol
# GULP energy per Si atom -5589.481493 kJ/mol
# Density = 2.334909 g / cm^3
# Si number density = 23.402355 Si / 1000 Ang^3
#
#
#
# Elastic Constant Matrix: (Units=GPa)
#
#
# Indices 1 2 3 4 5 6 
#
# 1 131.6509 66.1966 24.7370 0.0000 41.8285 0.0000
# 2 66.1966 75.6995 18.8959 0.0000 29.2749 0.0000
# 3 24.7370 18.8959 66.0382 0.0000 -0.2400 0.0000
# 4 0.0000 0.0000 0.0000 226.2449 0.0000 -58.0900
# 5 41.8285 29.2749 -0.2400 0.0000 58.7791 0.0000
# 6 0.0000 0.0000 0.0000 -58.0900 0.0000 55.1094
#
#
#
# Elastic Compliance Matrix: (Units=1/GPa)
#
#
# Indices 1 2 3 4 5 6 
#
# 1 0.015088 -0.010356 -0.002709 0.000000 -0.005590 0.000000
# 2 -0.010356 0.025079 -0.003316 0.000000 -0.005135 0.000000
# 3 -0.002709 -0.003316 0.017119 0.000000 0.003649 0.000000
# 4 0.000000 0.000000 0.000000 0.006060 0.000000 0.006388
# 5 -0.005590 -0.005135 0.003649 0.000000 0.023563 0.000000
# 6 0.000000 0.000000 0.000000 0.006388 0.000000 0.024879
#
#
# Mechanical properties :
#
#
# Convention : Reuss Voigt Hill
#
# Bulk Modulus (GPa) = 40.77288 54.78307 47.77797
# Shear Modulus (GPa) = 32.73835 78.93062 55.83449
#
# Velocity S-wave (km/s) = 3.74429 5.81385 4.88981
# Velocity P-wave (km/s) = 6.01276 8.27815 7.23468
#
# Compressibility (1/GPa) = 0.02452610
#
# Stress axis : x y z
#
# Youngs Moduli (GPa) = 66.27681 39.87329 58.41310
#
# Poissons Ratio (x) = 0.41293 0.15824
# Poissons Ratio (y) = 0.68636 0.19367
# Poissons Ratio (z) = 0.17954 0.13220
#
# Static dielectric constant tensor:
#      x y z
#    x 1.875690 0.000000 -0.078480 
#    y 0.000000 1.879230 0.000000 
#    z -0.078480 0.000000 1.851200 
# 
# From -- ./inp_files/5450.got.cif
#   From: 2010.05.17/outbox.cif.g08.bks.cpg/sg3_3_cif.got.tgz:5450.got - 2010.06.03 18:33:08.
