data_PCOD9112743
_publ_section_title
;
Structure prediction by ZEFSAII (Michael W. Deem and Ramdas Pophale) SiO2 
 PCOD9112743
Probable space group: P 2
;
_chemical_formula_sum "Si O2"
_cell_formula_units_Z 16
_cell_length_a 8.524022
_cell_length_b 18.541202
_cell_length_c 7.408542
_cell_angle_alpha 90.000000
_cell_angle_beta 143.138210
_cell_angle_gamma 90.000000
_cell_volume 702.399984
_symmetry_space_group_name_H-M "P 2"
_symmetry_group_IT_number 3
_symmetry_cell_setting 'monoclinic'
loop_
_space_group_symop_operation_xyz
x,y,z
-x,y,-z
loop_
_atom_site_type_symbol
_atom_site_label
_atom_site_fract_x
_atom_site_fract_y
_atom_site_fract_z
Si Si1 0.080918 0.199730 0.381784
Si Si2 0.231544 0.549908 0.860746
Si Si3 0.100446 0.400696 0.887887
Si Si4 0.040146 0.858989 0.822649
Si Si5 0.225084 0.707156 0.851430
Si Si6 0.567828 0.112540 0.776568
Si Si7 0.605958 0.338538 0.402539
Si Si8 0.472851 0.945642 0.694127
O O1 0.315782 0.145210 0.641681
O O2 0.239346 0.263396 0.426895
O O3 0.000000 0.230458 0.500000
O O4 0.837286 0.156691 0.065714
O O5 0.201853 0.481442 0.962141
O O6 0.244107 0.629189 0.965770
O O7 0.000000 0.546270 0.500000
O O8 0.500000 0.543435 0.000000
O O9 0.829816 0.389875 0.530829
O O10 0.330299 0.344338 0.044885
O O11 0.000000 0.387604 0.000000
O O12 0.108440 0.775825 0.847419
O O13 0.798038 0.903824 0.516552
O O14 0.301119 0.899680 0.009334
O O15 0.000000 0.864918 0.000000
O O16 0.000000 0.694197 0.500000
O O17 0.500000 0.721795 0.000000
O O18 0.500000 0.118513 0.500000
O O19 0.548094 0.028228 0.806779
O O20 0.500000 0.362799 0.500000
O O21 0.500000 0.943039 0.500000
#
# Coordination Sequence:
#
# PCOD9112743 Si02
#       8
#     2   2   2   2   2   2   2   2
#     4  12  25  41  61  91 125 155 196 256 309 358
#     4  10  21  37  58  84 118 158 197 239 292 359
#     4  10  21  38  61  87 114 146 193 247 291 343
#     4  10  19  35  59  85 113 149 196 249 294 343
#     4  10  21  37  55  82 120 158 196 238 292 359
#     4  11  23  42  66  87 116 163 207 245 302 377
#     4  10  22  40  61  86 117 154 193 237 296 366
#     4   9  19  36  59  86 113 147 198 249 294 351
#
# _framework density 22.779043999999999
#
# number of rings (size 3 to 8) (size 9 to 14) (size 15 to 20)
#    0.000    1.750    0.000    4.125    0.000    6.000 
#    0.000    6.250    0.000    9.000    0.000    0.000 
#    0.000    0.000    0.000    0.000    0.000    0.000 
#
# Total GULP energy -89173.345996 kJ/mol
# GULP energy per Si atom -5573.334125 kJ/mol
# Density = 2.272720 g / cm^3
# Si number density = 22.779044 Si / 1000 Ang^3
#
#
#
# Elastic Constant Matrix: (Units=GPa)
#
#
# Indices 1 2 3 4 5 6 
#
# 1 47.7574 27.5479 44.1780 0.0000 16.4492 0.0000
# 2 27.5479 175.8730 67.3316 0.0000 25.1044 0.0000
# 3 44.1780 67.3316 174.7474 0.0000 50.6367 0.0000
# 4 0.0000 0.0000 0.0000 32.1764 0.0000 6.5005
# 5 16.4492 25.1044 50.6367 0.0000 38.4362 0.0000
# 6 0.0000 0.0000 0.0000 6.5005 0.0000 53.1463
#
#
#
# Elastic Compliance Matrix: (Units=1/GPa)
#
#
# Indices 1 2 3 4 5 6 
#
# 1 0.028249 -0.001838 -0.005302 0.000000 -0.003904 0.000000
# 2 -0.001838 0.006848 -0.001789 0.000000 -0.001330 0.000000
# 3 -0.005302 -0.001789 0.010928 0.000000 -0.010959 0.000000
# 4 0.000000 0.000000 0.000000 0.031866 0.000000 -0.003898
# 5 -0.003904 -0.001330 -0.010959 0.000000 0.042994 0.000000
# 6 0.000000 0.000000 0.000000 -0.003898 0.000000 0.019293
#
#
# Mechanical properties :
#
#
# Convention : Reuss Voigt Hill
#
# Bulk Modulus (GPa) = 35.50185 75.16585 55.33385
# Shear Modulus (GPa) = 29.86418 42.03979 35.95198
#
# Velocity S-wave (km/s) = 3.62475 4.30064 3.97708
# Velocity P-wave (km/s) = 5.75653 7.59804 6.74047
#
# Compressibility (1/GPa) = 0.02816755
#
# Stress axis : x y z
#
# Youngs Moduli (GPa) = 35.40000 146.01902 91.50868
#
# Poissons Ratio (x) = 0.26832 0.48521
# Poissons Ratio (y) = 0.06505 0.16369
# Poissons Ratio (z) = 0.18770 0.26120
#
# Static dielectric constant tensor:
#      x y z
#    x 1.859720 0.000000 -0.047300 
#    y 0.000000 2.012850 0.000000 
#    z -0.047300 0.000000 1.967030 
# 
# From -- ./inp_files/6307.got.cif
#   From: 2010.05.17/outbox.cif.g08.bks.cpg/sg3_4_cif.got.tgz:6307.got - 2010.06.03 18:33:08.
