data_PCOD9112826
_publ_section_title
;
Structure prediction by ZEFSAII (Michael W. Deem and Ramdas Pophale) SiO2 
 PCOD9112826
Probable space group: P 2
;
_chemical_formula_sum "Si O2"
_cell_formula_units_Z 16
_cell_length_a 10.995537
_cell_length_b 8.827513
_cell_length_c 8.974959
_cell_angle_alpha 90.000000
_cell_angle_beta 59.442774
_cell_angle_gamma 90.000000
_cell_volume 750.156493
_symmetry_space_group_name_H-M "P 2"
_symmetry_group_IT_number 3
_symmetry_cell_setting 'monoclinic'
loop_
_space_group_symop_operation_xyz
x,y,z
-x,y,-z
loop_
_atom_site_type_symbol
_atom_site_label
_atom_site_fract_x
_atom_site_fract_y
_atom_site_fract_z
Si Si1 0.795563 0.257400 0.359853
Si Si2 0.194432 0.976976 0.984867
Si Si3 0.899943 0.930109 0.282566
Si Si4 0.123451 0.322885 0.070523
Si Si5 0.699668 0.513468 0.243313
Si Si6 0.454690 0.756829 0.858543
Si Si7 0.277777 0.702620 0.462029
Si Si8 0.166469 0.431401 0.367388
O O1 0.680474 0.346898 0.331998
O O2 0.785242 0.320601 0.532046
O O3 0.954738 0.300205 0.198242
O O4 0.806131 0.079052 0.366688
O O5 0.143814 0.899385 0.861754
O O6 0.337488 0.890010 0.933647
O O7 0.067248 0.952962 0.180440
O O8 0.188375 0.161168 0.974158
O O9 0.856354 0.805490 0.425846
O O10 0.183732 0.359567 0.195878
O O11 0.166875 0.468204 0.944357
O O12 0.600434 0.604454 0.191598
O O13 0.707575 0.615842 0.387809
O O14 0.587477 0.798974 0.671169
O O15 0.500000 0.728740 0.000000
O O16 0.249584 0.584715 0.347851
O O17 0.000000 0.459660 0.500000
#
# Coordination Sequence:
#
# PCOD9112826 Si02
#       8
#     2   2   2   2   2   2   2   2
#     4   9  19  36  65  98 127 166 216 282 336 386
#     4  10  22  40  67 101 130 170 219 284 335 390
#     4  10  20  40  69 102 127 162 228 280 333 389
#     4  10  19  38  66  95 134 163 218 280 337 392
#     4  11  21  37  63  87 120 171 219 265 319 386
#     4  12  27  45  61  91 138 181 219 268 338 399
#     4  11  24  42  64  93 135 178 219 270 326 399
#     4   9  20  38  61  98 133 172 219 274 338 389
#
# _framework density 21.328880999999999
#
# number of rings (size 3 to 8) (size 9 to 14) (size 15 to 20)
#    0.000    1.750    2.500    1.500    0.000    6.000 
#    0.000    8.750    0.000    0.000    0.000    0.000 
#    0.000    0.000    0.000    0.000    0.000    0.000 
#
# Total GULP energy -89090.534749 kJ/mol
# GULP energy per Si atom -5568.158422 kJ/mol
# Density = 2.128034 g / cm^3
# Si number density = 21.328881 Si / 1000 Ang^3
#
#
#
# Elastic Constant Matrix: (Units=GPa)
#
#
# Indices 1 2 3 4 5 6 
#
# 1 59.6742 30.0555 27.8866 0.0000 12.7795 0.0000
# 2 30.0555 64.7145 41.5094 0.0000 -6.3256 0.0000
# 3 27.8866 41.5094 88.9273 0.0000 -0.2260 0.0000
# 4 0.0000 0.0000 0.0000 6.0345 0.0000 -2.3969
# 5 12.7795 -6.3256 -0.2260 0.0000 29.6040 0.0000
# 6 0.0000 0.0000 0.0000 -2.3969 0.0000 30.1751
#
#
#
# Elastic Compliance Matrix: (Units=1/GPa)
#
#
# Indices 1 2 3 4 5 6 
#
# 1 0.027395 -0.012281 -0.002895 0.000000 -0.014472 0.000000
# 2 -0.012281 0.028216 -0.009291 0.000000 0.011259 0.000000
# 3 -0.002895 -0.009291 0.016488 0.000000 -0.000610 0.000000
# 4 0.000000 0.000000 0.000000 0.171112 0.000000 0.013592
# 5 -0.014472 0.011259 -0.000610 0.000000 0.042428 0.000000
# 6 0.000000 0.000000 0.000000 0.013592 0.000000 0.034219
#
#
# Mechanical properties :
#
#
# Convention : Reuss Voigt Hill
#
# Bulk Modulus (GPa) = 43.16713 45.80211 44.48462
# Shear Modulus (GPa) = 13.27970 20.75371 17.01671
#
# Velocity S-wave (km/s) = 2.49793 3.12273 2.82764
# Velocity P-wave (km/s) = 5.34811 5.87561 5.61806
#
# Compressibility (1/GPa) = 0.02316577
#
# Stress axis : x y z
#
# Youngs Moduli (GPa) = 36.50275 35.44084 60.64906
#
# Poissons Ratio (x) = 0.43524 0.17559
# Poissons Ratio (y) = 0.44828 0.56349
# Poissons Ratio (z) = 0.10568 0.32928
#
# Static dielectric constant tensor:
#      x y z
#    x 1.801210 0.000000 0.003810 
#    y 0.000000 1.786300 0.000000 
#    z 0.003810 0.000000 1.796450 
# 
# From -- ./inp_files/7436.got.cif
#   From: 2010.05.17/outbox.cif.g08.bks.cpg/sg3_4_cif.got.tgz:7436.got - 2010.06.03 18:33:08.
