data_PCOD9112686
_publ_section_title
;
Structure prediction by ZEFSAII (Michael W. Deem and Ramdas Pophale) SiO2 
 PCOD9112686
Probable space group: P 2
;
_chemical_formula_sum "Si O2"
_cell_formula_units_Z 16
_cell_length_a 8.796878
_cell_length_b 18.742266
_cell_length_c 7.802345
_cell_angle_alpha 90.000000
_cell_angle_beta 144.716945
_cell_angle_gamma 90.000000
_cell_volume 743.045149
_symmetry_space_group_name_H-M "P 2"
_symmetry_group_IT_number 3
_symmetry_cell_setting 'monoclinic'
loop_
_space_group_symop_operation_xyz
x,y,z
-x,y,-z
loop_
_atom_site_type_symbol
_atom_site_label
_atom_site_fract_x
_atom_site_fract_y
_atom_site_fract_z
Si Si1 0.379977 0.737600 0.198985
Si Si2 0.448881 0.056860 0.659449
Si Si3 0.095781 0.810313 0.403720
Si Si4 0.219228 0.457592 0.833563
Si Si5 0.480088 0.219363 0.689952
Si Si6 0.953769 0.968463 0.163364
Si Si7 0.725229 0.583611 0.846679
Si Si8 0.022911 0.310189 0.813934
O O1 0.500000 0.733864 0.500000
O O2 0.357882 0.654875 0.125775
O O3 0.597845 0.789638 0.317891
O O4 0.092326 0.770134 0.904816
O O5 0.500000 0.058895 0.500000
O O6 0.460109 0.138029 0.732770
O O7 0.160872 0.026106 0.420141
O O8 0.665525 0.001183 0.927718
O O9 0.029924 0.893175 0.314937
O O10 0.000000 0.786315 0.500000
O O11 0.101668 0.384539 0.802056
O O12 0.000000 0.485271 0.500000
O O13 0.500000 0.445842 0.000000
O O14 0.250621 0.515674 0.010611
O O15 0.500000 0.215736 0.500000
O O16 0.239616 0.273314 0.499719
O O17 0.743767 0.254472 0.000660
O O18 0.000000 0.960483 0.000000
O O19 0.500000 0.569647 0.500000
O O20 0.000000 0.597761 0.000000
O O21 0.000000 0.320000 0.000000
#
# Coordination Sequence:
#
# PCOD9112686 Si02
#       8
#     2   2   2   2   2   2   2   2
#     4  11  23  43  67  92 120 158 206 255 306 367
#     4   9  17  30  53  85 115 145 197 260 308 349
#     4  12  25  40  61  91 128 165 202 251 307 370
#     4  12  26  42  63  94 131 168 205 256 311 372
#     4   9  17  31  55  87 116 149 200 261 309 353
#     4  10  19  33  55  82 115 158 201 248 302 363
#     4  11  24  45  70  95 123 161 208 260 311 371
#     4  10  20  36  60  86 118 160 205 251 304 365
#
# _framework density 21.533011999999999
#
# number of rings (size 3 to 8) (size 9 to 14) (size 15 to 20)
#    0.000    1.500    0.000    6.375    0.000    7.000 
#    0.000    0.000    0.000    7.500    0.000    0.000 
#    0.000    0.000    0.000    0.000    0.000    0.000 
#
# Total GULP energy -89423.353068 kJ/mol
# GULP energy per Si atom -5588.959567 kJ/mol
# Density = 2.148400 g / cm^3
# Si number density = 21.533012 Si / 1000 Ang^3
#
#
#
# Elastic Constant Matrix: (Units=GPa)
#
#
# Indices 1 2 3 4 5 6 
#
# 1 39.8030 23.2203 30.4154 0.0000 7.4416 0.0000
# 2 23.2203 134.5611 21.7024 0.0000 -4.1892 0.0000
# 3 30.4154 21.7024 106.8093 0.0000 16.1173 0.0000
# 4 0.0000 0.0000 0.0000 90.3359 0.0000 -72.4425
# 5 7.4416 -4.1892 16.1173 0.0000 24.5340 0.0000
# 6 0.0000 0.0000 0.0000 -72.4425 0.0000 102.3225
#
#
#
# Elastic Compliance Matrix: (Units=1/GPa)
#
#
# Indices 1 2 3 4 5 6 
#
# 1 0.035418 -0.004996 -0.008126 0.000000 -0.006257 0.000000
# 2 -0.004996 0.008540 -0.000845 0.000000 0.003529 0.000000
# 3 -0.008126 -0.000845 0.012763 0.000000 -0.006064 0.000000
# 4 0.000000 0.000000 0.000000 0.025610 0.000000 0.018131
# 5 -0.006257 0.003529 -0.006064 0.000000 0.047244 0.000000
# 6 0.000000 0.000000 0.000000 0.018131 0.000000 0.022609
#
#
# Mechanical properties :
#
#
# Convention : Reuss Voigt Hill
#
# Bulk Modulus (GPa) = 34.73864 47.98329 41.36096
# Shear Modulus (GPa) = 26.35540 57.16083 41.75811
#
# Velocity S-wave (km/s) = 3.50230 5.15784 4.40848
# Velocity P-wave (km/s) = 5.70286 7.60283 6.72033
#
# Compressibility (1/GPa) = 0.02878639
#
# Stress axis : x y z
#
# Youngs Moduli (GPa) = 28.23425 117.09831 78.34948
#
# Poissons Ratio (x) = 0.58502 0.63670
# Poissons Ratio (y) = 0.14106 0.06620
# Poissons Ratio (z) = 0.22944 0.09894
#
# Static dielectric constant tensor:
#      x y z
#    x 1.834900 0.000000 -0.021080 
#    y 0.000000 1.758040 0.000000 
#    z -0.021080 0.000000 1.760350 
# 
# From -- ./inp_files/6257.got.cif
#   From: 2010.05.17/outbox.cif.g08.bks.cpg/sg3_4_cif.got.tgz:6257.got - 2010.06.03 18:33:08.
