data_PCOD9112062
_publ_section_title
;
Structure prediction by ZEFSAII (Michael W. Deem and Ramdas Pophale) SiO2 
 PCOD9112062
Probable space group: P -1
;
_chemical_formula_sum "Si O2"
_cell_formula_units_Z 16
_cell_length_a 11.367546
_cell_length_b 9.604168
_cell_length_c 9.056149
_cell_angle_alpha 52.695538
_cell_angle_beta 75.972860
_cell_angle_gamma 80.634623
_cell_volume 762.836212
_symmetry_space_group_name_H-M "P -1"
_symmetry_group_IT_number 2
_symmetry_cell_setting 'triclinic'
loop_
_space_group_symop_operation_xyz
x,y,z
-x,-y,-z
loop_
_atom_site_type_symbol
_atom_site_label
_atom_site_fract_x
_atom_site_fract_y
_atom_site_fract_z
Si Si1 0.911014 0.666781 0.914149
Si Si2 0.560733 0.326109 0.658838
Si Si3 0.339354 0.208562 0.011292
Si Si4 0.724330 0.925173 0.175365
Si Si5 0.979488 0.667132 0.569783
Si Si6 0.201712 0.478222 0.510692
Si Si7 0.467390 0.986354 0.345333
Si Si8 0.036533 0.983233 0.831207
O O1 0.771110 0.653418 0.016126
O O2 0.919424 0.721970 0.705644
O O3 0.976013 0.815704 0.891166
O O4 0.000000 0.500000 0.000000
O O5 0.500000 0.500000 0.500000
O O6 0.690402 0.389199 0.636764
O O7 0.578586 0.193746 0.599898
O O8 0.462255 0.261003 0.852011
O O9 0.378567 0.132132 0.207015
O O10 0.279461 0.067203 0.007195
O O11 0.746958 0.715477 0.334843
O O12 0.595939 0.996972 0.219275
O O13 0.819048 0.021187 0.189084
O O14 0.882602 0.550801 0.587129
O O15 0.000390 0.841800 0.357268
O O16 0.106228 0.557922 0.607854
O O17 0.500000 0.000000 0.500000
O O18 0.000000 0.000000 0.000000
#
# Coordination Sequence:
#
# PCOD9112062 Si02
#       8
#     2   2   2   2   2   2   2   2
#     4  12  27  46  68 103 144 174 228 287 339 400
#     4  11  22  42  75  94 130 181 225 273 337 409
#     4  11  24  44  69  98 134 181 226 271 338 405
#     4  10  20  44  68  96 136 174 229 273 335 408
#     4  10  25  42  69 101 138 178 222 288 335 401
#     4  10  21  41  73 100 133 173 233 271 348 395
#     4  11  26  43  65  98 138 175 221 286 332 394
#     4  11  24  42  72  98 134 183 225 274 341 412
#
# _framework density 20.974359
#
# number of rings (size 3 to 8) (size 9 to 14) (size 15 to 20)
#    0.000    1.250    3.750    2.625    8.750    2.000 
#    0.000    1.250    0.000    0.000    0.000    0.000 
#    0.000    0.000    0.000    0.000    0.000    0.000 
#
# Total GULP energy -89216.064951 kJ/mol
# GULP energy per Si atom -5576.004059 kJ/mol
# Density = 2.092662 g / cm^3
# Si number density = 20.974359 Si / 1000 Ang^3
#
#
#
# Elastic Constant Matrix: (Units=GPa)
#
#
# Indices 1 2 3 4 5 6 
#
# 1 142.2823 58.8274 29.5569 -8.5715 0.3850 -1.3448
# 2 58.8274 106.8061 42.4595 13.4704 -3.2389 8.8476
# 3 29.5569 42.4595 90.4258 16.5519 14.8904 5.2279
# 4 -8.5715 13.4704 16.5519 34.7093 -0.1168 -2.5379
# 5 0.3850 -3.2389 14.8904 -0.1168 32.2398 -4.6563
# 6 -1.3448 8.8476 5.2279 -2.5379 -4.6563 38.3473
#
#
#
# Elastic Compliance Matrix: (Units=1/GPa)
#
#
# Indices 1 2 3 4 5 6 
#
# 1 0.010185 -0.005765 -0.001923 0.005847 0.000556 0.002404
# 2 -0.005765 0.015468 -0.004774 -0.005363 0.003365 -0.003067
# 3 -0.001923 -0.004774 0.016760 -0.006845 -0.008620 -0.002751
# 4 0.005847 -0.005363 -0.006845 0.035990 0.003430 0.005174
# 5 0.000556 0.003365 -0.008620 0.003430 0.036068 0.005025
# 6 0.002404 -0.003067 -0.002751 0.005174 0.005025 0.028197
#
#
# Mechanical properties :
#
#
# Convention : Reuss Voigt Hill
#
# Bulk Modulus (GPa) = 57.17651 66.80021 61.98836
# Shear Modulus (GPa) = 28.83144 34.97064 31.90104
#
# Velocity S-wave (km/s) = 3.71159 4.08769 3.90417
# Velocity P-wave (km/s) = 6.75923 7.36184 7.06696
#
# Compressibility (1/GPa) = 0.01748970
#
# Stress axis : x y z
#
# Youngs Moduli (GPa) = 98.18636 64.64825 59.66497
#
# Poissons Ratio (x) = 0.37269 0.11473
# Poissons Ratio (y) = 0.56604 0.28484
# Poissons Ratio (z) = 0.18880 0.30863
#
# Static dielectric constant tensor:
#      x y z
#    x 1.293150 0.001500 0.030390 
#    y 0.001500 1.701020 0.034590 
#    z 0.030390 0.034590 1.775090 
# 
# From -- ./inp_files/237095.got.cif
#   From: 2010.05.17/outbox.cif.g08.bks.cpg/sg2_119_cif.got.tgz:237095.got - 2010.06.03 11:33:40.
