data_PCOD9112639
_publ_section_title
;
Structure prediction by ZEFSAII (Michael W. Deem and Ramdas Pophale) SiO2 
 PCOD9112639
Probable space group: P 2
;
_chemical_formula_sum "Si O2"
_cell_formula_units_Z 16
_cell_length_a 14.944756
_cell_length_b 4.945800
_cell_length_c 21.407726
_cell_angle_alpha 90.000000
_cell_angle_beta 149.275783
_cell_angle_gamma 90.000000
_cell_volume 808.420238
_symmetry_space_group_name_H-M "P 2"
_symmetry_group_IT_number 3
_symmetry_cell_setting 'monoclinic'
loop_
_space_group_symop_operation_xyz
x,y,z
-x,y,-z
loop_
_atom_site_type_symbol
_atom_site_label
_atom_site_fract_x
_atom_site_fract_y
_atom_site_fract_z
Si Si1 0.801589 0.342790 0.889335
Si Si2 0.709930 0.159211 0.996447
Si Si3 0.582319 0.330810 0.635102
Si Si4 0.103366 0.107828 0.258056
Si Si5 0.389210 0.813438 0.565311
Si Si6 0.627265 0.833425 0.828565
Si Si7 0.055969 0.604881 0.312497
Si Si8 0.666564 0.660365 0.056618
O O1 0.704360 0.402806 0.766893
O O2 0.710445 0.536416 0.885823
O O3 0.770251 0.025992 0.880851
O O4 0.000000 0.411594 0.000000
O O5 0.664470 0.451545 0.997021
O O6 0.921901 0.152769 0.110168
O O7 0.678336 0.959801 0.035854
O O8 0.603412 0.008900 0.876985
O O9 0.716961 0.201483 0.666811
O O10 0.477539 0.609999 0.566988
O O11 0.441994 0.107470 0.572300
O O12 0.085265 0.300222 0.307425
O O13 0.097442 0.798694 0.277291
O O14 0.469835 0.803591 0.683970
O O15 0.188593 0.718972 0.443500
O O16 0.850570 0.623342 0.203022
O O17 0.500000 0.620754 0.000000
#
# Coordination Sequence:
#
# PCOD9112639 Si02
#       8
#     2   2   2   2   2   2   2   2
#     4  10  19  30  46  69 102 144 187 224 257 291
#     4  10  20  35  56  81 107 132 168 217 270 317
#     4  10  20  31  46  71 104 144 186 220 249 294
#     4  10  20  32  50  75 104 140 181 223 260 296
#     4  10  21  34  48  72 105 146 184 210 252 305
#     4  10  20  33  50  73 103 141 178 216 260 313
#     4  10  21  35  52  75 103 138 174 216 269 319
#     4  10  21  38  60  84 104 127 164 216 278 335
#
# _framework density 19.791685999999999
#
# number of rings (size 3 to 8) (size 9 to 14) (size 15 to 20)
#    0.000    2.000    0.000    3.750    0.000    7.000 
#    0.000    0.000    0.000    0.750    0.000    1.750 
#    0.000    0.000    0.000    0.000    0.000    0.000 
#
# Total GULP energy -89177.322263 kJ/mol
# GULP energy per Si atom -5573.582641 kJ/mol
# Density = 1.974664 g / cm^3
# Si number density = 19.791686 Si / 1000 Ang^3
#
#
#
# Elastic Constant Matrix: (Units=GPa)
#
#
# Indices 1 2 3 4 5 6 
#
# 1 53.4602 -3.3693 54.6969 0.0000 14.8096 0.0000
# 2 -3.3693 75.9991 23.6911 0.0000 4.5218 0.0000
# 3 54.6969 23.6911 126.0023 0.0000 10.1344 0.0000
# 4 0.0000 0.0000 0.0000 24.5325 0.0000 -5.0955
# 5 14.8096 4.5218 10.1344 0.0000 22.5220 0.0000
# 6 0.0000 0.0000 0.0000 -5.0955 0.0000 18.6677
#
#
#
# Elastic Compliance Matrix: (Units=1/GPa)
#
#
# Indices 1 2 3 4 5 6 
#
# 1 0.046288 0.009688 -0.020036 0.000000 -0.023367 0.000000
# 2 0.009688 0.016067 -0.006697 0.000000 -0.006583 0.000000
# 3 -0.020036 -0.006697 0.017353 0.000000 0.006711 0.000000
# 4 0.000000 0.000000 0.000000 0.043212 0.000000 0.011795
# 5 -0.023367 -0.006583 0.006711 0.000000 0.058068 0.000000
# 6 0.000000 0.000000 0.000000 0.011795 0.000000 0.056788
#
#
# Mechanical properties :
#
#
# Convention : Reuss Voigt Hill
#
# Bulk Modulus (GPa) = 21.92066 45.05544 33.48805
# Shear Modulus (GPa) = 17.41726 25.17398 21.29562
#
# Velocity S-wave (km/s) = 2.96975 3.57031 3.28378
# Velocity P-wave (km/s) = 4.78110 6.30955 5.59774
#
# Compressibility (1/GPa) = 0.04561906
#
# Stress axis : x y z
#
# Youngs Moduli (GPa) = 21.60379 62.24001 57.62645
#
# Poissons Ratio (x) = -0.60298 1.15458
# Poissons Ratio (y) = -0.20930 0.38592
# Poissons Ratio (z) = 0.43284 0.41682
#
# Static dielectric constant tensor:
#      x y z
#    x 1.690820 0.000000 -0.024670 
#    y 0.000000 1.690280 0.000000 
#    z -0.024670 0.000000 1.786120 
# 
# From -- ./inp_files/16008.got.cif
#   From: 2010.05.17/outbox.cif.g08.bks.cpg/sg3_9_cif.got.tgz:16008.got - 2010.06.03 18:33:08.
