data_PCOD9112312
_publ_section_title
;
Structure prediction by ZEFSAII (Michael W. Deem and Ramdas Pophale) SiO2 
 PCOD9112312
Probable space group: P -1
;
_chemical_formula_sum "Si O2"
_cell_formula_units_Z 14
_cell_length_a 12.075543
_cell_length_b 17.871446
_cell_length_c 5.261667
_cell_angle_alpha 100.435333
_cell_angle_beta 76.636544
_cell_angle_gamma 153.750299
_cell_volume 487.713976
_symmetry_space_group_name_H-M "P -1"
_symmetry_group_IT_number 2
_symmetry_cell_setting 'triclinic'
loop_
_space_group_symop_operation_xyz
x,y,z
-x,-y,-z
loop_
_atom_site_type_symbol
_atom_site_label
_atom_site_fract_x
_atom_site_fract_y
_atom_site_fract_z
Si Si1 0.000000 0.500000 0.000000
Si Si2 0.896123 0.327338 0.487985
Si Si3 0.500000 0.000000 0.500000
Si Si4 0.428762 0.367001 0.506224
Si Si5 0.933359 0.022691 0.268474
Si Si6 0.713602 0.502289 0.954625
Si Si7 0.151354 0.881219 0.962590
Si Si8 0.523315 0.839225 0.665341
O O1 0.687958 0.304123 0.102657
O O2 0.018668 0.563833 0.284642
O O3 0.610971 0.175690 0.445824
O O4 0.088380 0.444526 0.217822
O O5 0.817164 0.199050 0.555527
O O6 0.380819 0.965172 0.803026
O O7 0.500000 0.500000 0.500000
O O8 0.521444 0.405546 0.767546
O O9 0.151196 0.168088 0.454431
O O10 0.591211 0.418388 0.239204
O O11 0.912799 0.090573 0.181099
O O12 0.649609 0.848944 0.435298
O O13 0.000000 0.000000 0.000000
O O14 0.897645 0.682891 0.002463
O O15 0.245623 0.982429 0.216264
#
# Coordination Sequence:
#
# PCOD9112312 Si02
#       8
#     1   2   1   2   2   2   2   2
#     4  12  26  48  72 106 160 196 264 328 396 478
#     4  11  26  45  78 112 154 195 261 335 406 472
#     4  10  20  46  68 114 144 188 246 320 396 464
#     4  12  26  51  78 112 163 211 271 322 391 480
#     4  12  29  49  76 111 160 213 260 323 394 485
#     4  11  28  46  83 117 156 208 267 332 400 471
#     4  11  24  46  76 114 154 200 261 326 397 474
#     4  12  26  49  78 112 153 206 260 333 405 479
#
# _framework density 28.705349999999999
#
# number of rings (size 3 to 8) (size 9 to 14) (size 15 to 20)
#    0.000    0.571    4.286    1.714    6.000    5.143 
#    0.000    0.000    0.000    0.000    0.000    0.000 
#    0.000    0.000    0.000    0.000    0.000    0.000 
#
# Total GULP energy -78154.396386 kJ/mol
# GULP energy per Si atom -5582.456885 kJ/mol
# Density = 2.864002 g / cm^3
# Si number density = 28.705350 Si / 1000 Ang^3
#
#
#
# Elastic Constant Matrix: (Units=GPa)
#
#
# Indices 1 2 3 4 5 6 
#
# 1 101.1541 32.6233 34.1904 -6.9804 -15.3507 14.0312
# 2 32.6233 148.9707 71.2969 -5.5169 -10.8592 2.7797
# 3 34.1904 71.2969 189.8009 -18.7862 -32.2289 16.3986
# 4 -6.9804 -5.5169 -18.7862 86.3740 11.3760 -8.6679
# 5 -15.3507 -10.8592 -32.2289 11.3760 57.3671 -0.5486
# 6 14.0312 2.7797 16.3986 -8.6679 -0.5486 45.6721
#
#
#
# Elastic Compliance Matrix: (Units=1/GPa)
#
#
# Indices 1 2 3 4 5 6 
#
# 1 0.011539 -0.001979 -0.000669 0.000042 0.002299 -0.003149
# 2 -0.001979 0.008544 -0.003065 -0.000084 -0.000606 0.001165
# 3 -0.000669 -0.003065 0.007333 0.000716 0.003199 -0.002067
# 4 0.000042 -0.000084 0.000716 0.012198 -0.002002 0.002026
# 5 0.002299 -0.000606 0.003199 -0.002002 0.020107 -0.001956
# 6 -0.003149 0.001165 -0.002067 0.002026 -0.001956 0.023895
#
#
# Mechanical properties :
#
#
# Convention : Reuss Voigt Hill
#
# Bulk Modulus (GPa) = 62.53641 79.57187 71.05414
# Shear Modulus (GPa) = 49.81507 58.00364 53.90936
#
# Velocity S-wave (km/s) = 4.17032 4.50005 4.33832
# Velocity P-wave (km/s) = 6.70982 7.40142 7.06409
#
# Compressibility (1/GPa) = 0.01599069
#
# Stress axis : x y z
#
# Youngs Moduli (GPa) = 86.66499 117.04243 136.36885
#
# Poissons Ratio (x) = 0.23163 0.09117
# Poissons Ratio (y) = 0.17151 0.41796
# Poissons Ratio (z) = 0.05794 0.35872
#
# Static dielectric constant tensor:
#      x y z
#    x 2.330760 -0.205860 -0.398240 
#    y -0.205860 2.421740 0.133670 
#    z -0.398240 0.133670 2.198780 
# 
# From -- ./inp_files/101290.got.cif
#   From: 2010.05.17/outbox.cif.g08.bks.cpg/sg2_51_cif.got.tgz:101290.got - 2010.06.03 11:33:40.
