data_PCOD9112176
_publ_section_title
;
Structure prediction by ZEFSAII (Michael W. Deem and Ramdas Pophale) SiO2 
 PCOD9112176
Probable space group: P -1
;
_chemical_formula_sum "Si O2"
_cell_formula_units_Z 12
_cell_length_a 8.299312
_cell_length_b 14.676935
_cell_length_c 5.059526
_cell_angle_alpha 102.388264
_cell_angle_beta 98.236500
_cell_angle_gamma 131.402603
_cell_volume 415.904700
_symmetry_space_group_name_H-M "P -1"
_symmetry_group_IT_number 2
_symmetry_cell_setting 'triclinic'
loop_
_space_group_symop_operation_xyz
x,y,z
-x,-y,-z
loop_
_atom_site_type_symbol
_atom_site_label
_atom_site_fract_x
_atom_site_fract_y
_atom_site_fract_z
Si Si1 0.310851 0.574924 0.191707
Si Si2 0.725431 0.557648 0.420090
Si Si3 0.294176 0.761522 0.187764
Si Si4 0.981144 0.803601 0.930979
Si Si5 0.252322 0.151492 0.724987
Si Si6 0.545563 0.953341 0.742520
O O1 0.217455 0.504580 0.409022
O O2 0.197269 0.619111 0.058788
O O3 0.582726 0.724244 0.368657
O O4 0.302714 0.489918 0.913537
O O5 0.500000 0.500000 0.500000
O O6 0.900756 0.717700 0.594330
O O7 0.115605 0.769517 0.074038
O O8 0.555107 0.851443 0.174806
O O9 0.357119 0.799174 0.538369
O O10 0.788024 0.783261 0.028294
O O11 0.189197 0.965021 0.096303
O O12 0.000000 0.000000 0.500000
O O13 0.500000 0.000000 0.500000
O O14 0.500000 0.000000 0.000000
#
# Coordination Sequence:
#
# PCOD9112176 Si02
#       6
#     2   2   2   2   2   2
#     4  10  25  44  68 102 141 178 234 288 333 414
#     4  12  24  44  70 101 141 184 235 279 342 417
#     4   9  22  43  68 103 139 173 238 284 341 412
#     4  11  22  41  74  97 141 189 225 284 356 402
#     4  10  20  44  73 103 141 181 233 288 352 410
#     4  10  22  42  66 100 133 172 227 283 337 406
#
# _framework density 28.852764000000001
#
# number of rings (size 3 to 8) (size 9 to 14) (size 15 to 20)
#    1.000    0.667    3.333    0.500    0.000    6.667 
#    0.000    0.833    0.000    0.000    0.000    0.000 
#    0.000    0.000    0.000    0.000    0.000    0.000 
#
# Total GULP energy -66812.580603 kJ/mol
# GULP energy per Si atom -5567.715050 kJ/mol
# Density = 2.878709 g / cm^3
# Si number density = 28.852764 Si / 1000 Ang^3
#
#
#
# Elastic Constant Matrix: (Units=GPa)
#
#
# Indices 1 2 3 4 5 6 
#
# 1 193.4052 10.2252 48.9605 -7.4017 -28.8174 -24.8951
# 2 10.2252 96.7181 42.8723 20.2912 5.1881 12.8477
# 3 48.9605 42.8723 145.2560 10.9554 -29.6610 -9.8759
# 4 -7.4017 20.2912 10.9554 56.6531 -2.7431 0.4820
# 5 -28.8174 5.1881 -29.6610 -2.7431 53.9565 -1.7743
# 6 -24.8951 12.8477 -9.8759 0.4820 -1.7743 42.7319
#
#
#
# Elastic Compliance Matrix: (Units=1/GPa)
#
#
# Indices 1 2 3 4 5 6 
#
# 1 0.006580 -0.001327 -0.000994 0.001653 0.003315 0.004122
# 2 -0.001327 0.014935 -0.005166 -0.004731 -0.005443 -0.006630
# 3 -0.000994 -0.005166 0.010141 0.000003 0.005658 0.003553
# 4 0.001653 -0.004731 0.000003 0.019659 0.002413 0.002264
# 5 0.003315 -0.005443 0.005658 0.002413 0.024253 0.005855
# 6 0.004122 -0.006630 0.003553 0.002264 0.005855 0.028835
#
#
# Mechanical properties :
#
#
# Convention : Reuss Voigt Hill
#
# Bulk Modulus (GPa) = 59.94675 71.05505 65.50090
# Shear Modulus (GPa) = 40.02026 52.88971 46.45499
#
# Velocity S-wave (km/s) = 3.72835 4.28610 4.01692
# Velocity P-wave (km/s) = 6.27344 7.01245 6.65322
#
# Compressibility (1/GPa) = 0.01668147
#
# Stress axis : x y z
#
# Youngs Moduli (GPa) = 151.97614 66.95729 98.61285
#
# Poissons Ratio (x) = 0.08888 0.09797
# Poissons Ratio (y) = 0.20173 0.50945
# Poissons Ratio (z) = 0.15099 0.34591
#
# Static dielectric constant tensor:
#      x y z
#    x 2.473670 -0.004780 0.073440 
#    y -0.004780 2.846740 0.123760 
#    z 0.073440 0.123760 2.449420 
# 
# From -- ./inp_files/42667.got.cif
#   From: 2010.05.17/outbox.cif.g08.bks.cpg/sg2_22_cif.got.tgz:42667.got - 2010.06.03 11:33:40.
