data_PCOD9112344
_publ_section_title
;
Structure prediction by ZEFSAII (Michael W. Deem and Ramdas Pophale) SiO2 
 PCOD9112344
Probable space group: P -1
;
_chemical_formula_sum "Si O2"
_cell_formula_units_Z 13
_cell_length_a 5.390935
_cell_length_b 12.164004
_cell_length_c 9.081301
_cell_angle_alpha 115.946589
_cell_angle_beta 70.012687
_cell_angle_gamma 111.356339
_cell_volume 486.730948
_symmetry_space_group_name_H-M "P -1"
_symmetry_group_IT_number 2
_symmetry_cell_setting 'triclinic'
loop_
_space_group_symop_operation_xyz
x,y,z
-x,-y,-z
loop_
_atom_site_type_symbol
_atom_site_label
_atom_site_fract_x
_atom_site_fract_y
_atom_site_fract_z
Si Si1 0.928112 0.915051 0.195983
Si Si2 0.765200 0.258094 0.414074
Si Si3 0.000000 0.500000 0.500000
Si Si4 0.758859 0.695269 0.876802
Si Si5 0.130744 0.536263 0.155841
Si Si6 0.295474 0.828456 0.310329
Si Si7 0.592027 0.881814 0.848995
O O1 0.611258 0.902192 0.279329
O O2 0.096189 0.885434 0.284422
O O3 0.934912 0.805713 0.010840
O O4 0.085237 0.053429 0.188984
O O5 0.795203 0.184982 0.510958
O O6 0.552044 0.167634 0.300809
O O7 0.700866 0.393817 0.524616
O O8 0.060623 0.324637 0.315938
O O9 0.941322 0.522044 0.335010
O O10 0.699845 0.565948 0.897539
O O11 0.538338 0.761627 0.895468
O O12 0.280869 0.682989 0.192898
O O13 0.000000 0.500000 0.000000
O O14 0.500000 0.000000 0.000000
#
# Coordination Sequence:
#
# PCOD9112344 Si02
#       7
#     2   2   1   2   2   2   2
#     4  12  26  45  73 106 156 196 257 306 382 455
#     4  10  24  47  73 104 152 194 254 312 386 448
#     4   8  20  42  72 106 146 192 252 314 380 462
#     4  11  24  45  76 108 141 204 258 308 381 460
#     4  10  20  46  75 110 152 197 255 319 390 456
#     4  11  27  48  71 115 154 198 246 327 384 460
#     4  12  26  46  75 108 148 201 259 315 371 459
#
# _framework density 26.708801000000001
#
# number of rings (size 3 to 8) (size 9 to 14) (size 15 to 20)
#    0.000    1.231    3.077    1.385    4.308    1.846 
#    8.308    2.308    0.000    0.000    0.000    0.000 
#    0.000    0.000    0.000    0.000    0.000    0.000 
#
# Total GULP energy -72531.002592 kJ/mol
# GULP energy per Si atom -5579.307892 kJ/mol
# Density = 2.664801 g / cm^3
# Si number density = 26.708801 Si / 1000 Ang^3
#
#
#
# Elastic Constant Matrix: (Units=GPa)
#
#
# Indices 1 2 3 4 5 6 
#
# 1 108.6357 36.0403 44.9498 -10.2497 22.5178 -20.7558
# 2 36.0403 156.8143 56.5808 -8.4149 21.2452 -18.6588
# 3 44.9498 56.5808 146.0321 -16.5865 33.9536 -0.2402
# 4 -10.2497 -8.4149 -16.5865 58.8535 -5.2331 7.8427
# 5 22.5178 21.2452 33.9536 -5.2331 47.0491 -6.8227
# 6 -20.7558 -18.6588 -0.2402 7.8427 -6.8227 50.2512
#
#
#
# Elastic Compliance Matrix: (Units=1/GPa)
#
#
# Indices 1 2 3 4 5 6 
#
# 1 0.012013 -0.000912 -0.002644 0.000414 -0.002779 0.004169
# 2 -0.000912 0.007931 -0.002588 -0.000165 -0.000939 0.002454
# 3 -0.002644 -0.002588 0.010053 0.001954 -0.005037 -0.002994
# 4 0.000414 -0.000165 0.001954 0.017953 0.000076 -0.002673
# 5 -0.002779 -0.000939 -0.005037 0.000076 0.026961 0.002128
# 6 0.004169 0.002454 -0.002994 -0.002673 0.002128 0.023225
#
#
# Mechanical properties :
#
#
# Convention : Reuss Voigt Hill
#
# Bulk Modulus (GPa) = 56.47441 76.29155 66.38298
# Shear Modulus (GPa) = 42.98179 49.49149 46.23664
#
# Velocity S-wave (km/s) = 4.01593 4.30932 4.16521
# Velocity P-wave (km/s) = 6.53406 7.30661 6.93111
#
# Compressibility (1/GPa) = 0.01770713
#
# Stress axis : x y z
#
# Youngs Moduli (GPa) = 83.24048 126.08862 99.47433
#
# Poissons Ratio (x) = 0.11501 0.26305
# Poissons Ratio (y) = 0.07593 0.25748
# Poissons Ratio (z) = 0.22012 0.32637
#
# Static dielectric constant tensor:
#      x y z
#    x 1.953390 0.223610 0.128710 
#    y 0.223610 1.856700 -0.230040 
#    z 0.128710 -0.230040 2.058190 
# 
# From -- ./inp_files/131891.got.cif
#   From: 2010.05.17/outbox.cif.g08.bks.cpg/sg2_66_cif.got.tgz:131891.got - 2010.06.03 11:33:40.
