data_PCOD9112352
_publ_section_title
;
Structure prediction by ZEFSAII (Michael W. Deem and Ramdas Pophale) SiO2 
 PCOD9112352
Probable space group: P -1
;
_chemical_formula_sum "Si O2"
_cell_formula_units_Z 16
_cell_length_a 15.129066
_cell_length_b 12.185089
_cell_length_c 11.821924
_cell_angle_alpha 42.854120
_cell_angle_beta 28.431427
_cell_angle_gamma 56.848262
_cell_volume 672.749112
_symmetry_space_group_name_H-M "P -1"
_symmetry_group_IT_number 2
_symmetry_cell_setting 'triclinic'
loop_
_space_group_symop_operation_xyz
x,y,z
-x,-y,-z
loop_
_atom_site_type_symbol
_atom_site_label
_atom_site_fract_x
_atom_site_fract_y
_atom_site_fract_z
Si Si1 0.323375 0.554545 0.859349
Si Si2 0.753700 0.346683 0.483521
Si Si3 0.385165 0.315217 0.365735
Si Si4 0.404943 0.794067 0.001246
Si Si5 0.183100 0.322453 0.989962
Si Si6 0.726366 0.045977 0.168309
Si Si7 0.480445 0.142320 0.756387
Si Si8 0.003904 0.385476 0.690031
O O1 0.445235 0.580573 0.819290
O O2 0.104366 0.547671 0.140306
O O3 0.301880 0.404146 0.908435
O O4 0.420708 0.723577 0.552734
O O5 0.767818 0.530470 0.274082
O O6 0.598165 0.210305 0.685830
O O7 0.685111 0.330001 0.702061
O O8 0.955792 0.299734 0.282013
O O9 0.471648 0.267040 0.186944
O O10 0.225186 0.401174 0.448129
O O11 0.258438 0.141350 0.702171
O O12 0.256520 0.861748 0.041060
O O13 0.511507 0.967743 0.815237
O O14 0.263464 0.164775 0.991633
O O15 0.500000 0.000000 0.500000
O O16 0.874413 0.189114 0.967816
O O17 0.000000 0.500000 0.500000
#
# Coordination Sequence:
#
# PCOD9112352 Si02
#       8
#     2   2   2   2   2   2   2   2
#     4  11  22  44  68 100 144 180 232 288 347 425
#     4  10  23  44  66  99 137 183 232 293 349 406
#     4  11  24  46  75 100 144 193 225 280 371 422
#     4  11  22  44  72 100 142 176 234 297 340 418
#     4  10  25  44  69  97 137 186 237 283 355 417
#     4  10  20  47  65  97 143 186 227 277 346 426
#     4  11  23  45  70  97 132 186 239 286 346 415
#     4  12  27  42  69 112 144 180 238 288 349 429
#
# _framework density 23.783010000000001
#
# number of rings (size 3 to 8) (size 9 to 14) (size 15 to 20)
#    0.000    1.250    3.750    3.000    1.750    7.000 
#    2.250    0.000    0.000    0.000    0.000    0.000 
#    0.000    0.000    0.000    0.000    0.000    0.000 
#
# Total GULP energy -89436.389736 kJ/mol
# GULP energy per Si atom -5589.774359 kJ/mol
# Density = 2.372888 g / cm^3
# Si number density = 23.783010 Si / 1000 Ang^3
#
#
#
# Elastic Constant Matrix: (Units=GPa)
#
#
# Indices 1 2 3 4 5 6 
#
# 1 152.0785 70.4422 58.0147 16.3315 9.4431 -3.1921
# 2 70.4422 99.2622 47.7346 22.2364 -4.9741 -1.4905
# 3 58.0147 47.7346 69.0515 28.3460 1.9718 4.9920
# 4 16.3315 22.2364 28.3460 31.2400 5.9179 -9.0684
# 5 9.4431 -4.9741 1.9718 5.9179 43.8945 5.1948
# 6 -3.1921 -1.4905 4.9920 -9.0684 5.1948 30.5862
#
#
#
# Elastic Compliance Matrix: (Units=1/GPa)
#
#
# Indices 1 2 3 4 5 6 
#
# 1 0.013398 -0.006576 -0.011869 0.011647 -0.005541 0.007409
# 2 -0.006576 0.018720 -0.004298 -0.007565 0.005005 -0.002166
# 3 -0.011869 -0.004298 0.044910 -0.039308 0.007926 -0.021778
# 4 0.011647 -0.007565 -0.039308 0.079858 -0.016354 0.033717
# 5 -0.005541 0.005005 0.007926 -0.016354 0.027714 -0.011184
# 6 0.007409 -0.002166 -0.021778 0.033717 -0.011184 0.048813
#
#
# Mechanical properties :
#
#
# Convention : Reuss Voigt Hill
#
# Bulk Modulus (GPa) = 31.70297 74.75281 53.22789
# Shear Modulus (GPa) = 17.27638 30.75753 24.01696
#
# Velocity S-wave (km/s) = 2.69814 3.60009 3.18124
# Velocity P-wave (km/s) = 4.80267 6.98429 5.99357
#
# Compressibility (1/GPa) = 0.03154278
#
# Stress axis : x y z
#
# Youngs Moduli (GPa) = 74.63696 53.41764 22.26700
#
# Poissons Ratio (x) = 0.35126 0.26430
# Poissons Ratio (y) = 0.49079 0.09569
# Poissons Ratio (z) = 0.88589 0.22957
#
# Static dielectric constant tensor:
#      x y z
#    x 1.942890 0.027820 0.006870 
#    y 0.027820 2.082000 0.004930 
#    z 0.006870 0.004930 1.937950 
# 
# From -- ./inp_files/238705.got.cif
#   From: 2010.05.17/outbox.cif.g08.bks.cpg/sg2_120_cif.got.tgz:238705.got - 2010.06.03 11:33:40.
