data_PCOD9112963
_publ_section_title
;
Structure prediction by ZEFSAII (Michael W. Deem and Ramdas Pophale) SiO2 
 PCOD9112963
Probable space group: P 2
;
_chemical_formula_sum "Si O2"
_cell_formula_units_Z 16
_cell_length_a 9.340366
_cell_length_b 10.587811
_cell_length_c 8.618555
_cell_angle_alpha 90.000000
_cell_angle_beta 60.187867
_cell_angle_gamma 90.000000
_cell_volume 739.527291
_symmetry_space_group_name_H-M "P 2"
_symmetry_group_IT_number 3
_symmetry_cell_setting 'monoclinic'
loop_
_space_group_symop_operation_xyz
x,y,z
-x,y,-z
loop_
_atom_site_type_symbol
_atom_site_label
_atom_site_fract_x
_atom_site_fract_y
_atom_site_fract_z
Si Si1 0.330615 0.982440 0.352067
Si Si2 0.104083 0.848824 0.255079
Si Si3 0.844287 0.440890 0.489664
Si Si4 0.150875 0.023759 0.751613
Si Si5 0.008895 0.275005 0.152129
Si Si6 0.329561 0.833494 0.861417
Si Si7 0.871038 0.646304 0.216893
Si Si8 0.671519 0.255012 0.821760
O O1 0.180815 0.890938 0.377090
O O2 0.495371 0.900559 0.244070
O O3 0.295638 0.016320 0.548459
O O4 0.333556 0.116202 0.258174
O O5 0.974470 0.740515 0.275302
O O6 0.268291 0.813145 0.068539
O O7 0.013163 0.974736 0.244167
O O8 0.923573 0.327120 0.351402
O O9 0.805806 0.537996 0.369810
O O10 0.719105 0.370502 0.676548
O O11 0.000000 0.498680 0.500000
O O12 0.112241 0.161700 0.828405
O O13 0.198713 0.933636 0.864120
O O14 0.190567 0.249847 0.117631
O O15 0.000000 0.357557 0.000000
O O16 0.287641 0.713094 0.777396
O O17 0.000000 0.626140 0.000000
O O18 0.500000 0.278948 0.000000
#
# Coordination Sequence:
#
# PCOD9112963 Si02
#       8
#     2   2   2   2   2   2   2   2
#     4  12  22  36  59  99 143 171 209 264 339 397
#     4  10  20  36  64  92 128 171 216 263 326 393
#     4  10  22  42  70  97 128 171 235 276 324 392
#     4  11  21  35  55  91 131 170 213 260 313 393
#     4  11  22  39  65  93 130 175 222 271 326 390
#     4  10  22  38  59  98 134 170 210 268 334 394
#     4   9  20  41  69  97 130 173 229 278 323 388
#     4  11  24  41  63  99 142 173 215 278 339 401
#
# _framework density 21.635442999999999
#
# number of rings (size 3 to 8) (size 9 to 14) (size 15 to 20)
#    0.000    1.500    2.500    4.125    1.750    2.000 
#    0.000    0.625    0.000   48.000    0.000    0.000 
#    0.000    0.000    0.000    0.000    0.000    0.000 
#
# Total GULP energy -89114.155254 kJ/mol
# GULP energy per Si atom -5569.634703 kJ/mol
# Density = 2.158620 g / cm^3
# Si number density = 21.635443 Si / 1000 Ang^3
#
#
#
# Elastic Constant Matrix: (Units=GPa)
#
#
# Indices 1 2 3 4 5 6 
#
# 1 74.9266 28.7975 40.5459 0.0000 -1.7215 0.0000
# 2 28.7975 73.1115 28.1991 0.0000 2.1775 0.0000
# 3 40.5459 28.1991 138.8419 0.0000 2.6427 0.0000
# 4 0.0000 0.0000 0.0000 8.5991 0.0000 3.4971
# 5 -1.7215 2.1775 2.6427 0.0000 35.4757 0.0000
# 6 0.0000 0.0000 0.0000 3.4971 0.0000 11.4972
#
#
#
# Elastic Compliance Matrix: (Units=1/GPa)
#
#
# Indices 1 2 3 4 5 6 
#
# 1 0.017681 -0.005432 -0.004089 0.000000 0.001496 0.000000
# 2 -0.005432 0.016526 -0.001748 0.000000 -0.001148 0.000000
# 3 -0.004089 -0.001748 0.008766 0.000000 -0.000744 0.000000
# 4 0.000000 0.000000 0.000000 0.132706 0.000000 -0.040365
# 5 0.001496 -0.001148 -0.000744 0.000000 0.028387 0.000000
# 6 0.000000 0.000000 0.000000 -0.040365 0.000000 0.099255
#
#
# Mechanical properties :
#
#
# Convention : Reuss Voigt Hill
#
# Bulk Modulus (GPa) = 48.93594 53.55165 51.24380
# Shear Modulus (GPa) = 15.02991 23.73692 19.38341
#
# Velocity S-wave (km/s) = 2.63855 3.31589 2.99642
# Velocity P-wave (km/s) = 5.65245 6.28217 5.97561
#
# Compressibility (1/GPa) = 0.02043488
#
# Stress axis : x y z
#
# Youngs Moduli (GPa) = 56.55792 60.51163 114.08121
#
# Poissons Ratio (x) = 0.32869 0.46644
# Poissons Ratio (y) = 0.30721 0.19945
# Poissons Ratio (z) = 0.23124 0.10579
#
# Static dielectric constant tensor:
#      x y z
#    x 1.820810 0.000000 0.008350 
#    y 0.000000 1.844150 0.000000 
#    z 0.008350 0.000000 1.888920 
# 
# From -- ./inp_files/5984.got.cif
#   From: 2010.05.17/outbox.cif.g08.bks.cpg/sg3_3_cif.got.tgz:5984.got - 2010.06.03 18:33:08.
