data_PCOD9112078
_publ_section_title
;
Structure prediction by ZEFSAII (Michael W. Deem and Ramdas Pophale) SiO2 
 PCOD9112078
Probable space group: P -1
;
_chemical_formula_sum "Si O2"
_cell_formula_units_Z 14
_cell_length_a 14.237565
_cell_length_b 6.309641
_cell_length_c 18.815055
_cell_angle_alpha 97.952114
_cell_angle_beta 21.792695
_cell_angle_gamma 99.169999
_cell_volume 619.263678
_symmetry_space_group_name_H-M "P -1"
_symmetry_group_IT_number 2
_symmetry_cell_setting 'triclinic'
loop_
_space_group_symop_operation_xyz
x,y,z
-x,-y,-z
loop_
_atom_site_type_symbol
_atom_site_label
_atom_site_fract_x
_atom_site_fract_y
_atom_site_fract_z
Si Si1 0.537490 0.450885 0.054723
Si Si2 0.533138 0.527154 0.635739
Si Si3 0.353021 0.895956 0.530799
Si Si4 0.983955 0.149619 0.718658
Si Si5 0.250368 0.910007 0.849973
Si Si6 0.053501 0.142884 0.399729
Si Si7 0.480436 0.240289 0.796122
O O1 0.276570 0.328504 0.260987
O O2 0.585587 0.664717 0.077374
O O3 0.500000 0.500000 0.000000
O O4 0.767530 0.302342 0.898124
O O5 0.625218 0.359687 0.504147
O O6 0.292336 0.662872 0.795196
O O7 0.447733 0.410943 0.763882
O O8 0.779023 0.699667 0.475234
O O9 0.500000 0.000000 0.500000
O O10 0.526551 0.973436 0.347018
O O11 0.096026 0.004859 0.695864
O O12 0.876165 0.994952 0.724171
O O13 0.319946 0.013416 0.882527
O O14 0.000000 0.000000 0.000000
O O15 0.780388 0.222028 0.579346
O O16 0.000000 0.000000 0.500000
#
# Coordination Sequence:
#
# PCOD9112078 Si02
#       7
#     2   2   2   2   2   2   2
#     4  12  27  41  68 107 140 181 238 297 354 407
#     4  10  20  44  69  88 140 179 226 277 351 413
#     4  10  23  41  66  97 134 182 224 284 359 414
#     4  11  23  43  65 100 137 175 227 296 343 412
#     4  10  23  41  67  99 129 176 236 283 338 422
#     4  12  23  46  70  93 139 188 234 281 351 420
#     4  11  23  44  67  96 133 187 226 281 353 418
#
# _framework density 22.607493000000002
#
# number of rings (size 3 to 8) (size 9 to 14) (size 15 to 20)
#    0.000    1.143    4.286    3.429    0.000    8.000 
#    0.000    0.000    0.000    0.000    0.000    0.000 
#    0.000    0.000    0.000    0.000    0.000    0.000 
#
# Total GULP energy -78141.200554 kJ/mol
# GULP energy per Si atom -5581.514325 kJ/mol
# Density = 2.255604 g / cm^3
# Si number density = 22.607493 Si / 1000 Ang^3
#
#
#
# Elastic Constant Matrix: (Units=GPa)
#
#
# Indices 1 2 3 4 5 6 
#
# 1 96.1010 34.3410 17.8963 7.7660 -0.0897 20.4923
# 2 34.3410 87.4256 22.4427 15.4451 -8.2247 8.2780
# 3 17.8963 22.4427 102.1969 23.1881 -19.7049 -9.8039
# 4 7.7660 15.4451 23.1881 35.8012 -4.2339 2.4045
# 5 -0.0897 -8.2247 -19.7049 -4.2339 32.0444 10.1402
# 6 20.4923 8.2780 -9.8039 2.4045 10.1402 44.9290
#
#
#
# Elastic Compliance Matrix: (Units=1/GPa)
#
#
# Indices 1 2 3 4 5 6 
#
# 1 0.013563 -0.004384 -0.002234 0.000721 -0.000536 -0.005784
# 2 -0.004384 0.014580 -0.001033 -0.004228 0.002965 -0.001355
# 3 -0.002234 -0.001033 0.013546 -0.007338 0.006081 0.003185
# 4 0.000721 -0.004228 -0.007338 0.034542 -0.000089 -0.002980
# 5 -0.000536 0.002965 0.006081 -0.000089 0.038088 -0.007567
# 6 -0.005784 -0.001355 0.003185 -0.002980 -0.007567 0.027707
#
#
# Mechanical properties :
#
#
# Convention : Reuss Voigt Hill
#
# Bulk Modulus (GPa) = 37.89851 48.34260 43.12056
# Shear Modulus (GPa) = 30.09793 36.62448 33.36120
#
# Velocity S-wave (km/s) = 3.65269 4.02931 3.84561
# Velocity P-wave (km/s) = 5.88129 6.56330 6.23164
#
# Compressibility (1/GPa) = 0.02638626
#
# Stress axis : x y z
#
# Youngs Moduli (GPa) = 73.73051 68.58806 73.82146
#
# Poissons Ratio (x) = 0.30071 0.16492
# Poissons Ratio (y) = 0.32325 0.07626
# Poissons Ratio (z) = 0.16472 0.07085
#
# Static dielectric constant tensor:
#      x y z
#    x 1.664840 -0.130440 0.000720 
#    y -0.130440 1.921730 0.100480 
#    z 0.000720 0.100480 1.842390 
# 
# From -- ./inp_files/27493.got.cif
#   From: 2010.05.17/outbox.cif.g08.bks.cpg/sg2_14_cif.got.tgz:27493.got - 2010.06.03 11:33:40.
