data_PCOD9112153
_publ_section_title
;
Structure prediction by ZEFSAII (Michael W. Deem and Ramdas Pophale) SiO2 
 PCOD9112153
Probable space group: P -1
;
_chemical_formula_sum "Si O2"
_cell_formula_units_Z 13
_cell_length_a 14.294032
_cell_length_b 12.341883
_cell_length_c 12.138995
_cell_angle_alpha 34.923611
_cell_angle_beta 55.828292
_cell_angle_gamma 31.125671
_cell_volume 558.090198
_symmetry_space_group_name_H-M "P -1"
_symmetry_group_IT_number 2
_symmetry_cell_setting 'triclinic'
loop_
_space_group_symop_operation_xyz
x,y,z
-x,-y,-z
loop_
_atom_site_type_symbol
_atom_site_label
_atom_site_fract_x
_atom_site_fract_y
_atom_site_fract_z
Si Si1 0.288762 0.409746 0.278992
Si Si2 0.412668 0.652641 0.665045
Si Si3 0.794764 0.373226 0.604045
Si Si4 0.947335 0.403527 0.291579
Si Si5 0.653872 0.669134 0.097300
Si Si6 0.500000 0.500000 0.000000
Si Si7 0.078332 0.618350 0.031060
O O1 0.181630 0.591596 0.315313
O O2 0.140904 0.510985 0.206956
O O3 0.500000 0.000000 0.500000
O O4 0.350982 0.521436 0.090655
O O5 0.578969 0.566162 0.579933
O O6 0.428352 0.424998 0.789618
O O7 0.452877 0.582212 0.827886
O O8 0.183562 0.040434 0.467795
O O9 0.816684 0.518567 0.387120
O O10 0.964678 0.977469 0.793018
O O11 0.868191 0.386899 0.257607
O O12 0.934011 0.644393 0.073315
O O13 0.716070 0.667432 0.939648
O O14 0.500000 0.000000 0.000000
#
# Coordination Sequence:
#
# PCOD9112153 Si02
#       7
#     2   2   2   2   2   1   2
#     4  11  24  41  75 107 144 190 243 297 365 431
#     4  11  24  47  76 105 146 192 240 305 357 429
#     4  11  26  45  74 111 141 194 235 302 368 426
#     4  12  27  47  73 108 148 190 246 293 358 438
#     4  12  27  47  76 105 147 198 242 300 361 430
#     4  10  20  44  72 104 148 180 238 298 358 412
#     4  12  25  48  70 105 149 191 246 296 365 429
#
# _framework density 23.293725999999999
#
# number of rings (size 3 to 8) (size 9 to 14) (size 15 to 20)
#    0.000    0.615    3.077    4.154    4.308    4.923 
#    0.000    0.000    0.000    0.000    0.000    0.000 
#    0.000    0.000    0.000    0.000    0.000    0.000 
#
# Total GULP energy -72565.435191 kJ/mol
# GULP energy per Si atom -5581.956553 kJ/mol
# Density = 2.324071 g / cm^3
# Si number density = 23.293726 Si / 1000 Ang^3
#
#
#
# Elastic Constant Matrix: (Units=GPa)
#
#
# Indices 1 2 3 4 5 6 
#
# 1 116.9844 30.8138 6.7872 -14.8749 12.5450 4.8289
# 2 30.8138 112.9999 26.5988 2.9234 -16.2711 5.2461
# 3 6.7872 26.5988 31.6610 -6.9783 -7.6093 4.6023
# 4 -14.8749 2.9234 -6.9783 24.6960 -9.6208 -6.7444
# 5 12.5450 -16.2711 -7.6093 -9.6208 36.2565 -1.6969
# 6 4.8289 5.2461 4.6023 -6.7444 -1.6969 33.7149
#
#
#
# Elastic Compliance Matrix: (Units=1/GPa)
#
#
# Indices 1 2 3 4 5 6 
#
# 1 0.010622 -0.003896 0.001441 0.005839 -0.003578 -0.000124
# 2 -0.003896 0.013061 -0.010437 -0.005786 0.003435 -0.001034
# 3 0.001441 -0.010437 0.046583 0.018795 0.009549 -0.000701
# 4 0.005839 -0.005786 0.018795 0.058734 0.015382 0.010022
# 5 -0.003578 0.003435 0.009549 0.015382 0.036615 0.003594
# 6 -0.000124 -0.001034 -0.000701 0.010022 0.003594 0.032121
#
#
# Mechanical properties :
#
#
# Convention : Reuss Voigt Hill
#
# Bulk Modulus (GPa) = 22.48076 43.33833 32.90955
# Shear Modulus (GPa) = 20.97778 32.09650 26.53714
#
# Velocity S-wave (km/s) = 3.00422 3.71604 3.37892
# Velocity P-wave (km/s) = 4.65894 6.08748 5.42048
#
# Compressibility (1/GPa) = 0.04448248
#
# Stress axis : x y z
#
# Youngs Moduli (GPa) = 94.14439 76.56314 21.46698
#
# Poissons Ratio (x) = 0.29831 -0.03094
# Poissons Ratio (y) = 0.36681 0.22405
# Poissons Ratio (z) = -0.13568 0.79908
#
# Static dielectric constant tensor:
#      x y z
#    x 1.876270 0.012170 0.027870 
#    y 0.012170 1.859190 -0.041100 
#    z 0.027870 -0.041100 1.920850 
# 
# From -- ./inp_files/306813.got.cif
#   From: 2010.05.17/outbox.cif.g08.bks.cpg/sg2_154_cif.got.tgz:306813.got - 2010.06.03 11:33:40.
