data_PCOD9112383
_publ_section_title
;
Structure prediction by ZEFSAII (Michael W. Deem and Ramdas Pophale) SiO2 
 PCOD9112383
Probable space group: P -1
;
_chemical_formula_sum "Si O2"
_cell_formula_units_Z 16
_cell_length_a 15.198759
_cell_length_b 8.028702
_cell_length_c 8.975558
_cell_angle_alpha 106.764379
_cell_angle_beta 57.542766
_cell_angle_gamma 118.731423
_cell_volume 809.699170
_symmetry_space_group_name_H-M "P -1"
_symmetry_group_IT_number 2
_symmetry_cell_setting 'triclinic'
loop_
_space_group_symop_operation_xyz
x,y,z
-x,-y,-z
loop_
_atom_site_type_symbol
_atom_site_label
_atom_site_fract_x
_atom_site_fract_y
_atom_site_fract_z
Si Si1 0.955138 0.605519 0.284347
Si Si2 0.710673 0.517614 0.630848
Si Si3 0.385947 0.910346 0.486181
Si Si4 0.047077 0.868887 0.515964
Si Si5 0.297566 0.153649 0.462261
Si Si6 0.221587 0.057373 0.811729
Si Si7 0.178255 0.300078 0.126876
Si Si8 0.987675 0.736279 0.965056
O O1 0.832592 0.566664 0.453301
O O2 0.963436 0.416214 0.171034
O O3 0.042876 0.704105 0.363680
O O4 0.979283 0.737736 0.151574
O O5 0.636834 0.299155 0.603683
O O6 0.668186 0.670165 0.635222
O O7 0.739283 0.558671 0.790761
O O8 0.500000 0.000000 0.500000
O O9 0.380061 0.044858 0.389168
O O10 0.285588 0.917510 0.688026
O O11 0.947456 0.781317 0.704730
O O12 0.174229 0.993319 0.485056
O O13 0.000000 0.000000 0.500000
O O14 0.275958 0.205020 0.664788
O O15 0.087008 0.937356 0.880839
O O16 0.230833 0.150454 0.989208
O O17 0.137930 0.344052 0.014248
#
# Coordination Sequence:
#
# PCOD9112383 Si02
#       8
#     2   2   2   2   2   2   2   2
#     4  10  21  31  49  87 127 163 192 224 276 358
#     4  11  22  39  59  91 115 153 201 236 290 356
#     4  10  24  45  66  82 108 152 206 260 297 335
#     4  11  19  31  51  86 125 158 184 224 282 355
#     4  10  21  37  62  85 120 153 198 236 287 350
#     4  10  21  36  56  87 115 158 194 237 285 346
#     4  11  21  30  56  86 126 159 185 232 289 352
#     4  11  20  31  52  86 127 165 190 224 279 354
#
# _framework density 19.760425999999999
#
# number of rings (size 3 to 8) (size 9 to 14) (size 15 to 20)
#    0.750    0.750    5.000    1.875    1.750    1.500 
#    0.000    0.625    0.000    0.750    0.000    0.000 
#    0.000    0.000    0.000    0.000    0.000    0.000 
#
# Total GULP energy -89067.994584 kJ/mol
# GULP energy per Si atom -5566.749662 kJ/mol
# Density = 1.971545 g / cm^3
# Si number density = 19.760426 Si / 1000 Ang^3
#
#
#
# Elastic Constant Matrix: (Units=GPa)
#
#
# Indices 1 2 3 4 5 6 
#
# 1 97.0979 44.2183 4.0190 11.2005 17.0056 6.3584
# 2 44.2183 73.4072 22.8824 26.0517 12.6280 7.1703
# 3 4.0190 22.8824 79.7181 26.4129 19.7123 11.3444
# 4 11.2005 26.0517 26.4129 26.4974 5.4419 10.9005
# 5 17.0056 12.6280 19.7123 5.4419 19.2829 5.2738
# 6 6.3584 7.1703 11.3444 10.9005 5.2738 21.1506
#
#
#
# Elastic Compliance Matrix: (Units=1/GPa)
#
#
# Indices 1 2 3 4 5 6 
#
# 1 0.016857 -0.009331 0.005471 0.000029 -0.013982 -0.001367
# 2 -0.009331 0.029332 0.002374 -0.029227 -0.007488 0.008518
# 3 0.005471 0.002374 0.026835 -0.027506 -0.027173 0.004108
# 4 0.000029 -0.029227 -0.027506 0.102631 0.027895 -0.035196
# 5 -0.013982 -0.007488 -0.027173 0.027895 0.093477 -0.016368
# 6 -0.001367 0.008518 0.004108 -0.035196 -0.016368 0.064820
#
#
# Mechanical properties :
#
#
# Convention : Reuss Voigt Hill
#
# Bulk Modulus (GPa) = 14.27506 43.60695 28.94101
# Shear Modulus (GPa) = 13.87835 25.32640 19.60237
#
# Velocity S-wave (km/s) = 2.65303 3.58393 3.15302
# Velocity P-wave (km/s) = 4.07731 6.26433 5.28518
#
# Compressibility (1/GPa) = 0.07005222
#
# Stress axis : x y z
#
# Youngs Moduli (GPa) = 59.32362 34.09270 37.26498
#
# Poissons Ratio (x) = 0.31811 -0.20387
# Poissons Ratio (y) = 0.55354 -0.08848
# Poissons Ratio (z) = -0.32455 -0.08095
#
# Static dielectric constant tensor:
#      x y z
#    x 1.755780 -0.065760 0.029480 
#    y -0.065760 1.767230 0.034560 
#    z 0.029480 0.034560 1.764270 
# 
# From -- ./inp_files/176704.got.cif
#   From: 2010.05.17/outbox.cif.g08.bks.cpg/sg2_89_cif.got.tgz:176704.got - 2010.06.03 11:33:40.
