data_PCOD9112613
_publ_section_title
;
Structure prediction by ZEFSAII (Michael W. Deem and Ramdas Pophale) SiO2 
 PCOD9112613
Probable space group: P 2
;
_chemical_formula_sum "Si O2"
_cell_formula_units_Z 9
_cell_length_a 8.484289
_cell_length_b 6.261399
_cell_length_c 8.124173
_cell_angle_alpha 90.000000
_cell_angle_beta 106.402265
_cell_angle_gamma 90.000000
_cell_volume 414.020374
_symmetry_space_group_name_H-M "P 2"
_symmetry_group_IT_number 3
_symmetry_cell_setting 'monoclinic'
loop_
_space_group_symop_operation_xyz
x,y,z
-x,y,-z
loop_
_atom_site_type_symbol
_atom_site_label
_atom_site_fract_x
_atom_site_fract_y
_atom_site_fract_z
Si Si1 0.273348 0.557270 0.658040
Si Si2 0.937894 0.903749 0.205591
Si Si3 0.273784 0.878380 0.148455
Si Si4 0.500000 0.853720 0.500000
Si Si5 0.500000 0.559566 0.000000
Si Si6 0.000000 0.241759 0.500000
O O1 0.159617 0.725457 0.722173
O O2 0.377006 0.698507 0.562037
O O3 0.160192 0.387057 0.537383
O O4 0.386939 0.446507 0.831567
O O5 0.106920 0.799329 0.188494
O O6 0.988572 0.092898 0.338947
O O7 0.816906 0.999386 0.028729
O O8 0.392868 0.971708 0.326247
O O9 0.383336 0.706192 0.082097
#
# Coordination Sequence:
#
# PCOD9112613 Si02
#       6
#     2   2   2   1   1   1
#     4  10  21  39  60  84 116 150 192 238 283 339
#     4  10  21  39  60  84 114 154 194 232 282 338
#     4   9  18  36  60  84 113 147 189 233 282 338
#     4  10  18  36  64  86 112 152 188 236 294 332
#     4   8  18  38  62  84 112 152 188 236 294 332
#     4  12  22  36  58  86 118 152 192 234 278 344
#
# _framework density 21.738057999999999
#
# number of rings (size 3 to 8) (size 9 to 14) (size 15 to 20)
#    0.000    2.222    0.000    3.333    0.000    0.000 
#    0.000   40.000    0.000    0.000    0.000    0.000 
#    0.000    0.000    0.000    0.000    0.000    0.000 
#
# Total GULP energy -50142.154176 kJ/mol
# GULP energy per Si atom -5571.350464 kJ/mol
# Density = 2.168858 g / cm^3
# Si number density = 21.738058 Si / 1000 Ang^3
#
#
#
# Elastic Constant Matrix: (Units=GPa)
#
#
# Indices 1 2 3 4 5 6 
#
# 1 134.2934 22.2417 44.2928 0.0000 -8.9569 0.0000
# 2 22.2417 31.9101 40.1140 0.0000 10.4426 0.0000
# 3 44.2928 40.1140 202.9118 0.0000 47.0740 0.0000
# 4 0.0000 0.0000 0.0000 -112.6263 0.0000 -58.6935
# 5 -8.9569 10.4426 47.0740 0.0000 55.7805 0.0000
# 6 0.0000 0.0000 0.0000 -58.6935 0.0000 -27.5406
#
#
#
# Elastic Compliance Matrix: (Units=1/GPa)
#
#
# Indices 1 2 3 4 5 6 
#
# 1 0.009240 -0.005390 -0.001902 0.000000 0.004098 0.000000
# 2 -0.005390 0.044896 -0.006899 0.000000 -0.003448 0.000000
# 3 -0.001902 -0.006899 0.008056 0.000000 -0.005812 0.000000
# 4 0.000000 0.000000 0.000000 0.080262 0.000000 -0.171052
# 5 0.004098 -0.003448 -0.005812 0.000000 0.024136 0.000000
# 6 0.000000 0.000000 0.000000 -0.171052 0.000000 0.328229
#
#
# Mechanical properties :
#
#
# Convention : Reuss Voigt Hill
#
# Bulk Modulus (GPa) = 29.57770 64.71247 47.14509
# Shear Modulus (GPa) = 9.35503 0.62049 4.98776
#
# Velocity S-wave (km/s) = 2.07674 0.53484 1.51640
# Velocity P-wave (km/s) = 4.40300 5.49684 4.98004
#
# Compressibility (1/GPa) = 0.03380925
#
# Stress axis : x y z
#
# Youngs Moduli (GPa) = 108.22807 22.27349 124.13600
#
# Poissons Ratio (x) = 0.12006 0.23610
# Poissons Ratio (y) = 0.58338 0.85642
# Poissons Ratio (z) = 0.20585 0.15367
#
# Static dielectric constant tensor:
#      x y z
#    x 1.813590 0.000000 0.033330 
#    y 0.000000 1.738220 0.000000 
#    z 0.033330 0.000000 1.885960 
# 
# From -- ./inp_files/4848.got.cif
#   From: 2010.05.17/outbox.cif.g08.bks.cpg/sg3_3_cif.got.tgz:4848.got - 2010.06.03 18:33:08.
