data_PCOD9112108
_publ_section_title
;
Structure prediction by ZEFSAII (Michael W. Deem and Ramdas Pophale) SiO2 
 PCOD9112108
Probable space group: P -1
;
_chemical_formula_sum "Si O2"
_cell_formula_units_Z 14
_cell_length_a 21.909638
_cell_length_b 4.948170
_cell_length_c 13.574960
_cell_angle_alpha 109.762862
_cell_angle_beta 23.368224
_cell_angle_gamma 104.497811
_cell_volume 542.195242
_symmetry_space_group_name_H-M "P -1"
_symmetry_group_IT_number 2
_symmetry_cell_setting 'triclinic'
loop_
_space_group_symop_operation_xyz
x,y,z
-x,-y,-z
loop_
_atom_site_type_symbol
_atom_site_label
_atom_site_fract_x
_atom_site_fract_y
_atom_site_fract_z
Si Si1 0.322401 0.679410 0.382838
Si Si2 0.500000 0.500000 0.500000
Si Si3 0.992487 0.521530 0.896134
Si Si4 0.557563 0.300788 0.101657
Si Si5 0.851192 0.490566 0.786104
Si Si6 0.656348 0.868148 0.432974
Si Si7 0.500000 0.000000 0.000000
Si Si8 0.162147 0.873760 0.050256
O O1 0.149829 0.610571 0.632658
O O2 0.450707 0.382283 0.168468
O O3 0.355615 0.826222 0.456325
O O4 0.356772 0.883653 0.269715
O O5 0.561255 0.812642 0.472227
O O6 0.325040 0.673371 0.758847
O O7 0.960156 0.226631 0.856379
O O8 0.000000 0.500000 0.000000
O O9 0.838427 0.758279 0.137147
O O10 0.440950 0.300369 0.365222
O O11 0.696869 0.461009 0.947410
O O12 0.614202 0.981545 0.934758
O O13 0.873180 0.228587 0.799356
O O14 0.000000 0.500000 0.500000
O O15 0.828147 0.789418 0.917918
#
# Coordination Sequence:
#
# PCOD9112108 Si02
#       8
#     2   1   2   2   2   2   1   2
#     4  11  23  43  69  98 140 184 241 300 373 443
#     4  10  20  44  70 108 146 184 244 296 372 456
#     4  11  24  44  70 108 145 188 236 310 379 450
#     4  11  23  44  70  96 141 185 245 303 367 432
#     4  12  28  50  73 107 151 203 255 311 370 452
#     4  10  21  41  65 102 139 180 232 294 372 446
#     4  10  26  42  68 102 132 188 242 306 354 444
#     4  11  27  48  76 112 147 201 249 312 382 450
#
# _framework density 25.820959999999999
#
# number of rings (size 3 to 8) (size 9 to 14) (size 15 to 20)
#    0.000    1.143    2.857    2.143    4.000    5.143 
#    0.000    0.000    0.000    0.000    0.000    0.000 
#    0.000    0.000    0.000    0.000    0.000    0.000 
#
# Total GULP energy -77959.591017 kJ/mol
# GULP energy per Si atom -5568.542215 kJ/mol
# Density = 2.576219 g / cm^3
# Si number density = 25.820960 Si / 1000 Ang^3
#
#
#
# Elastic Constant Matrix: (Units=GPa)
#
#
# Indices 1 2 3 4 5 6 
#
# 1 114.9585 56.1633 74.0108 -26.9966 0.6511 15.5339
# 2 56.1633 132.2044 67.5248 -23.4803 -3.1132 35.3312
# 3 74.0108 67.5248 162.6652 -41.0413 -5.9389 25.5118
# 4 -26.9966 -23.4803 -41.0413 48.3451 10.4213 -2.6446
# 5 0.6511 -3.1132 -5.9389 10.4213 37.7551 -11.5201
# 6 15.5339 35.3312 25.5118 -2.6446 -11.5201 54.1751
#
#
#
# Elastic Compliance Matrix: (Units=1/GPa)
#
#
# Indices 1 2 3 4 5 6 
#
# 1 0.013677 -0.003127 -0.004224 0.002961 -0.002031 -0.000181
# 2 -0.003127 0.011980 -0.002034 0.002402 -0.001843 -0.006233
# 3 -0.004224 -0.002034 0.010719 0.005781 -0.000732 -0.002384
# 4 0.002961 0.002402 0.005781 0.030033 -0.008934 -0.005571
# 5 -0.002031 -0.001843 -0.000732 -0.008934 0.031265 0.008341
# 6 -0.000181 -0.006233 -0.002384 -0.005571 0.008341 0.025200
#
#
# Mechanical properties :
#
#
# Convention : Reuss Voigt Hill
#
# Bulk Modulus (GPa) = 56.79318 89.46955 73.13136
# Shear Modulus (GPa) = 33.89529 42.19700 38.04615
#
# Velocity S-wave (km/s) = 3.62706 4.04693 3.84273
# Velocity P-wave (km/s) = 6.29154 7.52077 6.93345
#
# Compressibility (1/GPa) = 0.01760775
#
# Stress axis : x y z
#
# Youngs Moduli (GPa) = 73.11691 83.46961 93.28921
#
# Poissons Ratio (x) = 0.26097 0.39401
# Poissons Ratio (y) = 0.22860 0.18978
# Poissons Ratio (z) = 0.30881 0.16980
#
# Static dielectric constant tensor:
#      x y z
#    x 2.182220 -0.085950 -0.029860 
#    y -0.085950 2.310280 0.196540 
#    z -0.029860 0.196540 2.093520 
# 
# From -- ./inp_files/28387.got.cif
#   From: 2010.05.17/outbox.cif.g08.bks.cpg/sg2_15_cif.got.tgz:28387.got - 2010.06.03 11:33:40.
