data_PCOD9112919
_publ_section_title
;
Structure prediction by ZEFSAII (Michael W. Deem and Ramdas Pophale) SiO2 
 PCOD9112919
Probable space group: P 2
;
_chemical_formula_sum "Si O2"
_cell_formula_units_Z 14
_cell_length_a 13.157730
_cell_length_b 5.240545
_cell_length_c 24.074415
_cell_angle_alpha 90.000000
_cell_angle_beta 153.203025
_cell_angle_gamma 90.000000
_cell_volume 748.387242
_symmetry_space_group_name_H-M "P 2"
_symmetry_group_IT_number 3
_symmetry_cell_setting 'monoclinic'
loop_
_space_group_symop_operation_xyz
x,y,z
-x,y,-z
loop_
_atom_site_type_symbol
_atom_site_label
_atom_site_fract_x
_atom_site_fract_y
_atom_site_fract_z
Si Si1 0.982544 0.680880 0.834593
Si Si2 0.259260 0.816512 0.107282
Si Si3 0.548075 0.808311 0.679299
Si Si4 0.688993 0.071390 0.047215
Si Si5 0.147245 0.325434 0.314036
Si Si6 0.734398 0.331181 0.962396
Si Si7 0.572886 0.284688 0.442796
O O1 0.802640 0.843010 0.779984
O O2 0.887975 0.608321 0.728217
O O3 0.214667 0.823658 0.936916
O O4 0.028749 0.429659 0.894643
O O5 0.419519 0.820186 0.239143
O O6 0.335663 0.578431 0.106640
O O7 0.255840 0.085425 0.072665
O O8 0.000000 0.765930 0.000000
O O9 0.470488 0.538240 0.615092
O O10 0.403154 0.039409 0.584390
O O11 0.911460 0.188157 0.185629
O O12 0.500000 0.021600 0.000000
O O13 0.605957 0.252906 0.956372
O O14 0.355919 0.235543 0.377215
O O15 0.223662 0.319445 0.414603
#
# Coordination Sequence:
#
# PCOD9112919 Si02
#       7
#     2   2   2   2   2   2   2
#     4  10  20  36  54  83 122 151 194 231 288 349
#     4  12  22  33  57  82 120 158 189 233 296 350
#     4  11  21  34  55  86 115 158 187 232 280 357
#     4  11  22  39  62  86 118 158 199 243 289 345
#     4   9  21  34  56  83 119 156 186 239 290 349
#     4  11  22  37  53  84 118 152 191 237 288 350
#     4  10  21  35  57  84 122 152 189 228 295 349
#
# _framework density 18.706894999999999
#
# number of rings (size 3 to 8) (size 9 to 14) (size 15 to 20)
#    0.000    1.429    4.286    1.286    6.000    3.429 
#    0.000    0.000    0.000    0.000    0.000    6.000 
#    0.000    0.000    0.000    0.000    0.000    0.000 
#
# Total GULP energy -78000.753880 kJ/mol
# GULP energy per Si atom -5571.482420 kJ/mol
# Density = 1.866432 g / cm^3
# Si number density = 18.706895 Si / 1000 Ang^3
#
#
#
# Elastic Constant Matrix: (Units=GPa)
#
#
# Indices 1 2 3 4 5 6 
#
# 1 78.2298 50.6816 48.7428 0.0000 -28.0824 0.0000
# 2 50.6816 119.7228 43.9665 0.0000 -28.9626 0.0000
# 3 48.7428 43.9665 100.1860 0.0000 -46.5034 0.0000
# 4 0.0000 0.0000 0.0000 20.8110 0.0000 -11.8998
# 5 -28.0824 -28.9626 -46.5034 0.0000 42.7065 0.0000
# 6 0.0000 0.0000 0.0000 -11.8998 0.0000 19.3052
#
#
#
# Elastic Compliance Matrix: (Units=1/GPa)
#
#
# Indices 1 2 3 4 5 6 
#
# 1 0.021958 -0.006132 -0.006511 0.000000 0.003190 0.000000
# 2 -0.006132 0.012026 -0.000769 0.000000 0.003286 0.000000
# 3 -0.006511 -0.000769 0.022762 0.000000 0.019983 0.000000
# 4 0.000000 0.000000 0.000000 0.074207 0.000000 0.045741
# 5 0.003190 0.003286 0.019983 0.000000 0.049502 0.000000
# 6 0.000000 0.000000 0.000000 0.045741 0.000000 0.079995
#
#
# Mechanical properties :
#
#
# Convention : Reuss Voigt Hill
#
# Bulk Modulus (GPa) = 33.42086 64.99116 49.20601
# Shear Modulus (GPa) = 16.82104 26.88104 21.85104
#
# Velocity S-wave (km/s) = 3.00190 3.79484 3.42142
# Velocity P-wave (km/s) = 5.46988 7.34971 6.47834
#
# Compressibility (1/GPa) = 0.02992143
#
# Stress axis : x y z
#
# Youngs Moduli (GPa) = 45.54204 83.15384 43.93267
#
# Poissons Ratio (x) = 0.50994 0.28605
# Poissons Ratio (y) = 0.27929 0.03377
# Poissons Ratio (z) = 0.29653 0.06391
#
# Static dielectric constant tensor:
#      x y z
#    x 1.636540 0.000000 -0.035710 
#    y 0.000000 1.732210 0.000000 
#    z -0.035710 0.000000 1.676410 
# 
# From -- ./inp_files/11322.got.cif
#   From: 2010.05.17/outbox.cif.g08.bks.cpg/sg3_6_cif.got.tgz:11322.got - 2010.06.03 18:33:08.
