data_PCOD9112889
_publ_section_title
;
Structure prediction by ZEFSAII (Michael W. Deem and Ramdas Pophale) SiO2 
 PCOD9112889
Probable space group: P 2
;
_chemical_formula_sum "Si O2"
_cell_formula_units_Z 14
_cell_length_a 13.698305
_cell_length_b 8.822780
_cell_length_c 10.635529
_cell_angle_alpha 90.000000
_cell_angle_beta 33.618035
_cell_angle_gamma 90.000000
_cell_volume 711.655131
_symmetry_space_group_name_H-M "P 2"
_symmetry_group_IT_number 3
_symmetry_cell_setting 'monoclinic'
loop_
_space_group_symop_operation_xyz
x,y,z
-x,y,-z
loop_
_atom_site_type_symbol
_atom_site_label
_atom_site_fract_x
_atom_site_fract_y
_atom_site_fract_z
Si Si1 0.500000 0.144771 0.500000
Si Si2 0.442263 0.947995 0.783447
Si Si3 0.969618 0.542605 0.269582
Si Si4 0.616431 0.642709 0.530030
Si Si5 0.851157 0.811807 0.065624
Si Si6 0.355683 0.214528 0.051193
Si Si7 0.000000 0.371486 0.500000
Si Si8 0.315955 0.390730 0.835060
O O1 0.347471 0.260683 0.700780
O O2 0.553202 0.047176 0.564262
O O3 0.535903 0.785026 0.694757
O O4 0.265087 0.924094 0.891548
O O5 0.395535 0.044816 0.956393
O O6 0.769816 0.550171 0.436408
O O7 0.980516 0.481958 0.400134
O O8 0.050220 0.705636 0.142646
O O9 0.112953 0.438084 0.045941
O O10 0.716857 0.719048 0.302230
O O11 0.454890 0.528701 0.677468
O O12 0.000000 0.873959 0.000000
O O13 0.361636 0.317151 0.920333
O O14 0.500000 0.252994 0.000000
O O15 0.166785 0.259564 0.309865
#
# Coordination Sequence:
#
# PCOD9112889 Si02
#       8
#     1   2   2   2   2   2   1   2
#     4  10  20  34  60  88 122 176 196 248 328 374
#     4  11  21  40  61  93 131 170 207 259 325 381
#     4  10  21  37  63  94 114 165 211 260 314 357
#     4  11  20  37  66  91 129 157 202 269 322 371
#     4  10  20  36  60  94 130 157 202 260 320 382
#     4  10  23  44  62  88 127 172 219 259 313 375
#     4  10  22  46  64  86 134 164 222 274 296 366
#     4  10  20  36  64  88 122 160 216 262 309 375
#
# _framework density 19.672449
#
# number of rings (size 3 to 8) (size 9 to 14) (size 15 to 20)
#    0.000    1.714    2.857    1.714    0.000    0.000 
#    7.714    5.000    0.000    0.000    0.000    0.000 
#    0.000    0.000    0.000    0.000    0.000    0.000 
#
# Total GULP energy -77994.434371 kJ/mol
# GULP energy per Si atom -5571.031027 kJ/mol
# Density = 1.962767 g / cm^3
# Si number density = 19.672449 Si / 1000 Ang^3
#
#
#
# Elastic Constant Matrix: (Units=GPa)
#
#
# Indices 1 2 3 4 5 6 
#
# 1 71.9758 29.7799 39.7365 0.0000 -20.9806 0.0000
# 2 29.7799 78.4346 38.0207 0.0000 -9.9471 0.0000
# 3 39.7365 38.0207 98.8121 0.0000 -12.2101 0.0000
# 4 0.0000 0.0000 0.0000 28.2303 0.0000 -4.1357
# 5 -20.9806 -9.9471 -12.2101 0.0000 31.8044 0.0000
# 6 0.0000 0.0000 0.0000 -4.1357 0.0000 10.4320
#
#
#
# Elastic Compliance Matrix: (Units=1/GPa)
#
#
# Indices 1 2 3 4 5 6 
#
# 1 0.022079 -0.004109 -0.005938 0.000000 0.011000 0.000000
# 2 -0.004109 0.016664 -0.004672 0.000000 0.000707 0.000000
# 3 -0.005938 -0.004672 0.014321 0.000000 0.000119 0.000000
# 4 0.000000 0.000000 0.000000 0.037607 0.000000 0.014909
# 5 0.011000 0.000707 0.000119 0.000000 0.038965 0.000000
# 6 0.000000 0.000000 0.000000 0.014909 0.000000 0.101770
#
#
# Mechanical properties :
#
#
# Convention : Reuss Voigt Hill
#
# Bulk Modulus (GPa) = 42.32960 51.58854 46.95907
# Shear Modulus (GPa) = 18.60674 23.53903 21.07288
#
# Velocity S-wave (km/s) = 3.07877 3.46287 3.27645
# Velocity P-wave (km/s) = 5.84827 6.50148 6.18351
#
# Compressibility (1/GPa) = 0.02362413
#
# Stress axis : x y z
#
# Youngs Moduli (GPa) = 45.29280 60.00917 69.82873
#
# Poissons Ratio (x) = 0.24659 0.41467
# Poissons Ratio (y) = 0.18612 0.32625
# Poissons Ratio (z) = 0.26897 0.28037
#
# Static dielectric constant tensor:
#      x y z
#    x 1.678230 0.000000 0.010100 
#    y 0.000000 1.727400 0.000000 
#    z 0.010100 0.000000 1.739450 
# 
# From -- ./inp_files/12193.got.cif
#   From: 2010.05.17/outbox.cif.g08.bks.cpg/sg3_7_cif.got.tgz:12193.got - 2010.06.03 18:33:08.
