data_PCOD9112321
_publ_section_title
;
Structure prediction by ZEFSAII (Michael W. Deem and Ramdas Pophale) SiO2 
 PCOD9112321
Probable space group: P -1
;
_chemical_formula_sum "Si O2"
_cell_formula_units_Z 15
_cell_length_a 20.748371
_cell_length_b 18.069044
_cell_length_c 9.670596
_cell_angle_alpha 25.008914
_cell_angle_beta 153.301801
_cell_angle_gamma 155.164388
_cell_volume 590.137584
_symmetry_space_group_name_H-M "P -1"
_symmetry_group_IT_number 2
_symmetry_cell_setting 'triclinic'
loop_
_space_group_symop_operation_xyz
x,y,z
-x,-y,-z
loop_
_atom_site_type_symbol
_atom_site_label
_atom_site_fract_x
_atom_site_fract_y
_atom_site_fract_z
Si Si1 0.185424 0.621262 0.718940
Si Si2 0.636800 0.114462 0.867484
Si Si3 0.005071 0.297041 0.328769
Si Si4 0.469180 0.241746 0.525424
Si Si5 0.879766 0.906820 0.297736
Si Si6 0.389815 0.430403 0.542064
Si Si7 0.873215 0.100162 0.683943
Si Si8 0.500000 0.000000 0.500000
O O1 0.173819 0.732848 0.645790
O O2 0.327524 0.792266 0.601446
O O3 0.000000 0.500000 0.500000
O O4 0.244124 0.468851 0.143357
O O5 0.612779 0.277761 0.631557
O O6 0.571439 0.096259 0.622338
O O7 0.821489 0.152214 0.157269
O O8 0.534058 0.905962 0.109788
O O9 0.002619 0.197880 0.640324
O O10 0.125581 0.280571 0.479084
O O11 0.000000 0.500000 0.000000
O O12 0.506217 0.439075 0.347168
O O13 0.293015 0.105906 0.338235
O O14 0.693160 0.808523 0.171317
O O15 0.000000 0.000000 0.500000
O O16 0.930130 0.062095 0.005209
O O17 0.500000 0.500000 0.500000
#
# Coordination Sequence:
#
# PCOD9112321 Si02
#       8
#     2   2   2   2   2   2   2   1
#     4  12  27  49  76 117 156 202 267 325 391 480
#     4  10  21  38  74 104 139 193 245 312 382 456
#     4  11  25  46  76 108 150 197 260 319 391 471
#     4  10  20  46  69  99 148 190 253 313 382 460
#     4  12  29  48  73 111 157 199 255 331 402 469
#     4  12  28  48  75 109 157 205 263 328 398 475
#     4  11  25  46  78 107 151 202 260 322 398 469
#     4  12  24  40  78 110 148 192 262 314 398 452
#
# _framework density 25.417801000000001
#
# number of rings (size 3 to 8) (size 9 to 14) (size 15 to 20)
#    0.000    0.800    2.667    4.400   11.200    0.533 
#    2.400    0.000    0.000    0.000    0.000    0.000 
#    0.000    0.000    0.000    0.000    0.000    0.000 
#
# Total GULP energy -83684.845467 kJ/mol
# GULP energy per Si atom -5578.989698 kJ/mol
# Density = 2.535995 g / cm^3
# Si number density = 25.417801 Si / 1000 Ang^3
#
#
#
# Elastic Constant Matrix: (Units=GPa)
#
#
# Indices 1 2 3 4 5 6 
#
# 1 145.3943 28.6877 29.5003 8.7927 -49.9166 1.2591
# 2 28.6877 93.5415 12.6424 8.6655 -19.8886 -10.7367
# 3 29.5003 12.6424 96.7116 6.1018 -32.2906 -4.0693
# 4 8.7927 8.6655 6.1018 39.9083 -1.5718 -8.4015
# 5 -49.9166 -19.8886 -32.2906 -1.5718 46.4860 5.4533
# 6 1.2591 -10.7367 -4.0693 -8.4015 5.4533 47.1665
#
#
#
# Elastic Compliance Matrix: (Units=1/GPa)
#
#
# Indices 1 2 3 4 5 6 
#
# 1 0.011394 -0.000972 0.000934 -0.002437 0.012660 -0.002343
# 2 -0.000972 0.012226 0.000261 -0.001894 0.004067 0.002024
# 3 0.000934 0.000261 0.013666 -0.002013 0.010582 -0.000368
# 4 -0.002437 -0.001894 -0.002013 0.027151 -0.004472 0.004813
# 5 0.012660 0.004067 0.010582 -0.004472 0.044568 -0.004449
# 6 -0.002343 0.002024 -0.000368 0.004813 -0.004449 0.023065
#
#
# Mechanical properties :
#
#
# Convention : Reuss Voigt Hill
#
# Bulk Modulus (GPa) = 26.50363 53.03426 39.76894
# Shear Modulus (GPa) = 34.67389 44.36661 39.52025
#
# Velocity S-wave (km/s) = 3.69746 4.18244 3.94741
# Velocity P-wave (km/s) = 5.35519 6.65087 6.03789
#
# Compressibility (1/GPa) = 0.03773068
#
# Stress axis : x y z
#
# Youngs Moduli (GPa) = 87.76251 81.79491 73.17555
#
# Poissons Ratio (x) = 0.07951 -0.06832
# Poissons Ratio (y) = 0.08531 -0.01908
# Poissons Ratio (z) = -0.08194 -0.02133
#
# Static dielectric constant tensor:
#      x y z
#    x 2.017030 0.039810 0.311430 
#    y 0.039810 2.016050 0.191190 
#    z 0.311430 0.191190 -0.144600 
# 
# From -- ./inp_files/348789.got.cif
#   From: 2010.05.17/outbox.cif.g08.bks.cpg/sg2_175_cif.got.tgz:348789.got - 2010.06.03 11:33:40.
