data_PCOD9112513
_publ_section_title
;
Structure prediction by ZEFSAII (Michael W. Deem and Ramdas Pophale) SiO2 
 PCOD9112513
Probable space group: P 2
;
_chemical_formula_sum "Si O2"
_cell_formula_units_Z 14
_cell_length_a 11.619448
_cell_length_b 13.727325
_cell_length_c 5.651077
_cell_angle_alpha 90.000000
_cell_angle_beta 124.297569
_cell_angle_gamma 90.000000
_cell_volume 744.640979
_symmetry_space_group_name_H-M "P 2"
_symmetry_group_IT_number 3
_symmetry_cell_setting 'monoclinic'
loop_
_space_group_symop_operation_xyz
x,y,z
-x,y,-z
loop_
_atom_site_type_symbol
_atom_site_label
_atom_site_fract_x
_atom_site_fract_y
_atom_site_fract_z
Si Si1 0.340745 0.440160 0.047815
Si Si2 0.661811 0.515008 0.461850
Si Si3 0.750196 0.021033 0.001933
Si Si4 0.415026 0.216464 0.148099
Si Si5 0.500000 0.892534 0.500000
Si Si6 0.850124 0.857867 0.445162
Si Si7 0.000000 0.955113 0.000000
Si Si8 0.621931 0.725295 0.307052
O O1 0.500892 0.478715 0.255762
O O2 0.275598 0.468522 0.226770
O O3 0.349884 0.323616 0.046750
O O4 0.281049 0.484536 0.732709
O O5 0.666359 0.631380 0.505229
O O6 0.626260 0.961638 0.727926
O O7 0.901687 0.018770 0.053005
O O8 0.695686 0.129250 0.972366
O O9 0.777333 0.955199 0.263925
O O10 0.500000 0.214301 0.500000
O O11 0.500000 0.200893 0.000000
O O12 0.559729 0.818000 0.373057
O O13 0.888478 0.882382 0.756159
O O14 0.749667 0.767226 0.304914
O O15 0.000000 0.843946 0.500000
O O16 0.500000 0.687223 0.000000
#
# Coordination Sequence:
#
# PCOD9112513 Si02
#       8
#     2   2   2   2   1   2   1   2
#     4  10  17  36  50  83 123 154 181 239 300 363
#     4  10  19  32  54  81 122 154 187 234 300 357
#     4  11  24  36  61  84 123 157 201 250 302 363
#     4  12  23  35  60  92 124 155 195 245 312 358
#     4  12  22  34  54  92 122 148 186 260 298 352
#     4  10  23  41  56  79 120 163 203 243 293 365
#     4  10  22  46  54  74 118 170 204 242 298 358
#     4  12  22  33  58  90 117 153 196 245 300 351
#
# _framework density 18.801006999999998
#
# number of rings (size 3 to 8) (size 9 to 14) (size 15 to 20)
#    0.000    1.143    7.857    0.857    4.000    0.000 
#    0.000    0.000    0.000    0.000    3.714    0.000 
#    0.000    0.000    0.000    0.000    0.000    0.000 
#
# Total GULP energy -77967.357046 kJ/mol
# GULP energy per Si atom -5569.096932 kJ/mol
# Density = 1.875821 g / cm^3
# Si number density = 18.801007 Si / 1000 Ang^3
#
#
#
# Elastic Constant Matrix: (Units=GPa)
#
#
# Indices 1 2 3 4 5 6 
#
# 1 44.8863 33.6392 22.7072 0.0000 -5.0838 0.0000
# 2 33.6392 126.5335 4.2946 0.0000 3.7864 0.0000
# 3 22.7072 4.2946 74.1240 0.0000 -12.7668 0.0000
# 4 0.0000 0.0000 0.0000 9.0617 0.0000 -15.1955
# 5 -5.0838 3.7864 -12.7668 0.0000 28.5542 0.0000
# 6 0.0000 0.0000 0.0000 -15.1955 0.0000 13.4820
#
#
#
# Elastic Compliance Matrix: (Units=1/GPa)
#
#
# Indices 1 2 3 4 5 6 
#
# 1 0.033957 -0.008800 -0.009372 0.000000 0.003022 0.000000
# 2 -0.008800 0.010248 0.001731 0.000000 -0.002152 0.000000
# 3 -0.009372 0.001731 0.017264 0.000000 0.005821 0.000000
# 4 0.000000 0.000000 0.000000 -0.123991 0.000000 -0.139750
# 5 0.003022 -0.002152 0.005821 0.000000 0.038447 0.000000
# 6 0.000000 0.000000 0.000000 -0.139750 0.000000 -0.083339
#
#
# Mechanical properties :
#
#
# Convention : Reuss Voigt Hill
#
# Bulk Modulus (GPa) = 34.97932 40.75841 37.86887
# Shear Modulus (GPa) = -76.91954 22.54644 -27.18655
#
# Velocity S-wave (km/s) = -6.40322 3.46672 -3.80678
# Velocity P-wave (km/s) = 6.00191 6.14411 0.92930
#
# Compressibility (1/GPa) = 0.02858832
#
# Stress axis : x y z
#
# Youngs Moduli (GPa) = 29.44923 97.57895 57.92360
#
# Poissons Ratio (x) = 0.85868 0.54286
# Poissons Ratio (y) = 0.25915 -0.10029
# Poissons Ratio (z) = 0.27600 -0.16895
#
# Static dielectric constant tensor:
#      x y z
#    x 1.704940 0.000000 -0.056870 
#    y 0.000000 1.618410 0.000000 
#    z -0.056870 0.000000 1.734340 
# 
# From -- ./inp_files/2536.got.cif
#   From: 2010.05.17/outbox.cif.g08.bks.cpg/sg3_2_cif.got.tgz:2536.got - 2010.06.03 18:33:08.
