data_PCOD9112090
_publ_section_title
;
Structure prediction by ZEFSAII (Michael W. Deem and Ramdas Pophale) SiO2 
 PCOD9112090
Probable space group: P -1
;
_chemical_formula_sum "Si O2"
_cell_formula_units_Z 13
_cell_length_a 13.206220
_cell_length_b 8.191553
_cell_length_c 6.643599
_cell_angle_alpha 123.485080
_cell_angle_beta 102.314574
_cell_angle_gamma 53.911708
_cell_volume 477.696861
_symmetry_space_group_name_H-M "P -1"
_symmetry_group_IT_number 2
_symmetry_cell_setting 'triclinic'
loop_
_space_group_symop_operation_xyz
x,y,z
-x,-y,-z
loop_
_atom_site_type_symbol
_atom_site_label
_atom_site_fract_x
_atom_site_fract_y
_atom_site_fract_z
Si Si1 0.125261 0.338071 0.238633
Si Si2 0.000000 0.000000 0.000000
Si Si3 0.928526 0.871965 0.572797
Si Si4 0.625818 0.995659 0.068598
Si Si5 0.685981 0.292708 0.522081
Si Si6 0.466174 0.328512 0.949166
Si Si7 0.748474 0.492311 0.304502
O O1 0.088468 0.168476 0.213453
O O2 0.193152 0.383387 0.477322
O O3 0.001867 0.607064 0.329623
O O4 0.226770 0.224618 0.024745
O O5 0.139717 0.732613 0.924692
O O6 0.022287 0.944644 0.720044
O O7 0.806278 0.074095 0.543422
O O8 0.608642 0.181215 0.353598
O O9 0.606036 0.101463 0.907727
O O10 0.500000 0.000000 0.000000
O O11 0.618462 0.522887 0.792295
O O12 0.705287 0.386038 0.384905
O O13 0.500000 0.500000 0.000000
O O14 0.372984 0.317629 0.753402
#
# Coordination Sequence:
#
# PCOD9112090 Si02
#       7
#     2   1   2   2   2   2   2
#     4  10  24  45  66 101 136 180 217 283 348 396
#     4  10  20  44  70 100 130 174 222 278 340 396
#     4  10  22  44  73  99 133 172 232 282 340 397
#     4  12  27  43  65 102 143 177 228 272 336 411
#     4  12  25  46  71 103 129 181 235 279 330 403
#     4  12  25  45  71  95 136 186 222 282 329 404
#     4  11  24  44  72  99 137 175 231 275 341 401
#
# _framework density 27.213912000000001
#
# number of rings (size 3 to 8) (size 9 to 14) (size 15 to 20)
#    0.000    0.923    3.077    3.231    4.308    3.692 
#    2.769    0.000    0.000    0.000    0.000    0.000 
#    0.000    0.000    0.000    0.000    0.000    0.000 
#
# Total GULP energy -72461.117900 kJ/mol
# GULP energy per Si atom -5573.932146 kJ/mol
# Density = 2.715197 g / cm^3
# Si number density = 27.213912 Si / 1000 Ang^3
#
#
#
# Elastic Constant Matrix: (Units=GPa)
#
#
# Indices 1 2 3 4 5 6 
#
# 1 86.4468 7.3796 25.0968 -8.7414 1.0766 -10.0341
# 2 7.3796 131.2813 36.9017 15.1437 7.1373 -42.3894
# 3 25.0968 36.9017 82.4465 6.8202 9.0160 -10.8041
# 4 -8.7414 15.1437 6.8202 43.8177 -19.9618 13.8511
# 5 1.0766 7.1373 9.0160 -19.9618 48.3666 -15.1729
# 6 -10.0341 -42.3894 -10.8041 13.8511 -15.1729 42.9944
#
#
#
# Elastic Compliance Matrix: (Units=1/GPa)
#
#
# Indices 1 2 3 4 5 6 
#
# 1 0.013503 0.000870 -0.004748 0.003550 0.002750 0.002643
# 2 0.000870 0.015720 -0.004060 -0.010415 -0.000250 0.017949
# 3 -0.004748 -0.004060 0.015940 -0.003455 -0.004149 -0.001456
# 4 0.003550 -0.010415 -0.003455 0.039208 0.012468 -0.018540
# 5 0.002750 -0.000250 -0.004149 0.012468 0.028233 0.005299
# 6 0.002643 0.017949 -0.001456 -0.018540 0.005299 0.049049
#
#
# Mechanical properties :
#
#
# Convention : Reuss Voigt Hill
#
# Bulk Modulus (GPa) = 34.14352 48.77009 41.45681
# Shear Modulus (GPa) = 26.69646 42.42216 34.55931
#
# Velocity S-wave (km/s) = 3.13547 3.95250 3.56745
# Velocity P-wave (km/s) = 5.06772 6.22813 5.67765
#
# Compressibility (1/GPa) = 0.02928813
#
# Stress axis : x y z
#
# Youngs Moduli (GPa) = 74.05559 63.61335 62.73466
#
# Poissons Ratio (x) = -0.05534 0.29785
# Poissons Ratio (y) = -0.06443 0.25469
# Poissons Ratio (z) = 0.35160 0.25826
#
# Static dielectric constant tensor:
#      x y z
#    x -1.079600 -0.421880 -1.525360 
#    y -0.421880 2.051910 -0.354560 
#    z -1.525360 -0.354560 1.439470 
# 
# From -- ./inp_files/26371.got.cif
#   From: 2010.05.17/outbox.cif.g08.bks.cpg/sg2_14_cif.got.tgz:26371.got - 2010.06.03 11:33:40.
