data_PCOD9112628
_publ_section_title
;
Structure prediction by ZEFSAII (Michael W. Deem and Ramdas Pophale) SiO2 
 PCOD9112628
Probable space group: P 2
;
_chemical_formula_sum "Si O2"
_cell_formula_units_Z 14
_cell_length_a 5.381231
_cell_length_b 7.968600
_cell_length_c 12.179231
_cell_angle_alpha 90.000000
_cell_angle_beta 87.703742
_cell_angle_gamma 90.000000
_cell_volume 521.836746
_symmetry_space_group_name_H-M "P 2"
_symmetry_group_IT_number 3
_symmetry_cell_setting 'monoclinic'
loop_
_space_group_symop_operation_xyz
x,y,z
-x,y,-z
loop_
_atom_site_type_symbol
_atom_site_label
_atom_site_fract_x
_atom_site_fract_y
_atom_site_fract_z
Si Si1 0.912789 0.709200 0.843029
Si Si2 0.581205 0.892701 0.161480
Si Si3 0.465019 0.358149 0.663421
Si Si4 0.306170 0.999355 0.368383
Si Si5 0.918134 0.161353 0.216574
Si Si6 0.796411 0.654383 0.587369
Si Si7 0.693560 0.369739 0.900404
O O1 0.681288 0.831997 0.881405
O O2 0.897229 0.675104 0.711209
O O3 0.852018 0.538000 0.903777
O O4 0.186914 0.773820 0.864836
O O5 0.515828 0.906892 0.291786
O O6 0.695461 0.078144 0.150485
O O7 0.593782 0.188070 0.611163
O O8 0.182804 0.302533 0.696334
O O9 0.564525 0.526113 0.604654
O O10 0.558377 0.383827 0.785744
O O11 0.068503 0.034922 0.293602
O O12 0.249760 0.847908 0.451568
O O13 0.112914 0.222891 0.124290
O O14 0.000000 0.581333 0.500000
O O15 0.500000 0.356354 0.000000
#
# Coordination Sequence:
#
# PCOD9112628 Si02
#       7
#     2   2   2   2   2   2   2
#     4  10  22  39  67  91 133 170 220 267 336 388
#     4  10  18  39  67  92 121 174 213 267 330 396
#     4   9  21  38  65  94 132 178 218 274 341 390
#     4   9  19  37  64  92 123 174 219 269 335 392
#     4  10  19  39  70  89 130 172 220 274 333 402
#     4  10  20  38  65  98 133 174 227 275 324 400
#     4  10  23  40  64  96 130 174 225 273 332 397
#
# _framework density 26.828309999999998
#
# number of rings (size 3 to 8) (size 9 to 14) (size 15 to 20)
#    0.000    2.286    2.857    0.000    6.000    1.143 
#    0.000    3.571    9.429    5.143    0.000    0.000 
#    0.000    0.000    0.000    0.000    0.000    0.000 
#
# Total GULP energy -78194.492931 kJ/mol
# GULP energy per Si atom -5585.320924 kJ/mol
# Density = 2.676725 g / cm^3
# Si number density = 26.828310 Si / 1000 Ang^3
#
#
#
# Elastic Constant Matrix: (Units=GPa)
#
#
# Indices 1 2 3 4 5 6 
#
# 1 136.3869 41.0178 67.1879 0.0000 -27.1167 0.0000
# 2 41.0178 161.1292 49.0151 0.0000 -18.3746 0.0000
# 3 67.1879 49.0151 131.8039 0.0000 -9.0559 0.0000
# 4 0.0000 0.0000 0.0000 10.5511 0.0000 -23.0981
# 5 -27.1167 -18.3746 -9.0559 0.0000 53.9717 0.0000
# 6 0.0000 0.0000 0.0000 -23.0981 0.0000 5.8140
#
#
#
# Elastic Compliance Matrix: (Units=1/GPa)
#
#
# Indices 1 2 3 4 5 6 
#
# 1 0.010873 -0.000761 -0.004959 0.000000 0.004372 0.000000
# 2 -0.000761 0.007264 -0.002195 0.000000 0.001722 0.000000
# 3 -0.004959 -0.002195 0.010834 0.000000 -0.001421 0.000000
# 4 0.000000 0.000000 0.000000 -0.012313 0.000000 -0.048918
# 5 0.004372 0.001722 -0.001421 0.000000 0.021073 0.000000
# 6 0.000000 0.000000 0.000000 -0.048918 0.000000 -0.022346
#
#
# Mechanical properties :
#
#
# Convention : Reuss Voigt Hill
#
# Bulk Modulus (GPa) = 76.10133 82.64015 79.37074
# Shear Modulus (GPa) = 140.46549 32.20731 86.33640
#
# Velocity S-wave (km/s) = 7.24368 3.46858 5.67899
# Velocity P-wave (km/s) = 9.91911 6.84920 8.52351
#
# Compressibility (1/GPa) = 0.01314038
#
# Stress axis : x y z
#
# Youngs Moduli (GPa) = 91.96897 137.66404 92.30353
#
# Poissons Ratio (x) = 0.10473 0.45777
# Poissons Ratio (y) = 0.06997 0.20262
# Poissons Ratio (z) = 0.45611 0.30220
#
# Static dielectric constant tensor:
#      x y z
#    x 2.230330 0.000000 0.040630 
#    y 0.000000 2.236230 0.000000 
#    z 0.040630 0.000000 1.992780 
# 
# From -- ./inp_files/12998.got.cif
#   From: 2010.05.17/outbox.cif.g08.bks.cpg/sg3_7_cif.got.tgz:12998.got - 2010.06.03 18:33:08.
