data_PCOD9112085
_publ_section_title
;
Structure prediction by ZEFSAII (Michael W. Deem and Ramdas Pophale) SiO2 
 PCOD9112085
Probable space group: P -1
;
_chemical_formula_sum "Si O2"
_cell_formula_units_Z 16
_cell_length_a 6.499836
_cell_length_b 18.220555
_cell_length_c 16.234909
_cell_angle_alpha 158.210055
_cell_angle_beta 70.320223
_cell_angle_gamma 113.117078
_cell_volume 654.231663
_symmetry_space_group_name_H-M "P -1"
_symmetry_group_IT_number 2
_symmetry_cell_setting 'triclinic'
loop_
_space_group_symop_operation_xyz
x,y,z
-x,-y,-z
loop_
_atom_site_type_symbol
_atom_site_label
_atom_site_fract_x
_atom_site_fract_y
_atom_site_fract_z
Si Si1 0.663121 0.477474 0.526292
Si Si2 0.098932 0.899620 0.110623
Si Si3 0.858851 0.762453 0.170887
Si Si4 0.508906 0.458994 0.811287
Si Si5 0.945304 0.318862 0.587824
Si Si6 0.614350 0.346016 0.127139
Si Si7 0.075676 0.809807 0.827978
Si Si8 0.011842 0.231000 0.670620
O O1 0.500000 0.500000 0.500000
O O2 0.580832 0.580385 0.722999
O O3 0.693120 0.248298 0.290453
O O4 0.892636 0.626114 0.623357
O O5 0.959250 0.788160 0.091835
O O6 0.020993 0.111982 0.339806
O O7 0.345495 0.871648 0.077431
O O8 0.070252 0.816390 0.934892
O O9 0.005470 0.699617 0.160534
O O10 0.625491 0.603457 0.020828
O O11 0.874232 0.996302 0.438290
O O12 0.433053 0.613706 0.918846
O O13 0.286158 0.284543 0.679644
O O14 0.701066 0.355922 0.637858
O O15 0.155233 0.493001 0.711518
O O16 0.937444 0.323115 0.693377
O O17 0.000000 0.000000 0.000000
#
# Coordination Sequence:
#
# PCOD9112085 Si02
#       8
#     2   2   2   2   2   2   2   2
#     4  11  25  45  69  98 136 177 224 279 343 418
#     4  11  23  45  66  98 140 178 222 286 347 402
#     4  10  20  44  69  94 148 182 228 292 339 414
#     4  11  22  43  70 101 136 190 231 285 349 404
#     4  10  24  43  68 102 143 175 232 290 333 415
#     4  11  24  44  67 100 139 181 230 279 346 413
#     4  11  27  44  69 102 135 176 226 281 344 411
#     4   9  22  43  63 107 137 184 236 283 344 412
#
# _framework density 24.45617
#
# number of rings (size 3 to 8) (size 9 to 14) (size 15 to 20)
#    0.000    1.500    2.500    1.125    3.500    2.000 
#   20.250    3.125    0.000    0.000    0.000    0.000 
#    0.000    0.000    0.000    0.000    0.000    0.000 
#
# Total GULP energy -89166.967893 kJ/mol
# GULP energy per Si atom -5572.935493 kJ/mol
# Density = 2.440051 g / cm^3
# Si number density = 24.456170 Si / 1000 Ang^3
#
#
#
# Elastic Constant Matrix: (Units=GPa)
#
#
# Indices 1 2 3 4 5 6 
#
# 1 126.5427 25.0182 56.7409 6.3373 -23.3805 -17.6426
# 2 25.0182 44.7653 -2.6076 -1.8659 -3.1760 -25.3492
# 3 56.7409 -2.6076 109.5191 1.2789 -17.9387 -3.4082
# 4 6.3373 -1.8659 1.2789 30.7633 -7.7095 4.2704
# 5 -23.3805 -3.1760 -17.9387 -7.7095 41.9179 -1.0577
# 6 -17.6426 -25.3492 -3.4082 4.2704 -1.0577 37.9372
#
#
#
# Elastic Compliance Matrix: (Units=1/GPa)
#
#
# Indices 1 2 3 4 5 6 
#
# 1 0.012990 -0.006671 -0.006211 -0.002076 0.003735 0.001363
# 2 -0.006671 0.040405 0.005576 0.000835 0.002495 0.024372
# 3 -0.006211 0.005576 0.012989 0.001525 0.002846 0.001912
# 4 -0.002076 0.000835 0.001525 0.034957 0.005886 -0.004041
# 5 0.003735 0.002495 0.002846 0.005886 0.028524 0.003792
# 6 0.001363 0.024372 0.001912 -0.004041 0.003792 0.044011
#
#
# Mechanical properties :
#
#
# Convention : Reuss Voigt Hill
#
# Bulk Modulus (GPa) = 19.31542 48.79224 34.05383
# Shear Modulus (GPa) = 24.30175 35.56871 29.93523
#
# Velocity S-wave (km/s) = 3.15570 3.81778 3.50242
# Velocity P-wave (km/s) = 4.60359 6.27918 5.50550
#
# Compressibility (1/GPa) = 0.05177211
#
# Stress axis : x y z
#
# Youngs Moduli (GPa) = 76.98043 24.74939 76.98793
#
# Poissons Ratio (x) = 0.16511 0.47814
# Poissons Ratio (y) = 0.51356 -0.42926
# Poissons Ratio (z) = 0.47809 -0.13800
#
# Static dielectric constant tensor:
#      x y z
#    x 2.114090 -0.077370 -0.005370 
#    y -0.077370 1.918960 0.304220 
#    z -0.005370 0.304220 1.435640 
# 
# From -- ./inp_files/551021.got.cif
#   From: 2010.05.17/outbox.cif.g08.bks.cpg/sg2_276_cif.got.tgz:551021.got - 2010.06.03 11:33:40.
