data_PCOD9112492
_publ_section_title
;
Structure prediction by ZEFSAII (Michael W. Deem and Ramdas Pophale) SiO2 
 PCOD9112492
Probable space group: P 2
;
_chemical_formula_sum "Si O2"
_cell_formula_units_Z 13
_cell_length_a 8.700738
_cell_length_b 8.135590
_cell_length_c 9.336638
_cell_angle_alpha 90.000000
_cell_angle_beta 88.008780
_cell_angle_gamma 90.000000
_cell_volume 660.500793
_symmetry_space_group_name_H-M "P 2"
_symmetry_group_IT_number 3
_symmetry_cell_setting 'monoclinic'
loop_
_space_group_symop_operation_xyz
x,y,z
-x,y,-z
loop_
_atom_site_type_symbol
_atom_site_label
_atom_site_fract_x
_atom_site_fract_y
_atom_site_fract_z
Si Si1 0.858523 0.671340 0.745483
Si Si2 0.322712 0.497105 0.497271
Si Si3 0.187690 0.886674 0.995248
Si Si4 0.818184 0.578974 0.190858
Si Si5 0.847955 0.198134 0.428212
Si Si6 0.000000 0.889114 0.500000
Si Si7 0.839797 0.239666 0.089450
O O1 0.751568 0.564989 0.645820
O O2 0.994469 0.570099 0.818763
O O3 0.958002 0.784772 0.637024
O O4 0.773997 0.792304 0.858749
O O5 0.500000 0.539895 0.500000
O O6 0.237359 0.561281 0.643662
O O7 0.294066 0.301828 0.511397
O O8 0.229797 0.754015 0.872344
O O9 0.241335 0.074287 0.969877
O O10 0.000000 0.897069 0.000000
O O11 0.762163 0.420607 0.100225
O O12 0.866939 0.204342 0.257430
O O13 0.000000 0.274914 0.500000
O O14 0.857488 0.010099 0.474543
O O15 0.000000 0.252362 0.000000
#
# Coordination Sequence:
#
# PCOD9112492 Si02
#       7
#     2   2   2   2   2   1   2
#     4  11  19  36  58  88 117 147 193 239 299 348
#     4  11  22  37  56  82 116 157 199 235 285 353
#     4   9  19  31  52  87 114 142 184 239 292 346
#     4  10  19  35  57  85 113 146 189 241 289 341
#     4   9  20  33  55  86 110 150 187 244 293 333
#     4  10  18  30  60  84 112 144 186 248 296 332
#     4  10  17  29  51  84 114 139 181 234 293 340
#
# _framework density 19.682036
#
# number of rings (size 3 to 8) (size 9 to 14) (size 15 to 20)
#    0.462    1.538    1.538    6.000    0.000    0.000 
#    0.000    1.538    0.000    0.000    0.000    0.000 
#    0.000    0.000    0.000    0.000    0.000    0.000 
#
# Total GULP energy -72394.246824 kJ/mol
# GULP energy per Si atom -5568.788217 kJ/mol
# Density = 1.963724 g / cm^3
# Si number density = 19.682036 Si / 1000 Ang^3
#
#
#
# Elastic Constant Matrix: (Units=GPa)
#
#
# Indices 1 2 3 4 5 6 
#
# 1 36.8920 14.4645 12.5403 0.0000 5.5728 0.0000
# 2 14.4645 107.1663 32.4789 0.0000 2.3793 0.0000
# 3 12.5403 32.4789 91.6135 0.0000 -3.9924 0.0000
# 4 0.0000 0.0000 0.0000 30.5844 0.0000 0.0295
# 5 5.5728 2.3793 -3.9924 0.0000 5.7466 0.0000
# 6 0.0000 0.0000 0.0000 0.0295 0.0000 -1.6381
#
#
#
# Elastic Compliance Matrix: (Units=1/GPa)
#
#
# Indices 1 2 3 4 5 6 
#
# 1 0.035602 -0.002239 -0.005717 0.000000 -0.037571 0.000000
# 2 -0.002239 0.010886 -0.003769 0.000000 -0.004954 0.000000
# 3 -0.005717 -0.003769 0.013760 0.000000 0.016664 0.000000
# 4 0.000000 0.000000 0.000000 0.032696 0.000000 0.000589
# 5 -0.037571 -0.004954 0.016664 0.000000 0.224077 0.000000
# 6 0.000000 0.000000 0.000000 0.000589 0.000000 -0.610461
#
#
# Mechanical properties :
#
#
# Convention : Reuss Voigt Hill
#
# Bulk Modulus (GPa) = 27.17403 39.40436 33.28919
# Shear Modulus (GPa) = -19.40053 18.68447 -0.35803
#
# Velocity S-wave (km/s) = -3.14299 3.08444 -0.42697
# Velocity P-wave (km/s) = 0.81567 5.72267 4.08744
#
# Compressibility (1/GPa) = 0.03679984
#
# Stress axis : x y z
#
# Youngs Moduli (GPa) = 28.08796 91.86450 72.67305
#
# Poissons Ratio (x) = 0.20564 0.41547
# Poissons Ratio (y) = 0.06288 0.27388
# Poissons Ratio (z) = 0.16058 0.34621
#
# Static dielectric constant tensor:
#      x y z
#    x 1.651520 0.000000 0.024260 
#    y 0.000000 1.767450 0.000000 
#    z 0.024260 0.000000 1.714770 
# 
# From -- ./inp_files/5431.got.cif
#   From: 2010.05.17/outbox.cif.g08.bks.cpg/sg3_3_cif.got.tgz:5431.got - 2010.06.03 18:33:08.
