data_PCOD9112821
_publ_section_title
;
Structure prediction by ZEFSAII (Michael W. Deem and Ramdas Pophale) SiO2 
 PCOD9112821
Probable space group: P 2
;
_chemical_formula_sum "Si O2"
_cell_formula_units_Z 8
_cell_length_a 17.651745
_cell_length_b 5.133879
_cell_length_c 11.070523
_cell_angle_alpha 90.000000
_cell_angle_beta 162.501096
_cell_angle_gamma 90.000000
_cell_volume 301.659403
_symmetry_space_group_name_H-M "P 2"
_symmetry_group_IT_number 3
_symmetry_cell_setting 'monoclinic'
loop_
_space_group_symop_operation_xyz
x,y,z
-x,y,-z
loop_
_atom_site_type_symbol
_atom_site_label
_atom_site_fract_x
_atom_site_fract_y
_atom_site_fract_z
Si Si1 0.002433 0.101940 0.840919
Si Si2 0.000000 0.589063 0.000000
Si Si3 0.755661 0.955066 0.040917
Si Si4 0.695364 0.460465 0.047381
Si Si5 0.500000 0.390785 0.000000
O O1 0.734407 0.213274 0.391307
O O2 0.166787 0.047074 0.972176
O O3 0.108464 0.354733 0.076275
O O4 0.951147 0.819154 0.824682
O O5 0.618665 0.680488 0.837018
O O6 0.000000 0.913572 0.500000
O O7 0.599441 0.175024 0.870683
O O8 0.594886 0.542217 0.025549
O O9 0.000000 0.424920 0.500000
#
# Coordination Sequence:
#
# PCOD9112821 Si02
#       5
#     2   1   2   2   1
#     4  11  23  44  71 103 144 192 239 292 357 429
#     4  10  26  44  64 100 156 202 222 272 384 454
#     4  10  19  38  62  99 135 182 214 295 357 400
#     4  10  21  36  58 109 141 169 209 313 360 385
#     4  12  24  40  80 114 134 174 264 308 322 420
#
# _framework density 26.519973
#
# number of rings (size 3 to 8) (size 9 to 14) (size 15 to 20)
#    0.000    1.500    5.000    1.500    3.500    4.000 
#    0.000    0.000    0.000   22.500    0.000    0.000 
#    0.000    0.000    0.000    0.000    0.000    0.000 
#
# Total GULP energy -44562.096142 kJ/mol
# GULP energy per Si atom -5570.262018 kJ/mol
# Density = 2.645961 g / cm^3
# Si number density = 26.519973 Si / 1000 Ang^3
#
#
#
# Elastic Constant Matrix: (Units=GPa)
#
#
# Indices 1 2 3 4 5 6 
#
# 1 165.8197 18.1426 -10.2634 0.0000 18.1894 0.0000
# 2 18.1426 193.4655 15.1330 0.0000 1.7715 0.0000
# 3 -10.2634 15.1330 64.3860 0.0000 14.8365 0.0000
# 4 0.0000 0.0000 0.0000 24.0540 0.0000 -4.1796
# 5 18.1894 1.7715 14.8365 0.0000 24.7190 0.0000
# 6 0.0000 0.0000 0.0000 -4.1796 0.0000 58.5992
#
#
#
# Elastic Compliance Matrix: (Units=1/GPa)
#
#
# Indices 1 2 3 4 5 6 
#
# 1 0.007055 -0.000826 0.002903 0.000000 -0.006874 0.000000
# 2 -0.000826 0.005366 -0.001676 0.000000 0.001229 0.000000
# 3 0.002903 -0.001676 0.019557 0.000000 -0.013754 0.000000
# 4 0.000000 0.000000 0.000000 0.042095 0.000000 0.003002
# 5 -0.006874 0.001229 -0.013754 0.000000 0.053680 0.000000
# 6 0.000000 0.000000 0.000000 0.003002 0.000000 0.017279
#
#
# Mechanical properties :
#
#
# Convention : Reuss Voigt Hill
#
# Bulk Modulus (GPa) = 30.50644 52.18841 41.34742
# Shear Modulus (GPa) = 32.22533 48.18503 40.20518
#
# Velocity S-wave (km/s) = 3.48966 4.26717 3.89785
# Velocity P-wave (km/s) = 5.26926 6.63325 5.99021
#
# Compressibility (1/GPa) = 0.03277996
#
# Stress axis : x y z
#
# Youngs Moduli (GPa) = 141.74961 186.35307 51.13179
#
# Poissons Ratio (x) = 0.15387 -0.14842
# Poissons Ratio (y) = 0.11704 0.08570
# Poissons Ratio (z) = -0.41144 0.31234
#
# Static dielectric constant tensor:
#      x y z
#    x 2.066120 0.000000 -0.075630 
#    y 0.000000 2.103210 0.000000 
#    z -0.075630 0.000000 1.031590 
# 
# From -- ./inp_files/12330.got.cif
#   From: 2010.05.17/outbox.cif.g08.bks.cpg/sg3_7_cif.got.tgz:12330.got - 2010.06.03 18:33:08.
