data_PCOD9112430
_publ_section_title
;
Structure prediction by ZEFSAII (Michael W. Deem and Ramdas Pophale) SiO2 
 PCOD9112430
Probable space group: P -1
;
_chemical_formula_sum "Si O2"
_cell_formula_units_Z 14
_cell_length_a 23.356323
_cell_length_b 13.001400
_cell_length_c 5.190730
_cell_angle_alpha 68.582846
_cell_angle_beta 112.281615
_cell_angle_gamma 151.524836
_cell_volume 693.586358
_symmetry_space_group_name_H-M "P -1"
_symmetry_group_IT_number 2
_symmetry_cell_setting 'triclinic'
loop_
_space_group_symop_operation_xyz
x,y,z
-x,-y,-z
loop_
_atom_site_type_symbol
_atom_site_label
_atom_site_fract_x
_atom_site_fract_y
_atom_site_fract_z
Si Si1 0.454744 0.523562 0.701105
Si Si2 0.041587 0.420552 0.376971
Si Si3 0.288983 0.689122 0.386846
Si Si4 0.439039 0.138142 0.078005
Si Si5 0.908319 0.239995 0.816449
Si Si6 0.606630 0.251922 0.978233
Si Si7 0.681086 0.859045 0.412948
O O1 0.472668 0.665034 0.751590
O O2 0.554031 0.677169 0.508115
O O3 0.329569 0.278507 0.609327
O O4 0.500000 0.500000 0.000000
O O5 0.156113 0.532168 0.358609
O O6 0.072932 0.599133 0.278739
O O7 0.004652 0.338658 0.683174
O O8 0.933138 0.237366 0.151628
O O9 0.326872 0.678274 0.710076
O O10 0.376466 0.931350 0.273803
O O11 0.307456 0.639063 0.216740
O O12 0.529447 0.243458 0.903615
O O13 0.330614 0.055444 0.883335
O O14 0.783200 0.026965 0.649254
O O15 0.500000 0.000000 0.000000
#
# Coordination Sequence:
#
# PCOD9112430 Si02
#       7
#     2   2   2   2   2   2   2
#     4   9  20  35  52  80 110 140 184 215 284 331
#     4  10  22  35  52  79 108 148 187 216 264 323
#     4  11  22  36  54  79 117 148 181 223 262 317
#     4  10  21  32  56  78 115 147 174 224 273 325
#     4  10  22  34  54  79 108 145 184 217 271 323
#     4  10  22  34  52  83 109 148 187 212 270 331
#     4  10  21  34  55  80 114 143 177 227 273 330
#
# _framework density 20.184941999999999
#
# number of rings (size 3 to 8) (size 9 to 14) (size 15 to 20)
#    0.000    2.000    0.000    3.429   20.000    0.000 
#    0.000    0.000    0.000    0.000    0.000    6.000 
#    0.000    0.000    0.000    0.000    0.000    0.000 
#
# Total GULP energy -78029.192228 kJ/mol
# GULP energy per Si atom -5573.513731 kJ/mol
# Density = 2.013900 g / cm^3
# Si number density = 20.184942 Si / 1000 Ang^3
#
#
#
# Elastic Constant Matrix: (Units=GPa)
#
#
# Indices 1 2 3 4 5 6 
#
# 1 109.2063 33.6602 13.6803 11.4030 -17.3812 10.6018
# 2 33.6602 83.3149 16.4007 29.7872 0.0933 -11.5665
# 3 13.6803 16.4007 77.6981 14.2346 -8.1334 2.4178
# 4 11.4030 29.7872 14.2346 29.7082 -0.6828 -5.2103
# 5 -17.3812 0.0933 -8.1334 -0.6828 26.9513 4.0457
# 6 10.6018 -11.5665 2.4178 -5.2103 4.0457 29.8462
#
#
#
# Elastic Compliance Matrix: (Units=1/GPa)
#
#
# Indices 1 2 3 4 5 6 
#
# 1 0.013757 -0.006953 0.000378 0.000172 0.010363 -0.008986
# 2 -0.006953 0.022838 -0.001262 -0.018173 -0.006781 0.009169
# 3 0.000378 -0.001262 0.014923 -0.006556 0.005137 -0.003673
# 4 0.000172 -0.018173 -0.006556 0.055505 -0.000884 0.003237
# 5 0.010363 -0.006781 0.005137 -0.000884 0.047335 -0.013296
# 6 -0.008986 0.009169 -0.003673 0.003237 -0.013296 0.042916
#
#
# Mechanical properties :
#
#
# Convention : Reuss Voigt Hill
#
# Bulk Modulus (GPa) = 27.89837 44.18908 36.04373
# Shear Modulus (GPa) = 22.23262 31.06635 26.64948
#
# Velocity S-wave (km/s) = 3.32240 3.92737 3.63749
# Velocity P-wave (km/s) = 5.34502 6.51961 5.96131
#
# Compressibility (1/GPa) = 0.03584439
#
# Stress axis : x y z
#
# Youngs Moduli (GPa) = 72.69286 43.78647 67.00900
#
# Poissons Ratio (x) = 0.30445 -0.02536
# Poissons Ratio (y) = 0.50543 0.08459
# Poissons Ratio (z) = -0.02751 0.05527
#
# Static dielectric constant tensor:
#      x y z
#    x 1.767580 -0.003090 -0.017690 
#    y -0.003090 1.739140 0.008100 
#    z -0.017690 0.008100 1.805510 
# 
# From -- ./inp_files/118126.got.cif
#   From: 2010.05.17/outbox.cif.g08.bks.cpg/sg2_60_cif.got.tgz:118126.got - 2010.06.03 11:33:40.
