data_PCOD9112944
_publ_section_title
;
Structure prediction by ZEFSAII (Michael W. Deem and Ramdas Pophale) SiO2 
 PCOD9112944
Probable space group: P 2
;
_chemical_formula_sum "Si O2"
_cell_formula_units_Z 16
_cell_length_a 8.168671
_cell_length_b 18.245611
_cell_length_c 9.365599
_cell_angle_alpha 90.000000
_cell_angle_beta 147.875296
_cell_angle_gamma 90.000000
_cell_volume 742.273795
_symmetry_space_group_name_H-M "P 2"
_symmetry_group_IT_number 3
_symmetry_cell_setting 'monoclinic'
loop_
_space_group_symop_operation_xyz
x,y,z
-x,y,-z
loop_
_atom_site_type_symbol
_atom_site_label
_atom_site_fract_x
_atom_site_fract_y
_atom_site_fract_z
Si Si1 0.640484 0.213720 0.258293
Si Si2 0.764271 0.992383 0.085743
Si Si3 0.359246 0.516285 0.555287
Si Si4 0.790639 0.741884 0.613316
Si Si5 0.364973 0.376649 0.745324
Si Si6 0.389955 0.821131 0.076096
Si Si7 0.864736 0.597710 0.063063
Si Si8 0.412550 0.068664 0.598292
O O1 0.522746 0.294793 0.214470
O O2 0.612083 0.148411 0.349072
O O3 0.000000 0.222441 0.500000
O O4 0.500000 0.194868 0.000000
O O5 0.675092 0.907681 0.991140
O O6 0.500000 0.019016 0.000000
O O7 0.102889 0.017985 0.387223
O O8 0.694548 0.031035 0.886538
O O9 0.500000 0.520729 0.500000
O O10 0.432343 0.439059 0.680055
O O11 0.004256 0.531775 0.259707
O O12 0.511488 0.579244 0.768251
O O13 0.500000 0.725124 0.500000
O O14 0.053442 0.793366 0.872034
O O15 0.998856 0.668391 0.755379
O O16 0.641217 0.786828 0.370332
O O17 0.000000 0.376235 0.500000
O O18 0.500000 0.393370 0.000000
O O19 0.500000 0.795620 0.000000
O O20 0.000000 0.602116 0.000000
O O21 0.500000 0.074903 0.500000
#
# Coordination Sequence:
#
# PCOD9112944 Si02
#       8
#     2   2   2   2   2   2   2   2
#     4  10  21  39  62  85 119 168 207 241 304 383
#     4  11  24  43  64  85 121 170 204 238 307 389
#     4  10  20  36  60  84 114 156 199 245 298 359
#     4  12  23  40  66  90 118 161 208 254 305 369
#     4  10  21  38  59  87 122 158 203 254 302 362
#     4  11  25  43  62  89 124 159 202 254 310 371
#     4  10  20  37  59  86 117 154 199 244 300 368
#     4  12  24  38  62  96 126 152 202 268 306 345
#
# _framework density 21.555388000000001
#
# number of rings (size 3 to 8) (size 9 to 14) (size 15 to 20)
#    0.000    1.250    0.000    7.500    0.000    5.500 
#    0.000    6.250    0.000    7.500    0.000    0.000 
#    0.000    0.000    0.000    0.000    0.000    0.000 
#
# Total GULP energy -89206.251391 kJ/mol
# GULP energy per Si atom -5575.390712 kJ/mol
# Density = 2.150633 g / cm^3
# Si number density = 21.555388 Si / 1000 Ang^3
#
#
#
# Elastic Constant Matrix: (Units=GPa)
#
#
# Indices 1 2 3 4 5 6 
#
# 1 46.3175 23.8512 23.6511 0.0000 -5.2526 0.0000
# 2 23.8512 126.1022 37.9040 0.0000 -15.9978 0.0000
# 3 23.6511 37.9040 149.0126 0.0000 -6.1347 0.0000
# 4 0.0000 0.0000 0.0000 38.6988 0.0000 -8.6489
# 5 -5.2526 -15.9978 -6.1347 0.0000 27.5709 0.0000
# 6 0.0000 0.0000 0.0000 -8.6489 0.0000 -27.3612
#
#
#
# Elastic Compliance Matrix: (Units=1/GPa)
#
#
# Indices 1 2 3 4 5 6 
#
# 1 0.025211 -0.003608 -0.003000 0.000000 0.002042 0.000000
# 2 -0.003608 0.009705 -0.001708 0.000000 0.004564 0.000000
# 3 -0.003000 -0.001708 0.007627 0.000000 0.000134 0.000000
# 4 0.000000 0.000000 0.000000 0.024135 0.000000 -0.007629
# 5 0.002042 0.004564 0.000134 0.000000 0.039337 0.000000
# 6 0.000000 0.000000 0.000000 -0.007629 0.000000 -0.034136
#
#
# Mechanical properties :
#
#
# Convention : Reuss Voigt Hill
#
# Bulk Modulus (GPa) = 38.59224 54.69388 46.64306
# Shear Modulus (GPa) = 51.46795 23.51677 37.49236
#
# Velocity S-wave (km/s) = 4.89172 3.30660 4.17508
# Velocity P-wave (km/s) = 7.06030 6.32510 6.70279
#
# Compressibility (1/GPa) = 0.02591195
#
# Stress axis : x y z
#
# Youngs Moduli (GPa) = 39.66476 103.04122 131.11359
#
# Poissons Ratio (x) = 0.37175 0.39331
# Poissons Ratio (y) = 0.14310 0.22395
# Poissons Ratio (z) = 0.11898 0.17600
#
# Static dielectric constant tensor:
#      x y z
#    x 1.796760 0.000000 -0.018980 
#    y 0.000000 1.920920 0.000000 
#    z -0.018980 0.000000 1.784240 
# 
# From -- ./inp_files/6268.got.cif
#   From: 2010.05.17/outbox.cif.g08.bks.cpg/sg3_4_cif.got.tgz:6268.got - 2010.06.03 18:33:08.
