data_PCOD9112647
_publ_section_title
;
Structure prediction by ZEFSAII (Michael W. Deem and Ramdas Pophale) SiO2 
 PCOD9112647
Probable space group: P 2
;
_chemical_formula_sum "Si O2"
_cell_formula_units_Z 14
_cell_length_a 7.934224
_cell_length_b 7.572467
_cell_length_c 24.211224
_cell_angle_alpha 90.000000
_cell_angle_beta 147.102236
_cell_angle_gamma 90.000000
_cell_volume 790.081197
_symmetry_space_group_name_H-M "P 2"
_symmetry_group_IT_number 3
_symmetry_cell_setting 'monoclinic'
loop_
_space_group_symop_operation_xyz
x,y,z
-x,y,-z
loop_
_atom_site_type_symbol
_atom_site_label
_atom_site_fract_x
_atom_site_fract_y
_atom_site_fract_z
Si Si1 0.590630 0.606290 0.766765
Si Si2 0.806332 0.732877 0.117105
Si Si3 0.763464 0.285641 0.384146
Si Si4 0.792407 0.585466 0.232635
Si Si5 0.699337 0.875021 0.608312
Si Si6 0.167736 0.271706 0.385913
Si Si7 0.592554 0.926173 0.696972
O O1 0.435678 0.457633 0.685875
O O2 0.492167 0.576427 0.802731
O O3 0.469196 0.795647 0.710584
O O4 0.957367 0.617249 0.855386
O O5 0.723332 0.625820 0.149857
O O6 0.032990 0.897737 0.195283
O O7 0.500000 0.782828 0.000000
O O8 0.000000 0.311221 0.500000
O O9 0.960315 0.245404 0.383285
O O10 0.540180 0.120255 0.334399
O O11 0.004562 0.750092 0.309529
O O12 0.000757 0.411636 0.300332
O O13 0.500000 0.833330 0.500000
O O14 0.516588 0.849707 0.615479
O O15 0.782009 0.082286 0.628250
O O16 0.500000 0.338006 0.500000
#
# Coordination Sequence:
#
# PCOD9112647 Si02
#       7
#     2   2   2   2   2   2   2
#     4   9  22  37  56  87 112 146 191 230 279 339
#     4   9  21  41  62  83 105 149 195 239 290 321
#     4  11  21  33  56  84 120 154 180 224 279 338
#     4  10  20  36  58  80 114 144 183 240 275 333
#     4  10  19  31  53  79 113 155 186 219 274 331
#     4  10  21  32  52  82 115 155 185 216 274 335
#     4   9  21  36  55  82 118 147 192 233 272 337
#
# _framework density 17.719695999999999
#
# number of rings (size 3 to 8) (size 9 to 14) (size 15 to 20)
#    0.857    1.429    0.000    3.000    4.000    3.429 
#    0.000    0.714    0.000    0.000    3.714    0.000 
#    0.000    0.000    0.000    0.000    0.000    0.000 
#
# Total GULP energy -77978.125600 kJ/mol
# GULP energy per Si atom -5569.866114 kJ/mol
# Density = 1.767937 g / cm^3
# Si number density = 17.719696 Si / 1000 Ang^3
#
#
#
# Elastic Constant Matrix: (Units=GPa)
#
#
# Indices 1 2 3 4 5 6 
#
# 1 68.8647 5.7526 24.1419 0.0000 1.3136 0.0000
# 2 5.7526 38.8278 15.6957 0.0000 6.0115 0.0000
# 3 24.1419 15.6957 79.9244 0.0000 1.7145 0.0000
# 4 0.0000 0.0000 0.0000 -0.2070 0.0000 -6.2570
# 5 1.3136 6.0115 1.7145 0.0000 17.8420 0.0000
# 6 0.0000 0.0000 0.0000 -6.2570 0.0000 15.5940
#
#
#
# Elastic Compliance Matrix: (Units=1/GPa)
#
#
# Indices 1 2 3 4 5 6 
#
# 1 0.016255 -0.000363 -0.004826 0.000000 -0.000611 0.000000
# 2 -0.000363 0.029475 -0.005477 0.000000 -0.009378 0.000000
# 3 -0.004826 -0.005477 0.015029 0.000000 0.000757 0.000000
# 4 0.000000 0.000000 0.000000 -0.367977 0.000000 -0.147647
# 5 -0.000611 -0.009378 0.000757 0.000000 0.059179 0.000000
# 6 0.000000 0.000000 0.000000 -0.147647 0.000000 0.004885
#
#
# Mechanical properties :
#
#
# Convention : Reuss Voigt Hill
#
# Bulk Modulus (GPa) = 25.36380 30.97749 28.17064
# Shear Modulus (GPa) = -23.96015 16.11426 -3.92295
#
# Velocity S-wave (km/s) = -3.68118 3.01889 -1.48953
# Velocity P-wave (km/s) = 1.92955 5.44716 3.60197
#
# Compressibility (1/GPa) = 0.03942627
#
# Stress axis : x y z
#
# Youngs Moduli (GPa) = 61.51995 33.92751 66.53856
#
# Poissons Ratio (x) = 0.01232 0.32108
# Poissons Ratio (y) = 0.02233 0.36446
# Poissons Ratio (z) = 0.29687 0.18584
#
# Static dielectric constant tensor:
#      x y z
#    x 1.645500 0.000000 -0.005000 
#    y 0.000000 1.595660 0.000000 
#    z -0.005000 0.000000 1.573270 
# 
# From -- ./inp_files/16254.got.cif
#   From: 2010.05.17/outbox.cif.g08.bks.cpg/sg3_9_cif.got.tgz:16254.got - 2010.06.03 18:33:08.
