data_PCOD9112734
_publ_section_title
;
Structure prediction by ZEFSAII (Michael W. Deem and Ramdas Pophale) SiO2 
 PCOD9112734
Probable space group: P 2
;
_chemical_formula_sum "Si O2"
_cell_formula_units_Z 15
_cell_length_a 27.326349
_cell_length_b 5.249678
_cell_length_c 14.722419
_cell_angle_alpha 90.000000
_cell_angle_beta 158.341937
_cell_angle_gamma 90.000000
_cell_volume 779.467806
_symmetry_space_group_name_H-M "P 2"
_symmetry_group_IT_number 3
_symmetry_cell_setting 'monoclinic'
loop_
_space_group_symop_operation_xyz
x,y,z
-x,y,-z
loop_
_atom_site_type_symbol
_atom_site_label
_atom_site_fract_x
_atom_site_fract_y
_atom_site_fract_z
Si Si1 0.259354 0.733020 0.361586
Si Si2 0.096523 0.704505 0.580959
Si Si3 0.500000 0.053853 0.000000
Si Si4 0.019149 0.718060 0.818167
Si Si5 0.734863 0.209742 0.163629
Si Si6 0.107217 0.430053 0.246481
Si Si7 0.770164 0.061927 0.427807
Si Si8 0.562275 0.234281 0.304331
O O1 0.161048 0.662373 0.277271
O O2 0.356736 0.487570 0.528800
O O3 0.346431 0.985229 0.523114
O O4 0.165189 0.764869 0.110377
O O5 0.189484 0.455385 0.743817
O O6 0.000000 0.715793 0.500000
O O7 0.007386 0.693498 0.334640
O O8 0.191852 0.951865 0.741880
O O9 0.635898 0.899847 0.213626
O O10 0.516850 0.218951 0.120344
O O11 0.968966 0.481667 0.791298
O O12 0.907808 0.917309 0.658999
O O13 0.756297 0.206757 0.309209
O O14 0.576074 0.214658 0.877964
O O15 0.224809 0.253707 0.480026
O O16 0.000000 0.289118 0.000000
#
# Coordination Sequence:
#
# PCOD9112734 Si02
#       8
#     2   2   1   2   2   2   2   2
#     4  11  24  37  59  86 124 163 206 235 287 363
#     4  11  22  41  68  94 116 149 202 257 313 362
#     4  10  20  34  56  80 122 160 208 238 280 352
#     4  10  23  37  59  87 120 158 199 257 302 349
#     4  10  22  39  63  88 122 154 191 255 306 356
#     4  10  20  32  53  81 121 159 198 239 284 341
#     4  10  19  35  53  82 120 157 200 242 294 344
#     4  11  23  39  57  87 121 166 200 240 294 354
#
# _framework density 19.243898000000002
#
# number of rings (size 3 to 8) (size 9 to 14) (size 15 to 20)
#    0.000    1.600    2.667    2.000    3.733    1.067 
#    0.000    0.000    0.000    4.800    0.000    0.000 
#    0.000    0.000    0.000    0.000    0.000    0.000 
#
# Total GULP energy -83579.338315 kJ/mol
# GULP energy per Si atom -5571.955888 kJ/mol
# Density = 1.920010 g / cm^3
# Si number density = 19.243898 Si / 1000 Ang^3
#
#
#
# Elastic Constant Matrix: (Units=GPa)
#
#
# Indices 1 2 3 4 5 6 
#
# 1 115.7307 35.4057 60.5488 0.0000 11.3137 0.0000
# 2 35.4057 94.1986 54.4661 0.0000 7.3868 0.0000
# 3 60.5488 54.4661 131.8800 0.0000 17.3442 0.0000
# 4 0.0000 0.0000 0.0000 31.3400 0.0000 5.0639
# 5 11.3137 7.3868 17.3442 0.0000 22.6504 0.0000
# 6 0.0000 0.0000 0.0000 5.0639 0.0000 10.5279
#
#
#
# Elastic Compliance Matrix: (Units=1/GPa)
#
#
# Indices 1 2 3 4 5 6 
#
# 1 0.011644 -0.001683 -0.004401 0.000000 -0.001897 0.000000
# 2 -0.001683 0.014190 -0.005104 0.000000 0.000121 0.000000
# 3 -0.004401 -0.005104 0.012458 0.000000 -0.005676 0.000000
# 4 0.000000 0.000000 0.000000 0.034597 0.000000 -0.016641
# 5 -0.001897 0.000121 -0.005676 0.000000 0.049404 0.000000
# 6 0.000000 0.000000 0.000000 -0.016641 0.000000 0.102990
#
#
# Mechanical properties :
#
#
# Convention : Reuss Voigt Hill
#
# Bulk Modulus (GPa) = 62.83140 71.40560 67.11850
# Shear Modulus (GPa) = 19.76571 25.66291 22.71431
#
# Velocity S-wave (km/s) = 3.20834 3.65576 3.43933
# Velocity P-wave (km/s) = 6.81510 7.41657 7.12219
#
# Compressibility (1/GPa) = 0.01591561
#
# Stress axis : x y z
#
# Youngs Moduli (GPa) = 85.88279 70.47293 80.27118
#
# Poissons Ratio (x) = 0.11859 0.35331
# Poissons Ratio (y) = 0.14452 0.40968
# Poissons Ratio (z) = 0.37801 0.35967
#
# Static dielectric constant tensor:
#      x y z
#    x 1.649690 0.000000 0.001810 
#    y 0.000000 1.750220 0.000000 
#    z 0.001810 0.000000 1.791720 
# 
# From -- ./inp_files/14241.got.cif
#   From: 2010.05.17/outbox.cif.g08.bks.cpg/sg3_8_cif.got.tgz:14241.got - 2010.06.03 18:33:08.
