data_PCOD9112585
_publ_section_title
;
Structure prediction by ZEFSAII (Michael W. Deem and Ramdas Pophale) SiO2 
 PCOD9112585
Probable space group: P 2
;
_chemical_formula_sum "Si O2"
_cell_formula_units_Z 13
_cell_length_a 8.377485
_cell_length_b 8.923881
_cell_length_c 8.566590
_cell_angle_alpha 90.000000
_cell_angle_beta 83.275092
_cell_angle_gamma 90.000000
_cell_volume 636.029219
_symmetry_space_group_name_H-M "P 2"
_symmetry_group_IT_number 3
_symmetry_cell_setting 'monoclinic'
loop_
_space_group_symop_operation_xyz
x,y,z
-x,y,-z
loop_
_atom_site_type_symbol
_atom_site_label
_atom_site_fract_x
_atom_site_fract_y
_atom_site_fract_z
Si Si1 0.826300 0.920340 0.224474
Si Si2 0.331385 0.946628 0.443830
Si Si3 0.000000 0.672836 0.000000
Si Si4 0.233253 0.418375 0.081515
Si Si5 0.463675 0.459918 0.761401
Si Si6 0.500000 0.237516 0.500000
Si Si7 0.000000 0.165730 0.000000
Si Si8 0.498961 0.794674 0.183762
O O1 0.808556 0.919348 0.414664
O O2 0.909375 0.776928 0.135599
O O3 0.640711 0.915178 0.189716
O O4 0.912323 0.061981 0.137670
O O5 0.500000 0.884730 0.500000
O O6 0.336590 0.866126 0.275426
O O7 0.373311 0.123260 0.434237
O O8 0.122431 0.564755 0.077194
O O9 0.351557 0.425811 0.214241
O O10 0.349664 0.423337 0.918722
O O11 0.123894 0.272808 0.076473
O O12 0.416025 0.348954 0.629675
O O13 0.457485 0.638250 0.737164
O O14 0.500000 0.758950 0.000000
#
# Coordination Sequence:
#
# PCOD9112585 Si02
#       8
#     2   2   1   2   2   1   1   2
#     4  10  19  37  60  86 121 169 206 239 313 372
#     4   8  20  37  54  89 117 154 205 246 304 357
#     4  10  18  34  64  88 126 162 204 256 308 380
#     4  10  21  37  58  92 121 162 209 252 304 366
#     4  11  21  37  62  91 124 152 216 257 304 360
#     4  10  22  34  58  92 120 160 190 262 316 352
#     4  10  22  36  62  88 130 174 198 246 314 382
#     4  11  20  36  63  96 119 150 213 270 303 353
#
# _framework density 20.439316000000002
#
# number of rings (size 3 to 8) (size 9 to 14) (size 15 to 20)
#    0.462    1.538    3.077    0.923    3.231    1.231 
#    0.000    0.000    0.000   31.385    0.000    0.000 
#    0.000    0.000    0.000    0.000    0.000    0.000 
#
# Total GULP energy -72462.227490 kJ/mol
# GULP energy per Si atom -5574.017499 kJ/mol
# Density = 2.039280 g / cm^3
# Si number density = 20.439316 Si / 1000 Ang^3
#
#
#
# Elastic Constant Matrix: (Units=GPa)
#
#
# Indices 1 2 3 4 5 6 
#
# 1 62.8939 31.4152 7.0741 0.0000 -18.0694 0.0000
# 2 31.4152 138.2629 54.6375 0.0000 -21.8204 0.0000
# 3 7.0741 54.6375 88.8543 0.0000 -39.2721 0.0000
# 4 0.0000 0.0000 0.0000 19.8619 0.0000 -12.1983
# 5 -18.0694 -21.8204 -39.2721 0.0000 29.2727 0.0000
# 6 0.0000 0.0000 0.0000 -12.1983 0.0000 18.9728
#
#
#
# Elastic Compliance Matrix: (Units=1/GPa)
#
#
# Indices 1 2 3 4 5 6 
#
# 1 0.028602 -0.008230 0.019348 0.000000 0.037478 0.000000
# 2 -0.008230 0.011964 -0.012297 0.000000 -0.012659 0.000000
# 3 0.019348 -0.012297 0.045457 0.000000 0.063762 0.000000
# 4 0.000000 0.000000 0.000000 0.083200 0.000000 0.053493
# 5 0.037478 -0.012659 0.063762 0.000000 0.133401 0.000000
# 6 0.000000 0.000000 0.000000 0.053493 0.000000 0.087100
#
#
# Mechanical properties :
#
#
# Convention : Reuss Voigt Hill
#
# Bulk Modulus (GPa) = 11.95234 52.91830 32.43532
# Shear Modulus (GPa) = 11.90562 26.74711 19.32636
#
# Velocity S-wave (km/s) = 2.41609 3.62140 3.07831
# Velocity P-wave (km/s) = 3.69375 6.59035 5.34212
#
# Compressibility (1/GPa) = 0.08366564
#
# Stress axis : x y z
#
# Youngs Moduli (GPa) = 34.96297 83.58423 21.99887
#
# Poissons Ratio (x) = 0.68788 -0.42563
# Poissons Ratio (y) = 0.28774 0.27051
# Poissons Ratio (z) = -0.67646 1.02781
#
# Static dielectric constant tensor:
#      x y z
#    x 1.763580 0.000000 0.030080 
#    y 0.000000 1.708540 0.000000 
#    z 0.030080 0.000000 1.826870 
# 
# From -- ./inp_files/5305.got.cif
#   From: 2010.05.17/outbox.cif.g08.bks.cpg/sg3_3_cif.got.tgz:5305.got - 2010.06.03 18:33:08.
