data_PCOD9112232
_publ_section_title
;
Structure prediction by ZEFSAII (Michael W. Deem and Ramdas Pophale) SiO2 
 PCOD9112232
Probable space group: P -1
;
_chemical_formula_sum "Si O2"
_cell_formula_units_Z 16
_cell_length_a 11.464811
_cell_length_b 14.311098
_cell_length_c 5.854473
_cell_angle_alpha 107.539689
_cell_angle_beta 87.833263
_cell_angle_gamma 133.771996
_cell_volume 640.734557
_symmetry_space_group_name_H-M "P -1"
_symmetry_group_IT_number 2
_symmetry_cell_setting 'triclinic'
loop_
_space_group_symop_operation_xyz
x,y,z
-x,-y,-z
loop_
_atom_site_type_symbol
_atom_site_label
_atom_site_fract_x
_atom_site_fract_y
_atom_site_fract_z
Si Si1 0.591411 0.364730 0.795887
Si Si2 0.759524 0.650979 0.901649
Si Si3 0.223048 0.641402 0.537842
Si Si4 0.676043 0.760211 0.671515
Si Si5 0.030618 0.158051 0.590372
Si Si6 0.713379 0.929706 0.176369
Si Si7 0.070820 0.380057 0.518997
Si Si8 0.578447 0.057867 0.283822
O O1 0.657434 0.512750 0.963222
O O2 0.756733 0.403668 0.736355
O O3 0.480340 0.316428 0.537986
O O4 0.463707 0.223684 0.848280
O O5 0.638882 0.653584 0.782726
O O6 0.859244 0.644735 0.708216
O O7 0.893905 0.798579 0.130849
O O8 0.206489 0.548902 0.665976
O O9 0.381768 0.803982 0.636673
O O10 0.080870 0.639465 0.555561
O O11 0.825882 0.802619 0.547763
O O12 0.740024 0.893449 0.904464
O O13 0.023038 0.272161 0.631479
O O14 0.859505 0.004858 0.410050
O O15 0.704780 0.041936 0.249624
O O16 0.500000 0.000000 0.500000
O O17 0.500000 0.000000 0.000000
#
# Coordination Sequence:
#
# PCOD9112232 Si02
#       8
#     2   2   2   2   2   2   2   2
#     4  11  24  43  70 101 138 178 239 291 368 432
#     4  10  24  44  70 100 133 184 233 300 359 434
#     4  10  20  45  66 101 134 183 236 291 357 437
#     4  11  25  44  67  98 135 184 237 298 356 437
#     4  11  24  45  68  99 139 179 239 294 364 434
#     4  12  26  42  70 103 139 186 236 297 365 433
#     4   9  21  42  69  95 137 179 233 286 362 431
#     4  12  26  46  72 108 149 196 241 304 369 443
#
# _framework density 24.971340999999999
#
# number of rings (size 3 to 8) (size 9 to 14) (size 15 to 20)
#    0.000    1.250    2.500    2.250    0.000   11.000 
#    0.000    3.125    0.000    0.000    0.000    0.000 
#    0.000    0.000    0.000    0.000    0.000    0.000 
#
# Total GULP energy -89223.521541 kJ/mol
# GULP energy per Si atom -5576.470096 kJ/mol
# Density = 2.491450 g / cm^3
# Si number density = 24.971341 Si / 1000 Ang^3
#
#
#
# Elastic Constant Matrix: (Units=GPa)
#
#
# Indices 1 2 3 4 5 6 
#
# 1 114.5175 8.6172 19.2461 1.3069 -17.6658 -13.8601
# 2 8.6172 87.1597 9.6952 14.5201 3.2800 -19.7909
# 3 19.2461 9.6952 93.8611 18.6267 2.8887 -9.4370
# 4 1.3069 14.5201 18.6267 32.1339 -4.9402 -3.7597
# 5 -17.6658 3.2800 2.8887 -4.9402 37.1515 8.5044
# 6 -13.8601 -19.7909 -9.4370 -3.7597 8.5044 38.1892
#
#
#
# Elastic Compliance Matrix: (Units=1/GPa)
#
#
# Indices 1 2 3 4 5 6 
#
# 1 0.010171 -0.000933 -0.002448 0.002402 0.005035 0.001718
# 2 -0.000933 0.014533 0.000973 -0.006876 -0.004492 0.007757
# 3 -0.002448 0.000973 0.013106 -0.008213 -0.004035 0.002944
# 4 0.002402 -0.006876 -0.008213 0.039855 0.008293 -0.002644
# 5 0.005035 -0.004492 -0.004035 0.008293 0.032960 -0.008021
# 6 0.001718 0.007757 0.002944 -0.002644 -0.008021 0.033082
#
#
# Mechanical properties :
#
#
# Convention : Reuss Voigt Hill
#
# Bulk Modulus (GPa) = 30.30898 41.18392 35.74645
# Shear Modulus (GPa) = 31.34369 38.69358 35.01863
#
# Velocity S-wave (km/s) = 3.54670 3.94066 3.74886
# Velocity P-wave (km/s) = 5.37922 6.10192 5.75193
#
# Compressibility (1/GPa) = 0.03299352
#
# Stress axis : x y z
#
# Youngs Moduli (GPa) = 98.31662 68.80884 76.30357
#
# Poissons Ratio (x) = 0.06418 0.18680
# Poissons Ratio (y) = 0.09171 -0.07423
# Poissons Ratio (z) = 0.24069 -0.06694
#
# Static dielectric constant tensor:
#      x y z
#    x 2.118970 -0.016890 -0.020320 
#    y -0.016890 2.225310 0.080630 
#    z -0.020320 0.080630 2.064980 
# 
# From -- ./inp_files/72272.got.cif
#   From: 2010.05.17/outbox.cif.g08.bks.cpg/sg2_37_cif.got.tgz:72272.got - 2010.06.03 11:33:40.
