data_PCOD9112429
_publ_section_title
;
Structure prediction by ZEFSAII (Michael W. Deem and Ramdas Pophale) SiO2 
 PCOD9112429
Probable space group: P -1
;
_chemical_formula_sum "Si O2"
_cell_formula_units_Z 14
_cell_length_a 19.360324
_cell_length_b 5.349110
_cell_length_c 13.778903
_cell_angle_alpha 107.100364
_cell_angle_beta 34.289696
_cell_angle_gamma 96.746123
_cell_volume 747.221050
_symmetry_space_group_name_H-M "P -1"
_symmetry_group_IT_number 2
_symmetry_cell_setting 'triclinic'
loop_
_space_group_symop_operation_xyz
x,y,z
-x,-y,-z
loop_
_atom_site_type_symbol
_atom_site_label
_atom_site_fract_x
_atom_site_fract_y
_atom_site_fract_z
Si Si1 0.654588 0.608357 0.769602
Si Si2 0.377566 0.682821 0.858321
Si Si3 0.531796 0.864515 0.553290
Si Si4 0.648349 0.187040 0.877178
Si Si5 0.350683 0.701629 0.454008
Si Si6 0.763277 0.540568 0.151082
Si Si7 0.862460 0.081738 0.123142
O O1 0.697164 0.421903 0.792864
O O2 0.682445 0.412442 0.622556
O O3 0.701099 0.884330 0.743048
O O4 0.502169 0.721286 0.959690
O O5 0.404108 0.863147 0.758205
O O6 0.518936 0.498905 0.686737
O O7 0.279808 0.521390 0.912987
O O8 0.338292 0.813610 0.022314
O O9 0.633151 0.597857 0.372378
O O10 0.500000 0.000000 0.500000
O O11 0.607002 0.016667 0.557367
O O12 0.233261 0.748407 0.667312
O O13 0.815584 0.808988 0.125316
O O14 0.854244 0.280267 0.063570
O O15 0.000000 0.000000 0.000000
#
# Coordination Sequence:
#
# PCOD9112429 Si02
#       7
#     2   2   2   2   2   2   2
#     4   9  19  32  45  74 105 146 173 211 260 320
#     4  11  20  32  54  82 111 144 173 218 281 320
#     4  11  20  31  48  81 115 143 177 211 268 333
#     4   9  20  30  48  72 112 137 175 212 259 328
#     4  10  21  32  56  76 111 145 180 219 272 322
#     4  11  22  36  56  79 110 144 178 222 268 328
#     4  11  24  40  55  79 108 146 187 224 260 319
#
# _framework density 18.736089
#
# number of rings (size 3 to 8) (size 9 to 14) (size 15 to 20)
#    0.000    1.714    2.857    2.571   10.000    0.000 
#    0.000    0.000    0.000    0.000    0.000    6.000 
#    0.000    0.000    0.000    0.000    0.000    0.000 
#
# Total GULP energy -77991.778433 kJ/mol
# GULP energy per Si atom -5570.841317 kJ/mol
# Density = 1.869344 g / cm^3
# Si number density = 18.736089 Si / 1000 Ang^3
#
#
#
# Elastic Constant Matrix: (Units=GPa)
#
#
# Indices 1 2 3 4 5 6 
#
# 1 102.5688 52.7274 31.0616 6.5368 10.5366 0.2205
# 2 52.7274 92.1500 20.1850 8.4672 20.1062 0.0763
# 3 31.0616 20.1850 24.8182 4.7873 -0.5753 5.4359
# 4 6.5368 8.4672 4.7873 17.1557 0.2648 5.3806
# 5 10.5366 20.1062 -0.5753 0.2648 27.6929 5.7750
# 6 0.2205 0.0763 5.4359 5.3806 5.7750 31.1389
#
#
#
# Elastic Compliance Matrix: (Units=1/GPa)
#
#
# Indices 1 2 3 4 5 6 
#
# 1 0.019355 -0.005464 -0.020824 -0.000181 -0.004751 0.004424
# 2 -0.005464 0.019469 -0.009205 -0.006372 -0.013263 0.005159
# 3 -0.020824 -0.009205 0.078798 -0.004660 0.019716 -0.016437
# 4 -0.000181 -0.006372 -0.004660 0.066418 0.006432 -0.011839
# 5 -0.004751 -0.013263 0.019716 0.006432 0.050796 -0.013908
# 6 0.004424 0.005159 -0.016437 -0.011839 -0.013908 0.039565
#
#
# Mechanical properties :
#
#
# Convention : Reuss Voigt Hill
#
# Bulk Modulus (GPa) = 21.44213 47.49832 34.47023
# Shear Modulus (GPa) = 13.85304 22.90168 18.37736
#
# Velocity S-wave (km/s) = 2.72210 3.49998 3.13526
# Velocity P-wave (km/s) = 4.62049 6.46060 5.61642
#
# Compressibility (1/GPa) = 0.04663716
#
# Stress axis : x y z
#
# Youngs Moduli (GPa) = 51.66735 51.36260 12.69060
#
# Poissons Ratio (x) = 0.28062 0.26427
# Poissons Ratio (y) = 0.28229 0.11682
# Poissons Ratio (z) = 1.07593 0.47279
#
# Static dielectric constant tensor:
#      x y z
#    x 1.677190 -0.044450 0.019410 
#    y -0.044450 1.774700 -0.033560 
#    z 0.019410 -0.033560 1.636980 
# 
# From -- ./inp_files/535961.got.cif
#   From: 2010.05.17/outbox.cif.g08.bks.cpg/sg2_268_cif.got.tgz:535961.got - 2010.06.03 11:33:40.
