data_PCOD9112262
_publ_section_title
;
Structure prediction by ZEFSAII (Michael W. Deem and Ramdas Pophale) SiO2 
 PCOD9112262
Probable space group: P -1
;
_chemical_formula_sum "Si O2"
_cell_formula_units_Z 13
_cell_length_a 6.750342
_cell_length_b 13.851880
_cell_length_c 7.736005
_cell_angle_alpha 56.003919
_cell_angle_beta 125.000283
_cell_angle_gamma 118.450431
_cell_volume 478.173950
_symmetry_space_group_name_H-M "P -1"
_symmetry_group_IT_number 2
_symmetry_cell_setting 'triclinic'
loop_
_space_group_symop_operation_xyz
x,y,z
-x,-y,-z
loop_
_atom_site_type_symbol
_atom_site_label
_atom_site_fract_x
_atom_site_fract_y
_atom_site_fract_z
Si Si1 0.173189 0.721522 0.932453
Si Si2 0.761017 0.095386 0.526516
Si Si3 0.113184 0.136000 0.177987
Si Si4 0.000000 0.500000 0.000000
Si Si5 0.147312 0.267162 0.741270
Si Si6 0.264331 0.512829 0.754562
Si Si7 0.348554 0.302356 0.424408
O O1 0.235542 0.819940 0.719510
O O2 0.116377 0.798373 0.986143
O O3 0.270243 0.604064 0.093249
O O4 0.839185 0.607404 0.285179
O O5 0.872375 0.187952 0.638329
O O6 0.500000 0.000000 0.500000
O O7 0.948663 0.005553 0.700530
O O8 0.281845 0.188743 0.375379
O O9 0.243292 0.186462 0.014860
O O10 0.925296 0.467084 0.213724
O O11 0.293153 0.273175 0.625530
O O12 0.392686 0.616016 0.581733
O O13 0.500000 0.500000 0.000000
O O14 0.114805 0.361868 0.182779
#
# Coordination Sequence:
#
# PCOD9112262 Si02
#       7
#     2   2   2   1   2   2   2
#     4   9  21  39  70  97 134 189 231 290 352 415
#     4  11  25  43  69 102 148 189 237 297 356 423
#     4  10  20  45  71  98 139 186 237 289 355 426
#     4  12  22  40  74 102 148 184 238 292 358 430
#     4  11  22  42  75 107 133 193 247 286 361 437
#     4  12  21  43  71 105 145 186 236 296 368 420
#     4   9  21  40  70 104 140 184 233 291 365 420
#
# _framework density 27.18676
#
# number of rings (size 3 to 8) (size 9 to 14) (size 15 to 20)
#    0.923    0.615    4.615    1.385    2.154    0.000 
#    0.000    5.385    0.000    0.000    0.000    0.000 
#    0.000    0.000    0.000    0.000    0.000    0.000 
#
# Total GULP energy -72489.509095 kJ/mol
# GULP energy per Si atom -5576.116084 kJ/mol
# Density = 2.712488 g / cm^3
# Si number density = 27.186760 Si / 1000 Ang^3
#
#
#
# Elastic Constant Matrix: (Units=GPa)
#
#
# Indices 1 2 3 4 5 6 
#
# 1 97.3410 67.2190 59.1287 4.5642 -22.6746 0.3531
# 2 67.2190 212.4916 52.6356 7.9532 -27.5629 6.7938
# 3 59.1287 52.6356 148.8565 16.7347 -55.5341 12.5432
# 4 4.5642 7.9532 16.7347 58.8232 4.6726 -5.0817
# 5 -22.6746 -27.5629 -55.5341 4.6726 41.5585 -7.4623
# 6 0.3531 6.7938 12.5432 -5.0817 -7.4623 46.8838
#
#
#
# Elastic Compliance Matrix: (Units=1/GPa)
#
#
# Indices 1 2 3 4 5 6 
#
# 1 0.016163 -0.003955 -0.005848 0.001222 -0.001410 0.001924
# 2 -0.003955 0.006230 0.000527 -0.000957 0.002661 -0.000694
# 3 -0.005848 0.000527 0.017610 -0.006480 0.021043 -0.002097
# 4 0.001222 -0.000957 -0.006480 0.019911 -0.010442 0.002359
# 5 -0.001410 0.002661 0.021043 -0.010442 0.054632 0.001559
# 6 0.001924 -0.000694 -0.002097 0.002359 0.001559 0.022480
#
#
# Mechanical properties :
#
#
# Convention : Reuss Voigt Hill
#
# Bulk Modulus (GPa) = 46.61517 90.73952 68.67734
# Shear Modulus (GPa) = 30.72600 48.10016 39.41308
#
# Velocity S-wave (km/s) = 3.36547 4.21081 3.81164
# Velocity P-wave (km/s) = 5.68202 7.55579 6.68488
#
# Compressibility (1/GPa) = 0.02145224
#
# Stress axis : x y z
#
# Youngs Moduli (GPa) = 61.86797 160.51967 56.78521
#
# Poissons Ratio (x) = 0.63482 0.33206
# Poissons Ratio (y) = 0.24467 -0.02992
# Poissons Ratio (z) = 0.36178 -0.08456
#
# Static dielectric constant tensor:
#      x y z
#    x 2.337980 0.030370 0.142420 
#    y 0.030370 2.083230 -0.007030 
#    z 0.142420 -0.007030 2.230990 
# 
# From -- ./inp_files/31826.got.cif
#   From: 2010.05.17/outbox.cif.g08.bks.cpg/sg2_16_cif.got.tgz:31826.got - 2010.06.03 11:33:40.
