data_PCOD9112790
_publ_section_title
;
Structure prediction by ZEFSAII (Michael W. Deem and Ramdas Pophale) SiO2 
 PCOD9112790
Probable space group: P 2
;
_chemical_formula_sum "Si O2"
_cell_formula_units_Z 15
_cell_length_a 11.084065
_cell_length_b 9.046603
_cell_length_c 9.134499
_cell_angle_alpha 90.000000
_cell_angle_beta 39.951847
_cell_angle_gamma 90.000000
_cell_volume 588.168107
_symmetry_space_group_name_H-M "P 2"
_symmetry_group_IT_number 3
_symmetry_cell_setting 'monoclinic'
loop_
_space_group_symop_operation_xyz
x,y,z
-x,y,-z
loop_
_atom_site_type_symbol
_atom_site_label
_atom_site_fract_x
_atom_site_fract_y
_atom_site_fract_z
Si Si1 0.285591 0.714740 0.455048
Si Si2 0.145071 0.798473 0.179494
Si Si3 0.208631 0.121728 0.187143
Si Si4 0.500000 0.196276 0.500000
Si Si5 0.208624 0.676675 0.844900
Si Si6 0.749571 0.368885 0.033817
Si Si7 0.375603 0.055699 0.327095
Si Si8 0.224473 0.521954 0.280686
O O1 0.323581 0.685318 0.590249
O O2 0.351390 0.877899 0.344173
O O3 0.323358 0.555418 0.342205
O O4 0.059258 0.728033 0.650816
O O5 0.239621 0.690457 0.206844
O O6 0.116347 0.963588 0.252218
O O7 0.268773 0.785147 0.918413
O O8 0.238317 0.138381 0.335586
O O9 0.119447 0.238428 0.154971
O O10 0.418697 0.097545 0.926360
O O11 0.620554 0.296415 0.277267
O O12 0.374052 0.103412 0.499881
O O13 0.183980 0.517686 0.947071
O O14 0.000000 0.730105 0.000000
O O15 0.686015 0.422280 0.928949
O O16 0.000000 0.482703 0.500000
#
# Coordination Sequence:
#
# PCOD9112790 Si02
#       8
#     2   2   2   1   2   2   2   2
#     4  10  19  36  65  95 121 157 209 270 310 374
#     4   9  18  37  63  90 124 157 213 254 314 363
#     4  10  21  40  62  88 123 170 207 263 310 379
#     4  10  24  44  60  86 136 170 204 268 316 376
#     4   9  20  38  60  89 128 166 200 259 316 370
#     4  10  22  42  61  86 131 170 204 253 315 380
#     4  10  22  39  62  87 122 162 212 259 323 354
#     4   9  18  37  64  92 124 157 205 262 310 364
#
# _framework density 25.502911000000001
#
# number of rings (size 3 to 8) (size 9 to 14) (size 15 to 20)
#    0.000    2.400    1.333    0.800    3.733    1.067 
#    9.600    0.000    0.000    0.000    0.000    0.000 
#    0.000    0.000    0.000    0.000    0.000    0.000 
#
# Total GULP energy -83569.880471 kJ/mol
# GULP energy per Si atom -5571.325365 kJ/mol
# Density = 2.544487 g / cm^3
# Si number density = 25.502911 Si / 1000 Ang^3
#
#
#
# Elastic Constant Matrix: (Units=GPa)
#
#
# Indices 1 2 3 4 5 6 
#
# 1 45.3875 0.3890 40.6059 0.0000 27.0201 0.0000
# 2 0.3890 76.0075 40.6662 0.0000 14.2119 0.0000
# 3 40.6059 40.6662 153.1032 0.0000 44.4043 0.0000
# 4 0.0000 0.0000 0.0000 40.7699 0.0000 4.1743
# 5 27.0201 14.2119 44.4043 0.0000 47.7541 0.0000
# 6 0.0000 0.0000 0.0000 4.1743 0.0000 24.1203
#
#
#
# Elastic Compliance Matrix: (Units=1/GPa)
#
#
# Indices 1 2 3 4 5 6 
#
# 1 0.038552 0.006789 -0.007005 0.000000 -0.017321 0.000000
# 2 0.006789 0.016571 -0.005008 0.000000 -0.004116 0.000000
# 3 -0.007005 -0.005008 0.011143 0.000000 -0.004907 0.000000
# 4 0.000000 0.000000 0.000000 0.024970 0.000000 -0.004321
# 5 -0.017321 -0.004116 -0.004907 0.000000 0.036529 0.000000
# 6 0.000000 0.000000 0.000000 -0.004321 0.000000 0.042207
#
#
# Mechanical properties :
#
#
# Convention : Reuss Voigt Hill
#
# Bulk Modulus (GPa) = 17.91524 48.64672 33.28098
# Shear Modulus (GPa) = 25.12232 35.38467 30.25350
#
# Velocity S-wave (km/s) = 3.14200 3.72892 3.44797
# Velocity P-wave (km/s) = 4.49476 6.13647 5.37862
#
# Compressibility (1/GPa) = 0.05581841
#
# Stress axis : x y z
#
# Youngs Moduli (GPa) = 25.93882 60.34621 89.74368
#
# Poissons Ratio (x) = -0.40969 0.62861
# Poissons Ratio (y) = -0.17610 0.44946
# Poissons Ratio (z) = 0.18169 0.30223
#
# Static dielectric constant tensor:
#      x y z
#    x 2.108390 0.000000 0.087060 
#    y 0.000000 2.023060 0.000000 
#    z 0.087060 0.000000 2.160760 
# 
# From -- ./inp_files/7405.got.cif
#   From: 2010.05.17/outbox.cif.g08.bks.cpg/sg3_4_cif.got.tgz:7405.got - 2010.06.03 18:33:08.
