data_PCOD9112668
_publ_section_title
;
Structure prediction by ZEFSAII (Michael W. Deem and Ramdas Pophale) SiO2 
 PCOD9112668
Probable space group: P 2
;
_chemical_formula_sum "Si O2"
_cell_formula_units_Z 12
_cell_length_a 7.391070
_cell_length_b 8.033025
_cell_length_c 11.249575
_cell_angle_alpha 90.000000
_cell_angle_beta 47.075929
_cell_angle_gamma 90.000000
_cell_volume 489.086858
_symmetry_space_group_name_H-M "P 2"
_symmetry_group_IT_number 3
_symmetry_cell_setting 'monoclinic'
loop_
_space_group_symop_operation_xyz
x,y,z
-x,y,-z
loop_
_atom_site_type_symbol
_atom_site_label
_atom_site_fract_x
_atom_site_fract_y
_atom_site_fract_z
Si Si1 0.320593 0.851200 0.973795
Si Si2 0.637781 0.340807 0.556306
Si Si3 0.897291 0.338535 0.782593
Si Si4 0.981091 0.948793 0.307900
Si Si5 0.397542 0.468963 0.882813
Si Si6 0.357534 0.982379 0.348650
O O1 0.390164 0.663075 0.914816
O O2 0.377112 0.956025 0.830184
O O3 0.500000 0.917407 0.000000
O O4 0.055606 0.854316 0.155483
O O5 0.500000 0.281291 0.500000
O O6 0.449484 0.445451 0.720333
O O7 0.695672 0.177197 0.607992
O O8 0.886730 0.423235 0.393495
O O9 0.971224 0.143957 0.744160
O O10 0.641486 0.387389 0.833364
O O11 0.839266 0.389816 0.944540
O O12 0.174191 0.913197 0.329155
O O13 0.722054 0.911787 0.488037
#
# Coordination Sequence:
#
# PCOD9112668 Si02
#       6
#     2   2   2   2   2   2
#     4  10  19  32  54  89 115 140 181 240 300 338
#     4  11  23  39  60  84 117 161 199 231 281 347
#     4  10  20  37  61  86 115 147 196 250 288 327
#     4   9  17  31  55  83 112 141 178 242 293 327
#     4  11  21  36  58  90 118 150 188 244 295 343
#     4   9  18  33  54  82 112 143 187 235 283 337
#
# _framework density 24.535520000000002
#
# number of rings (size 3 to 8) (size 9 to 14) (size 15 to 20)
#    0.000    2.000    3.333    1.500    4.667    2.000 
#    6.000    0.833    0.000    4.000    0.000    0.000 
#    0.000    0.000    0.000    0.000    0.000    0.000 
#
# Total GULP energy -66928.868478 kJ/mol
# GULP energy per Si atom -5577.405707 kJ/mol
# Density = 2.447968 g / cm^3
# Si number density = 24.535520 Si / 1000 Ang^3
#
#
#
# Elastic Constant Matrix: (Units=GPa)
#
#
# Indices 1 2 3 4 5 6 
#
# 1 58.1115 0.2947 27.8533 0.0000 1.2429 0.0000
# 2 0.2947 42.8017 58.6279 0.0000 8.8924 0.0000
# 3 27.8533 58.6279 323.3051 0.0000 20.2133 0.0000
# 4 0.0000 0.0000 0.0000 20.1482 0.0000 8.6278
# 5 1.2429 8.8924 20.2133 0.0000 12.3565 0.0000
# 6 0.0000 0.0000 0.0000 8.6278 0.0000 -5.8443
#
#
#
# Elastic Compliance Matrix: (Units=1/GPa)
#
#
# Indices 1 2 3 4 5 6 
#
# 1 0.018181 0.002767 -0.002038 0.000000 -0.000487 0.000000
# 2 0.002767 0.034083 -0.005423 0.000000 -0.015936 0.000000
# 3 -0.002038 -0.005423 0.004450 0.000000 -0.003173 0.000000
# 4 0.000000 0.000000 0.000000 0.030409 0.000000 0.044892
# 5 -0.000487 -0.015936 -0.003173 0.000000 0.097636 0.000000
# 6 0.000000 0.000000 0.000000 0.044892 0.000000 -0.104834
#
#
# Mechanical properties :
#
#
# Convention : Reuss Voigt Hill
#
# Bulk Modulus (GPa) = 21.12904 66.41891 43.77398
# Shear Modulus (GPa) = 47.57902 27.82822 37.70362
#
# Velocity S-wave (km/s) = 4.40840 3.37144 3.92432
# Velocity P-wave (km/s) = 5.87727 6.50268 6.19787
#
# Compressibility (1/GPa) = 0.04732822
#
# Stress axis : x y z
#
# Youngs Moduli (GPa) = 55.00138 29.34009 224.70363
#
# Poissons Ratio (x) = -0.08119 0.45788
# Poissons Ratio (y) = -0.15220 1.21850
# Poissons Ratio (z) = 0.11208 0.15910
#
# Static dielectric constant tensor:
#      x y z
#    x 2.026610 0.000000 -0.022130 
#    y 0.000000 1.909960 0.000000 
#    z -0.022130 0.000000 2.148580 
# 
# From -- ./inp_files/7286.got.cif
#   From: 2010.05.17/outbox.cif.g08.bks.cpg/sg3_4_cif.got.tgz:7286.got - 2010.06.03 18:33:08.
