data_PCOD9112785
_publ_section_title
;
Structure prediction by ZEFSAII (Michael W. Deem and Ramdas Pophale) SiO2 
 PCOD9112785
Probable space group: P 2
;
_chemical_formula_sum "Si O2"
_cell_formula_units_Z 16
_cell_length_a 9.529067
_cell_length_b 9.012852
_cell_length_c 11.925130
_cell_angle_alpha 90.000000
_cell_angle_beta 53.548202
_cell_angle_gamma 90.000000
_cell_volume 823.805302
_symmetry_space_group_name_H-M "P 2"
_symmetry_group_IT_number 3
_symmetry_cell_setting 'monoclinic'
loop_
_space_group_symop_operation_xyz
x,y,z
-x,y,-z
loop_
_atom_site_type_symbol
_atom_site_label
_atom_site_fract_x
_atom_site_fract_y
_atom_site_fract_z
Si Si1 0.173395 0.906290 0.374606
Si Si2 0.797155 0.590364 0.330674
Si Si3 0.632437 0.472386 0.181006
Si Si4 0.373951 0.333848 0.455413
Si Si5 0.301063 0.923750 0.562935
Si Si6 0.609102 0.658571 0.841228
Si Si7 0.034815 0.153491 0.663319
Si Si8 0.841786 0.435407 0.852958
O O1 0.281637 0.934326 0.436561
O O2 0.270060 0.793475 0.249307
O O3 0.000000 0.823467 0.500000
O O4 0.095082 0.051574 0.349349
O O5 0.735839 0.521572 0.241836
O O6 0.695915 0.496147 0.473883
O O7 0.749815 0.760375 0.371094
O O8 0.001208 0.553576 0.233106
O O9 0.496648 0.347643 0.288961
O O10 0.520162 0.613840 0.196118
O O11 0.753889 0.430921 0.017799
O O12 0.500000 0.285460 0.500000
O O13 0.194599 0.242426 0.526839
O O14 0.500000 0.954518 0.500000
O O15 0.153530 0.037875 0.677864
O O16 0.701698 0.504375 0.833659
O O17 0.500000 0.706429 0.000000
O O18 0.923328 0.277340 0.780431
#
# Coordination Sequence:
#
# PCOD9112785 Si02
#       8
#     2   2   2   2   2   2   2   2
#     4  10  21  38  58  84 116 153 191 233 286 342
#     4  10  19  36  63  88 112 145 191 246 291 334
#     4  10  20  35  62  89 110 145 195 244 289 335
#     4   9  18  35  60  87 112 146 193 243 287 334
#     4  11  21  36  59  88 117 149 191 240 287 340
#     4  10  21  37  57  82 113 149 193 243 287 335
#     4  10  22  37  54  82 120 157 189 229 284 344
#     4  10  21  38  58  84 118 152 192 238 286 340
#
# _framework density 19.422063000000001
#
# number of rings (size 3 to 8) (size 9 to 14) (size 15 to 20)
#    0.000    2.000    0.000    4.875    0.000    4.000 
#    0.000    4.375    0.000   33.000    0.000    0.000 
#    0.000    0.000    0.000    0.000    0.000    0.000 
#
# Total GULP energy -89180.406157 kJ/mol
# GULP energy per Si atom -5573.775385 kJ/mol
# Density = 1.937786 g / cm^3
# Si number density = 19.422063 Si / 1000 Ang^3
#
#
#
# Elastic Constant Matrix: (Units=GPa)
#
#
# Indices 1 2 3 4 5 6 
#
# 1 91.6688 17.7525 37.7525 0.0000 -10.1688 0.0000
# 2 17.7525 113.8653 55.0902 0.0000 -19.4852 0.0000
# 3 37.7525 55.0902 109.3844 0.0000 -20.3035 0.0000
# 4 0.0000 0.0000 0.0000 -6.5649 0.0000 -36.9049
# 5 -10.1688 -19.4852 -20.3035 0.0000 23.4327 0.0000
# 6 0.0000 0.0000 0.0000 -36.9049 0.0000 -52.4588
#
#
#
# Elastic Compliance Matrix: (Units=1/GPa)
#
#
# Indices 1 2 3 4 5 6 
#
# 1 0.012814 0.000431 -0.004220 0.000000 0.002263 0.000000
# 2 0.000431 0.012245 -0.005233 0.000000 0.005836 0.000000
# 3 -0.004220 -0.005233 0.014403 0.000000 0.006297 0.000000
# 4 0.000000 0.000000 0.000000 0.051552 0.000000 -0.036267
# 5 0.002263 0.005836 0.006297 0.000000 0.053966 0.000000
# 6 0.000000 0.000000 0.000000 -0.036267 0.000000 0.006451
#
#
# Mechanical properties :
#
#
# Convention : Reuss Voigt Hill
#
# Bulk Modulus (GPa) = 46.68691 59.56769 53.12730
# Shear Modulus (GPa) = 28.31022 6.50337 17.40680
#
# Velocity S-wave (km/s) = 3.82204 1.83186 2.99697
# Velocity P-wave (km/s) = 6.60057 5.93388 6.27609
#
# Compressibility (1/GPa) = 0.02141928
#
# Stress axis : x y z
#
# Youngs Moduli (GPa) = 78.03835 81.66278 69.43137
#
# Poissons Ratio (x) = -0.03519 0.29298
# Poissons Ratio (y) = -0.03363 0.36333
# Poissons Ratio (z) = 0.32929 0.42733
#
# Static dielectric constant tensor:
#      x y z
#    x 1.739690 0.000000 -0.000300 
#    y 0.000000 1.701470 0.000000 
#    z -0.000300 0.000000 1.670720 
# 
# From -- ./inp_files/10747.got.cif
#   From: 2010.05.17/outbox.cif.g08.bks.cpg/sg3_6_cif.got.tgz:10747.got - 2010.06.03 18:33:08.
