data_PCOD9112105
_publ_section_title
;
Structure prediction by ZEFSAII (Michael W. Deem and Ramdas Pophale) SiO2 
 PCOD9112105
Probable space group: P -1
;
_chemical_formula_sum "Si O2"
_cell_formula_units_Z 15
_cell_length_a 13.212943
_cell_length_b 12.186818
_cell_length_c 5.252930
_cell_angle_alpha 85.929493
_cell_angle_beta 90.785745
_cell_angle_gamma 49.195137
_cell_volume 636.613077
_symmetry_space_group_name_H-M "P -1"
_symmetry_group_IT_number 2
_symmetry_cell_setting 'triclinic'
loop_
_space_group_symop_operation_xyz
x,y,z
-x,-y,-z
loop_
_atom_site_type_symbol
_atom_site_label
_atom_site_fract_x
_atom_site_fract_y
_atom_site_fract_z
Si Si1 0.916068 0.455231 0.922980
Si Si2 0.580889 0.054979 0.002535
Si Si3 0.377437 0.370764 0.194022
Si Si4 0.064240 0.701445 0.542090
Si Si5 0.740987 0.319752 0.820023
Si Si6 0.000000 0.000000 0.000000
Si Si7 0.812999 0.982318 0.302803
Si Si8 0.397412 0.782665 0.398184
O O1 0.763304 0.592070 0.817502
O O2 0.969420 0.355967 0.688684
O O3 0.912685 0.380524 0.185360
O O4 0.000000 0.500000 0.000000
O O5 0.623898 0.079117 0.734710
O O6 0.480588 0.222596 0.067522
O O7 0.500000 0.000000 0.000000
O O8 0.713137 0.959806 0.198543
O O9 0.337614 0.522362 0.084469
O O10 0.453145 0.331320 0.471167
O O11 0.191368 0.678666 0.439455
O O12 0.930674 0.870987 0.525126
O O13 0.641436 0.290129 0.770309
O O14 0.872676 0.178884 0.983773
O O15 0.896883 0.975338 0.079989
O O16 0.713213 0.142820 0.394808
#
# Coordination Sequence:
#
# PCOD9112105 Si02
#       8
#     2   2   2   2   2   1   2   2
#     4  11  25  45  71 104 142 194 252 306 378 444
#     4  11  26  45  69  98 143 195 250 301 361 444
#     4  10  26  44  67 106 138 191 240 305 367 445
#     4  10  25  42  70 106 143 188 240 314 372 450
#     4  10  22  43  72 105 148 182 243 301 380 444
#     4  10  20  44  70 106 146 178 234 302 370 448
#     4  10  24  42  69 107 137 188 245 302 376 436
#     4  11  24  44  69 104 142 196 243 303 376 443
#
# _framework density 23.562194999999999
#
# number of rings (size 3 to 8) (size 9 to 14) (size 15 to 20)
#    0.000    1.600    1.333    0.800    7.467   10.133 
#    0.000    0.000    0.000    0.000    0.000    0.000 
#    0.000    0.000    0.000    0.000    0.000    0.000 
#
# Total GULP energy -83515.770985 kJ/mol
# GULP energy per Si atom -5567.718066 kJ/mol
# Density = 2.350857 g / cm^3
# Si number density = 23.562195 Si / 1000 Ang^3
#
#
#
# Elastic Constant Matrix: (Units=GPa)
#
#
# Indices 1 2 3 4 5 6 
#
# 1 187.1618 37.3037 39.3895 -5.3958 11.7744 9.6969
# 2 37.3037 87.1378 36.8854 -11.4242 2.9441 -14.5291
# 3 39.3895 36.8854 73.5812 -8.9334 9.7826 4.2451
# 4 -5.3958 -11.4242 -8.9334 28.5063 -2.5019 6.6311
# 5 11.7744 2.9441 9.7826 -2.5019 25.0520 -6.0388
# 6 9.6969 -14.5291 4.2451 6.6311 -6.0388 44.7289
#
#
#
# Elastic Compliance Matrix: (Units=1/GPa)
#
#
# Indices 1 2 3 4 5 6 
#
# 1 0.006471 -0.002291 -0.001827 0.000047 -0.002617 -0.002334
# 2 -0.002291 0.017249 -0.008052 0.002686 0.004156 0.007027
# 3 -0.001827 -0.008052 0.020299 0.003471 -0.007130 -0.005623
# 4 0.000047 0.002686 0.003471 0.038510 0.000935 -0.005050
# 5 -0.002617 0.004156 -0.007130 0.000935 0.045612 0.008613
# 6 -0.002334 0.007027 -0.005623 -0.005050 0.008613 0.027591
#
#
# Mechanical properties :
#
#
# Convention : Reuss Voigt Hill
#
# Bulk Modulus (GPa) = 50.81926 63.89311 57.35619
# Shear Modulus (GPa) = 26.79082 35.27757 31.03419
#
# Velocity S-wave (km/s) = 3.37564 3.87358 3.63315
# Velocity P-wave (km/s) = 6.06698 6.86890 6.48036
#
# Compressibility (1/GPa) = 0.01967758
#
# Stress axis : x y z
#
# Youngs Moduli (GPa) = 154.53268 57.97546 49.26448
#
# Poissons Ratio (x) = 0.13285 0.09002
# Poissons Ratio (y) = 0.35410 0.39667
# Poissons Ratio (z) = 0.28236 0.46681
#
# Static dielectric constant tensor:
#      x y z
#    x 1.860320 -0.006130 -0.022000 
#    y -0.006130 1.916990 0.063080 
#    z -0.022000 0.063080 2.037440 
# 
# From -- ./inp_files/69843.got.cif
#   From: 2010.05.17/outbox.cif.g08.bks.cpg/sg2_35_cif.got.tgz:69843.got - 2010.06.03 11:33:40.
