data_PCOD9112137
_publ_section_title
;
Structure prediction by ZEFSAII (Michael W. Deem and Ramdas Pophale) SiO2 
 PCOD9112137
Probable space group: P -1
;
_chemical_formula_sum "Si O2"
_cell_formula_units_Z 16
_cell_length_a 14.539781
_cell_length_b 6.694726
_cell_length_c 15.091310
_cell_angle_alpha 88.085253
_cell_angle_beta 32.306000
_cell_angle_gamma 103.350477
_cell_volume 686.113581
_symmetry_space_group_name_H-M "P -1"
_symmetry_group_IT_number 2
_symmetry_cell_setting 'triclinic'
loop_
_space_group_symop_operation_xyz
x,y,z
-x,-y,-z
loop_
_atom_site_type_symbol
_atom_site_label
_atom_site_fract_x
_atom_site_fract_y
_atom_site_fract_z
Si Si1 0.335661 0.383117 0.849785
Si Si2 0.014495 0.043187 0.589784
Si Si3 0.040975 0.601989 0.262262
Si Si4 0.632539 0.796834 0.337914
Si Si5 0.030964 0.109508 0.824817
Si Si6 0.359321 0.779162 0.721352
Si Si7 0.653753 0.566069 0.955890
Si Si8 0.245719 0.929336 0.517006
O O1 0.466920 0.366557 0.663532
O O2 0.271067 0.561764 0.860477
O O3 0.156419 0.128131 0.995845
O O4 0.412804 0.433951 0.887214
O O5 0.830027 0.824605 0.789397
O O6 0.214017 0.041165 0.453791
O O7 0.010107 0.268781 0.621049
O O8 0.000000 0.000000 0.500000
O O9 0.238805 0.590105 0.124372
O O10 0.875721 0.340614 0.387925
O O11 0.041275 0.738149 0.172110
O O12 0.466816 0.748110 0.547525
O O13 0.741901 0.074146 0.229460
O O14 0.809379 0.759360 0.231658
O O15 0.150433 0.027727 0.663755
O O16 0.533123 0.970944 0.636912
O O17 0.500000 0.500000 0.000000
#
# Coordination Sequence:
#
# PCOD9112137 Si02
#       8
#     2   2   2   2   2   2   2   2
#     4  12  23  42  65  97 134 169 221 272 326 390
#     4  10  22  42  67  95 125 165 226 269 322 392
#     4  10  20  44  71  88 132 172 217 270 330 381
#     4  10  24  42  63  96 134 175 222 261 326 392
#     4  10  21  41  67  95 127 170 215 269 320 395
#     4  10  24  41  63  97 137 172 213 267 329 387
#     4  11  26  45  65  99 133 170 220 274 331 391
#     4   9  20  40  62  92 127 170 215 260 318 391
#
# _framework density 23.319752999999999
#
# number of rings (size 3 to 8) (size 9 to 14) (size 15 to 20)
#    0.000    1.750    3.750    0.750    3.500    9.000 
#    2.250    0.000    0.000    0.000    0.000    0.000 
#    0.000    0.000    0.000    0.000    0.000    0.000 
#
# Total GULP energy -89329.659427 kJ/mol
# GULP energy per Si atom -5583.103714 kJ/mol
# Density = 2.326668 g / cm^3
# Si number density = 23.319753 Si / 1000 Ang^3
#
#
#
# Elastic Constant Matrix: (Units=GPa)
#
#
# Indices 1 2 3 4 5 6 
#
# 1 159.0533 61.0675 39.3917 13.9601 20.7974 -1.8750
# 2 61.0675 157.6022 39.6350 -3.7062 10.1903 -10.4310
# 3 39.3917 39.6350 38.6945 -2.3039 16.7982 -3.2105
# 4 13.9601 -3.7062 -2.3039 24.4151 4.5490 -3.8305
# 5 20.7974 10.1903 16.7982 4.5490 44.0664 6.4660
# 6 -1.8750 -10.4310 -3.2105 -3.8305 6.4660 33.4128
#
#
#
# Elastic Compliance Matrix: (Units=1/GPa)
#
#
# Indices 1 2 3 4 5 6 
#
# 1 0.009702 -0.001896 -0.008513 -0.006912 0.000063 -0.001670
# 2 -0.001896 0.009097 -0.007651 0.001823 0.001230 0.001969
# 3 -0.008513 -0.007651 0.050412 0.012388 -0.015652 0.006427
# 4 -0.006912 0.001823 0.012388 0.049240 -0.008228 0.008609
# 5 0.000063 0.001230 -0.015652 -0.008228 0.030359 -0.007935
# 6 -0.001670 0.001969 0.006427 0.008609 -0.007935 0.033590
#
#
# Mechanical properties :
#
#
# Convention : Reuss Voigt Hill
#
# Bulk Modulus (GPa) = 30.21763 70.61539 50.41651
# Shear Modulus (GPa) = 21.78182 34.72925 28.25553
#
# Velocity S-wave (km/s) = 3.05954 3.86328 3.48466
# Velocity P-wave (km/s) = 5.04650 7.08852 6.15281
#
# Compressibility (1/GPa) = 0.03309326
#
# Stress axis : x y z
#
# Youngs Moduli (GPa) = 103.07105 109.92178 19.83653
#
# Poissons Ratio (x) = 0.20838 0.16886
# Poissons Ratio (y) = 0.19539 0.15177
# Poissons Ratio (z) = 0.87740 0.84099
#
# Static dielectric constant tensor:
#      x y z
#    x 9.041450 0.021780 3.169070 
#    y 0.021780 1.890940 0.038380 
#    z 3.169070 0.038380 3.347830 
# 
# From -- ./inp_files/525338.got.cif
#   From: 2010.05.17/outbox.cif.g08.bks.cpg/sg2_263_cif.got.tgz:525338.got - 2010.06.03 11:33:40.
