data_PCOD9112571
_publ_section_title
;
Structure prediction by ZEFSAII (Michael W. Deem and Ramdas Pophale) SiO2 
 PCOD9112571
Probable space group: P 2
;
_chemical_formula_sum "Si O2"
_cell_formula_units_Z 16
_cell_length_a 9.698610
_cell_length_b 8.149649
_cell_length_c 12.458038
_cell_angle_alpha 90.000000
_cell_angle_beta 128.279507
_cell_angle_gamma 90.000000
_cell_volume 772.977050
_symmetry_space_group_name_H-M "P 2"
_symmetry_group_IT_number 3
_symmetry_cell_setting 'monoclinic'
loop_
_space_group_symop_operation_xyz
x,y,z
-x,y,-z
loop_
_atom_site_type_symbol
_atom_site_label
_atom_site_fract_x
_atom_site_fract_y
_atom_site_fract_z
Si Si1 0.949463 0.430280 0.285025
Si Si2 0.424739 0.055768 0.123298
Si Si3 0.643885 0.604074 0.258733
Si Si4 0.650299 0.408636 0.980689
Si Si5 0.962275 0.059019 0.607560
Si Si6 0.426130 0.134834 0.582971
Si Si7 0.653793 0.513263 0.486914
Si Si8 0.273875 0.905564 0.852478
O O1 0.816618 0.493894 0.314229
O O2 0.980292 0.237454 0.320666
O O3 0.145071 0.504814 0.374329
O O4 0.832407 0.460673 0.122188
O O5 0.330883 0.227788 0.056869
O O6 0.460897 0.054153 0.267184
O O7 0.616382 0.049331 0.157046
O O8 0.319603 0.923717 0.999806
O O9 0.451549 0.524716 0.150301
O O10 0.653426 0.641694 0.388863
O O11 0.659603 0.746818 0.178406
O O12 0.500000 0.398052 0.000000
O O13 0.756588 0.042910 0.514487
O O14 0.000000 0.046978 0.500000
O O15 0.072292 0.928890 0.728022
O O16 0.500000 0.130814 0.500000
O O17 0.386247 0.330202 0.583667
O O18 0.500000 0.541456 0.500000
#
# Coordination Sequence:
#
# PCOD9112571 Si02
#       8
#     2   2   2   2   2   2   2   2
#     4  10  20  35  60  92 117 155 214 260 311 363
#     4  11  19  38  58  91 122 156 200 259 305 370
#     4  11  22  37  59  91 125 161 205 260 312 372
#     4  10  18  33  60  89 120 153 197 261 315 356
#     4  11  19  35  59  90 121 158 205 262 305 360
#     4  10  21  38  65  93 125 160 211 257 311 370
#     4  10  21  39  63  90 123 164 209 260 309 372
#     4  11  23  34  58  93 124 159 204 255 316 365
#
# _framework density 20.699193999999999
#
# number of rings (size 3 to 8) (size 9 to 14) (size 15 to 20)
#    0.000    1.500    5.000    2.625    5.250    1.000 
#    0.000    1.875    0.000    0.000    0.000    0.000 
#    0.000    0.000    0.000    0.000    0.000    0.000 
#
# Total GULP energy -89200.150066 kJ/mol
# GULP energy per Si atom -5575.009379 kJ/mol
# Density = 2.065208 g / cm^3
# Si number density = 20.699194 Si / 1000 Ang^3
#
#
#
# Elastic Constant Matrix: (Units=GPa)
#
#
# Indices 1 2 3 4 5 6 
#
# 1 77.0602 16.1821 60.1621 0.0000 8.2474 0.0000
# 2 16.1821 53.3612 39.2842 0.0000 4.0857 0.0000
# 3 60.1621 39.2842 180.2799 0.0000 16.5947 0.0000
# 4 0.0000 0.0000 0.0000 17.8104 0.0000 -2.1225
# 5 8.2474 4.0857 16.5947 0.0000 23.2886 0.0000
# 6 0.0000 0.0000 0.0000 -2.1225 0.0000 10.2662
#
#
#
# Elastic Compliance Matrix: (Units=1/GPa)
#
#
# Indices 1 2 3 4 5 6 
#
# 1 0.017717 -0.001192 -0.005452 0.000000 -0.002180 0.000000
# 2 -0.001192 0.022406 -0.004454 0.000000 -0.000335 0.000000
# 3 -0.005452 -0.004454 0.008655 0.000000 -0.003455 0.000000
# 4 0.000000 0.000000 0.000000 0.057565 0.000000 0.011901
# 5 -0.002180 -0.000335 -0.003455 0.000000 0.046232 0.000000
# 6 0.000000 0.000000 0.000000 0.011901 0.000000 0.099868
#
#
# Mechanical properties :
#
#
# Convention : Reuss Voigt Hill
#
# Bulk Modulus (GPa) = 37.61899 60.21757 48.91828
# Shear Modulus (GPa) = 17.63669 23.27790 20.45730
#
# Velocity S-wave (km/s) = 2.92215 3.35711 3.14716
# Velocity P-wave (km/s) = 5.44049 6.64694 6.07374
#
# Compressibility (1/GPa) = 0.02658232
#
# Stress axis : x y z
#
# Youngs Moduli (GPa) = 56.44307 44.63041 115.54189
#
# Poissons Ratio (x) = 0.05321 0.62993
# Poissons Ratio (y) = 0.06729 0.51460
# Poissons Ratio (z) = 0.30772 0.19877
#
# Static dielectric constant tensor:
#      x y z
#    x 1.675500 0.000000 0.026990 
#    y 0.000000 1.844150 0.000000 
#    z 0.026990 0.000000 1.776710 
# 
# From -- ./inp_files/10779.got.cif
#   From: 2010.05.17/outbox.cif.g08.bks.cpg/sg3_6_cif.got.tgz:10779.got - 2010.06.03 18:33:08.
