data_PCOD9112128
_publ_section_title
;
Structure prediction by ZEFSAII (Michael W. Deem and Ramdas Pophale) SiO2 
 PCOD9112128
Probable space group: P -1
;
_chemical_formula_sum "Si O2"
_cell_formula_units_Z 15
_cell_length_a 13.025132
_cell_length_b 11.812632
_cell_length_c 11.361953
_cell_angle_alpha 114.917307
_cell_angle_beta 30.761387
_cell_angle_gamma 127.058973
_cell_volume 693.277515
_symmetry_space_group_name_H-M "P -1"
_symmetry_group_IT_number 2
_symmetry_cell_setting 'triclinic'
loop_
_space_group_symop_operation_xyz
x,y,z
-x,-y,-z
loop_
_atom_site_type_symbol
_atom_site_label
_atom_site_fract_x
_atom_site_fract_y
_atom_site_fract_z
Si Si1 0.000000 0.500000 0.500000
Si Si2 0.971712 0.273470 0.622396
Si Si3 0.500277 0.688657 0.169496
Si Si4 0.994426 0.083556 0.326033
Si Si5 0.125660 0.843270 0.088348
Si Si6 0.466299 0.494509 0.326558
Si Si7 0.423901 0.950122 0.419825
Si Si8 0.798808 0.532843 0.192291
O O1 0.951172 0.390190 0.614452
O O2 0.284096 0.560177 0.255289
O O3 0.905368 0.135516 0.546014
O O4 0.243890 0.352381 0.429660
O O5 0.836886 0.220048 0.855240
O O6 0.548095 0.621384 0.207657
O O7 0.401472 0.793760 0.351108
O O8 0.743907 0.784679 0.905009
O O9 0.815802 0.058654 0.385268
O O10 0.022168 0.946584 0.262269
O O11 0.929828 0.707945 0.146257
O O12 0.365098 0.935267 0.821152
O O13 0.669822 0.475262 0.170561
O O14 0.372734 0.531155 0.554356
O O15 0.500000 0.000000 0.500000
O O16 0.000000 0.500000 0.000000
#
# Coordination Sequence:
#
# PCOD9112128 Si02
#       8
#     1   2   2   2   2   2   2   2
#     4  10  20  44  70  98 136 162 226 270 332 402
#     4  10  21  46  67  98 133 173 216 280 335 385
#     4  10  23  42  65  98 130 171 220 275 323 399
#     4  11  24  44  67  96 132 180 220 271 338 383
#     4  10  25  43  65 100 130 174 224 273 323 400
#     4   9  22  39  64  93 134 160 220 279 319 408
#     4  11  26  42  66  97 132 180 224 269 327 393
#     4  10  22  41  63  96 126 174 217 269 339 384
#
# _framework density 21.636354999999998
#
# number of rings (size 3 to 8) (size 9 to 14) (size 15 to 20)
#    0.000    1.867    1.333    0.400    5.600    5.867 
#   12.000    0.000    0.000    0.000    0.000    0.000 
#    0.000    0.000    0.000    0.000    0.000    0.000 
#
# Total GULP energy -83552.650308 kJ/mol
# GULP energy per Si atom -5570.176687 kJ/mol
# Density = 2.158711 g / cm^3
# Si number density = 21.636355 Si / 1000 Ang^3
#
#
#
# Elastic Constant Matrix: (Units=GPa)
#
#
# Indices 1 2 3 4 5 6 
#
# 1 156.7778 32.0803 37.3560 1.8395 -24.3516 -17.4346
# 2 32.0803 49.8612 8.6308 -5.3045 10.8930 -17.9503
# 3 37.3560 8.6308 52.5791 -1.4410 -11.1646 -17.7277
# 4 1.8395 -5.3045 -1.4410 18.6789 -3.0595 1.9804
# 5 -24.3516 10.8930 -11.1646 -3.0595 30.8007 -2.0949
# 6 -17.4346 -17.9503 -17.7277 1.9804 -2.0949 29.0351
#
#
#
# Elastic Compliance Matrix: (Units=1/GPa)
#
#
# Indices 1 2 3 4 5 6 
#
# 1 0.010646 -0.008730 -0.004444 -0.002203 0.009615 -0.000874
# 2 -0.008730 0.035599 0.002616 0.006657 -0.016746 0.016701
# 3 -0.004444 0.002616 0.029220 0.002862 0.007603 0.017143
# 4 -0.002203 0.006657 0.002862 0.056193 0.002584 0.000894
# 5 0.009615 -0.016746 0.007603 0.002584 0.049238 0.003439
# 6 -0.000874 0.016701 0.017143 0.000894 0.003439 0.054896
#
#
# Mechanical properties :
#
#
# Convention : Reuss Voigt Hill
#
# Bulk Modulus (GPa) = 18.39937 46.15025 32.27481
# Shear Modulus (GPa) = 18.18043 27.77966 22.98005
#
# Velocity S-wave (km/s) = 2.90189 3.58709 3.26253
# Velocity P-wave (km/s) = 4.44413 6.20746 5.39828
#
# Compressibility (1/GPa) = 0.05434970
#
# Stress axis : x y z
#
# Youngs Moduli (GPa) = 93.93453 28.09096 34.22364
#
# Poissons Ratio (x) = 0.24522 0.15208
# Poissons Ratio (y) = 0.82001 -0.08954
# Poissons Ratio (z) = 0.41743 -0.07350
#
# Static dielectric constant tensor:
#      x y z
#    x 1.782960 0.034450 -0.010660 
#    y 0.034450 1.828000 0.001240 
#    z -0.010660 0.001240 1.791160 
# 
# From -- ./inp_files/69842.got.cif
#   From: 2010.05.17/outbox.cif.g08.bks.cpg/sg2_35_cif.got.tgz:69842.got - 2010.06.03 11:33:40.
