data_PCOD9112778
_publ_section_title
;
Structure prediction by ZEFSAII (Michael W. Deem and Ramdas Pophale) SiO2 
 PCOD9112778
Probable space group: P 2
;
_chemical_formula_sum "Si O2"
_cell_formula_units_Z 12
_cell_length_a 5.602051
_cell_length_b 7.175110
_cell_length_c 14.462475
_cell_angle_alpha 90.000000
_cell_angle_beta 124.157222
_cell_angle_gamma 90.000000
_cell_volume 481.045601
_symmetry_space_group_name_H-M "P 2"
_symmetry_group_IT_number 3
_symmetry_cell_setting 'monoclinic'
loop_
_space_group_symop_operation_xyz
x,y,z
-x,y,-z
loop_
_atom_site_type_symbol
_atom_site_label
_atom_site_fract_x
_atom_site_fract_y
_atom_site_fract_z
Si Si1 0.075095 0.827230 0.615640
Si Si2 0.839685 0.244141 0.559093
Si Si3 0.186816 0.726447 0.843814
Si Si4 0.351338 0.761118 0.179004
Si Si5 0.246555 0.326007 0.129004
Si Si6 0.838251 0.308844 0.189013
O O1 0.027713 0.741163 0.707852
O O2 0.575936 0.844394 0.302108
O O3 0.000000 0.737274 0.500000
O O4 0.907761 0.022772 0.579889
O O5 0.500000 0.278646 0.500000
O O6 0.000000 0.304087 0.500000
O O7 0.010757 0.333724 0.680372
O O8 0.973783 0.812222 0.871270
O O9 0.500880 0.802795 0.887244
O O10 0.222752 0.508144 0.871327
O O11 0.354730 0.532188 0.185984
O O12 0.525010 0.227132 0.144714
O O13 0.084997 0.222832 0.177768
O O14 0.000000 0.352980 0.000000
#
# Coordination Sequence:
#
# PCOD9112778 Si02
#       6
#     2   2   2   2   2   2
#     4   9  20  32  53  75 110 148 187 214 265 335
#     4  11  24  37  53  81 119 162 191 219 275 340
#     4   8  17  31  49  72 104 132 178 221 270 311
#     4   8  17  31  49  79 104 131 174 231 271 319
#     4  10  19  36  61  85 107 142 190 240 300 335
#     4  10  20  38  53  86 113 147 185 241 282 328
#
# _framework density 24.945658999999999
#
# number of rings (size 3 to 8) (size 9 to 14) (size 15 to 20)
#    1.000    1.667    0.000    1.500    4.667    0.667 
#    6.000    0.000    0.000    1.000    8.667    0.000 
#    0.000    0.000    0.000    0.000    0.000    0.000 
#
# Total GULP energy -66863.821696 kJ/mol
# GULP energy per Si atom -5571.985141 kJ/mol
# Density = 2.488888 g / cm^3
# Si number density = 24.945659 Si / 1000 Ang^3
#
#
#
# Elastic Constant Matrix: (Units=GPa)
#
#
# Indices 1 2 3 4 5 6 
#
# 1 308.3658 8.0357 57.6116 0.0000 18.7081 0.0000
# 2 8.0357 81.6866 -10.0936 0.0000 6.6642 0.0000
# 3 57.6116 -10.0936 112.9326 0.0000 22.7534 0.0000
# 4 0.0000 0.0000 0.0000 125.0293 0.0000 -23.8025
# 5 18.7081 6.6642 22.7534 0.0000 42.1964 0.0000
# 6 0.0000 0.0000 0.0000 -23.8025 0.0000 -22.2401
#
#
#
# Elastic Compliance Matrix: (Units=1/GPa)
#
#
# Indices 1 2 3 4 5 6 
#
# 1 0.003624 -0.000531 -0.001783 0.000000 -0.000561 0.000000
# 2 -0.000531 0.012773 0.001987 0.000000 -0.002853 0.000000
# 3 -0.001783 0.001987 0.011046 0.000000 -0.005480 0.000000
# 4 0.000000 0.000000 0.000000 0.006644 0.000000 -0.007111
# 5 -0.000561 -0.002853 -0.005480 0.000000 0.027353 0.000000
# 6 0.000000 0.000000 0.000000 -0.007111 0.000000 -0.037353
#
#
# Mechanical properties :
#
#
# Convention : Reuss Voigt Hill
#
# Bulk Modulus (GPa) = 37.32866 68.23249 52.78057
# Shear Modulus (GPa) = 148.50031 58.82586 103.66309
#
# Velocity S-wave (km/s) = 7.72391 4.86136 6.45335
# Velocity P-wave (km/s) = 9.72324 7.67608 8.75967
#
# Compressibility (1/GPa) = 0.02678907
#
# Stress axis : x y z
#
# Youngs Moduli (GPa) = 275.94389 78.29315 90.52959
#
# Poissons Ratio (x) = 0.04158 0.16142
# Poissons Ratio (y) = 0.14653 -0.17991
# Poissons Ratio (z) = 0.49203 -0.15560
#
# Static dielectric constant tensor:
#      x y z
#    x 2.070480 0.000000 -0.098830 
#    y 0.000000 1.970950 0.000000 
#    z -0.098830 0.000000 1.919110 
# 
# From -- ./inp_files/11622.got.cif
#   From: 2010.05.17/outbox.cif.g08.bks.cpg/sg3_6_cif.got.tgz:11622.got - 2010.06.03 18:33:08.
