data_PCOD9112624
_publ_section_title
;
Structure prediction by ZEFSAII (Michael W. Deem and Ramdas Pophale) SiO2 
 PCOD9112624
Probable space group: P 2
;
_chemical_formula_sum "Si O2"
_cell_formula_units_Z 14
_cell_length_a 9.631581
_cell_length_b 6.339782
_cell_length_c 18.334265
_cell_angle_alpha 90.000000
_cell_angle_beta 34.571062
_cell_angle_gamma 90.000000
_cell_volume 635.252121
_symmetry_space_group_name_H-M "P 2"
_symmetry_group_IT_number 3
_symmetry_cell_setting 'monoclinic'
loop_
_space_group_symop_operation_xyz
x,y,z
-x,y,-z
loop_
_atom_site_type_symbol
_atom_site_label
_atom_site_fract_x
_atom_site_fract_y
_atom_site_fract_z
Si Si1 0.851348 0.434310 0.284642
Si Si2 0.621540 0.728780 0.821372
Si Si3 0.572300 0.136670 0.581790
Si Si4 0.246436 0.353243 0.005193
Si Si5 0.065028 0.371548 0.343905
Si Si6 0.520355 0.107103 0.210459
Si Si7 0.500000 0.016217 0.000000
Si Si8 0.500000 0.787440 0.500000
O O1 0.645040 0.259702 0.363800
O O2 0.709083 0.641686 0.373274
O O3 0.034384 0.361611 0.269568
O O4 0.999094 0.445670 0.145513
O O5 0.444456 0.539445 0.921585
O O6 0.850429 0.614120 0.683613
O O7 0.485324 0.878079 0.823236
O O8 0.662182 0.868875 0.876163
O O9 0.487110 0.089089 0.700202
O O10 0.805977 0.291340 0.485127
O O11 0.616654 0.931956 0.513056
O O12 0.265784 0.249768 0.916872
O O13 0.337744 0.163773 0.018277
O O14 0.272679 0.222945 0.288229
#
# Coordination Sequence:
#
# PCOD9112624 Si02
#       8
#     2   2   2   2   2   2   1   1
#     4  12  24  45  71  99 134 180 234 283 337 412
#     4  10  21  39  66 106 133 175 230 272 355 406
#     4  12  26  49  63 101 141 182 233 283 343 406
#     4  10  22  41  66 100 136 177 221 289 338 407
#     4  11  22  44  70  99 135 177 228 291 339 399
#     4  10  25  44  71  98 140 181 221 285 353 411
#     4  10  18  38  66 104 138 170 220 286 346 408
#     4  12  26  44  70 100 136 192 238 278 340 414
#
# _framework density 22.038492999999999
#
# number of rings (size 3 to 8) (size 9 to 14) (size 15 to 20)
#    0.000    1.143    2.857    4.286    2.000    6.286 
#    5.143    0.000    0.000    0.000    0.000    0.000 
#    0.000    0.000    0.000    0.000    0.000    0.000 
#
# Total GULP energy -78238.655439 kJ/mol
# GULP energy per Si atom -5588.475389 kJ/mol
# Density = 2.198833 g / cm^3
# Si number density = 22.038493 Si / 1000 Ang^3
#
#
#
# Elastic Constant Matrix: (Units=GPa)
#
#
# Indices 1 2 3 4 5 6 
#
# 1 69.1430 40.3593 34.5547 0.0000 11.7502 0.0000
# 2 40.3593 128.7870 50.4248 0.0000 17.2165 0.0000
# 3 34.5547 50.4248 126.7184 0.0000 24.8934 0.0000
# 4 0.0000 0.0000 0.0000 26.6093 0.0000 2.5519
# 5 11.7502 17.2165 24.8934 0.0000 42.5335 0.0000
# 6 0.0000 0.0000 0.0000 2.5519 0.0000 8.6209
#
#
#
# Elastic Compliance Matrix: (Units=1/GPa)
#
#
# Indices 1 2 3 4 5 6 
#
# 1 0.018890 -0.004515 -0.003038 0.000000 -0.001613 0.000000
# 2 -0.004515 0.010399 -0.002627 0.000000 -0.001424 0.000000
# 3 -0.003038 -0.002627 0.010611 0.000000 -0.004308 0.000000
# 4 0.000000 0.000000 0.000000 0.038679 0.000000 -0.011449
# 5 -0.001613 -0.001424 -0.004308 0.000000 0.027054 0.000000
# 6 0.000000 0.000000 0.000000 -0.011449 0.000000 0.119386
#
#
# Mechanical properties :
#
#
# Convention : Reuss Voigt Hill
#
# Bulk Modulus (GPa) = 51.17310 63.92512 57.54911
# Shear Modulus (GPa) = 19.84972 28.84005 24.34489
#
# Velocity S-wave (km/s) = 3.00440 3.62141 3.32724
# Velocity P-wave (km/s) = 5.94184 6.82314 6.39768
#
# Compressibility (1/GPa) = 0.01954152
#
# Stress axis : x y z
#
# Youngs Moduli (GPa) = 52.93691 96.16710 94.23751
#
# Poissons Ratio (x) = 0.43418 0.28627
# Poissons Ratio (y) = 0.23900 0.24755
# Poissons Ratio (z) = 0.16081 0.25262
#
# Static dielectric constant tensor:
#      x y z
#    x 1.801200 0.000000 0.011960 
#    y 0.000000 1.805090 0.000000 
#    z 0.011960 0.000000 1.872610 
# 
# From -- ./inp_files/14835.got.cif
#   From: 2010.05.17/outbox.cif.g08.bks.cpg/sg3_8_cif.got.tgz:14835.got - 2010.06.03 18:33:08.
