data_PCOD9112169
_publ_section_title
;
Structure prediction by ZEFSAII (Michael W. Deem and Ramdas Pophale) SiO2 
 PCOD9112169
Probable space group: P -1
;
_chemical_formula_sum "Si O2"
_cell_formula_units_Z 11
_cell_length_a 5.374125
_cell_length_b 11.575982
_cell_length_c 15.293211
_cell_angle_alpha 152.862023
_cell_angle_beta 74.916340
_cell_angle_gamma 97.946302
_cell_volume 409.498773
_symmetry_space_group_name_H-M "P -1"
_symmetry_group_IT_number 2
_symmetry_cell_setting 'triclinic'
loop_
_space_group_symop_operation_xyz
x,y,z
-x,-y,-z
loop_
_atom_site_type_symbol
_atom_site_label
_atom_site_fract_x
_atom_site_fract_y
_atom_site_fract_z
Si Si1 0.835882 0.823473 0.948565
Si Si2 0.087825 0.615613 0.479056
Si Si3 0.256585 0.744288 0.189989
Si Si4 0.514720 0.771543 0.634301
Si Si5 0.181905 0.525064 0.871400
Si Si6 0.500000 0.000000 0.500000
O O1 0.764661 0.622008 0.751243
O O2 0.029468 0.667089 0.898346
O O3 0.580052 0.001170 0.134986
O O4 0.000000 0.000000 0.000000
O O5 0.804748 0.737489 0.546524
O O6 0.000000 0.500000 0.500000
O O7 0.279402 0.805839 0.609348
O O8 0.994527 0.671192 0.205415
O O9 0.353604 0.941902 0.380208
O O10 0.500000 0.500000 0.000000
O O11 0.195330 0.741670 0.089406
O O12 0.500000 0.500000 0.500000
O O13 0.453229 0.315610 0.693127
#
# Coordination Sequence:
#
# PCOD9112169 Si02
#       6
#     2   2   2   2   2   1
#     4  12  24  44  69 101 147 189 236 289 360 442
#     4  10  22  43  64  94 138 194 243 289 343 426
#     4   9  20  45  69  99 134 171 237 296 359 415
#     4  10  22  43  64  92 136 191 240 291 343 423
#     4  10  23  43  70 102 135 183 229 297 355 428
#     4  10  20  44  72  98 130 174 236 296 358 420
#
# _framework density 26.862109
#
# number of rings (size 3 to 8) (size 9 to 14) (size 15 to 20)
#    0.000    1.818    3.636    0.545    0.000    5.818 
#   22.909    0.000    0.000    0.000    0.000    0.000 
#    0.000    0.000    0.000    0.000    0.000    0.000 
#
# Total GULP energy -61302.943590 kJ/mol
# GULP energy per Si atom -5572.994872 kJ/mol
# Density = 2.680097 g / cm^3
# Si number density = 26.862109 Si / 1000 Ang^3
#
#
#
# Elastic Constant Matrix: (Units=GPa)
#
#
# Indices 1 2 3 4 5 6 
#
# 1 102.8646 -4.1190 24.7644 -18.7084 17.0792 -2.9664
# 2 -4.1190 122.6604 24.1981 1.1962 15.0845 -20.1268
# 3 24.7644 24.1981 216.4700 -28.8709 26.5864 -7.1962
# 4 -18.7084 1.1962 -28.8709 39.1662 -16.9319 -0.3827
# 5 17.0792 15.0845 26.5864 -16.9319 52.9844 -4.1742
# 6 -2.9664 -20.1268 -7.1962 -0.3827 -4.1742 53.7361
#
#
#
# Elastic Compliance Matrix: (Units=1/GPa)
#
#
# Indices 1 2 3 4 5 6 
#
# 1 0.010975 0.000823 -0.000536 0.003873 -0.002210 0.000698
# 2 0.000823 0.009231 -0.000914 -0.001714 -0.002734 0.003156
# 3 -0.000536 -0.000914 0.005369 0.003207 -0.001214 0.000276
# 4 0.003873 -0.001714 0.003207 0.033432 0.008384 0.000891
# 5 -0.002210 -0.002734 -0.001214 0.008384 0.023699 0.000592
# 6 0.000698 0.003156 0.000276 0.000891 0.000592 0.019919
#
#
# Mechanical properties :
#
#
# Convention : Reuss Voigt Hill
#
# Bulk Modulus (GPa) = 41.11673 59.07578 50.09626
# Shear Modulus (GPa) = 44.64765 55.65409 50.15087
#
# Velocity S-wave (km/s) = 4.08132 4.55669 4.32554
# Velocity P-wave (km/s) = 6.12775 7.05156 6.60583
#
# Compressibility (1/GPa) = 0.02432100
#
# Stress axis : x y z
#
# Youngs Moduli (GPa) = 91.11494 108.32730 186.24869
#
# Poissons Ratio (x) = -0.08915 0.09989
# Poissons Ratio (y) = -0.07498 0.17022
# Poissons Ratio (z) = 0.04887 0.09900
#
# Static dielectric constant tensor:
#      x y z
#    x 2.568840 -0.447040 0.017870 
#    y -0.447040 2.627240 -0.019100 
#    z 0.017870 -0.019100 2.060600 
# 
# From -- ./inp_files/481867.got.cif
#   From: 2010.05.17/outbox.cif.g08.bks.cpg/sg2_241_cif.got.tgz:481867.got - 2010.06.03 11:33:40.
