data_PCOD9112529
_publ_section_title
;
Structure prediction by ZEFSAII (Michael W. Deem and Ramdas Pophale) SiO2 
 PCOD9112529
Probable space group: P 2
;
_chemical_formula_sum "Si O2"
_cell_formula_units_Z 15
_cell_length_a 8.644492
_cell_length_b 5.745579
_cell_length_c 15.512503
_cell_angle_alpha 90.000000
_cell_angle_beta 64.479684
_cell_angle_gamma 90.000000
_cell_volume 695.296303
_symmetry_space_group_name_H-M "P 2"
_symmetry_group_IT_number 3
_symmetry_cell_setting 'monoclinic'
loop_
_space_group_symop_operation_xyz
x,y,z
-x,y,-z
loop_
_atom_site_type_symbol
_atom_site_label
_atom_site_fract_x
_atom_site_fract_y
_atom_site_fract_z
Si Si1 0.684846 0.544590 0.571984
Si Si2 0.300972 0.534045 0.011001
Si Si3 0.182423 0.886511 0.604235
Si Si4 0.621780 0.870818 0.734651
Si Si5 0.618679 0.032380 0.059296
Si Si6 0.091485 0.599345 0.228811
Si Si7 0.908958 0.237318 0.630145
Si Si8 0.500000 0.176818 0.500000
O O1 0.760273 0.687619 0.474679
O O2 0.578038 0.703287 0.664956
O O3 0.846377 0.445511 0.585602
O O4 0.578082 0.340106 0.554759
O O5 0.152755 0.542174 0.118579
O O6 0.500000 0.535414 0.000000
O O7 0.291121 0.285480 0.964465
O O8 0.282783 0.785169 0.969505
O O9 0.064076 0.774105 0.707684
O O10 0.356998 0.021131 0.581532
O O11 0.070274 0.073169 0.577091
O O12 0.737662 0.714243 0.770869
O O13 0.486439 0.000612 0.827196
O O14 0.748569 0.066260 0.669484
O O15 0.500000 0.034830 0.000000
O O16 0.057684 0.357929 0.285896
#
# Coordination Sequence:
#
# PCOD9112529 Si02
#       8
#     2   2   2   2   2   2   2   1
#     4  11  25  41  62  88 127 173 227 271 331 399
#     4  10  18  30  52  84 132 182 202 256 322 405
#     4  11  25  41  62  88 127 173 227 271 331 399
#     4  10  20  34  55  89 128 176 212 256 328 403
#     4  10  18  30  52  84 132 182 202 256 322 405
#     4  10  20  34  55  89 128 176 212 256 328 403
#     4  10  22  37  61  90 126 166 205 266 327 384
#     4  12  26  46  60  82 124 184 226 284 324 396
#
# _framework density 21.573535
#
# number of rings (size 3 to 8) (size 9 to 14) (size 15 to 20)
#    0.000    1.600    2.667    3.600    3.733   12.800 
#    0.000    0.000    0.000    0.000    0.000    0.000 
#    0.000   29.867    0.000    0.000    0.000    0.000 
#
# Total GULP energy -83684.300535 kJ/mol
# GULP energy per Si atom -5578.953369 kJ/mol
# Density = 2.152443 g / cm^3
# Si number density = 21.573535 Si / 1000 Ang^3
#
#
#
# Elastic Constant Matrix: (Units=GPa)
#
#
# Indices 1 2 3 4 5 6 
#
# 1 34.9769 24.5152 35.7275 0.0000 -13.2560 0.0000
# 2 24.5152 141.3791 46.4640 0.0000 -13.1964 0.0000
# 3 35.7275 46.4640 133.8164 0.0000 -15.9904 0.0000
# 4 0.0000 0.0000 0.0000-1192.6389 0.0000 -139.4887
# 5 -13.2560 -13.1964 -15.9904 0.0000 9.4631 0.0000
# 6 0.0000 0.0000 0.0000 -139.4887 0.0000 21.6564
#
#
#
# Elastic Compliance Matrix: (Units=1/GPa)
#
#
# Indices 1 2 3 4 5 6 
#
# 1 0.068179 -0.001749 -0.008113 0.000000 0.079358 0.000000
# 2 -0.001749 0.008555 -0.001718 0.000000 0.006578 0.000000
# 3 -0.008113 -0.001718 0.010765 0.000000 0.004430 0.000000
# 4 0.000000 0.000000 0.000000 -0.000478 0.000000 -0.003080
# 5 0.079358 0.006578 0.004430 0.000000 0.233498 0.000000
# 6 0.000000 0.000000 0.000000 -0.003080 0.000000 0.026336
#
#
# Mechanical properties :
#
#
# Convention : Reuss Voigt Hill
#
# Bulk Modulus (GPa) = 15.54230 58.17619 36.85924
# Shear Modulus (GPa) = 12.77271 -218.73950 -102.98339
#
# Velocity S-wave (km/s) = 2.43586 -10.08031 -6.91662
# Velocity P-wave (km/s) = 3.88988 10.41434 6.83108
#
# Compressibility (1/GPa) = 0.06434055
#
# Stress axis : x y z
#
# Youngs Moduli (GPa) = 14.66721 116.89254 92.89595
#
# Poissons Ratio (x) = 0.20440 0.75367
# Poissons Ratio (y) = 0.02565 0.15955
# Poissons Ratio (z) = 0.11900 0.20076
#
# Static dielectric constant tensor:
#      x y z
#    x 1.796600 0.000000 0.002080 
#    y 0.000000 1.831470 0.000000 
#    z 0.002080 0.000000 1.873040 
# 
# From -- ./inp_files/14856.got.cif
#   From: 2010.05.17/outbox.cif.g08.bks.cpg/sg3_8_cif.got.tgz:14856.got - 2010.06.03 18:33:08.
