data_PCOD9112110
_publ_section_title
;
Structure prediction by ZEFSAII (Michael W. Deem and Ramdas Pophale) SiO2 
 PCOD9112110
Probable space group: P -1
;
_chemical_formula_sum "Si O2"
_cell_formula_units_Z 15
_cell_length_a 12.239403
_cell_length_b 8.613971
_cell_length_c 9.075253
_cell_angle_alpha 95.821242
_cell_angle_beta 118.265802
_cell_angle_gamma 53.052291
_cell_volume 650.266108
_symmetry_space_group_name_H-M "P -1"
_symmetry_group_IT_number 2
_symmetry_cell_setting 'triclinic'
loop_
_space_group_symop_operation_xyz
x,y,z
-x,-y,-z
loop_
_atom_site_type_symbol
_atom_site_label
_atom_site_fract_x
_atom_site_fract_y
_atom_site_fract_z
Si Si1 0.626363 0.160192 0.569833
Si Si2 0.198712 0.537302 0.927692
Si Si3 0.500000 0.500000 0.000000
Si Si4 0.661866 0.428537 0.416000
Si Si5 0.076799 0.108027 0.043961
Si Si6 0.597431 0.929801 0.286100
Si Si7 0.874536 0.462492 0.423318
Si Si8 0.277766 0.107236 0.938620
O O1 0.674119 0.260067 0.498145
O O2 0.472607 0.354551 0.573428
O O3 0.773404 0.003067 0.757316
O O4 0.581976 0.045811 0.431499
O O5 0.360008 0.510807 0.012010
O O6 0.102802 0.644961 0.725700
O O7 0.231103 0.326357 0.927717
O O8 0.075559 0.664789 0.992205
O O9 0.397208 0.551261 0.787936
O O10 0.838209 0.367931 0.517381
O O11 0.151593 0.095389 0.933566
O O12 0.000000 0.000000 0.000000
O O13 0.713384 0.692250 0.352939
O O14 0.670079 0.975410 0.201790
O O15 0.435118 0.984587 0.127549
O O16 0.000000 0.500000 0.500000
#
# Coordination Sequence:
#
# PCOD9112110 Si02
#       8
#     2   2   1   2   2   2   2   2
#     4  11  24  41  63  96 128 163 214 265 317 372
#     4  10  22  40  66  91 120 165 209 261 316 377
#     4  10  20  44  70  90 120 164 216 254 312 386
#     4  10  23  41  65  92 125 168 207 259 319 378
#     4  12  26  41  61  94 133 169 212 267 320 378
#     4  10  22  41  67  93 121 161 213 270 314 378
#     4  10  21  38  59  88 124 161 201 250 317 378
#     4  10  23  43  66  93 124 168 217 260 324 384
#
# _framework density 23.067481999999998
#
# number of rings (size 3 to 8) (size 9 to 14) (size 15 to 20)
#    0.000    1.600    0.000    3.600    0.000   14.933 
#    0.000    4.000    0.000    0.000    0.000    0.000 
#    0.000    0.000    0.000    0.000    0.000    0.000 
#
# Total GULP energy -83510.083102 kJ/mol
# GULP energy per Si atom -5567.338873 kJ/mol
# Density = 2.301498 g / cm^3
# Si number density = 23.067482 Si / 1000 Ang^3
#
#
#
# Elastic Constant Matrix: (Units=GPa)
#
#
# Indices 1 2 3 4 5 6 
#
# 1 209.4495 -3.0088 26.6857 2.9817 -10.1870 -7.5968
# 2 -3.0088 44.3486 -4.5454 -5.4972 -9.6238 -4.0146
# 3 26.6857 -4.5454 61.5466 3.6340 -6.7264 -1.6287
# 4 2.9817 -5.4972 3.6340 19.7930 1.1360 -0.0121
# 5 -10.1870 -9.6238 -6.7264 1.1360 22.8169 2.4372
# 6 -7.5968 -4.0146 -1.6287 -0.0121 2.4372 15.3142
#
#
#
# Elastic Compliance Matrix: (Units=1/GPa)
#
#
# Indices 1 2 3 4 5 6 
#
# 1 0.005206 0.000718 -0.001924 -0.000335 0.001834 0.002274
# 2 0.000718 0.026641 0.002696 0.006144 0.011425 0.005813
# 3 -0.001924 0.002696 0.018073 -0.002604 0.005653 0.000773
# 4 -0.000335 0.006144 -0.002604 0.052822 -0.001104 0.001385
# 5 0.001834 0.011425 0.005653 -0.001104 0.051582 -0.003704
# 6 0.002274 0.005813 0.000773 0.001385 -0.003704 0.068624
#
#
# Mechanical properties :
#
#
# Convention : Reuss Voigt Hill
#
# Bulk Modulus (GPa) = 18.90339 39.28977 29.09658
# Shear Modulus (GPa) = 21.04365 31.33235 26.18800
#
# Velocity S-wave (km/s) = 3.02365 3.68950 3.37304
# Velocity P-wave (km/s) = 4.51692 5.93459 5.27361
#
# Compressibility (1/GPa) = 0.05290057
#
# Stress axis : x y z
#
# Youngs Moduli (GPa) = 192.07407 37.53645 55.33079
#
# Poissons Ratio (x) = -0.02696 0.10645
# Poissons Ratio (y) = -0.13797 -0.14916
# Poissons Ratio (z) = 0.36953 -0.10119
#
# Static dielectric constant tensor:
#      x y z
#    x 1.927870 0.111900 -0.020140 
#    y 0.111900 1.935410 0.111690 
#    z -0.020140 0.111690 1.873440 
# 
# From -- ./inp_files/244703.got.cif
#   From: 2010.05.17/outbox.cif.g08.bks.cpg/sg2_123_cif.got.tgz:244703.got - 2010.06.03 11:33:40.
