data_PCOD9112893
_publ_section_title
;
Structure prediction by ZEFSAII (Michael W. Deem and Ramdas Pophale) SiO2 
 PCOD9112893
Probable space group: P 2
;
_chemical_formula_sum "Si O2"
_cell_formula_units_Z 16
_cell_length_a 7.349191
_cell_length_b 19.279263
_cell_length_c 9.299475
_cell_angle_alpha 90.000000
_cell_angle_beta 33.355001
_cell_angle_gamma 90.000000
_cell_volume 724.457304
_symmetry_space_group_name_H-M "P 2"
_symmetry_group_IT_number 3
_symmetry_cell_setting 'monoclinic'
loop_
_space_group_symop_operation_xyz
x,y,z
-x,y,-z
loop_
_atom_site_type_symbol
_atom_site_label
_atom_site_fract_x
_atom_site_fract_y
_atom_site_fract_z
Si Si1 0.111573 0.006550 0.760833
Si Si2 0.249207 0.392456 0.973446
Si Si3 0.686944 0.234843 0.101062
Si Si4 0.762015 0.719566 0.015540
Si Si5 0.257868 0.478688 0.519177
Si Si6 0.251431 0.638368 0.525189
Si Si7 0.069008 0.149776 0.619375
Si Si8 0.095503 0.857870 0.770550
O O1 0.500000 0.994468 0.500000
O O2 0.067026 0.077047 0.703746
O O3 0.991904 0.932746 0.774497
O O4 0.000000 0.016960 0.000000
O O5 0.045264 0.429948 0.233341
O O6 0.378018 0.313995 0.902116
O O7 0.548543 0.441264 0.734170
O O8 0.000000 0.390774 0.000000
O O9 0.400869 0.196179 0.380727
O O10 0.000000 0.235124 0.000000
O O11 0.804846 0.194459 0.881715
O O12 0.901775 0.663992 0.813182
O O13 0.860921 0.793799 0.880767
O O14 0.412556 0.692658 0.306273
O O15 0.000000 0.718543 0.000000
O O16 0.500000 0.480139 0.500000
O O17 0.211415 0.558676 0.508524
O O18 0.500000 0.639385 0.500000
O O19 0.000000 0.133459 0.500000
O O20 0.500000 0.843015 0.500000
O O21 0.000000 0.867692 0.000000
#
# Coordination Sequence:
#
# PCOD9112893 Si02
#       8
#     2   2   2   2   2   2   2   2
#     4  10  20  35  55  76 100 137 182 222 263 320
#     4   9  17  28  44  64  88 121 168 215 248 292
#     4  11  22  38  59  80 104 142 186 224 266 328
#     4   9  14  21  31  50  79 116 159 198 238 291
#     4   9  15  24  36  57  87 121 162 205 247 296
#     4   9  15  20  31  50  81 122 157 190 239 299
#     4  12  24  38  56  82 112 139 172 227 286 331
#     4   9  16  26  41  61  86 120 168 217 251 293
#
# _framework density 22.085498000000001
#
# number of rings (size 3 to 8) (size 9 to 14) (size 15 to 20)
#    0.000    2.250    0.000    6.000    0.000    5.000 
#    0.000    0.000    0.000    0.000    0.000    0.000 
#    0.000    0.000    0.000   16.875    0.000   79.250 
#
# Total GULP energy -89200.497300 kJ/mol
# GULP energy per Si atom -5575.031081 kJ/mol
# Density = 2.203523 g / cm^3
# Si number density = 22.085498 Si / 1000 Ang^3
#
#
#
# Elastic Constant Matrix: (Units=GPa)
#
#
# Indices 1 2 3 4 5 6 
#
# 1 42.4019 16.1315 13.1691 0.0000 10.8731 0.0000
# 2 16.1315 217.0580 51.8698 0.0000 -1.1489 0.0000
# 3 13.1691 51.8698 133.8547 0.0000 -5.3377 0.0000
# 4 0.0000 0.0000 0.0000 40.1274 0.0000 -5.0746
# 5 10.8731 -1.1489 -5.3377 0.0000 13.4935 0.0000
# 6 0.0000 0.0000 0.0000 -5.0746 0.0000 -61.8149
#
#
#
# Elastic Compliance Matrix: (Units=1/GPa)
#
#
# Indices 1 2 3 4 5 6 
#
# 1 0.032477 -0.001689 -0.003648 0.000000 -0.027756 0.000000
# 2 -0.001689 0.005167 -0.001792 0.000000 0.001092 0.000000
# 3 -0.003648 -0.001792 0.008774 0.000000 0.006257 0.000000
# 4 0.000000 0.000000 0.000000 0.024665 0.000000 -0.002025
# 5 -0.027756 0.001092 0.006257 0.000000 0.099044 0.000000
# 6 0.000000 0.000000 0.000000 -0.002025 0.000000 -0.016011
#
#
# Mechanical properties :
#
#
# Convention : Reuss Voigt Hill
#
# Bulk Modulus (GPa) = 31.09506 61.73949 46.41727
# Shear Modulus (GPa) = 27.91855 19.17080 23.54468
#
# Velocity S-wave (km/s) = 3.55929 2.94943 3.26861
# Velocity P-wave (km/s) = 5.56789 6.29399 5.94204
#
# Compressibility (1/GPa) = 0.03215945
#
# Stress axis : x y z
#
# Youngs Moduli (GPa) = 30.79119 193.54728 113.97632
#
# Poissons Ratio (x) = 0.32688 0.41574
# Poissons Ratio (y) = 0.05200 0.20430
# Poissons Ratio (z) = 0.11231 0.34692
#
# Static dielectric constant tensor:
#      x y z
#    x 1.956160 0.000000 -0.067090 
#    y 0.000000 1.958590 0.000000 
#    z -0.067090 0.000000 1.801410 
# 
# From -- ./inp_files/6321.got.cif
#   From: 2010.05.17/outbox.cif.g08.bks.cpg/sg3_4_cif.got.tgz:6321.got - 2010.06.03 18:33:08.
