data_PCOD9112288
_publ_section_title
;
Structure prediction by ZEFSAII (Michael W. Deem and Ramdas Pophale) SiO2 
 PCOD9112288
Probable space group: P -1
;
_chemical_formula_sum "Si O2"
_cell_formula_units_Z 16
_cell_length_a 9.354885
_cell_length_b 15.896264
_cell_length_c 7.645567
_cell_angle_alpha 100.582656
_cell_angle_beta 97.111802
_cell_angle_gamma 138.903658
_cell_volume 671.431538
_symmetry_space_group_name_H-M "P -1"
_symmetry_group_IT_number 2
_symmetry_cell_setting 'triclinic'
loop_
_space_group_symop_operation_xyz
x,y,z
-x,-y,-z
loop_
_atom_site_type_symbol
_atom_site_label
_atom_site_fract_x
_atom_site_fract_y
_atom_site_fract_z
Si Si1 0.868825 0.448085 0.645390
Si Si2 0.236727 0.524934 0.898964
Si Si3 0.434021 0.865564 0.496122
Si Si4 0.065876 0.931250 0.515893
Si Si5 0.791767 0.139153 0.231908
Si Si6 0.709853 0.535311 0.501457
Si Si7 0.316714 0.331541 0.873630
Si Si8 0.107839 0.776747 0.103341
O O1 0.697856 0.287663 0.584662
O O2 0.713455 0.458833 0.609289
O O3 0.000000 0.500000 0.500000
O O4 0.090741 0.541699 0.845121
O O5 0.277340 0.495835 0.706092
O O6 0.070195 0.387101 0.943317
O O7 0.501238 0.659695 0.063453
O O8 0.374143 0.883318 0.675022
O O9 0.294254 0.852396 0.319064
O O10 0.708078 0.978371 0.540803
O O11 0.836622 0.764670 0.359457
O O12 0.167501 0.938660 0.717656
O O13 0.000000 0.000000 0.500000
O O14 0.046916 0.302369 0.365403
O O15 0.247387 0.855659 0.974530
O O16 0.500000 0.500000 0.500000
O O17 0.092795 0.242883 0.932757
O O18 0.500000 0.500000 0.000000
#
# Coordination Sequence:
#
# PCOD9112288 Si02
#       8
#     2   2   2   2   2   2   2   2
#     4   9  18  40  69 102 148 191 244 303 384 434
#     4   9  18  40  67 103 153 183 241 329 367 429
#     4  11  23  50  72 103 158 196 248 326 377 462
#     4  12  29  50  74 109 154 205 250 316 402 451
#     4  12  23  44  77 105 141 211 256 299 389 464
#     4  11  21  37  73 113 146 195 257 310 374 451
#     4  10  20  45  77 106 149 193 254 319 371 446
#     4  10  21  41  76 113 137 188 265 308 375 453
#
# _framework density 23.829681999999998
#
# number of rings (size 3 to 8) (size 9 to 14) (size 15 to 20)
#    0.000    1.500    5.000    1.875    1.750    1.500 
#    2.250    1.875    0.000    0.000    0.000    0.000 
#    0.000    0.000    0.000    0.000    0.000    0.000 
#
# Total GULP energy -89230.384417 kJ/mol
# GULP energy per Si atom -5576.899026 kJ/mol
# Density = 2.377544 g / cm^3
# Si number density = 23.829682 Si / 1000 Ang^3
#
#
#
# Elastic Constant Matrix: (Units=GPa)
#
#
# Indices 1 2 3 4 5 6 
#
# 1 190.3249 77.2381 67.8234 -16.5503 29.5887 -0.6736
# 2 77.2381 116.0560 35.7246 -17.7859 11.3484 7.4608
# 3 67.8234 35.7246 134.8382 -18.7679 19.6221 17.9736
# 4 -16.5503 -17.7859 -18.7679 51.5779 8.0931 8.8350
# 5 29.5887 11.3484 19.6221 8.0931 39.4895 -7.9134
# 6 -0.6736 7.4608 17.9736 8.8350 -7.9134 45.1591
#
#
#
# Elastic Compliance Matrix: (Units=1/GPa)
#
#
# Indices 1 2 3 4 5 6 
#
# 1 0.008719 -0.004585 -0.002691 0.000628 -0.003771 0.001175
# 2 -0.004585 0.012559 0.000175 0.003741 -0.001677 -0.003239
# 3 -0.002691 0.000175 0.011240 0.005377 -0.006055 -0.006656
# 4 0.000628 0.003741 0.005377 0.026361 -0.011612 -0.009941
# 5 -0.003771 -0.001677 -0.006055 -0.011612 0.036276 0.011259
# 6 0.001175 -0.003239 -0.006656 -0.009941 0.011259 0.029263
#
#
# Mechanical properties :
#
#
# Convention : Reuss Voigt Hill
#
# Bulk Modulus (GPa) = 54.59458 89.19905 71.89681
# Shear Modulus (GPa) = 34.54789 44.60748 39.57768
#
# Velocity S-wave (km/s) = 3.81173 4.33127 4.07978
# Velocity P-wave (km/s) = 6.50634 7.90736 7.24082
#
# Compressibility (1/GPa) = 0.01831684
#
# Stress axis : x y z
#
# Youngs Moduli (GPa) = 114.69379 79.62133 88.96495
#
# Poissons Ratio (x) = 0.36504 0.23943
# Poissons Ratio (y) = 0.52584 -0.01558
# Poissons Ratio (z) = 0.30867 -0.01394
#
# Static dielectric constant tensor:
#      x y z
#    x 1.936210 0.008930 -0.020170 
#    y 0.008930 1.889650 -0.037240 
#    z -0.020170 -0.037240 2.013850 
# 
# From -- ./inp_files/397488.got.cif
#   From: 2010.05.17/outbox.cif.g08.bks.cpg/sg2_199_cif.got.tgz:397488.got - 2010.06.03 11:33:40.
