data_PCOD9112308
_publ_section_title
;
Structure prediction by ZEFSAII (Michael W. Deem and Ramdas Pophale) SiO2 
 PCOD9112308
Probable space group: P -1
;
_chemical_formula_sum "Si O2"
_cell_formula_units_Z 14
_cell_length_a 10.803447
_cell_length_b 16.390517
_cell_length_c 14.416606
_cell_angle_alpha 27.291883
_cell_angle_beta 128.873972
_cell_angle_gamma 143.604326
_cell_volume 657.444249
_symmetry_space_group_name_H-M "P -1"
_symmetry_group_IT_number 2
_symmetry_cell_setting 'triclinic'
loop_
_space_group_symop_operation_xyz
x,y,z
-x,-y,-z
loop_
_atom_site_type_symbol
_atom_site_label
_atom_site_fract_x
_atom_site_fract_y
_atom_site_fract_z
Si Si1 0.391168 0.480273 0.563580
Si Si2 0.171927 0.559915 0.594997
Si Si3 0.951377 0.075052 0.062624
Si Si4 0.973004 0.366358 0.029976
Si Si5 0.271814 0.321111 0.130430
Si Si6 0.844091 0.364537 0.778856
Si Si7 0.363675 0.177600 0.503233
O O1 0.500000 0.500000 0.500000
O O2 0.307516 0.613635 0.366151
O O3 0.551917 0.615407 0.590066
O O4 0.186162 0.190036 0.776732
O O5 0.422167 0.776687 0.466168
O O6 0.000000 0.500000 0.500000
O O7 0.090072 0.579014 0.634226
O O8 0.123103 0.311044 0.838241
O O9 0.083782 0.120205 0.171003
O O10 0.795606 0.121339 0.973778
O O11 0.192811 0.451235 0.002052
O O12 0.823871 0.083356 0.274119
O O13 0.000000 0.500000 0.000000
O O14 0.854664 0.383959 0.874234
O O15 0.290074 0.208539 0.341420
O O16 0.500000 0.500000 0.000000
#
# Coordination Sequence:
#
# PCOD9112308 Si02
#       7
#     2   2   2   2   2   2   2
#     4  12  25  39  69 105 131 181 227 279 347 403
#     4  10  20  46  66  96 136 181 214 284 340 396
#     4   9  22  43  67  93 138 174 226 274 343 398
#     4  11  26  44  67 100 136 180 225 286 346 405
#     4  11  22  48  69  97 137 181 226 285 337 411
#     4   9  22  45  63  91 143 170 218 283 332 396
#     4  12  24  43  70  99 136 173 232 283 341 404
#
# _framework density 21.294581999999998
#
# number of rings (size 3 to 8) (size 9 to 14) (size 15 to 20)
#    0.857    0.571    2.857    2.143    4.000    4.000 
#    2.571    1.429    0.000    0.000    0.000    0.000 
#    0.000    0.000    0.000    0.000    0.000    0.000 
#
# Total GULP energy -78129.083483 kJ/mol
# GULP energy per Si atom -5580.648820 kJ/mol
# Density = 2.124611 g / cm^3
# Si number density = 21.294582 Si / 1000 Ang^3
#
#
#
# Elastic Constant Matrix: (Units=GPa)
#
#
# Indices 1 2 3 4 5 6 
#
# 1 79.9453 35.2532 27.5671 -3.3877 -17.5599 -8.2606
# 2 35.2532 96.9670 50.1047 14.9766 12.7241 -17.6655
# 3 27.5671 50.1047 68.6559 10.3114 -10.0865 -6.2297
# 4 -3.3877 14.9766 10.3114 38.9997 -2.0357 0.6092
# 5 -17.5599 12.7241 -10.0865 -2.0357 30.0093 2.2716
# 6 -8.2606 -17.6655 -6.2297 0.6092 2.2716 40.9269
#
#
#
# Elastic Compliance Matrix: (Units=1/GPa)
#
#
# Indices 1 2 3 4 5 6 
#
# 1 0.022213 -0.013819 0.002828 0.007594 0.020497 -0.002301
# 2 -0.013819 0.033931 -0.021273 -0.010395 -0.031123 0.010501
# 3 0.002828 -0.021273 0.031494 0.001301 0.021730 -0.005043
# 4 0.007594 -0.010395 0.001301 0.030618 0.011658 -0.003859
# 5 0.020497 -0.031123 0.021730 0.011658 0.067357 -0.009901
# 6 -0.002301 0.010501 -0.005043 -0.003859 -0.009901 0.028341
#
#
# Mechanical properties :
#
#
# Convention : Reuss Voigt Hill
#
# Bulk Modulus (GPa) = 43.26948 52.37982 47.82465
# Shear Modulus (GPa) = 17.47112 30.83006 24.15059
#
# Velocity S-wave (km/s) = 2.86746 3.80911 3.37132
# Velocity P-wave (km/s) = 5.59702 6.63301 6.13692
#
# Compressibility (1/GPa) = 0.02311098
#
# Stress axis : x y z
#
# Youngs Moduli (GPa) = 45.01791 29.47131 31.75181
#
# Poissons Ratio (x) = 0.40726 -0.08978
# Poissons Ratio (y) = 0.62210 0.67545
# Poissons Ratio (z) = -0.12729 0.62693
#
# Static dielectric constant tensor:
#      x y z
#    x 1.826710 0.024900 -0.025130 
#    y 0.024900 1.770790 0.011360 
#    z -0.025130 0.011360 1.791300 
# 
# From -- ./inp_files/523206.got.cif
#   From: 2010.05.17/outbox.cif.g08.bks.cpg/sg2_262_cif.got.tgz:523206.got - 2010.06.03 11:33:40.
