data_PCOD9112757
_publ_section_title
;
Structure prediction by ZEFSAII (Michael W. Deem and Ramdas Pophale) SiO2 
 PCOD9112757
Probable space group: P 2
;
_chemical_formula_sum "Si O2"
_cell_formula_units_Z 12
_cell_length_a 17.581430
_cell_length_b 7.001285
_cell_length_c 9.246239
_cell_angle_alpha 90.000000
_cell_angle_beta 150.879587
_cell_angle_gamma 90.000000
_cell_volume 553.873781
_symmetry_space_group_name_H-M "P 2"
_symmetry_group_IT_number 3
_symmetry_cell_setting 'monoclinic'
loop_
_space_group_symop_operation_xyz
x,y,z
-x,y,-z
loop_
_atom_site_type_symbol
_atom_site_label
_atom_site_fract_x
_atom_site_fract_y
_atom_site_fract_z
Si Si1 0.163297 0.115120 0.324206
Si Si2 0.592172 0.450437 0.296135
Si Si3 0.883071 0.096012 0.435507
Si Si4 0.379998 0.253769 0.178802
Si Si5 0.844425 0.737688 0.834351
Si Si6 0.924974 0.483531 0.232227
O O1 0.299235 0.268006 0.560436
O O2 0.135650 0.012577 0.434300
O O3 0.198624 0.959153 0.258874
O O4 0.000000 0.207223 0.000000
O O5 0.475875 0.388437 0.229986
O O6 0.704414 0.615163 0.537585
O O7 0.500000 0.507038 0.000000
O O8 0.000000 0.032293 0.500000
O O9 0.950643 0.310191 0.589516
O O10 0.714290 0.105727 0.078614
O O11 0.500000 0.180851 0.500000
O O12 0.238853 0.373672 0.016499
O O13 0.889809 0.649359 0.062488
O O14 0.000000 0.710349 0.000000
O O15 0.000000 0.571883 0.500000
#
# Coordination Sequence:
#
# PCOD9112757 Si02
#       6
#     2   2   2   2   2   2
#     4  11  24  41  63  94 130 170 216 260 313 383
#     4  12  23  39  70  93 133 170 206 267 326 378
#     4   9  19  37  65  96 125 168 213 259 319 382
#     4  10  19  35  65  99 119 167 216 254 324 384
#     4  11  24  41  64  93 128 170 218 262 311 383
#     4   9  19  37  67  93 125 167 217 258 317 382
#
# _framework density 21.665588
#
# number of rings (size 3 to 8) (size 9 to 14) (size 15 to 20)
#    0.000    2.000    3.333    2.500    4.667    0.667 
#    0.000    3.333    3.667    0.000    0.000    0.000 
#    0.000    0.000    0.000    0.000    0.000    0.000 
#
# Total GULP energy -66976.316647 kJ/mol
# GULP energy per Si atom -5581.359721 kJ/mol
# Density = 2.161628 g / cm^3
# Si number density = 21.665588 Si / 1000 Ang^3
#
#
#
# Elastic Constant Matrix: (Units=GPa)
#
#
# Indices 1 2 3 4 5 6 
#
# 1 31.5822 2.5599 27.1581 0.0000 -11.6952 0.0000
# 2 2.5599 45.7194 18.8675 0.0000 -6.4443 0.0000
# 3 27.1581 18.8675 183.8152 0.0000 -21.9298 0.0000
# 4 0.0000 0.0000 0.0000 21.2928 0.0000 -16.0880
# 5 -11.6952 -6.4443 -21.9298 0.0000 47.8135 0.0000
# 6 0.0000 0.0000 0.0000 -16.0880 0.0000 24.4404
#
#
#
# Elastic Compliance Matrix: (Units=1/GPa)
#
#
# Indices 1 2 3 4 5 6 
#
# 1 0.038514 0.000898 -0.004913 0.000000 0.007288 0.000000
# 2 0.000898 0.023066 -0.002225 0.000000 0.002308 0.000000
# 3 -0.004913 -0.002225 0.006575 0.000000 0.001514 0.000000
# 4 0.000000 0.000000 0.000000 0.093433 0.000000 0.061502
# 5 0.007288 0.002308 0.001514 0.000000 0.023703 0.000000
# 6 0.000000 0.000000 0.000000 0.061502 0.000000 0.081400
#
#
# Mechanical properties :
#
#
# Convention : Reuss Voigt Hill
#
# Bulk Modulus (GPa) = 17.96107 39.80976 28.88541
# Shear Modulus (GPa) = 16.79383 32.87810 24.83597
#
# Velocity S-wave (km/s) = 2.78715 3.89977 3.38943
# Velocity P-wave (km/s) = 4.32039 6.22030 5.35527
#
# Compressibility (1/GPa) = 0.05567598
#
# Stress axis : x y z
#
# Youngs Moduli (GPa) = 25.96440 43.35425 152.08781
#
# Poissons Ratio (x) = -0.03895 0.74722
# Poissons Ratio (y) = -0.02333 0.33839
# Poissons Ratio (z) = 0.12756 0.09646
#
# Static dielectric constant tensor:
#      x y z
#    x 1.845240 0.000000 -0.028560 
#    y 0.000000 1.818740 0.000000 
#    z -0.028560 0.000000 1.769570 
# 
# From -- ./inp_files/9099.got.cif
#   From: 2010.05.17/outbox.cif.g08.bks.cpg/sg3_5_cif.got.tgz:9099.got - 2010.06.03 18:33:08.
