data_PCOD9112099
_publ_section_title
;
Structure prediction by ZEFSAII (Michael W. Deem and Ramdas Pophale) SiO2 
 PCOD9112099
Probable space group: P -1
;
_chemical_formula_sum "Si O2"
_cell_formula_units_Z 15
_cell_length_a 14.923834
_cell_length_b 5.320876
_cell_length_c 13.885334
_cell_angle_alpha 55.734484
_cell_angle_beta 142.128077
_cell_angle_gamma 112.165357
_cell_volume 554.481273
_symmetry_space_group_name_H-M "P -1"
_symmetry_group_IT_number 2
_symmetry_cell_setting 'triclinic'
loop_
_space_group_symop_operation_xyz
x,y,z
-x,-y,-z
loop_
_atom_site_type_symbol
_atom_site_label
_atom_site_fract_x
_atom_site_fract_y
_atom_site_fract_z
Si Si1 0.563604 0.809585 0.812862
Si Si2 0.386968 0.302791 0.835929
Si Si3 0.865340 0.345338 0.375969
Si Si4 0.307876 0.200000 0.585977
Si Si5 0.031973 0.922990 0.885017
Si Si6 0.500000 0.000000 0.500000
Si Si7 0.762825 0.567807 0.730821
Si Si8 0.885325 0.441232 0.162325
O O1 0.489451 0.561823 0.862500
O O2 0.498490 0.879465 0.636471
O O3 0.485152 0.103939 0.741999
O O4 0.728961 0.652738 0.973474
O O5 0.267113 0.368295 0.802544
O O6 0.294723 0.334245 0.651876
O O7 0.500000 0.000000 0.000000
O O8 0.891788 0.249388 0.307938
O O9 0.000000 0.500000 0.500000
O O10 0.793707 0.081328 0.431636
O O11 0.260857 0.406203 0.409293
O O12 0.077621 0.774509 0.851469
O O13 0.880895 0.795080 0.810706
O O14 0.013560 0.288076 0.795661
O O15 0.159797 0.765087 0.099277
O O16 0.613901 0.690675 0.631694
#
# Coordination Sequence:
#
# PCOD9112099 Si02
#       8
#     2   2   2   2   2   1   2   2
#     4  10  23  41  66 100 136 180 235 288 352 415
#     4  11  24  42  67  97 137 181 235 294 348 416
#     4  11  26  43  68 101 139 186 235 290 355 422
#     4  10  23  43  67 100 140 186 232 298 354 415
#     4  11  27  47  74 108 143 190 232 299 353 424
#     4  10  20  44  70 102 140 182 238 286 352 422
#     4  10  23  46  72 105 144 187 238 293 359 424
#     4  12  26  46  76 104 146 187 242 288 358 426
#
# _framework density 27.052311
#
# number of rings (size 3 to 8) (size 9 to 14) (size 15 to 20)
#    0.000    1.333    1.333    2.400    7.467    5.867 
#    2.400    2.667    0.000    0.000    0.000    0.000 
#    0.000    0.000    0.000    0.000    0.000    0.000 
#
# Total GULP energy -83781.019068 kJ/mol
# GULP energy per Si atom -5585.401271 kJ/mol
# Density = 2.699074 g / cm^3
# Si number density = 27.052311 Si / 1000 Ang^3
#
#
#
# Elastic Constant Matrix: (Units=GPa)
#
#
# Indices 1 2 3 4 5 6 
#
# 1 124.9223 42.2983 26.7890 -6.9209 -12.2577 -17.8981
# 2 42.2983 65.1739 23.0010 8.3193 -0.3310 -6.8020
# 3 26.7890 23.0010 113.6925 -6.0121 -11.8101 -4.0085
# 4 -6.9209 8.3193 -6.0121 23.3471 6.6607 -4.6895
# 5 -12.2577 -0.3310 -11.8101 6.6607 60.8301 7.0742
# 6 -17.8981 -6.8020 -4.0085 -4.6895 7.0742 35.4187
#
#
#
# Elastic Compliance Matrix: (Units=1/GPa)
#
#
# Indices 1 2 3 4 5 6 
#
# 1 0.012060 -0.007973 -0.000577 0.007069 0.000889 0.005256
# 2 -0.007973 0.023093 -0.003530 -0.011567 -0.000740 -0.001377
# 3 -0.000577 -0.003530 0.009978 0.003321 0.001401 0.000319
# 4 0.007069 -0.011567 0.003321 0.053284 -0.004965 0.009773
# 5 0.000889 -0.000740 0.001401 -0.004965 0.017867 -0.003760
# 6 0.005256 -0.001377 0.000319 0.009773 -0.003760 0.032706
#
#
# Mechanical properties :
#
#
# Convention : Reuss Voigt Hill
#
# Bulk Modulus (GPa) = 47.68544 54.21836 50.95190
# Shear Modulus (GPa) = 27.75620 38.03255 32.89438
#
# Velocity S-wave (km/s) = 3.20663 3.75359 3.49084
# Velocity P-wave (km/s) = 5.60137 6.23470 5.92650
#
# Compressibility (1/GPa) = 0.02097076
#
# Stress axis : x y z
#
# Youngs Moduli (GPa) = 82.91625 43.30338 100.21767
#
# Poissons Ratio (x) = 0.34525 0.05785
# Poissons Ratio (y) = 0.66108 0.35380
# Poissons Ratio (z) = 0.04786 0.15287
#
# Static dielectric constant tensor:
#      x y z
#    x 2.128710 -0.026160 0.161120 
#    y -0.026160 2.165370 -0.033110 
#    z 0.161120 -0.033110 2.286100 
# 
# From -- ./inp_files/525569.got.cif
#   From: 2010.05.17/outbox.cif.g08.bks.cpg/sg2_263_cif.got.tgz:525569.got - 2010.06.03 11:33:40.
