data_PCOD9112406
_publ_section_title
;
Structure prediction by ZEFSAII (Michael W. Deem and Ramdas Pophale) SiO2 
 PCOD9112406
Probable space group: P -1
;
_chemical_formula_sum "Si O2"
_cell_formula_units_Z 16
_cell_length_a 12.316163
_cell_length_b 18.555584
_cell_length_c 5.187042
_cell_angle_alpha 110.719318
_cell_angle_beta 78.980823
_cell_angle_gamma 62.754350
_cell_volume 892.448664
_symmetry_space_group_name_H-M "P -1"
_symmetry_group_IT_number 2
_symmetry_cell_setting 'triclinic'
loop_
_space_group_symop_operation_xyz
x,y,z
-x,-y,-z
loop_
_atom_site_type_symbol
_atom_site_label
_atom_site_fract_x
_atom_site_fract_y
_atom_site_fract_z
Si Si1 0.255118 0.239598 0.330928
Si Si2 0.529187 0.114709 0.727329
Si Si3 0.003375 0.404352 0.367374
Si Si4 0.378902 0.070431 0.333273
Si Si5 0.344191 0.348272 0.692497
Si Si6 0.580374 0.435534 0.132715
Si Si7 0.484689 0.713942 0.967921
Si Si8 0.839426 0.432227 0.983017
O O1 0.248914 0.158443 0.365581
O O2 0.260786 0.304720 0.620746
O O3 0.145831 0.310219 0.264813
O O4 0.404585 0.175796 0.059212
O O5 0.446588 0.111302 0.522951
O O6 0.588644 0.177227 0.775138
O O7 0.635292 0.004565 0.604297
O O8 0.952024 0.393644 0.103473
O O9 0.000000 0.500000 0.500000
O O10 0.903627 0.413955 0.649068
O O11 0.500000 0.000000 0.000000
O O12 0.389516 0.336032 0.951495
O O13 0.252094 0.455998 0.796823
O O14 0.467461 0.301420 0.371336
O O15 0.500000 0.500000 0.500000
O O16 0.732940 0.405830 0.022975
O O17 0.500000 0.500000 0.000000
O O18 0.581073 0.342601 0.025116
#
# Coordination Sequence:
#
# PCOD9112406 Si02
#       8
#     2   2   2   2   2   2   2   2
#     4  10  21  32  52  75 111 151 179 215 276 328
#     4   9  19  31  55  79 112 135 179 228 278 339
#     4  12  26  36  54  77 113 157 193 222 264 327
#     4   9  17  33  51  80 110 136 173 229 281 333
#     4  11  20  32  55  76 110 142 189 222 261 326
#     4  12  22  37  58  79 108 149 191 235 285 316
#     4  11  20  34  54  84 105 147 179 225 285 330
#     4  12  24  38  51  79 114 146 198 234 258 321
#
# _framework density 17.928204999999998
#
# number of rings (size 3 to 8) (size 9 to 14) (size 15 to 20)
#    0.000    1.250    5.000    1.875    3.500    0.000 
#    0.000    0.000    0.000    0.000    0.000    1.750 
#    0.000    0.000    0.000    0.000    0.000    0.000 
#
# Total GULP energy -89147.649054 kJ/mol
# GULP energy per Si atom -5571.728066 kJ/mol
# Density = 1.788740 g / cm^3
# Si number density = 17.928205 Si / 1000 Ang^3
#
#
#
# Elastic Constant Matrix: (Units=GPa)
#
#
# Indices 1 2 3 4 5 6 
#
# 1 73.3967 35.4215 14.4800 1.3562 5.3679 14.7427
# 2 35.4215 118.8239 2.2522 6.7105 14.1797 10.0470
# 3 14.4800 2.2522 50.6520 -7.3128 8.9144 16.6273
# 4 1.3562 6.7105 -7.3128 26.6355 7.7104 6.5376
# 5 5.3679 14.1797 8.9144 7.7104 22.2542 0.6150
# 6 14.7427 10.0470 16.6273 6.5376 0.6150 30.4634
#
#
#
# Elastic Compliance Matrix: (Units=1/GPa)
#
#
# Indices 1 2 3 4 5 6 
#
# 1 0.017595 -0.004733 -0.002756 0.001023 -0.000322 -0.005662
# 2 -0.004733 0.010874 0.003555 0.001528 -0.007646 -0.003409
# 3 -0.002756 0.003555 0.034752 0.020782 -0.022090 -0.022820
# 4 0.001023 0.001528 0.020782 0.056988 -0.028626 -0.023994
# 5 -0.000322 -0.007646 -0.022090 -0.028626 0.068113 0.019503
# 6 -0.005662 -0.003409 -0.022820 -0.023994 0.019503 0.053902
#
#
# Mechanical properties :
#
#
# Convention : Reuss Voigt Hill
#
# Bulk Modulus (GPa) = 18.06653 38.57555 28.32104
# Shear Modulus (GPa) = 18.61901 28.58523 23.60212
#
# Velocity S-wave (km/s) = 3.22612 3.99736 3.63227
# Velocity P-wave (km/s) = 4.89655 6.54741 5.78121
#
# Compressibility (1/GPa) = 0.05535099
#
# Stress axis : x y z
#
# Youngs Moduli (GPa) = 56.83533 91.96380 28.77567
#
# Poissons Ratio (x) = 0.43529 0.07931
# Poissons Ratio (y) = 0.26902 -0.10230
# Poissons Ratio (z) = 0.15665 -0.32693
#
# Static dielectric constant tensor:
#      x y z
#    x 1.654220 0.053650 -0.005250 
#    y 0.053650 1.734940 -0.025630 
#    z -0.005250 -0.025630 1.673480 
# 
# From -- ./inp_files/80795.got.cif
#   From: 2010.05.17/outbox.cif.g08.bks.cpg/sg2_41_cif.got.tgz:80795.got - 2010.06.03 11:33:40.
