data_PCOD9112446
_publ_section_title
;
Structure prediction by ZEFSAII (Michael W. Deem and Ramdas Pophale) SiO2 
 PCOD9112446
Probable space group: P 2
;
_chemical_formula_sum "Si O2"
_cell_formula_units_Z 16
_cell_length_a 10.981292
_cell_length_b 7.483258
_cell_length_c 8.116716
_cell_angle_alpha 90.000000
_cell_angle_beta 78.227497
_cell_angle_gamma 90.000000
_cell_volume 652.967941
_symmetry_space_group_name_H-M "P 2"
_symmetry_group_IT_number 3
_symmetry_cell_setting 'monoclinic'
loop_
_space_group_symop_operation_xyz
x,y,z
-x,y,-z
loop_
_atom_site_type_symbol
_atom_site_label
_atom_site_fract_x
_atom_site_fract_y
_atom_site_fract_z
Si Si1 0.687574 0.111260 0.867092
Si Si2 0.817855 0.571597 0.459297
Si Si3 0.450860 0.010673 0.756630
Si Si4 0.069660 0.542632 0.225122
Si Si5 0.031255 0.113743 0.183326
Si Si6 0.740439 0.440519 0.044167
Si Si7 0.778552 0.191049 0.335823
Si Si8 0.581819 0.628157 0.344376
O O1 0.830337 0.043604 0.807141
O O2 0.694478 0.322620 0.905644
O O3 0.586210 0.092030 0.752724
O O4 0.626109 0.022527 0.048528
O O5 0.853128 0.600868 0.636539
O O6 0.784836 0.358507 0.457237
O O7 0.704264 0.675469 0.414292
O O8 0.933532 0.610298 0.306532
O O9 0.478018 0.808932 0.698902
O O10 0.354634 0.098700 0.653226
O O11 0.048719 0.327579 0.212946
O O12 0.154730 0.579184 0.043115
O O13 0.903193 0.071537 0.317728
O O14 0.000000 0.072261 0.000000
O O15 0.203198 0.296057 0.844762
O O16 0.373104 0.521535 0.825585
O O17 0.500000 0.524518 0.500000
#
# Coordination Sequence:
#
# PCOD9112446 Si02
#       8
#     2   2   2   2   2   2   2   2
#     4   9  19  37  63  95 120 153 219 277 313 363
#     4   9  20  38  61  93 134 159 212 264 324 378
#     4  10  20  40  57  83 131 173 210 256 316 380
#     4   9  17  35  66  99 126 155 202 285 323 369
#     4  10  14  30  62  97 127 145 200 275 325 366
#     4   9  18  39  68  99 120 158 221 268 313 383
#     4   9  17  34  63  92 121 165 208 264 316 379
#     4  11  25  45  56  84 134 184 213 251 322 388
#
# _framework density 24.503501
#
# number of rings (size 3 to 8) (size 9 to 14) (size 15 to 20)
#    0.000    2.500    3.750    0.000    0.000    0.000 
#   29.250    5.000    2.750    0.000    0.000    0.000 
#    0.000    0.000    0.000    0.000    0.000    0.000 
#
# Total GULP energy -89236.775138 kJ/mol
# GULP energy per Si atom -5577.298446 kJ/mol
# Density = 2.444773 g / cm^3
# Si number density = 24.503501 Si / 1000 Ang^3
#
#
#
# Elastic Constant Matrix: (Units=GPa)
#
#
# Indices 1 2 3 4 5 6 
#
# 1 163.1663 27.1774 30.9802 0.0000 0.8696 0.0000
# 2 27.1774 35.9643 13.1207 0.0000 -6.6936 0.0000
# 3 30.9802 13.1207 90.2046 0.0000 -14.8287 0.0000
# 4 0.0000 0.0000 0.0000 -16.6175 0.0000 202.8274
# 5 0.8696 -6.6936 -14.8287 0.0000 29.8073 0.0000
# 6 0.0000 0.0000 0.0000 202.8274 0.0000-1270.2172
#
#
#
# Elastic Compliance Matrix: (Units=1/GPa)
#
#
# Indices 1 2 3 4 5 6 
#
# 1 0.007439 -0.005285 -0.002197 0.000000 -0.002497 0.000000
# 2 -0.005285 0.033781 -0.001989 0.000000 0.006751 0.000000
# 3 -0.002197 -0.001989 0.013141 0.000000 0.006155 0.000000
# 4 0.000000 0.000000 0.000000 0.063412 0.000000 0.010126
# 5 -0.002497 0.006751 0.006155 0.000000 0.038200 0.000000
# 6 0.000000 0.000000 0.000000 0.010126 0.000000 0.000830
#
#
# Mechanical properties :
#
#
# Convention : Reuss Voigt Hill
#
# Bulk Modulus (GPa) = 28.23187 47.98798 38.10993
# Shear Modulus (GPa) = 26.65934 -236.86837 -105.10451
#
# Velocity S-wave (km/s) = 3.30203 -9.84261 -6.55643
# Velocity P-wave (km/s) = 5.10730 10.46626 6.45981
#
# Compressibility (1/GPa) = 0.03542096
#
# Stress axis : x y z
#
# Youngs Moduli (GPa) = 134.41945 29.60234 76.09489
#
# Poissons Ratio (x) = 0.15645 0.16716
# Poissons Ratio (y) = 0.71041 0.15134
# Poissons Ratio (z) = 0.29528 0.05887
#
# Static dielectric constant tensor:
#      x y z
#    x 2.038150 0.000000 -0.060120 
#    y 0.000000 1.952960 0.000000 
#    z -0.060120 0.000000 2.179350 
# 
# From -- ./inp_files/10550.got.cif
#   From: 2010.05.17/outbox.cif.g08.bks.cpg/sg3_6_cif.got.tgz:10550.got - 2010.06.03 18:33:08.
