data_PCOD9112000
_publ_section_title
;
Structure prediction by ZEFSAII (Michael W. Deem and Ramdas Pophale) SiO2 
 PCOD9112000
Probable space group: P -1
;
_chemical_formula_sum "Si O2"
_cell_formula_units_Z 16
_cell_length_a 15.157857
_cell_length_b 9.661050
_cell_length_c 8.606661
_cell_angle_alpha 120.148681
_cell_angle_beta 115.591843
_cell_angle_gamma 104.974394
_cell_volume 779.274054
_symmetry_space_group_name_H-M "P -1"
_symmetry_group_IT_number 2
_symmetry_cell_setting 'triclinic'
loop_
_space_group_symop_operation_xyz
x,y,z
-x,-y,-z
loop_
_atom_site_type_symbol
_atom_site_label
_atom_site_fract_x
_atom_site_fract_y
_atom_site_fract_z
Si Si1 0.870000 0.362622 0.505746
Si Si2 0.610437 0.983785 0.595735
Si Si3 0.141330 0.724980 0.919626
Si Si4 0.112917 0.059675 0.007408
Si Si5 0.547038 0.723281 0.707360
Si Si6 0.294201 0.487830 0.517476
Si Si7 0.211521 0.062756 0.776354
Si Si8 0.640316 0.689350 0.257871
O O1 0.859664 0.326378 0.290821
O O2 0.788905 0.438568 0.506645
O O3 0.008067 0.534892 0.766414
O O4 0.826146 0.152515 0.426627
O O5 0.577389 0.854322 0.653530
O O6 0.629198 0.859907 0.414173
O O7 0.500000 0.000000 0.500000
O O8 0.739203 0.204635 0.851926
O O9 0.146358 0.922018 0.028114
O O10 0.223040 0.295577 0.241086
O O11 0.106191 0.023213 0.794272
O O12 0.000000 0.000000 0.000000
O O13 0.500000 0.500000 0.500000
O O14 0.430164 0.678081 0.681198
O O15 0.666271 0.835440 0.968164
O O16 0.311162 0.394165 0.629843
O O17 0.261598 0.212152 0.753120
O O18 0.500000 0.500000 0.000000
#
# Coordination Sequence:
#
# PCOD9112000 Si02
#       8
#     2   2   2   2   2   2   2   2
#     4  10  23  39  71  96 126 178 228 273 325 401
#     4  12  26  42  69  98 137 178 216 281 343 398
#     4  10  20  44  66  94 132 172 228 271 330 400
#     4  11  20  41  72  93 124 177 231 267 326 407
#     4  12  20  42  66  95 128 177 229 270 327 405
#     4  12  23  38  71  97 127 178 229 273 334 395
#     4  11  23  42  65 100 138 173 222 283 335 396
#     4  12  25  42  62 101 143 171 219 285 342 385
#
# _framework density 20.531931
#
# number of rings (size 3 to 8) (size 9 to 14) (size 15 to 20)
#    0.000    0.750    8.750    0.000    3.500    0.500 
#    0.000    1.250    2.750    0.000    0.000    0.000 
#    0.000    0.000    0.000    0.000    0.000    0.000 
#
# Total GULP energy -89242.730664 kJ/mol
# GULP energy per Si atom -5577.670666 kJ/mol
# Density = 2.048520 g / cm^3
# Si number density = 20.531931 Si / 1000 Ang^3
#
#
#
# Elastic Constant Matrix: (Units=GPa)
#
#
# Indices 1 2 3 4 5 6 
#
# 1 109.8235 40.7127 49.3952 8.0244 16.1887 8.5028
# 2 40.7127 63.2521 20.0799 7.6854 -1.4393 12.5827
# 3 49.3952 20.0799 85.6753 15.8859 18.4035 -6.3468
# 4 8.0244 7.6854 15.8859 29.9967 3.4443 -1.3128
# 5 16.1887 -1.4393 18.4035 3.4443 28.8294 3.3824
# 6 8.5028 12.5827 -6.3468 -1.3128 3.3824 26.4190
#
#
#
# Elastic Compliance Matrix: (Units=1/GPa)
#
#
# Indices 1 2 3 4 5 6 
#
# 1 0.015842 -0.007973 -0.006695 0.001827 -0.004983 -0.002181
# 2 -0.007973 0.025100 -0.003507 -0.004081 0.009828 -0.011692
# 3 -0.006695 -0.003507 0.020385 -0.006562 -0.009777 0.009648
# 4 0.001827 -0.004081 -0.006562 0.037653 -0.001760 0.001876
# 5 -0.004983 0.009828 -0.009777 -0.001760 0.045761 -0.011372
# 6 -0.002181 -0.011692 0.009648 0.001876 -0.011372 0.047989
#
#
# Mechanical properties :
#
#
# Convention : Reuss Voigt Hill
#
# Bulk Modulus (GPa) = 40.03475 53.23628 46.63551
# Shear Modulus (GPa) = 21.06094 26.95323 24.00709
#
# Velocity S-wave (km/s) = 3.20623 3.62712 3.42315
# Velocity P-wave (km/s) = 5.76608 6.59743 6.19572
#
# Compressibility (1/GPa) = 0.02497830
#
# Stress axis : x y z
#
# Youngs Moduli (GPa) = 63.12208 39.84016 49.05516
#
# Poissons Ratio (x) = 0.31765 0.32843
# Poissons Ratio (y) = 0.50328 0.17201
# Poissons Ratio (z) = 0.42261 0.13970
#
# Static dielectric constant tensor:
#      x y z
#    x 1.843870 0.010690 -0.034360 
#    y 0.010690 1.698190 -0.004900 
#    z -0.034360 -0.004900 1.742190 
# 
# From -- ./inp_files/206838.got.cif
#   From: 2010.05.17/outbox.cif.g08.bks.cpg/sg2_104_cif.got.tgz:206838.got - 2010.06.03 11:33:40.
