data_PCOD9112517
_publ_section_title
;
Structure prediction by ZEFSAII (Michael W. Deem and Ramdas Pophale) SiO2 
 PCOD9112517
Probable space group: P 2
;
_chemical_formula_sum "Si O2"
_cell_formula_units_Z 16
_cell_length_a 9.219348
_cell_length_b 9.195806
_cell_length_c 21.292749
_cell_angle_alpha 90.000000
_cell_angle_beta 30.025009
_cell_angle_gamma 90.000000
_cell_volume 903.274851
_symmetry_space_group_name_H-M "P 2"
_symmetry_group_IT_number 3
_symmetry_cell_setting 'monoclinic'
loop_
_space_group_symop_operation_xyz
x,y,z
-x,y,-z
loop_
_atom_site_type_symbol
_atom_site_label
_atom_site_fract_x
_atom_site_fract_y
_atom_site_fract_z
Si Si1 0.171050 0.259420 0.000087
Si Si2 0.330159 0.580580 0.749070
Si Si3 0.327193 0.580634 0.250640
Si Si4 0.826543 0.762453 0.499864
Si Si5 0.672578 0.568537 0.999848
Si Si6 0.383877 0.233922 0.723143
Si Si7 0.672675 0.072096 0.499872
Si Si8 0.276671 0.233977 0.276672
O O1 0.271730 0.401139 0.000151
O O2 0.927826 0.181724 0.133103
O O3 0.459946 0.181735 0.867090
O O4 0.000000 0.306338 0.000000
O O5 0.449171 0.597004 0.775361
O O6 0.543968 0.669617 0.624274
O O7 0.355264 0.408210 0.724619
O O8 0.997184 0.629535 0.870999
O O9 0.254346 0.408284 0.275079
O O10 0.041813 0.669672 0.375394
O O11 0.482334 0.629605 0.128587
O O12 0.000000 0.789855 0.500000
O O13 0.741165 0.912123 0.499802
O O14 0.500000 0.577164 0.000000
O O15 0.487506 0.156062 0.622068
O O16 0.616261 0.210750 0.691914
O O17 0.500000 0.066933 0.500000
O O18 0.976039 0.156193 0.377680
#
# Coordination Sequence:
#
# PCOD9112517 Si02
#       8
#     2   2   2   2   2   2   2   2
#     4   8  16  32  55  80 103 130 172 222 260 296
#     4   9  18  35  59  82 102 131 176 223 260 300
#     4   9  18  35  59  82 102 131 176 223 260 300
#     4  10  21  38  58  76  98 136 183 224 260 300
#     4  10  18  28  49  82 115 140 162 200 260 320
#     4   9  17  34  59  82 103 131 172 218 260 305
#     4  12  25  36  48  74 112 146 173 208 260 318
#     4   9  17  34  59  82 103 131 172 218 260 305
#
# _framework density 17.713322999999999
#
# number of rings (size 3 to 8) (size 9 to 14) (size 15 to 20)
#    0.000    2.500    0.000    4.500    0.000    7.000 
#    0.000    2.500    0.000    3.000    0.000    0.000 
#    0.000    0.000    0.000    0.000    0.000    0.000 
#
# Total GULP energy -89228.463209 kJ/mol
# GULP energy per Si atom -5576.778951 kJ/mol
# Density = 1.767301 g / cm^3
# Si number density = 17.713323 Si / 1000 Ang^3
#
#
#
# Elastic Constant Matrix: (Units=GPa)
#
#
# Indices 1 2 3 4 5 6 
#
# 1 91.0788 52.3161 105.1086 0.0000 0.0214 0.0000
# 2 52.3161 52.4785 67.4816 0.0000 -0.0190 0.0000
# 3 105.1086 67.4816 199.5848 0.0000 0.2580 0.0000
# 4 0.0000 0.0000 0.0000 -8.4915 0.0000 -0.1582
# 5 0.0214 -0.0190 0.2580 0.0000 10.0643 0.0000
# 6 0.0000 0.0000 0.0000 -0.1582 0.0000 11.6180
#
#
#
# Elastic Compliance Matrix: (Units=1/GPa)
#
#
# Indices 1 2 3 4 5 6 
#
# 1 0.038118 -0.021560 -0.012785 0.000000 0.000206 0.000000
# 2 -0.021560 0.045908 -0.004168 0.000000 0.000239 0.000000
# 3 -0.012785 -0.004168 0.013153 0.000000 -0.000318 0.000000
# 4 0.000000 0.000000 0.000000 -0.117735 0.000000 -0.001603
# 5 0.000206 0.000239 -0.000318 0.000000 0.099369 0.000000
# 6 0.000000 0.000000 0.000000 -0.001603 0.000000 0.086051
#
#
# Mechanical properties :
#
#
# Convention : Reuss Voigt Hill
#
# Bulk Modulus (GPa) = 49.61908 88.10608 68.86258
# Shear Modulus (GPa) = 20.11191 10.52055 15.31623
#
# Velocity S-wave (km/s) = 3.37324 2.43972 2.94372
# Velocity P-wave (km/s) = 6.57608 7.60160 7.10736
#
# Compressibility (1/GPa) = 0.02015354
#
# Stress axis : x y z
#
# Youngs Moduli (GPa) = 26.23446 21.78249 76.02738
#
# Poissons Ratio (x) = 0.46962 0.97201
# Poissons Ratio (y) = 0.56561 0.31690
# Poissons Ratio (z) = 0.33541 0.09080
#
# Static dielectric constant tensor:
#      x y z
#    x 1.579510 0.000000 0.000420 
#    y 0.000000 1.579140 0.000000 
#    z 0.000420 0.000000 1.632860 
# 
# From -- ./inp_files/9472.got.cif
#   From: 2010.05.17/outbox.cif.g08.bks.cpg/sg3_5_cif.got.tgz:9472.got - 2010.06.03 18:33:08.
