data_PCOD9112427
_publ_section_title
;
Structure prediction by ZEFSAII (Michael W. Deem and Ramdas Pophale) SiO2 
 PCOD9112427
Probable space group: P -1
;
_chemical_formula_sum "Si O2"
_cell_formula_units_Z 16
_cell_length_a 8.508764
_cell_length_b 15.243902
_cell_length_c 13.179271
_cell_angle_alpha 38.991800
_cell_angle_beta 71.390375
_cell_angle_gamma 100.012328
_cell_volume 720.392931
_symmetry_space_group_name_H-M "P -1"
_symmetry_group_IT_number 2
_symmetry_cell_setting 'triclinic'
loop_
_space_group_symop_operation_xyz
x,y,z
-x,-y,-z
loop_
_atom_site_type_symbol
_atom_site_label
_atom_site_fract_x
_atom_site_fract_y
_atom_site_fract_z
Si Si1 0.082119 0.976244 0.872365
Si Si2 0.313877 0.698141 0.272538
Si Si3 0.267637 0.480794 0.674194
Si Si4 0.142777 0.473317 0.930772
Si Si5 0.203646 0.934789 0.076879
Si Si6 0.628961 0.670587 0.737927
Si Si7 0.555586 0.447294 0.774435
Si Si8 0.978014 0.905282 0.728040
O O1 0.879190 0.738667 0.140430
O O2 0.993419 0.074940 0.836211
O O3 0.114304 0.989963 0.733498
O O4 0.270810 0.030538 0.863995
O O5 0.287608 0.597106 0.472646
O O6 0.311336 0.596670 0.268004
O O7 0.157163 0.742847 0.255673
O O8 0.581160 0.913340 0.028590
O O9 0.152315 0.483628 0.795900
O O10 0.489396 0.529978 0.632849
O O11 0.412623 0.631843 0.771074
O O12 0.024752 0.251682 0.173843
O O13 0.000000 0.500000 0.000000
O O14 0.696623 0.603408 0.695127
O O15 0.851232 0.881435 0.551032
O O16 0.500000 0.500000 0.000000
O O17 0.299333 0.240620 0.055608
#
# Coordination Sequence:
#
# PCOD9112427 Si02
#       8
#     2   2   2   2   2   2   2   2
#     4   9  19  37  54  82 112 168 198 232 301 365
#     4  11  20  36  53  92 122 151 197 253 297 352
#     4   9  19  36  60  79 120 161 196 237 304 358
#     4   9  21  42  62  90 120 155 204 252 304 359
#     4  10  21  32  55  82 121 154 202 236 294 364
#     4  10  22  40  63  92 112 160 209 245 301 366
#     4   9  20  37  60  88 124 162 199 245 307 367
#     4   9  19  39  63  84 121 155 203 245 299 373
#
# _framework density 22.210101000000002
#
# number of rings (size 3 to 8) (size 9 to 14) (size 15 to 20)
#    0.000    3.000    2.500    0.375    3.500    4.000 
#    6.750    2.500    0.000    0.000    0.000    0.000 
#    0.000    0.000    0.000    0.000    0.000    0.000 
#
# Total GULP energy -89210.951636 kJ/mol
# GULP energy per Si atom -5575.684477 kJ/mol
# Density = 2.215955 g / cm^3
# Si number density = 22.210101 Si / 1000 Ang^3
#
#
#
# Elastic Constant Matrix: (Units=GPa)
#
#
# Indices 1 2 3 4 5 6 
#
# 1 69.5904 62.9167 32.1443 -13.3413 -4.0315 -23.5382
# 2 62.9167 162.5943 38.1544 -14.6172 -14.4665 -32.0393
# 3 32.1443 38.1544 105.5061 -26.3423 -4.8631 -21.6108
# 4 -13.3413 -14.6172 -26.3423 25.5615 5.6973 -2.8206
# 5 -4.0315 -14.4665 -4.8631 5.6973 29.8740 -9.3334
# 6 -23.5382 -32.0393 -21.6108 -2.8206 -9.3334 50.0826
#
#
#
# Elastic Compliance Matrix: (Units=1/GPa)
#
#
# Indices 1 2 3 4 5 6 
#
# 1 0.025913 -0.007444 -0.001629 0.008321 0.000302 0.007239
# 2 -0.007444 0.010444 -0.000092 0.001318 0.005088 0.004166
# 3 -0.001629 -0.000092 0.015318 0.015319 0.001470 0.006922
# 4 0.008321 0.001318 0.015319 0.062286 -0.003161 0.014283
# 5 0.000302 0.005088 0.001470 -0.003161 0.040376 0.011378
# 6 0.007239 0.004166 0.006922 0.014283 0.011378 0.031946
#
#
# Mechanical properties :
#
#
# Convention : Reuss Voigt Hill
#
# Bulk Modulus (GPa) = 29.98818 67.12462 48.55640
# Shear Modulus (GPa) = 23.17727 34.73530 28.95628
#
# Velocity S-wave (km/s) = 3.23390 3.95896 3.61466
# Velocity P-wave (km/s) = 5.24171 7.15444 6.27142
#
# Compressibility (1/GPa) = 0.03334647
#
# Stress axis : x y z
#
# Youngs Moduli (GPa) = 38.59024 95.74530 65.28171
#
# Poissons Ratio (x) = 0.71269 0.10633
# Poissons Ratio (y) = 0.28725 0.00603
# Poissons Ratio (z) = 0.06285 0.00884
#
# Static dielectric constant tensor:
#      x y z
#    x 1.857300 0.059220 0.003820 
#    y 0.059220 1.846280 -0.006320 
#    z 0.003820 -0.006320 1.988070 
# 
# From -- ./inp_files/395456.got.cif
#   From: 2010.05.17/outbox.cif.g08.bks.cpg/sg2_198_cif.got.tgz:395456.got - 2010.06.03 11:33:40.
