data_PCOD9112173
_publ_section_title
;
Structure prediction by ZEFSAII (Michael W. Deem and Ramdas Pophale) SiO2 
 PCOD9112173
Probable space group: P -1
;
_chemical_formula_sum "Si O2"
_cell_formula_units_Z 15
_cell_length_a 16.974225
_cell_length_b 9.284714
_cell_length_c 11.216259
_cell_angle_alpha 141.383903
_cell_angle_beta 49.326174
_cell_angle_gamma 101.562574
_cell_volume 634.123712
_symmetry_space_group_name_H-M "P -1"
_symmetry_group_IT_number 2
_symmetry_cell_setting 'triclinic'
loop_
_space_group_symop_operation_xyz
x,y,z
-x,-y,-z
loop_
_atom_site_type_symbol
_atom_site_label
_atom_site_fract_x
_atom_site_fract_y
_atom_site_fract_z
Si Si1 0.852559 0.740233 0.535420
Si Si2 0.847373 0.246792 0.561816
Si Si3 0.370457 0.048873 0.705357
Si Si4 0.027791 0.240877 0.216502
Si Si5 0.623747 0.809841 0.660391
Si Si6 0.302574 0.811894 0.800504
Si Si7 0.000000 0.000000 0.500000
Si Si8 0.362333 0.845278 0.336064
O O1 0.979162 0.410185 0.248618
O O2 0.760041 0.718848 0.527037
O O3 0.910555 0.888892 0.517443
O O4 0.755620 0.958865 0.883222
O O5 0.926204 0.185411 0.322086
O O6 0.756234 0.149944 0.591122
O O7 0.740590 0.612243 0.917631
O O8 0.955685 0.105480 0.470786
O O9 0.500000 0.000000 0.500000
O O10 0.406729 0.812939 0.619757
O O11 0.314176 0.012970 0.618393
O O12 0.000000 0.500000 0.500000
O O13 0.180633 0.949429 0.913108
O O14 0.645679 0.509659 0.415492
O O15 0.601262 0.001352 0.690950
O O16 0.500000 0.000000 0.000000
O O17 0.500000 0.500000 0.000000
#
# Coordination Sequence:
#
# PCOD9112173 Si02
#       8
#     2   2   2   2   2   2   1   2
#     4  11  24  47  73 103 151 186 240 297 365 432
#     4  12  24  47  73 101 148 186 242 299 361 429
#     4  12  26  44  77 103 139 194 245 293 359 432
#     4  10  20  44  73 101 136 189 232 291 352 435
#     4  12  30  46  69 106 148 190 239 308 362 425
#     4  11  25  48  72 109 140 188 242 292 369 432
#     4  12  22  44  74 104 144 192 230 298 362 420
#     4  12  28  48  70 105 143 192 248 299 359 435
#
# _framework density 23.654689000000001
#
# number of rings (size 3 to 8) (size 9 to 14) (size 15 to 20)
#    0.000    0.533    8.000    0.800    7.467    1.067 
#    2.400    2.000    0.000    0.000    0.000    0.000 
#    0.000    0.000    0.000    0.000    0.000    0.000 
#
# Total GULP energy -83766.776525 kJ/mol
# GULP energy per Si atom -5584.451768 kJ/mol
# Density = 2.360085 g / cm^3
# Si number density = 23.654689 Si / 1000 Ang^3
#
#
#
# Elastic Constant Matrix: (Units=GPa)
#
#
# Indices 1 2 3 4 5 6 
#
# 1 87.2171 21.1267 6.9894 14.0592 -0.2211 9.4836
# 2 21.1267 205.0238 32.2205 8.8508 3.0033 13.0503
# 3 6.9894 32.2205 60.2931 6.2235 7.4465 7.8554
# 4 14.0592 8.8508 6.2235 24.6899 8.6324 -8.6413
# 5 -0.2211 3.0033 7.4465 8.6324 34.4197 3.1243
# 6 9.4836 13.0503 7.8554 -8.6413 3.1243 41.6746
#
#
#
# Elastic Compliance Matrix: (Units=1/GPa)
#
#
# Indices 1 2 3 4 5 6 
#
# 1 0.013973 -0.000699 0.000177 -0.010836 0.003329 -0.005491
# 2 -0.000699 0.005511 -0.002578 -0.001660 0.000622 -0.001472
# 3 0.000177 -0.002578 0.019168 -0.004384 -0.002498 -0.003568
# 4 -0.010836 -0.001660 -0.004384 0.059912 -0.015582 0.017403
# 5 0.003329 0.000622 -0.002498 -0.015582 0.034037 -0.006264
# 6 -0.005491 -0.001472 -0.003568 0.017403 -0.006264 0.030456
#
#
# Mechanical properties :
#
#
# Convention : Reuss Voigt Hill
#
# Bulk Modulus (GPa) = 30.81485 52.57858 41.69671
# Shear Modulus (GPa) = 27.76611 39.63666 33.70138
#
# Velocity S-wave (km/s) = 3.42981 4.09789 3.77865
# Velocity P-wave (km/s) = 5.36097 6.68327 6.05831
#
# Compressibility (1/GPa) = 0.03245189
#
# Stress axis : x y z
#
# Youngs Moduli (GPa) = 71.56641 181.46018 52.16898
#
# Poissons Ratio (x) = 0.12685 -0.00921
# Poissons Ratio (y) = 0.05003 0.13447
# Poissons Ratio (z) = -0.01263 0.46775
#
# Static dielectric constant tensor:
#      x y z
#    x 1.916460 0.007240 -0.010260 
#    y 0.007240 1.877800 -0.003000 
#    z -0.010260 -0.003000 1.904190 
# 
# From -- ./inp_files/305530.got.cif
#   From: 2010.05.17/outbox.cif.g08.bks.cpg/sg2_153_cif.got.tgz:305530.got - 2010.06.03 11:33:40.
