data_PCOD9112011
_publ_section_title
;
Structure prediction by ZEFSAII (Michael W. Deem and Ramdas Pophale) SiO2 
 PCOD9112011
Probable space group: P -1
;
_chemical_formula_sum "Si O2"
_cell_formula_units_Z 14
_cell_length_a 9.258806
_cell_length_b 9.393798
_cell_length_c 7.871460
_cell_angle_alpha 60.388030
_cell_angle_beta 92.490677
_cell_angle_gamma 115.936651
_cell_volume 522.039456
_symmetry_space_group_name_H-M "P -1"
_symmetry_group_IT_number 2
_symmetry_cell_setting 'triclinic'
loop_
_space_group_symop_operation_xyz
x,y,z
-x,-y,-z
loop_
_atom_site_type_symbol
_atom_site_label
_atom_site_fract_x
_atom_site_fract_y
_atom_site_fract_z
Si Si1 0.271196 0.029667 0.575405
Si Si2 0.900492 0.147211 0.778250
Si Si3 0.506585 0.627762 0.186582
Si Si4 0.757464 0.658633 0.440881
Si Si5 0.641845 0.401597 0.135882
Si Si6 0.953335 0.805290 0.873126
Si Si7 0.382058 0.860330 0.405616
O O1 0.355204 0.015841 0.415790
O O2 0.094502 0.854638 0.709291
O O3 0.230608 0.197211 0.499339
O O4 0.430362 0.073768 0.675902
O O5 0.065280 0.313137 0.606908
O O6 0.745131 0.177799 0.726947
O O7 0.942685 0.155300 0.971918
O O8 0.891206 0.960632 0.799105
O O9 0.683256 0.716325 0.239026
O O10 0.375232 0.542374 0.382141
O O11 0.518509 0.460862 0.187067
O O12 0.439109 0.702135 0.985680
O O13 0.676644 0.296117 0.355202
O O14 0.806064 0.594760 0.983921
#
# Coordination Sequence:
#
# PCOD9112011 Si02
#       7
#     2   2   2   2   2   2   2
#     4  10  24  44  65  94 134 175 222 261 332 397
#     4  10  23  42  70  96 133 170 225 274 323 395
#     4  10  22  39  71  94 134 171 228 265 322 396
#     4  10  20  44  67 101 120 183 223 267 316 401
#     4  11  23  42  67 102 133 173 214 282 325 391
#     4  10  23  44  67  99 128 176 228 264 324 394
#     4  11  25  44  64 101 138 172 214 273 345 384
#
# _framework density 26.817896999999999
#
# number of rings (size 3 to 8) (size 9 to 14) (size 15 to 20)
#    0.000    1.714    2.857    0.000    4.000    4.000 
#    2.571    0.000    0.000    0.000    0.000    0.000 
#    0.000    0.000    0.000    0.000    0.000    0.000 
#
# Total GULP energy -78223.526911 kJ/mol
# GULP energy per Si atom -5587.394779 kJ/mol
# Density = 2.675686 g / cm^3
# Si number density = 26.817897 Si / 1000 Ang^3
#
#
#
# Elastic Constant Matrix: (Units=GPa)
#
#
# Indices 1 2 3 4 5 6 
#
# 1 143.4287 16.5770 48.3668 -6.9967 10.1053 29.7453
# 2 16.5770 54.0266 26.4314 -6.3702 3.5231 15.8962
# 3 48.3668 26.4314 105.3361 -6.9117 5.1911 28.3997
# 4 -6.9967 -6.3702 -6.9117 37.1082 10.8969 -13.1199
# 5 10.1053 3.5231 5.1911 10.8969 52.6076 2.1250
# 6 29.7453 15.8962 28.3997 -13.1199 2.1250 47.0195
#
#
#
# Elastic Compliance Matrix: (Units=1/GPa)
#
#
# Indices 1 2 3 4 5 6 
#
# 1 0.008845 -0.000073 -0.002980 0.000185 -0.001290 -0.003661
# 2 -0.000073 0.022152 -0.004168 0.001845 -0.001265 -0.004354
# 3 -0.002980 -0.004168 0.013175 -0.000470 -0.000158 -0.004787
# 4 0.000185 0.001845 -0.000470 0.032486 -0.007202 0.008933
# 5 -0.001290 -0.001265 -0.000158 -0.007202 0.020914 -0.001616
# 6 -0.003661 -0.004354 -0.004787 0.008933 -0.001616 0.030513
#
#
# Mechanical properties :
#
#
# Convention : Reuss Voigt Hill
#
# Bulk Modulus (GPa) = 33.63601 53.94911 43.79256
# Shear Modulus (GPa) = 32.80074 41.44148 37.12111
#
# Velocity S-wave (km/s) = 3.50107 3.93528 3.72451
# Velocity P-wave (km/s) = 5.37707 6.38820 5.90432
#
# Compressibility (1/GPa) = 0.02973005
#
# Stress axis : x y z
#
# Youngs Moduli (GPa) = 113.06318 45.14326 75.89933
#
# Poissons Ratio (x) = 0.00329 0.22620
# Poissons Ratio (y) = 0.00823 0.31634
# Poissons Ratio (z) = 0.33695 0.18815
#
# Static dielectric constant tensor:
#      x y z
#    x 2.038820 0.048970 0.077890 
#    y 0.048970 2.294910 -0.017170 
#    z 0.077890 -0.017170 2.213870 
# 
# From -- ./inp_files/175396.got.cif
#   From: 2010.05.17/outbox.cif.g08.bks.cpg/sg2_88_cif.got.tgz:175396.got - 2010.06.03 11:33:40.
