data_PCOD9112067
_publ_section_title
;
Structure prediction by ZEFSAII (Michael W. Deem and Ramdas Pophale) SiO2 
 PCOD9112067
Probable space group: P -1
;
_chemical_formula_sum "Si O2"
_cell_formula_units_Z 15
_cell_length_a 6.727469
_cell_length_b 22.452134
_cell_length_c 8.131427
_cell_angle_alpha 130.655413
_cell_angle_beta 120.493763
_cell_angle_gamma 46.881178
_cell_volume 675.846051
_symmetry_space_group_name_H-M "P -1"
_symmetry_group_IT_number 2
_symmetry_cell_setting 'triclinic'
loop_
_space_group_symop_operation_xyz
x,y,z
-x,-y,-z
loop_
_atom_site_type_symbol
_atom_site_label
_atom_site_fract_x
_atom_site_fract_y
_atom_site_fract_z
Si Si1 0.825177 0.446952 0.194030
Si Si2 0.210327 0.040491 0.359301
Si Si3 0.713026 0.896211 0.842025
Si Si4 0.500000 0.500000 0.500000
Si Si5 0.553122 0.358626 0.740981
Si Si6 0.257123 0.856181 0.099031
Si Si7 0.642112 0.174302 0.546008
Si Si8 0.535843 0.664620 0.700125
O O1 0.629420 0.482423 0.334774
O O2 0.726406 0.539141 0.207275
O O3 0.135793 0.397588 0.290792
O O4 0.771585 0.379373 0.942052
O O5 0.201720 0.093736 0.287536
O O6 0.946734 0.110199 0.484389
O O7 0.500000 0.000000 0.500000
O O8 0.199706 0.949137 0.153622
O O9 0.567012 0.839323 0.672480
O O10 0.979152 0.856364 0.993773
O O11 0.500000 0.000000 0.000000
O O12 0.453793 0.604994 0.668176
O O13 0.543672 0.282007 0.704733
O O14 0.607673 0.318664 0.507042
O O15 0.352135 0.858948 0.326800
O O16 0.461779 0.761631 0.921155
#
# Coordination Sequence:
#
# PCOD9112067 Si02
#       8
#     2   2   2   1   2   2   2   2
#     4  10  23  46  70  97 141 176 220 290 342 403
#     4  12  25  46  71  98 142 181 229 294 341 409
#     4  12  26  45  69  98 135 183 232 286 342 408
#     4  10  20  44  68  98 130 172 226 268 336 408
#     4  10  23  43  69  99 132 176 225 275 340 407
#     4  12  26  45  69 103 136 186 231 280 351 411
#     4  12  26  46  68 102 138 182 235 285 345 409
#     4  11  25  43  69 101 137 178 223 283 347 405
#
# _framework density 22.194402
#
# number of rings (size 3 to 8) (size 9 to 14) (size 15 to 20)
#    0.000    0.800    2.667    4.800    3.733    4.267 
#    0.000   16.667    0.000    0.000    0.000    0.000 
#    0.000    0.000    0.000    0.000    0.000    0.000 
#
# Total GULP energy -83661.722399 kJ/mol
# GULP energy per Si atom -5577.448160 kJ/mol
# Density = 2.214389 g / cm^3
# Si number density = 22.194402 Si / 1000 Ang^3
#
#
#
# Elastic Constant Matrix: (Units=GPa)
#
#
# Indices 1 2 3 4 5 6 
#
# 1 48.8771 24.9021 23.4438 5.4893 3.2151 3.6934
# 2 24.9021 66.0624 20.3429 13.6048 13.6217 6.4592
# 3 23.4438 20.3429 102.5772 7.1803 18.8740 -12.7544
# 4 5.4893 13.6048 7.1803 39.1635 -3.1814 7.2212
# 5 3.2151 13.6217 18.8740 -3.1814 39.7034 -1.3639
# 6 3.6934 6.4592 -12.7544 7.2212 -1.3639 29.4324
#
#
#
# Elastic Compliance Matrix: (Units=1/GPa)
#
#
# Indices 1 2 3 4 5 6 
#
# 1 0.027950 -0.009406 -0.005827 0.001487 0.003710 -0.004161
# 2 -0.009406 0.021922 -0.000832 -0.006195 -0.006956 -0.002794
# 3 -0.005827 -0.000832 0.013397 -0.003140 -0.005615 0.007229
# 4 0.001487 -0.006195 -0.003140 0.029848 0.005640 -0.007250
# 5 0.003710 -0.006956 -0.005615 0.005640 0.030348 -0.001350
# 6 -0.004161 -0.002794 0.007229 -0.007250 -0.001350 0.039960
#
#
# Mechanical properties :
#
#
# Convention : Reuss Voigt Hill
#
# Bulk Modulus (GPa) = 32.11189 39.43272 35.77230
# Shear Modulus (GPa) = 24.27979 31.58171 27.93075
#
# Velocity S-wave (km/s) = 3.31110 3.77630 3.55133
# Velocity P-wave (km/s) = 5.39608 6.06791 5.74183
#
# Compressibility (1/GPa) = 0.03114111
#
# Stress axis : x y z
#
# Youngs Moduli (GPa) = 35.77876 45.61645 74.64287
#
# Poissons Ratio (x) = 0.42905 0.43491
# Poissons Ratio (y) = 0.33652 0.06208
# Poissons Ratio (z) = 0.20847 0.03794
#
# Static dielectric constant tensor:
#      x y z
#    x 1.831960 0.011040 0.019300 
#    y 0.011040 1.851230 0.008860 
#    z 0.019300 0.008860 1.838420 
# 
# From -- ./inp_files/142692.got.cif
#   From: 2010.05.17/outbox.cif.g08.bks.cpg/sg2_72_cif.got.tgz:142692.got - 2010.06.03 11:33:40.
