data_PCOD9112109
_publ_section_title
;
Structure prediction by ZEFSAII (Michael W. Deem and Ramdas Pophale) SiO2 
 PCOD9112109
Probable space group: P -1
;
_chemical_formula_sum "Si O2"
_cell_formula_units_Z 14
_cell_length_a 13.549778
_cell_length_b 15.485661
_cell_length_c 8.319301
_cell_angle_alpha 42.608162
_cell_angle_beta 30.571536
_cell_angle_gamma 44.130742
_cell_volume 582.866910
_symmetry_space_group_name_H-M "P -1"
_symmetry_group_IT_number 2
_symmetry_cell_setting 'triclinic'
loop_
_space_group_symop_operation_xyz
x,y,z
-x,-y,-z
loop_
_atom_site_type_symbol
_atom_site_label
_atom_site_fract_x
_atom_site_fract_y
_atom_site_fract_z
Si Si1 0.477931 0.552002 0.183737
Si Si2 0.766439 0.326484 0.943686
Si Si3 0.643090 0.903024 0.805115
Si Si4 0.111506 0.575657 0.870150
Si Si5 0.224080 0.937909 0.838562
Si Si6 0.208273 0.338582 0.272248
Si Si7 0.964056 0.121347 0.506240
O O1 0.316419 0.588081 0.216768
O O2 0.339378 0.558342 0.521214
O O3 0.626531 0.409628 0.158288
O O4 0.625983 0.649794 0.845794
O O5 0.007096 0.295073 0.663674
O O6 0.705885 0.192030 0.186792
O O7 0.670309 0.750357 0.921962
O O8 0.851352 0.895150 0.611084
O O9 0.640566 0.968573 0.541741
O O10 0.500000 0.000000 0.000000
O O11 0.045053 0.734750 0.754270
O O12 0.111194 0.488061 0.146701
O O13 0.000000 0.500000 0.000000
O O14 0.210666 0.894465 0.102009
O O15 0.000000 0.000000 0.000000
O O16 0.000000 0.000000 0.500000
#
# Coordination Sequence:
#
# PCOD9112109 Si02
#       7
#     2   2   2   2   2   2   2
#     4  11  25  40  71 101 132 181 238 288 351 424
#     4  11  22  45  67  97 141 180 236 293 350 413
#     4  11  25  42  69 102 141 182 238 292 352 425
#     4  12  22  46  70  98 143 180 230 296 351 412
#     4  10  20  44  70  89 140 191 221 286 356 410
#     4  12  24  45  68 101 141 183 237 294 352 417
#     4  11  24  45  71  99 138 189 231 284 361 415
#
# _framework density 24.019207000000002
#
# number of rings (size 3 to 8) (size 9 to 14) (size 15 to 20)
#    0.000    0.857    7.143    0.857    4.000    2.286 
#    2.571    1.429    0.000    0.000    0.000    0.000 
#    0.000    0.000    0.000    0.000    0.000    0.000 
#
# Total GULP energy -77988.916572 kJ/mol
# GULP energy per Si atom -5570.636898 kJ/mol
# Density = 2.396454 g / cm^3
# Si number density = 24.019207 Si / 1000 Ang^3
#
#
#
# Elastic Constant Matrix: (Units=GPa)
#
#
# Indices 1 2 3 4 5 6 
#
# 1 35.1271 17.9189 7.2277 -2.0433 -19.7486 12.2305
# 2 17.9189 162.9426 22.7793 -9.7378 -6.4964 20.6215
# 3 7.2277 22.7793 67.1317 -9.5856 -8.9446 -9.6159
# 4 -2.0433 -9.7378 -9.5856 43.2465 -9.1677 -2.4772
# 5 -19.7486 -6.4964 -8.9446 -9.1677 30.4745 -5.2580
# 6 12.2305 20.6215 -9.6159 -2.4772 -5.2580 31.7471
#
#
#
# Elastic Compliance Matrix: (Units=1/GPa)
#
#
# Indices 1 2 3 4 5 6 
#
# 1 0.054586 -0.002229 -0.001238 0.008387 0.034720 -0.013551
# 2 -0.002229 0.007438 -0.003217 0.000211 -0.001637 -0.005201
# 3 -0.001238 -0.003217 0.019422 0.005735 0.007693 0.010171
# 4 0.008387 0.000211 0.005735 0.028482 0.016299 0.003291
# 5 0.034720 -0.001637 0.007693 0.016299 0.062407 0.001625
# 6 -0.013551 -0.005201 0.010171 0.003291 0.001625 0.043704
#
#
# Mechanical properties :
#
#
# Convention : Reuss Voigt Hill
#
# Bulk Modulus (GPa) = 14.68925 40.11703 27.40314
# Shear Modulus (GPa) = 19.83351 35.57867 27.70609
#
# Velocity S-wave (km/s) = 2.87668 3.85289 3.40000
# Velocity P-wave (km/s) = 4.14278 6.04411 5.18141
#
# Compressibility (1/GPa) = 0.06807698
#
# Stress axis : x y z
#
# Youngs Moduli (GPa) = 18.31978 134.45213 51.48918
#
# Poissons Ratio (x) = 0.29973 0.06374
# Poissons Ratio (y) = 0.04084 0.16562
# Poissons Ratio (z) = 0.02268 0.43249
#
# Static dielectric constant tensor:
#      x y z
#    x 1.965640 -0.021100 0.041860 
#    y -0.021100 1.880570 -0.019640 
#    z 0.041860 -0.019640 2.012770 
# 
# From -- ./inp_files/274869.got.cif
#   From: 2010.05.17/outbox.cif.g08.bks.cpg/sg2_138_cif.got.tgz:274869.got - 2010.06.03 11:33:40.
