data_PCOD9112836
_publ_section_title
;
Structure prediction by ZEFSAII (Michael W. Deem and Ramdas Pophale) SiO2 
 PCOD9112836
Probable space group: P 2
;
_chemical_formula_sum "Si O2"
_cell_formula_units_Z 12
_cell_length_a 11.822362
_cell_length_b 9.352332
_cell_length_c 8.654401
_cell_angle_alpha 90.000000
_cell_angle_beta 140.289402
_cell_angle_gamma 90.000000
_cell_volume 611.365535
_symmetry_space_group_name_H-M "P 2"
_symmetry_group_IT_number 3
_symmetry_cell_setting 'monoclinic'
loop_
_space_group_symop_operation_xyz
x,y,z
-x,y,-z
loop_
_atom_site_type_symbol
_atom_site_label
_atom_site_fract_x
_atom_site_fract_y
_atom_site_fract_z
Si Si1 0.500000 0.878371 0.000000
Si Si2 0.655075 0.129446 0.961102
Si Si3 0.830978 0.853007 0.713068
Si Si4 0.198659 0.339176 0.638315
Si Si5 0.179813 0.669048 0.585024
Si Si6 0.500000 0.017335 0.500000
Si Si7 0.044555 0.143908 0.229769
O O1 0.335437 0.775512 0.795903
O O2 0.578131 0.986156 0.955580
O O3 0.543819 0.125632 0.686092
O O4 0.672377 0.253216 0.109544
O O5 0.856552 0.125744 0.114347
O O6 0.839050 0.713782 0.614647
O O7 0.660613 0.907310 0.629979
O O8 0.861029 0.993042 0.639756
O O9 0.000000 0.845521 0.000000
O O10 0.241328 0.505513 0.666607
O O11 0.000000 0.334891 0.500000
O O12 0.167429 0.261854 0.440618
O O13 0.000000 0.688014 0.500000
O O14 0.000000 0.165874 0.000000
#
# Coordination Sequence:
#
# PCOD9112836 Si02
#       7
#     1   2   2   2   2   1   2
#     4  12  24  40  66  96 124 170 220 280 318 384
#     4  11  22  39  65  92 129 163 222 276 321 372
#     4  11  22  39  65  95 128 167 213 272 322 387
#     4   9  22  41  63  95 131 176 218 266 324 396
#     4  11  24  42  64  93 134 172 215 261 334 393
#     4  12  22  40  64 100 128 166 220 274 326 370
#     4  10  19  39  66  95 126 166 217 271 325 381
#
# _framework density 19.628194000000001
#
# number of rings (size 3 to 8) (size 9 to 14) (size 15 to 20)
#    0.000    1.333    5.000    2.000    0.000    2.667 
#    0.000    0.000    0.000    2.000    0.000    0.000 
#    0.000    0.000    0.000    0.000    0.000    0.000 
#
# Total GULP energy -66804.094037 kJ/mol
# GULP energy per Si atom -5567.007836 kJ/mol
# Density = 1.958352 g / cm^3
# Si number density = 19.628194 Si / 1000 Ang^3
#
#
#
# Elastic Constant Matrix: (Units=GPa)
#
#
# Indices 1 2 3 4 5 6 
#
# 1 103.8858 48.5079 51.7160 0.0000 13.4167 0.0000
# 2 48.5079 149.8442 82.6933 0.0000 -15.8555 0.0000
# 3 51.7160 82.6933 130.9463 0.0000 -10.4697 0.0000
# 4 0.0000 0.0000 0.0000 6.0389 0.0000 4.4527
# 5 13.4167 -15.8555 -10.4697 0.0000 35.2415 0.0000
# 6 0.0000 0.0000 0.0000 4.4527 0.0000 29.0837
#
#
#
# Elastic Compliance Matrix: (Units=1/GPa)
#
#
# Indices 1 2 3 4 5 6 
#
# 1 0.014273 -0.003085 -0.004337 0.000000 -0.008110 0.000000
# 2 -0.003085 0.011178 -0.005474 0.000000 0.004577 0.000000
# 3 -0.004337 -0.005474 0.013052 0.000000 0.003066 0.000000
# 4 0.000000 0.000000 0.000000 0.186665 0.000000 -0.028579
# 5 -0.008110 0.004577 0.003066 0.000000 0.034433 0.000000
# 6 0.000000 0.000000 0.000000 -0.028579 0.000000 0.038759
#
#
# Mechanical properties :
#
#
# Convention : Reuss Voigt Hill
#
# Bulk Modulus (GPa) = 78.68297 83.39008 81.03653
# Shear Modulus (GPa) = 15.22578 27.52342 21.37460
#
# Velocity S-wave (km/s) = 2.78818 3.74871 3.30354
# Velocity P-wave (km/s) = 7.10908 7.83034 7.47841
#
# Compressibility (1/GPa) = 0.01270923
#
# Stress axis : x y z
#
# Youngs Moduli (GPa) = 70.06190 89.46319 76.61738
#
# Poissons Ratio (x) = 0.27601 0.33230
# Poissons Ratio (y) = 0.21615 0.41943
# Poissons Ratio (z) = 0.30387 0.48976
#
# Static dielectric constant tensor:
#      x y z
#    x 1.758860 0.000000 -0.039780 
#    y 0.000000 1.666820 0.000000 
#    z -0.039780 0.000000 1.792540 
# 
# From -- ./inp_files/7568.got.cif
#   From: 2010.05.17/outbox.cif.g08.bks.cpg/sg3_4_cif.got.tgz:7568.got - 2010.06.03 18:33:08.
