data_PCOD9112097
_publ_section_title
;
Structure prediction by ZEFSAII (Michael W. Deem and Ramdas Pophale) SiO2 
 PCOD9112097
Probable space group: P -1
;
_chemical_formula_sum "Si O2"
_cell_formula_units_Z 16
_cell_length_a 8.433119
_cell_length_b 19.031060
_cell_length_c 5.221461
_cell_angle_alpha 118.653296
_cell_angle_beta 64.535946
_cell_angle_gamma 124.772312
_cell_volume 589.651805
_symmetry_space_group_name_H-M "P -1"
_symmetry_group_IT_number 2
_symmetry_cell_setting 'triclinic'
loop_
_space_group_symop_operation_xyz
x,y,z
-x,-y,-z
loop_
_atom_site_type_symbol
_atom_site_label
_atom_site_fract_x
_atom_site_fract_y
_atom_site_fract_z
Si Si1 0.704824 0.390505 0.640962
Si Si2 0.145652 0.449441 0.533447
Si Si3 0.087367 0.172491 0.337287
Si Si4 0.121718 0.343074 0.843296
Si Si5 0.216089 0.062734 0.342314
Si Si6 0.662247 0.062500 0.694346
Si Si7 0.362985 0.248350 0.869598
Si Si8 0.670131 0.243718 0.054128
O O1 0.718225 0.450231 0.488972
O O2 0.495904 0.351920 0.861405
O O3 0.691338 0.296610 0.391896
O O4 0.922409 0.440322 0.704182
O O5 0.210857 0.417893 0.689513
O O6 0.142208 0.388746 0.184646
O O7 0.175016 0.260173 0.620972
O O8 0.174710 0.100769 0.173902
O O9 0.863469 0.114348 0.477777
O O10 0.149442 0.219445 0.101914
O O11 0.885679 0.293660 0.863148
O O12 0.324550 0.157294 0.583965
O O13 0.310804 0.996561 0.203929
O O14 0.000000 0.000000 0.500000
O O15 0.500000 0.000000 0.500000
O O16 0.619786 0.141916 0.962115
O O17 0.507585 0.251332 0.007373
#
# Coordination Sequence:
#
# PCOD9112097 Si02
#       8
#     2   2   2   2   2   2   2   2
#     4  10  23  39  68 104 139 182 231 296 364 418
#     4  10  22  41  73 106 143 184 245 300 348 433
#     4  10  25  42  68  97 142 187 231 290 367 432
#     4  10  22  43  70 106 142 187 241 299 355 417
#     4  10  23  43  67  97 133 186 234 291 358 429
#     4  10  20  44  70 101 131 178 243 296 352 423
#     4  12  22  42  65  94 142 184 231 285 370 420
#     4  10  21  40  68 101 135 181 238 293 351 422
#
# _framework density 27.134656
#
# number of rings (size 3 to 8) (size 9 to 14) (size 15 to 20)
#    0.000    1.750    2.500    0.750    3.500    3.500 
#    2.250    5.000    0.000    0.000    0.000    0.000 
#    0.000    0.000    0.000    0.000    0.000    0.000 
#
# Total GULP energy -89521.581195 kJ/mol
# GULP energy per Si atom -5595.098825 kJ/mol
# Density = 2.707290 g / cm^3
# Si number density = 27.134656 Si / 1000 Ang^3
#
#
#
# Elastic Constant Matrix: (Units=GPa)
#
#
# Indices 1 2 3 4 5 6 
#
# 1 55.9101 39.1052 6.9395 0.6170 -11.7950 1.3982
# 2 39.1052 202.9808 49.4183 -25.3311 -11.4429 6.6263
# 3 6.9395 49.4183 72.2916 0.7431 1.4160 4.5040
# 4 0.6170 -25.3311 0.7431 59.7212 2.6934 -5.3401
# 5 -11.7950 -11.4429 1.4160 2.6934 35.9381 0.2206
# 6 1.3982 6.6263 4.5040 -5.3401 0.2206 44.2566
#
#
#
# Elastic Compliance Matrix: (Units=1/GPa)
#
#
# Indices 1 2 3 4 5 6 
#
# 1 0.022187 -0.004425 0.000830 -0.002428 0.006025 -0.000446
# 2 -0.004425 0.007358 -0.004647 0.003177 0.000836 -0.000110
# 3 0.000830 -0.004647 0.017069 -0.002234 -0.001704 -0.001329
# 4 -0.002428 0.003177 -0.002234 0.018377 -0.001087 0.002051
# 5 0.006025 0.000836 -0.001704 -0.001087 0.030220 -0.000424
# 6 -0.000446 -0.000110 -0.001329 0.002051 -0.000424 0.023011
#
#
# Mechanical properties :
#
#
# Convention : Reuss Voigt Hill
#
# Bulk Modulus (GPa) = 33.19058 58.01206 45.60132
# Shear Modulus (GPa) = 34.54232 43.69783 39.12007
#
# Velocity S-wave (km/s) = 3.57178 4.01734 3.80109
# Velocity P-wave (km/s) = 5.41004 6.55320 6.00887
#
# Compressibility (1/GPa) = 0.03012903
#
# Stress axis : x y z
#
# Youngs Moduli (GPa) = 45.07143 135.91209 58.58558
#
# Poissons Ratio (x) = 0.60146 -0.04863
# Poissons Ratio (y) = 0.19946 0.27225
# Poissons Ratio (z) = -0.03741 0.63160
#
# Static dielectric constant tensor:
#      x y z
#    x 2.293170 -0.024770 -0.048210 
#    y -0.024770 2.092790 -0.089490 
#    z -0.048210 -0.089490 2.300480 
# 
# From -- ./inp_files/48514.got.cif
#   From: 2010.05.17/outbox.cif.g08.bks.cpg/sg2_25_cif.got.tgz:48514.got - 2010.06.03 11:33:40.
