data_PCOD9112879
_publ_section_title
;
Structure prediction by ZEFSAII (Michael W. Deem and Ramdas Pophale) SiO2 
 PCOD9112879
Probable space group: P 2
;
_chemical_formula_sum "Si O2"
_cell_formula_units_Z 11
_cell_length_a 12.384924
_cell_length_b 6.517171
_cell_length_c 7.009331
_cell_angle_alpha 90.000000
_cell_angle_beta 106.154919
_cell_angle_gamma 90.000000
_cell_volume 543.415766
_symmetry_space_group_name_H-M "P 2"
_symmetry_group_IT_number 3
_symmetry_cell_setting 'monoclinic'
loop_
_space_group_symop_operation_xyz
x,y,z
-x,y,-z
loop_
_atom_site_type_symbol
_atom_site_label
_atom_site_fract_x
_atom_site_fract_y
_atom_site_fract_z
Si Si1 0.109527 0.134850 0.682682
Si Si2 0.500000 0.103762 0.500000
Si Si3 0.804725 0.899119 0.952421
Si Si4 0.747540 0.527910 0.196766
Si Si5 0.273712 0.866724 0.506004
Si Si6 0.597358 0.203037 0.924747
O O1 0.151503 0.367036 0.725166
O O2 0.000000 0.120223 0.500000
O O3 0.098935 0.020883 0.882445
O O4 0.209048 0.019366 0.617214
O O5 0.544432 0.243866 0.693233
O O6 0.396004 0.960955 0.517367
O O7 0.783904 0.688952 0.053609
O O8 0.800029 0.858502 0.724486
O O9 0.698883 0.048849 0.938361
O O10 0.720401 0.652586 0.376382
O O11 0.643690 0.396580 0.063367
O O12 0.500000 0.098559 0.000000
#
# Coordination Sequence:
#
# PCOD9112879 Si02
#       6
#     2   1   2   2   2   2
#     4  10  22  41  61  83 115 153 194 241 290 341
#     4  10  20  38  60  84 120 158 190 232 288 346
#     4   9  21  39  57  82 116 151 191 238 288 343
#     4  10  21  36  58  87 116 149 194 241 286 339
#     4  10  22  40  60  86 119 154 192 236 288 344
#     4  10  20  34  55  83 118 155 193 235 282 338
#
# _framework density 20.242329000000002
#
# number of rings (size 3 to 8) (size 9 to 14) (size 15 to 20)
#    0.000    2.182    0.000    3.273    0.000   13.091 
#    0.000    1.818    0.000    0.000    0.000    0.000 
#    0.000    0.000    0.000    0.000    0.000    0.000 
#
# Total GULP energy -61373.002382 kJ/mol
# GULP energy per Si atom -5579.363853 kJ/mol
# Density = 2.019626 g / cm^3
# Si number density = 20.242329 Si / 1000 Ang^3
#
#
#
# Elastic Constant Matrix: (Units=GPa)
#
#
# Indices 1 2 3 4 5 6 
#
# 1 45.0013 15.0730 31.2707 0.0000 4.6919 0.0000
# 2 15.0730 97.8401 62.4082 0.0000 -2.6103 0.0000
# 3 31.2707 62.4082 203.5511 0.0000 5.3233 0.0000
# 4 0.0000 0.0000 0.0000 -10.0861 0.0000 -24.6608
# 5 4.6919 -2.6103 5.3233 0.0000 37.3348 0.0000
# 6 0.0000 0.0000 0.0000 -24.6608 0.0000 -4.2568
#
#
#
# Elastic Compliance Matrix: (Units=1/GPa)
#
#
# Indices 1 2 3 4 5 6 
#
# 1 0.025416 -0.001926 -0.003239 0.000000 -0.002867 0.000000
# 2 -0.001926 0.012930 -0.003712 0.000000 0.001675 0.000000
# 3 -0.003239 -0.003712 0.006569 0.000000 -0.000789 0.000000
# 4 0.000000 0.000000 0.000000 0.007531 0.000000 -0.043630
# 5 -0.002867 0.001675 -0.000789 0.000000 0.027375 0.000000
# 6 0.000000 0.000000 0.000000 -0.043630 0.000000 0.017845
#
#
# Mechanical properties :
#
#
# Convention : Reuss Voigt Hill
#
# Bulk Modulus (GPa) = 36.81760 62.65516 49.73638
# Shear Modulus (GPa) = 40.16887 20.44108 30.30498
#
# Velocity S-wave (km/s) = 4.45949 3.18121 3.87345
# Velocity P-wave (km/s) = 6.68910 6.67182 6.68047
#
# Compressibility (1/GPa) = 0.02716092
#
# Stress axis : x y z
#
# Youngs Moduli (GPa) = 39.34466 77.33920 152.22579
#
# Poissons Ratio (x) = 0.14895 0.49308
# Poissons Ratio (y) = 0.07578 0.56510
# Poissons Ratio (z) = 0.12744 0.28710
#
# Static dielectric constant tensor:
#      x y z
#    x 1.744550 0.000000 0.008070 
#    y 0.000000 1.689290 0.000000 
#    z 0.008070 0.000000 1.780250 
# 
# From -- ./inp_files/6490.got.cif
#   From: 2010.05.17/outbox.cif.g08.bks.cpg/sg3_4_cif.got.tgz:6490.got - 2010.06.03 18:33:08.
