data_PCOD9112852
_publ_section_title
;
Structure prediction by ZEFSAII (Michael W. Deem and Ramdas Pophale) SiO2 
 PCOD9112852
Probable space group: P 2
;
_chemical_formula_sum "Si O2"
_cell_formula_units_Z 16
_cell_length_a 17.509759
_cell_length_b 6.042460
_cell_length_c 8.116608
_cell_angle_alpha 90.000000
_cell_angle_beta 52.746338
_cell_angle_gamma 90.000000
_cell_volume 683.536289
_symmetry_space_group_name_H-M "P 2"
_symmetry_group_IT_number 3
_symmetry_cell_setting 'monoclinic'
loop_
_space_group_symop_operation_xyz
x,y,z
-x,y,-z
loop_
_atom_site_type_symbol
_atom_site_label
_atom_site_fract_x
_atom_site_fract_y
_atom_site_fract_z
Si Si1 0.281358 0.061730 0.558747
Si Si2 0.794911 0.424133 0.094483
Si Si3 0.645622 0.809775 0.247328
Si Si4 0.658858 0.420719 0.750977
Si Si5 0.036386 0.762711 0.124428
Si Si6 0.167096 0.750236 0.492374
Si Si7 0.821231 0.040455 0.840170
Si Si8 0.489732 0.646408 0.840050
O O1 0.322096 0.177346 0.341685
O O2 0.358263 0.955310 0.582254
O O3 0.210049 0.868478 0.597654
O O4 0.225061 0.245744 0.737313
O O5 0.888601 0.567692 0.007600
O O6 0.813321 0.296777 0.897795
O O7 0.702820 0.582167 0.204594
O O8 0.551842 0.762615 0.263621
O O9 0.719980 0.941453 0.033167
O O10 0.756218 0.558741 0.647453
O O11 0.593128 0.533583 0.692981
O O12 0.589516 0.461827 0.998027
O O13 0.093997 0.937605 0.159130
O O14 0.941187 0.673745 0.338818
O O15 0.000000 0.861745 0.000000
O O16 0.163327 0.942511 0.359803
O O17 0.500000 0.783407 0.000000
#
# Coordination Sequence:
#
# PCOD9112852 Si02
#       8
#     2   2   2   2   2   2   2   2
#     4  11  23  39  67 100 131 173 228 277 338 411
#     4  10  23  41  63  91 132 178 212 272 344 405
#     4  10  19  42  66  94 132 173 217 276 338 399
#     4   9  21  42  65  96 130 175 221 280 336 403
#     4  11  23  40  61  88 130 175 217 273 333 404
#     4  12  23  41  66  95 131 169 225 284 334 401
#     4  10  22  39  64  96 124 167 226 270 331 409
#     4   8  19  40  71  91 127 176 221 268 348 409
#
# _framework density 23.407682999999999
#
# number of rings (size 3 to 8) (size 9 to 14) (size 15 to 20)
#    0.750    1.000    1.250    4.125    1.750    2.500 
#    0.000   13.750    0.000    0.000    0.000    0.000 
#    0.000    0.000    0.000    0.000    0.000    0.000 
#
# Total GULP energy -89397.234536 kJ/mol
# GULP energy per Si atom -5587.327158 kJ/mol
# Density = 2.335441 g / cm^3
# Si number density = 23.407683 Si / 1000 Ang^3
#
#
#
# Elastic Constant Matrix: (Units=GPa)
#
#
# Indices 1 2 3 4 5 6 
#
# 1 147.9139 43.9145 41.1603 0.0000 1.7688 0.0000
# 2 43.9145 69.4996 26.7998 0.0000 3.6001 0.0000
# 3 41.1603 26.7998 84.2400 0.0000 -4.8399 0.0000
# 4 0.0000 0.0000 0.0000 36.6621 0.0000 14.6010
# 5 1.7688 3.6001 -4.8399 0.0000 45.8879 0.0000
# 6 0.0000 0.0000 0.0000 14.6010 0.0000 11.3968
#
#
#
# Elastic Compliance Matrix: (Units=1/GPa)
#
#
# Indices 1 2 3 4 5 6 
#
# 1 0.008915 -0.004481 -0.002948 0.000000 -0.000303 0.000000
# 2 -0.004481 0.018810 -0.003893 0.000000 -0.001714 0.000000
# 3 -0.002948 -0.003893 0.014663 0.000000 0.001966 0.000000
# 4 0.000000 0.000000 0.000000 0.055692 0.000000 -0.071350
# 5 -0.000303 -0.001714 0.001966 0.000000 0.022146 0.000000
# 6 0.000000 0.000000 0.000000 -0.071350 0.000000 0.179154
#
#
# Mechanical properties :
#
#
# Convention : Reuss Voigt Hill
#
# Bulk Modulus (GPa) = 50.64849 58.37808 54.51329
# Shear Modulus (GPa) = 15.21587 31.44127 23.32857
#
# Velocity S-wave (km/s) = 2.55235 3.66895 3.16035
# Velocity P-wave (km/s) = 5.51094 6.55302 6.05444
#
# Compressibility (1/GPa) = 0.01974392
#
# Stress axis : x y z
#
# Youngs Moduli (GPa) = 112.17206 53.16388 68.20026
#
# Poissons Ratio (x) = 0.23821 0.20104
# Poissons Ratio (y) = 0.50260 0.26552
# Poissons Ratio (z) = 0.33067 0.20698
#
# Static dielectric constant tensor:
#      x y z
#    x 1.886020 0.000000 0.024560 
#    y 0.000000 1.879890 0.000000 
#    z 0.024560 0.000000 1.949060 
# 
# From -- ./inp_files/8887.got.cif
#   From: 2010.05.17/outbox.cif.g08.bks.cpg/sg3_5_cif.got.tgz:8887.got - 2010.06.03 18:33:08.
