data_PCOD9112086
_publ_section_title
;
Structure prediction by ZEFSAII (Michael W. Deem and Ramdas Pophale) SiO2 
 PCOD9112086
Probable space group: P -1
;
_chemical_formula_sum "Si O2"
_cell_formula_units_Z 16
_cell_length_a 20.306511
_cell_length_b 9.144167
_cell_length_c 10.094687
_cell_angle_alpha 131.787037
_cell_angle_beta 133.890698
_cell_angle_gamma 27.478578
_cell_volume 615.841951
_symmetry_space_group_name_H-M "P -1"
_symmetry_group_IT_number 2
_symmetry_cell_setting 'triclinic'
loop_
_space_group_symop_operation_xyz
x,y,z
-x,-y,-z
loop_
_atom_site_type_symbol
_atom_site_label
_atom_site_fract_x
_atom_site_fract_y
_atom_site_fract_z
Si Si1 0.891147 0.912956 0.189209
Si Si2 0.562633 0.229291 0.183610
Si Si3 0.237269 0.669716 0.089485
Si Si4 0.272645 0.653965 0.525628
Si Si5 0.030523 0.839911 0.706360
Si Si6 0.831878 0.818636 0.790087
Si Si7 0.379497 0.158407 0.197380
Si Si8 0.322438 0.150578 0.606545
O O1 0.015410 0.562482 0.215092
O O2 0.796371 0.192862 0.332865
O O3 0.974787 0.934825 0.231094
O O4 0.801429 0.937938 0.970893
O O5 0.387442 0.463319 0.087699
O O6 0.600469 0.395186 0.339134
O O7 0.629359 0.028293 0.293819
O O8 0.636887 0.005864 0.019452
O O9 0.306536 0.452119 0.181546
O O10 0.149422 0.021974 0.179472
O O11 0.117809 0.723621 0.894116
O O12 0.319244 0.350977 0.369355
O O13 0.134399 0.957992 0.421632
O O14 0.153707 0.508517 0.601031
O O15 0.692494 0.957946 0.608059
O O16 0.556426 0.891537 0.282633
#
# Coordination Sequence:
#
# PCOD9112086 Si02
#       8
#     2   2   2   2   2   2   2   2
#     4  10  24  44  62  93 135 178 224 277 325 389
#     4  11  23  43  69 101 144 164 216 281 334 396
#     4  10  20  44  69  96 131 182 219 261 331 421
#     4  12  26  41  65 105 140 166 221 289 326 379
#     4  11  22  43  70  88 133 176 227 266 320 398
#     4  10  21  38  71  92 118 179 235 263 317 391
#     4  11  23  43  69 101 140 175 208 272 351 395
#     4  11  20  43  71  97 123 186 220 258 336 416
#
# _framework density 25.980689999999999
#
# number of rings (size 3 to 8) (size 9 to 14) (size 15 to 20)
#    0.000    1.250    3.750    2.625    0.000    6.000 
#    2.250    6.250    2.750    0.000    0.000    0.000 
#    0.000    0.000    0.000    0.000    0.000    0.000 
#
# Total GULP energy -89322.402037 kJ/mol
# GULP energy per Si atom -5582.650127 kJ/mol
# Density = 2.592156 g / cm^3
# Si number density = 25.980690 Si / 1000 Ang^3
#
#
#
# Elastic Constant Matrix: (Units=GPa)
#
#
# Indices 1 2 3 4 5 6 
#
# 1 43.8050 31.8390 26.9617 6.8117 -12.8542 -13.0016
# 2 31.8390 98.3779 77.9203 16.6695 -8.0379 -9.7268
# 3 26.9617 77.9203 182.3807 -19.1553 -15.1557 -17.4173
# 4 6.8117 16.6695 -19.1553 32.5940 -6.6343 1.3587
# 5 -12.8542 -8.0379 -15.1557 -6.6343 19.5949 -1.6045
# 6 -13.0016 -9.7268 -17.4173 1.3587 -1.6045 39.1585
#
#
#
# Elastic Compliance Matrix: (Units=1/GPa)
#
#
# Indices 1 2 3 4 5 6 
#
# 1 0.041760 -0.014239 0.004118 0.006103 0.027877 0.013090
# 2 -0.014239 0.027981 -0.014010 -0.022813 -0.016742 -0.003903
# 3 0.004118 -0.014010 0.014275 0.017416 0.014237 0.004215
# 4 0.006103 -0.022813 0.017416 0.056791 0.027611 0.003267
# 5 0.027877 -0.016742 0.014237 0.027611 0.083952 0.013911
# 6 0.013090 -0.003903 0.004215 0.003267 0.013911 0.031246
#
#
# Mechanical properties :
#
#
# Convention : Reuss Voigt Hill
#
# Bulk Modulus (GPa) = 27.96901 66.44506 47.20703
# Shear Modulus (GPa) = 15.81352 30.79232 23.30292
#
# Velocity S-wave (km/s) = 2.46979 3.44641 2.99813
# Velocity P-wave (km/s) = 4.34992 6.43951 5.49496
#
# Compressibility (1/GPa) = 0.03575386
#
# Stress axis : x y z
#
# Youngs Moduli (GPa) = 23.94651 35.73807 70.05394
#
# Poissons Ratio (x) = 0.50886 -0.28845
# Poissons Ratio (y) = 0.34097 0.98145
# Poissons Ratio (z) = -0.09860 0.50069
#
# Static dielectric constant tensor:
#      x y z
#    x 2.078600 -0.033510 -0.009540 
#    y -0.033510 1.995060 0.074010 
#    z -0.009540 0.074010 2.197030 
# 
# From -- ./inp_files/476569.got.cif
#   From: 2010.05.17/outbox.cif.g08.bks.cpg/sg2_239_cif.got.tgz:476569.got - 2010.06.03 11:33:40.
