data_PCOD9112155
_publ_section_title
;
Structure prediction by ZEFSAII (Michael W. Deem and Ramdas Pophale) SiO2 
 PCOD9112155
Probable space group: P -1
;
_chemical_formula_sum "Si O2"
_cell_formula_units_Z 15
_cell_length_a 17.337578
_cell_length_b 12.553858
_cell_length_c 11.765451
_cell_angle_alpha 156.933104
_cell_angle_beta 35.157407
_cell_angle_gamma 145.199404
_cell_volume 550.112690
_symmetry_space_group_name_H-M "P -1"
_symmetry_group_IT_number 2
_symmetry_cell_setting 'triclinic'
loop_
_space_group_symop_operation_xyz
x,y,z
-x,-y,-z
loop_
_atom_site_type_symbol
_atom_site_label
_atom_site_fract_x
_atom_site_fract_y
_atom_site_fract_z
Si Si1 0.713217 0.563317 0.233285
Si Si2 0.266649 0.087011 0.674079
Si Si3 0.000000 0.000000 0.000000
Si Si4 0.009385 0.580944 0.199979
Si Si5 0.336065 0.476863 0.182302
Si Si6 0.593559 0.707273 0.739468
Si Si7 0.423840 0.842530 0.628212
Si Si8 0.895581 0.012137 0.891267
O O1 0.730681 0.792328 0.336728
O O2 0.701871 0.703562 0.506348
O O3 0.559240 0.335706 0.175170
O O4 0.837145 0.422298 0.946245
O O5 0.408466 0.002081 0.438947
O O6 0.270444 0.351969 0.017074
O O7 0.125267 0.861197 0.666531
O O8 0.982734 0.089484 0.978603
O O9 0.898611 0.312067 0.130025
O O10 0.970558 0.859479 0.559255
O O11 0.000000 0.500000 0.000000
O O12 0.350330 0.765573 0.518876
O O13 0.241476 0.232644 0.139674
O O14 0.500000 0.500000 0.000000
O O15 0.578012 0.444094 0.584412
O O16 0.632044 0.981537 0.040415
#
# Coordination Sequence:
#
# PCOD9112155 Si02
#       8
#     2   2   1   2   2   2   2   2
#     4  10  23  45  71 107 143 184 244 299 364 436
#     4   9  19  41  71 103 141 185 235 291 366 423
#     4  10  20  44  72 106 142 188 238 308 352 448
#     4  12  28  49  75 107 151 197 246 303 373 445
#     4   9  21  46  73 106 149 190 243 302 364 438
#     4  10  24  41  75 103 140 184 237 298 363 422
#     4  10  22  43  69 107 139 185 229 298 360 431
#     4  11  26  48  75 112 144 196 248 299 377 437
#
# _framework density 27.267140999999999
#
# number of rings (size 3 to 8) (size 9 to 14) (size 15 to 20)
#    0.000    1.867    1.333    0.400    3.733    7.467 
#    0.000   20.667    0.000    0.000    0.000    0.000 
#    0.000    0.000    0.000    0.000    0.000    0.000 
#
# Total GULP energy -83815.220725 kJ/mol
# GULP energy per Si atom -5587.681382 kJ/mol
# Density = 2.720508 g / cm^3
# Si number density = 27.267141 Si / 1000 Ang^3
#
#
#
# Elastic Constant Matrix: (Units=GPa)
#
#
# Indices 1 2 3 4 5 6 
#
# 1 84.6954 7.3714 11.8962 9.4674 24.5723 14.1842
# 2 7.3714 58.2126 18.2855 0.9652 -4.9823 -0.0663
# 3 11.8962 18.2855 136.9811 -2.2810 16.8452 2.6080
# 4 9.4674 0.9652 -2.2810 60.2099 -0.2967 4.6029
# 5 24.5723 -4.9823 16.8452 -0.2967 53.7961 5.8210
# 6 14.1842 -0.0663 2.6080 4.6029 5.8210 22.4994
#
#
#
# Elastic Compliance Matrix: (Units=1/GPa)
#
#
# Indices 1 2 3 4 5 6 
#
# 1 0.015378 -0.002439 -0.000108 -0.001829 -0.006398 -0.007660
# 2 -0.002439 0.018658 -0.002741 -0.000078 0.003592 0.000997
# 3 -0.000108 -0.002741 0.008017 0.000370 -0.002686 -0.000250
# 4 -0.001829 -0.000078 0.000370 0.017121 0.001096 -0.002676
# 5 -0.006398 0.003592 -0.002686 0.001096 0.022884 -0.001790
# 6 -0.007660 0.000997 -0.000250 -0.002676 -0.001790 0.050317
#
#
# Mechanical properties :
#
#
# Convention : Reuss Voigt Hill
#
# Bulk Modulus (GPa) = 31.76948 39.44392 35.60670
# Shear Modulus (GPa) = 32.58524 43.45681 38.02102
#
# Velocity S-wave (km/s) = 3.46068 3.99650 3.73820
# Velocity P-wave (km/s) = 5.25784 5.98274 5.63197
#
# Compressibility (1/GPa) = 0.03147675
#
# Stress axis : x y z
#
# Youngs Moduli (GPa) = 65.02874 53.59592 124.73918
#
# Poissons Ratio (x) = 0.13074 0.01344
# Poissons Ratio (y) = 0.15863 0.34189
# Poissons Ratio (z) = 0.00701 0.14690
#
# Static dielectric constant tensor:
#      x y z
#    x 2.152280 0.071620 -0.074970 
#    y 0.071620 2.462010 -0.180860 
#    z -0.074970 -0.180860 2.138340 
# 
# From -- ./inp_files/466790.got.cif
#   From: 2010.05.17/outbox.cif.g08.bks.cpg/sg2_234_cif.got.tgz:466790.got - 2010.06.03 11:33:40.
