data_PCOD9112012
_publ_section_title
;
Structure prediction by ZEFSAII (Michael W. Deem and Ramdas Pophale) SiO2 
 PCOD9112012
Probable space group: P -1
;
_chemical_formula_sum "Si O2"
_cell_formula_units_Z 14
_cell_length_a 9.913997
_cell_length_b 8.286103
_cell_length_c 7.476272
_cell_angle_alpha 76.583110
_cell_angle_beta 84.159105
_cell_angle_gamma 86.317868
_cell_volume 593.776686
_symmetry_space_group_name_H-M "P -1"
_symmetry_group_IT_number 2
_symmetry_cell_setting 'triclinic'
loop_
_space_group_symop_operation_xyz
x,y,z
-x,-y,-z
loop_
_atom_site_type_symbol
_atom_site_label
_atom_site_fract_x
_atom_site_fract_y
_atom_site_fract_z
Si Si1 0.016565 0.770767 0.389607
Si Si2 0.443111 0.818181 0.082493
Si Si3 0.400892 0.869030 0.468752
Si Si4 0.786992 0.378249 0.309138
Si Si5 0.836359 0.314655 0.942792
Si Si6 0.150840 0.104655 0.314381
Si Si7 0.708554 0.643618 0.998388
O O1 0.133703 0.663558 0.510087
O O2 0.038748 0.703394 0.204187
O O3 0.894031 0.774675 0.545996
O O4 0.041282 0.968434 0.318055
O O5 0.453601 0.784544 0.301356
O O6 0.285387 0.807349 0.052590
O O7 0.550147 0.695073 0.999610
O O8 0.500000 0.000000 0.000000
O O9 0.347961 0.727848 0.641734
O O10 0.500000 0.000000 0.500000
O O11 0.271637 0.984537 0.401542
O O12 0.876522 0.306496 0.148012
O O13 0.746954 0.564734 0.207243
O O14 0.756578 0.493813 0.899167
O O15 0.205716 0.203098 0.113790
#
# Coordination Sequence:
#
# PCOD9112012 Si02
#       7
#     2   2   2   2   2   2   2
#     4  10  20  44  67  83 126 169 211 255 304 365
#     4  12  20  38  64  87 126 166 201 256 313 363
#     4  11  22  39  62  93 128 160 210 256 306 376
#     4   9  22  39  58  94 123 157 211 252 300 373
#     4  10  21  39  62  87 129 164 201 256 313 362
#     4  10  21  40  65  89 121 171 207 257 310 361
#     4  10  23  37  60  95 123 164 208 250 321 366
#
# _framework density 23.577888000000002
#
# number of rings (size 3 to 8) (size 9 to 14) (size 15 to 20)
#    0.857    0.857    4.286    1.286    0.000    1.714 
#    2.571    7.857    0.000    0.000    0.000    0.000 
#    0.000    0.000    0.000    0.000    0.000    0.000 
#
# Total GULP energy -78102.943184 kJ/mol
# GULP energy per Si atom -5578.781656 kJ/mol
# Density = 2.352422 g / cm^3
# Si number density = 23.577888 Si / 1000 Ang^3
#
#
#
# Elastic Constant Matrix: (Units=GPa)
#
#
# Indices 1 2 3 4 5 6 
#
# 1 40.3077 10.8689 7.5797 -10.9527 -12.2973 -4.3083
# 2 10.8689 70.3280 14.4253 0.3657 -17.2360 -18.9233
# 3 7.5797 14.4253 119.0894 -3.7470 -19.2987 -3.3182
# 4 -10.9527 0.3657 -3.7470 56.5670 1.0066 -7.9567
# 5 -12.2973 -17.2360 -19.2987 1.0066 25.8409 8.3588
# 6 -4.3083 -18.9233 -3.3182 -7.9567 8.3588 25.2748
#
#
#
# Elastic Compliance Matrix: (Units=1/GPa)
#
#
# Indices 1 2 3 4 5 6 
#
# 1 0.031004 -0.001082 0.000610 0.006085 0.013615 0.001968
# 2 -0.001082 0.019815 -0.000618 0.001194 0.008241 0.012220
# 3 0.000610 -0.000618 0.009624 0.000422 0.007518 -0.001448
# 4 0.006085 0.001194 0.000422 0.020002 0.000614 0.008080
# 5 0.013615 0.008241 0.007518 0.000614 0.059502 -0.010007
# 6 0.001968 0.012220 -0.001448 0.008080 -0.010007 0.054713
#
#
# Mechanical properties :
#
#
# Convention : Reuss Voigt Hill
#
# Bulk Modulus (GPa) = 17.16345 32.83031 24.99688
# Shear Modulus (GPa) = 23.12033 34.65994 28.89014
#
# Velocity S-wave (km/s) = 3.13484 3.83824 3.50424
# Velocity P-wave (km/s) = 4.51644 5.79631 5.19593
#
# Compressibility (1/GPa) = 0.05826333
#
# Stress axis : x y z
#
# Youngs Moduli (GPa) = 32.25427 50.46796 103.90367
#
# Poissons Ratio (x) = 0.05461 -0.06342
# Poissons Ratio (y) = 0.03490 0.06419
# Poissons Ratio (z) = -0.01969 0.03118
#
# Static dielectric constant tensor:
#      x y z
#    x 1.956960 0.066960 -0.020550 
#    y 0.066960 1.930570 0.015200 
#    z -0.020550 0.015200 1.902040 
# 
# From -- ./inp_files/202760.got.cif
#   From: 2010.05.17/outbox.cif.g08.bks.cpg/sg2_102_cif.got.tgz:202760.got - 2010.06.03 11:33:40.
