data_PCOD9112848
_publ_section_title
;
Structure prediction by ZEFSAII (Michael W. Deem and Ramdas Pophale) SiO2 
 PCOD9112848
Probable space group: P 2
;
_chemical_formula_sum "Si O2"
_cell_formula_units_Z 15
_cell_length_a 9.100383
_cell_length_b 5.080878
_cell_length_c 15.958539
_cell_angle_alpha 90.000000
_cell_angle_beta 52.284595
_cell_angle_gamma 90.000000
_cell_volume 583.714510
_symmetry_space_group_name_H-M "P 2"
_symmetry_group_IT_number 3
_symmetry_cell_setting 'monoclinic'
loop_
_space_group_symop_operation_xyz
x,y,z
-x,y,-z
loop_
_atom_site_type_symbol
_atom_site_label
_atom_site_fract_x
_atom_site_fract_y
_atom_site_fract_z
Si Si1 0.051787 0.950210 0.307358
Si Si2 0.990882 0.277213 0.821150
Si Si3 0.565861 0.378495 0.189507
Si Si4 0.359131 0.478232 0.427746
Si Si5 0.174077 0.887441 0.883981
Si Si6 0.723698 0.582262 0.369148
Si Si7 0.000000 0.796169 0.500000
Si Si8 0.336610 0.571319 0.113665
O O1 0.066453 0.970351 0.400164
O O2 0.211287 0.781887 0.206552
O O3 0.856508 0.806604 0.357175
O O4 0.050792 0.222774 0.261769
O O5 0.798952 0.422811 0.906935
O O6 0.061215 0.017812 0.843652
O O7 0.168192 0.460301 0.747765
O O8 0.447692 0.326593 0.317369
O O9 0.714674 0.146791 0.124624
O O10 0.434811 0.403678 0.153466
O O11 0.672909 0.657224 0.164143
O O12 0.527200 0.670916 0.399521
O O13 0.307890 0.381599 0.540632
O O14 0.175224 0.616700 0.460286
O O15 0.000000 0.796013 0.000000
O O16 0.500000 0.692848 0.000000
#
# Coordination Sequence:
#
# PCOD9112848 Si02
#       8
#     2   2   2   2   2   2   1   2
#     4  10  22  41  66  96 138 185 239 295 365 439
#     4  11  24  44  68 101 139 195 246 299 368 446
#     4  12  26  48  73 112 146 194 245 311 366 437
#     4  10  19  41  67  96 141 178 240 286 365 427
#     4  12  28  48  79 107 148 193 253 305 368 440
#     4   9  20  41  64  96 133 184 234 292 357 433
#     4  10  20  40  66 102 134 188 226 304 360 440
#     4  11  26  44  70 101 148 189 243 305 376 440
#
# _framework density 25.697490999999999
#
# number of rings (size 3 to 8) (size 9 to 14) (size 15 to 20)
#    0.000    1.333    2.667    2.000    5.600    0.533 
#    7.200    2.667    0.000    0.000    0.000    0.000 
#    0.000    0.000    0.000    0.000    0.000    0.000 
#
# Total GULP energy -83706.234349 kJ/mol
# GULP energy per Si atom -5580.415623 kJ/mol
# Density = 2.563900 g / cm^3
# Si number density = 25.697491 Si / 1000 Ang^3
#
#
#
# Elastic Constant Matrix: (Units=GPa)
#
#
# Indices 1 2 3 4 5 6 
#
# 1 153.2996 24.0796 47.2312 0.0000 -16.9580 0.0000
# 2 24.0796 70.3948 3.2579 0.0000 -14.2847 0.0000
# 3 47.2312 3.2579 94.5063 0.0000 -24.9713 0.0000
# 4 0.0000 0.0000 0.0000 13.1138 0.0000 -5.3682
# 5 -16.9580 -14.2847 -24.9713 0.0000 43.4048 0.0000
# 6 0.0000 0.0000 0.0000 -5.3682 0.0000 24.7326
#
#
#
# Elastic Compliance Matrix: (Units=1/GPa)
#
#
# Indices 1 2 3 4 5 6 
#
# 1 0.008162 -0.002599 -0.003977 0.000000 0.000045 0.000000
# 2 -0.002599 0.016121 0.002213 0.000000 0.005563 0.000000
# 3 -0.003977 0.002213 0.014475 0.000000 0.007502 0.000000
# 4 0.000000 0.000000 0.000000 0.083691 0.000000 0.018165
# 5 0.000045 0.005563 0.007502 0.000000 0.029204 0.000000
# 6 0.000000 0.000000 0.000000 0.018165 0.000000 0.044375
#
#
# Mechanical properties :
#
#
# Convention : Reuss Voigt Hill
#
# Bulk Modulus (GPa) = 33.29812 51.92646 42.61229
# Shear Modulus (GPa) = 23.28129 32.49238 27.88684
#
# Velocity S-wave (km/s) = 3.01321 3.55972 3.29781
# Velocity P-wave (km/s) = 5.00917 6.09477 5.57844
#
# Compressibility (1/GPa) = 0.03003173
#
# Stress axis : x y z
#
# Youngs Moduli (GPa) = 122.52184 62.03078 69.08420
#
# Poissons Ratio (x) = 0.16119 0.27478
# Poissons Ratio (y) = 0.31839 -0.15288
# Poissons Ratio (z) = 0.48733 -0.13727
#
# Static dielectric constant tensor:
#      x y z
#    x 2.103260 0.000000 -0.024500 
#    y 0.000000 1.969300 0.000000 
#    z -0.024500 0.000000 2.197320 
# 
# From -- ./inp_files/14853.got.cif
#   From: 2010.05.17/outbox.cif.g08.bks.cpg/sg3_8_cif.got.tgz:14853.got - 2010.06.03 18:33:08.
