data_PCOD9112274
_publ_section_title
;
Structure prediction by ZEFSAII (Michael W. Deem and Ramdas Pophale) SiO2 
 PCOD9112274
Probable space group: P -1
;
_chemical_formula_sum "Si O2"
_cell_formula_units_Z 14
_cell_length_a 11.490354
_cell_length_b 9.216791
_cell_length_c 14.002636
_cell_angle_alpha 126.725576
_cell_angle_beta 129.458702
_cell_angle_gamma 29.327022
_cell_volume 556.996334
_symmetry_space_group_name_H-M "P -1"
_symmetry_group_IT_number 2
_symmetry_cell_setting 'triclinic'
loop_
_space_group_symop_operation_xyz
x,y,z
-x,-y,-z
loop_
_atom_site_type_symbol
_atom_site_label
_atom_site_fract_x
_atom_site_fract_y
_atom_site_fract_z
Si Si1 0.623093 0.816953 0.892781
Si Si2 0.863383 0.865059 0.311977
Si Si3 0.640569 0.730432 0.348037
Si Si4 0.149114 0.216827 0.175889
Si Si5 0.763608 0.338756 0.099874
Si Si6 0.061210 0.836826 0.212554
Si Si7 0.105317 0.125603 0.455495
O O1 0.802831 0.475714 0.871004
O O2 0.417263 0.931544 0.761209
O O3 0.258845 0.141485 0.096493
O O4 0.500000 0.000000 0.000000
O O5 0.030545 0.525745 0.256512
O O6 0.909674 0.931715 0.266299
O O7 0.901723 0.918038 0.454519
O O8 0.722327 0.564444 0.225240
O O9 0.822131 0.448190 0.403764
O O10 0.725394 0.855966 0.455931
O O11 0.344750 0.998895 0.279811
O O12 0.955746 0.234910 0.081844
O O13 0.500000 0.500000 0.000000
O O14 0.893419 0.082654 0.141117
O O15 0.216539 0.860479 0.343079
#
# Coordination Sequence:
#
# PCOD9112274 Si02
#       7
#     2   2   2   2   2   2   2
#     4  11  26  49  73 105 154 201 259 310 373 457
#     4  11  23  45  71 110 152 200 252 308 374 449
#     4  10  22  43  72 112 153 196 248 309 377 447
#     4  11  23  46  76 109 142 210 252 300 398 437
#     4  11  25  48  74 111 156 191 257 318 377 458
#     4  10  26  45  73 113 145 202 246 317 386 426
#     4  10  20  45  73 112 155 192 258 308 365 460
#
# _framework density 25.134816000000001
#
# number of rings (size 3 to 8) (size 9 to 14) (size 15 to 20)
#    0.000    1.429    2.857    0.429    0.000    9.714 
#    2.571    2.857    0.000    2.571    0.000    0.000 
#    0.000    0.143    0.000    0.000    0.000    0.000 
#
# Total GULP energy -78278.275971 kJ/mol
# GULP energy per Si atom -5591.305427 kJ/mol
# Density = 2.507761 g / cm^3
# Si number density = 25.134816 Si / 1000 Ang^3
#
#
#
# Elastic Constant Matrix: (Units=GPa)
#
#
# Indices 1 2 3 4 5 6 
#
# 1 161.8705 52.9242 85.0727 -10.3142 0.1983 10.1662
# 2 52.9242 73.0262 45.7174 -15.9258 -3.8853 14.9464
# 3 85.0727 45.7174 162.1278 -1.9073 -2.7454 2.6366
# 4 -10.3142 -15.9258 -1.9073 44.4032 7.9574 9.4082
# 5 0.1983 -3.8853 -2.7454 7.9574 43.2967 -4.2179
# 6 10.1662 14.9464 2.6366 9.4082 -4.2179 27.6222
#
#
#
# Elastic Compliance Matrix: (Units=1/GPa)
#
#
# Indices 1 2 3 4 5 6 
#
# 1 0.009761 -0.004093 -0.003947 0.001141 -0.001022 -0.001546
# 2 -0.004093 0.025229 -0.004601 0.011573 -0.001685 -0.015905
# 3 -0.003947 -0.004601 0.009447 -0.003305 0.001236 0.004355
# 4 0.001141 0.011573 -0.003305 0.031887 -0.006816 -0.018268
# 5 -0.001022 -0.001685 0.001236 -0.006816 0.024993 0.007308
# 6 -0.001546 -0.015905 0.004355 -0.018268 0.007308 0.052300
#
#
# Mechanical properties :
#
#
# Convention : Reuss Voigt Hill
#
# Bulk Modulus (GPa) = 52.19658 84.93925 68.56792
# Shear Modulus (GPa) = 26.98566 37.28509 32.13538
#
# Velocity S-wave (km/s) = 3.28019 3.85568 3.57952
# Velocity P-wave (km/s) = 5.92941 7.32724 6.66507
#
# Compressibility (1/GPa) = 0.01915834
#
# Stress axis : x y z
#
# Youngs Moduli (GPa) = 102.44758 39.63636 105.84967
#
# Poissons Ratio (x) = 0.16222 0.41775
# Poissons Ratio (y) = 0.41928 0.48696
# Poissons Ratio (z) = 0.40432 0.18235
#
# Static dielectric constant tensor:
#      x y z
#    x 2.097560 -0.085340 0.037330 
#    y -0.085340 2.109990 0.035930 
#    z 0.037330 0.035930 1.978030 
# 
# From -- ./inp_files/516141.got.cif
#   From: 2010.05.17/outbox.cif.g08.bks.cpg/sg2_259_cif.got.tgz:516141.got - 2010.06.03 11:33:40.
