data_PCOD9112309
_publ_section_title
;
Structure prediction by ZEFSAII (Michael W. Deem and Ramdas Pophale) SiO2 
 PCOD9112309
Probable space group: P -1
;
_chemical_formula_sum "Si O2"
_cell_formula_units_Z 12
_cell_length_a 8.823949
_cell_length_b 5.181091
_cell_length_c 10.316253
_cell_angle_alpha 86.328172
_cell_angle_beta 94.049286
_cell_angle_gamma 107.220137
_cell_volume 448.908481
_symmetry_space_group_name_H-M "P -1"
_symmetry_group_IT_number 2
_symmetry_cell_setting 'triclinic'
loop_
_space_group_symop_operation_xyz
x,y,z
-x,-y,-z
loop_
_atom_site_type_symbol
_atom_site_label
_atom_site_fract_x
_atom_site_fract_y
_atom_site_fract_z
Si Si1 0.286675 0.107760 0.302622
Si Si2 0.317967 0.263803 0.582295
Si Si3 0.262083 0.624277 0.970591
Si Si4 0.515094 0.601320 0.168009
Si Si5 0.010644 0.190585 0.119968
Si Si6 0.828117 0.294735 0.487983
O O1 0.361881 0.269292 0.433539
O O2 0.405725 0.290401 0.198284
O O3 0.111433 0.110108 0.243592
O O4 0.246404 0.805430 0.370907
O O5 0.437404 0.240408 0.700913
O O6 0.271562 0.534999 0.594996
O O7 0.177948 0.981128 0.577162
O O8 0.414332 0.742774 0.067422
O O9 0.129673 0.476833 0.072399
O O10 0.326954 0.423573 0.892259
O O11 0.166448 0.784167 0.874622
O O12 0.000000 0.000000 0.000000
O O13 0.000000 0.500000 0.500000
#
# Coordination Sequence:
#
# PCOD9112309 Si02
#       6
#     2   2   2   2   2   2
#     4   9  23  40  70 104 148 186 245 298 363 436
#     4  10  23  43  71 107 144 192 237 301 365 438
#     4   9  22  43  72  98 149 184 247 295 358 437
#     4  10  20  46  67 113 143 196 234 298 371 436
#     4  10  21  44  67 104 134 194 242 301 356 428
#     4  10  23  44  67 105 145 191 242 297 363 428
#
# _framework density 26.731508999999999
#
# number of rings (size 3 to 8) (size 9 to 14) (size 15 to 20)
#    1.000    1.333    0.000    1.000    0.000    7.333 
#    9.000    4.167    0.000    0.000    0.000    0.000 
#    0.000    0.000    0.000    0.000    0.000    0.000 
#
# Total GULP energy -66944.526970 kJ/mol
# GULP energy per Si atom -5578.710581 kJ/mol
# Density = 2.667067 g / cm^3
# Si number density = 26.731509 Si / 1000 Ang^3
#
#
#
# Elastic Constant Matrix: (Units=GPa)
#
#
# Indices 1 2 3 4 5 6 
#
# 1 157.6227 32.9539 55.9043 2.0686 31.6286 0.1634
# 2 32.9539 125.7472 25.3100 -23.4852 1.8317 12.6593
# 3 55.9043 25.3100 144.1753 4.3186 34.6911 11.1914
# 4 2.0686 -23.4852 4.3186 34.2774 6.4453 -4.1588
# 5 31.6286 1.8317 34.6911 6.4453 43.1314 -7.7379
# 6 0.1634 12.6593 11.1914 -4.1588 -7.7379 19.9326
#
#
#
# Elastic Compliance Matrix: (Units=1/GPa)
#
#
# Indices 1 2 3 4 5 6 
#
# 1 0.008273 -0.001903 -0.001833 -0.000715 -0.004345 0.000334
# 2 -0.001903 0.010377 -0.000866 0.006798 -0.000218 -0.004755
# 3 -0.001833 -0.000866 0.010593 -0.001297 -0.008555 -0.008974
# 4 -0.000715 0.006798 -0.001297 0.034986 -0.003528 0.002347
# 5 -0.004345 -0.000218 -0.008555 -0.003528 0.037136 0.018657
# 6 0.000334 -0.004755 -0.008974 0.002347 0.018657 0.065957
#
#
# Mechanical properties :
#
#
# Convention : Reuss Voigt Hill
#
# Bulk Modulus (GPa) = 49.90264 72.87574 61.38919
# Shear Modulus (GPa) = 27.29181 40.36008 33.82595
#
# Velocity S-wave (km/s) = 3.19871 3.88987 3.56110
# Velocity P-wave (km/s) = 5.68779 6.89174 6.31851
#
# Compressibility (1/GPa) = 0.02003902
#
# Stress axis : x y z
#
# Youngs Moduli (GPa) = 120.87391 96.36806 94.40439
#
# Poissons Ratio (x) = 0.18339 0.17303
# Poissons Ratio (y) = 0.23002 0.08175
# Poissons Ratio (z) = 0.22155 0.08345
#
# Static dielectric constant tensor:
#      x y z
#    x 2.160410 -0.024830 -0.053350 
#    y -0.024830 2.161530 0.010640 
#    z -0.053350 0.010640 2.150150 
# 
# From -- ./inp_files/372574.got.cif
#   From: 2010.05.17/outbox.cif.g08.bks.cpg/sg2_187_cif.got.tgz:372574.got - 2010.06.03 11:33:40.
