data_PCOD9112997
_publ_section_title
;
Structure prediction by ZEFSAII (Michael W. Deem and Ramdas Pophale) SiO2 
 PCOD9112997
Probable space group: P 2
;
_chemical_formula_sum "Si O2"
_cell_formula_units_Z 15
_cell_length_a 4.985616
_cell_length_b 11.055524
_cell_length_c 16.272298
_cell_angle_alpha 90.000000
_cell_angle_beta 122.392383
_cell_angle_gamma 90.000000
_cell_volume 757.346869
_symmetry_space_group_name_H-M "P 2"
_symmetry_group_IT_number 3
_symmetry_cell_setting 'monoclinic'
loop_
_space_group_symop_operation_xyz
x,y,z
-x,y,-z
loop_
_atom_site_type_symbol
_atom_site_label
_atom_site_fract_x
_atom_site_fract_y
_atom_site_fract_z
Si Si1 0.714827 0.047890 0.267543
Si Si2 0.632397 0.450698 0.613887
Si Si3 0.282324 0.580175 0.700200
Si Si4 0.375654 0.171461 0.345452
Si Si5 0.657139 0.874152 0.110294
Si Si6 0.500000 0.005888 0.500000
Si Si7 0.952958 0.833819 0.395226
Si Si8 0.836215 0.698191 0.889369
O O1 0.443436 0.131872 0.262902
O O2 0.031360 0.129961 0.322155
O O3 0.736772 0.986862 0.181389
O O4 0.691305 0.929438 0.322952
O O5 0.500000 0.462636 0.500000
O O6 0.421758 0.536136 0.636750
O O7 0.587533 0.313177 0.635538
O O8 0.002547 0.489738 0.681532
O O9 0.107538 0.708553 0.658598
O O10 0.594717 0.604006 0.807267
O O11 0.608982 0.096162 0.445428
O O12 0.383918 0.804675 0.113646
O O13 0.916924 0.769439 0.130029
O O14 0.500000 0.917187 0.000000
O O15 0.741497 0.911165 0.580470
O O16 0.000000 0.817024 0.500000
O O17 0.000000 0.648288 0.000000
#
# Coordination Sequence:
#
# PCOD9112997 Si02
#       8
#     2   2   2   2   2   1   2   2
#     4  11  22  36  63  93 123 161 210 264 307 378
#     4  12  26  45  60  88 129 182 221 257 302 375
#     4  12  26  39  64  92 131 166 214 269 318 382
#     4  11  23  41  62  82 124 174 223 249 295 368
#     4  10  20  37  63  96 133 162 198 261 340 400
#     4  10  22  38  58  86 124 170 208 252 300 370
#     4  11  22  34  57  90 130 159 199 249 327 368
#     4  10  21  40  64  93 128 168 207 260 331 402
#
# _framework density 19.805982
#
# number of rings (size 3 to 8) (size 9 to 14) (size 15 to 20)
#    0.000    1.067    3.333    3.600    2.800    0.000 
#    0.000    0.000    0.000    3.200    0.000    0.000 
#    0.000    0.000    0.000    0.000    0.000    0.000 
#
# Total GULP energy -83583.821496 kJ/mol
# GULP energy per Si atom -5572.254766 kJ/mol
# Density = 1.976090 g / cm^3
# Si number density = 19.805982 Si / 1000 Ang^3
#
#
#
# Elastic Constant Matrix: (Units=GPa)
#
#
# Indices 1 2 3 4 5 6 
#
# 1 65.8388 16.9363 8.1166 0.0000 5.2751 0.0000
# 2 16.9363 101.0847 48.1584 0.0000 2.8763 0.0000
# 3 8.1166 48.1584 95.7921 0.0000 -2.5690 0.0000
# 4 0.0000 0.0000 0.0000 14.2656 0.0000 -3.9568
# 5 5.2751 2.8763 -2.5690 0.0000 24.2688 0.0000
# 6 0.0000 0.0000 0.0000 -3.9568 0.0000 27.8649
#
#
#
# Elastic Compliance Matrix: (Units=1/GPa)
#
#
# Indices 1 2 3 4 5 6 
#
# 1 0.016118 -0.002521 -0.000185 0.000000 -0.003224 0.000000
# 2 -0.002521 0.013525 -0.006633 0.000000 -0.001757 0.000000
# 3 -0.000185 -0.006633 0.013851 0.000000 0.002293 0.000000
# 4 0.000000 0.000000 0.000000 0.072973 0.000000 0.010362
# 5 -0.003224 -0.001757 0.002293 0.000000 0.042357 0.000000
# 6 0.000000 0.000000 0.000000 0.010362 0.000000 0.037359
#
#
# Mechanical properties :
#
#
# Convention : Reuss Voigt Hill
#
# Bulk Modulus (GPa) = 40.29506 45.45980 42.87743
# Shear Modulus (GPa) = 22.40814 25.91347 24.16081
#
# Velocity S-wave (km/s) = 3.36725 3.62106 3.49646
# Velocity P-wave (km/s) = 5.95877 6.36279 6.16409
#
# Compressibility (1/GPa) = 0.02481694
#
# Stress axis : x y z
#
# Youngs Moduli (GPa) = 62.04181 73.93610 72.19592
#
# Poissons Ratio (x) = 0.18637 0.01335
# Poissons Ratio (y) = 0.15639 0.47889
# Poissons Ratio (z) = 0.01147 0.49043
#
# Static dielectric constant tensor:
#      x y z
#    x 1.762610 0.000000 0.007760 
#    y 0.000000 1.671890 0.000000 
#    z 0.007760 0.000000 1.910490 
# 
# From -- ./inp_files/14708.got.cif
#   From: 2010.05.17/outbox.cif.g08.bks.cpg/sg3_8_cif.got.tgz:14708.got - 2010.06.03 18:33:08.
