data_PCOD9112598
_publ_section_title
;
Structure prediction by ZEFSAII (Michael W. Deem and Ramdas Pophale) SiO2 
 PCOD9112598
Probable space group: P 2
;
_chemical_formula_sum "Si O2"
_cell_formula_units_Z 15
_cell_length_a 24.944864
_cell_length_b 6.566586
_cell_length_c 7.965753
_cell_angle_alpha 90.000000
_cell_angle_beta 28.198497
_cell_angle_gamma 90.000000
_cell_volume 616.559275
_symmetry_space_group_name_H-M "P 2"
_symmetry_group_IT_number 3
_symmetry_cell_setting 'monoclinic'
loop_
_space_group_symop_operation_xyz
x,y,z
-x,y,-z
loop_
_atom_site_type_symbol
_atom_site_label
_atom_site_fract_x
_atom_site_fract_y
_atom_site_fract_z
Si Si1 0.500000 0.754500 0.500000
Si Si2 0.507371 0.441756 0.209530
Si Si3 0.853392 0.264692 0.531157
Si Si4 0.657902 0.064146 0.869773
Si Si5 0.688887 0.747867 0.548555
Si Si6 0.906690 0.651424 0.147522
Si Si7 0.733194 0.394121 0.212628
Si Si8 0.056886 0.302554 0.168590
O O1 0.452669 0.599335 0.492559
O O2 0.405267 0.896384 0.842283
O O3 0.398725 0.334752 0.427269
O O4 0.586785 0.272522 0.071695
O O5 0.591269 0.590493 0.875262
O O6 0.777140 0.115488 0.630171
O O7 0.868180 0.463237 0.372754
O O8 0.978627 0.190947 0.247316
O O9 0.788758 0.329247 0.882324
O O10 0.647044 0.972886 0.709377
O O11 0.794889 0.748973 0.384003
O O12 0.732850 0.638738 0.257972
O O13 0.962461 0.537561 0.833253
O O14 0.000000 0.764402 0.000000
O O15 0.809493 0.297693 0.154340
O O16 0.000000 0.250620 0.500000
#
# Coordination Sequence:
#
# PCOD9112598 Si02
#       8
#     1   2   2   2   2   2   2   2
#     4  10  22  36  60  96 134 168 230 284 328 406
#     4  11  21  38  62  90 132 181 219 273 343 402
#     4  10  18  35  65  95 125 171 225 277 334 399
#     4  11  22  38  64 100 129 171 232 283 337 403
#     4  10  22  39  59  92 130 168 222 279 338 401
#     4   9  17  34  62  90 121 173 223 270 333 400
#     4  10  20  36  63  92 127 178 217 265 343 403
#     4   8  17  33  59  97 120 167 225 267 330 407
#
# _framework density 24.328562999999999
#
# number of rings (size 3 to 8) (size 9 to 14) (size 15 to 20)
#    0.000    2.133    1.333    2.400    1.867    0.000 
#    0.000    8.667    0.000    0.000    6.933    0.000 
#    0.000    0.000    0.000    0.000    0.000    0.000 
#
# Total GULP energy -83573.124437 kJ/mol
# GULP energy per Si atom -5571.541629 kJ/mol
# Density = 2.427319 g / cm^3
# Si number density = 24.328563 Si / 1000 Ang^3
#
#
#
# Elastic Constant Matrix: (Units=GPa)
#
#
# Indices 1 2 3 4 5 6 
#
# 1 140.5856 35.6913 41.8372 0.0000 -32.5709 0.0000
# 2 35.6913 91.0596 33.1290 0.0000 6.5018 0.0000
# 3 41.8372 33.1290 77.2764 0.0000 -30.4503 0.0000
# 4 0.0000 0.0000 0.0000 24.3866 0.0000 3.9429
# 5 -32.5709 6.5018 -30.4503 0.0000 60.7886 0.0000
# 6 0.0000 0.0000 0.0000 3.9429 0.0000 30.2600
#
#
#
# Elastic Compliance Matrix: (Units=1/GPa)
#
#
# Indices 1 2 3 4 5 6 
#
# 1 0.009602 -0.003367 -0.001976 0.000000 0.004515 0.000000
# 2 -0.003367 0.015670 -0.007807 0.000000 -0.007391 0.000000
# 3 -0.001976 -0.007807 0.021516 0.000000 0.010554 0.000000
# 4 0.000000 0.000000 0.000000 0.041889 0.000000 -0.005458
# 5 0.004515 -0.007391 0.010554 0.000000 0.024947 0.000000
# 6 0.000000 0.000000 0.000000 -0.005458 0.000000 0.033758
#
#
# Mechanical properties :
#
#
# Convention : Reuss Voigt Hill
#
# Bulk Modulus (GPa) = 48.80974 58.91519 53.86246
# Shear Modulus (GPa) = 27.69920 36.30464 32.00192
#
# Velocity S-wave (km/s) = 3.37790 3.86717 3.63079
# Velocity P-wave (km/s) = 5.94305 6.64899 6.30591
#
# Compressibility (1/GPa) = 0.02048771
#
# Stress axis : x y z
#
# Youngs Moduli (GPa) = 104.14492 63.81774 46.47706
#
# Poissons Ratio (x) = 0.21488 0.09183
# Poissons Ratio (y) = 0.35067 0.36285
# Poissons Ratio (z) = 0.20577 0.49823
#
# Static dielectric constant tensor:
#      x y z
#    x 2.006150 0.000000 0.027830 
#    y 0.000000 1.916530 0.000000 
#    z 0.027830 0.000000 2.038250 
# 
# From -- ./inp_files/9612.got.cif
#   From: 2010.05.17/outbox.cif.g08.bks.cpg/sg3_5_cif.got.tgz:9612.got - 2010.06.03 18:33:08.
