data_PCOD9112957
_publ_section_title
;
Structure prediction by ZEFSAII (Michael W. Deem and Ramdas Pophale) SiO2 
 PCOD9112957
Probable space group: P 2
;
_chemical_formula_sum "Si O2"
_cell_formula_units_Z 16
_cell_length_a 18.175060
_cell_length_b 5.896601
_cell_length_c 7.047568
_cell_angle_alpha 90.000000
_cell_angle_beta 56.416334
_cell_angle_gamma 90.000000
_cell_volume 629.220757
_symmetry_space_group_name_H-M "P 2"
_symmetry_group_IT_number 3
_symmetry_cell_setting 'monoclinic'
loop_
_space_group_symop_operation_xyz
x,y,z
-x,y,-z
loop_
_atom_site_type_symbol
_atom_site_label
_atom_site_fract_x
_atom_site_fract_y
_atom_site_fract_z
Si Si1 0.596827 0.502690 0.400838
Si Si2 0.315182 0.194284 0.407550
Si Si3 0.966508 0.534247 0.328491
Si Si4 0.172346 0.028682 0.877823
Si Si5 0.163778 0.532914 0.028929
Si Si6 0.288199 0.540868 0.142934
Si Si7 0.025626 0.032516 0.690122
Si Si8 0.584240 0.789832 0.766408
O O1 0.500000 0.400443 0.500000
O O2 0.655064 0.363320 0.467735
O O3 0.579436 0.724426 0.553534
O O4 0.649666 0.542191 0.131723
O O5 0.290932 0.304447 0.244851
O O6 0.403849 0.055197 0.244729
O O7 0.230267 0.065236 0.608133
O O8 0.064413 0.531005 0.093603
O O9 0.929390 0.786245 0.337233
O O10 0.000000 0.533178 0.500000
O O11 0.929792 0.280591 0.339745
O O12 0.193194 0.269223 0.958463
O O13 0.201233 0.772169 0.895007
O O14 0.066546 0.025970 0.060721
O O15 0.188605 0.576600 0.214071
O O16 0.330278 0.704424 0.239045
O O17 0.000000 0.031638 0.500000
O O18 0.500000 0.701002 0.000000
#
# Coordination Sequence:
#
# PCOD9112957 Si02
#       8
#     2   2   2   2   2   2   2   2
#     4  11  23  43  62  83 118 156 206 267 316 380
#     4  11  26  38  61  89 124 158 212 264 323 380
#     4   8  14  26  48  83 118 147 198 251 293 358
#     4  10  20  37  59  89 127 159 206 260 308 371
#     4  10  20  36  61  87 125 162 206 256 309 374
#     4  11  24  41  61  86 123 160 210 257 322 376
#     4   8  14  26  49  82 118 150 198 249 295 359
#     4  11  25  41  60  88 119 161 211 265 324 381
#
# _framework density 25.428277999999999
#
# number of rings (size 3 to 8) (size 9 to 14) (size 15 to 20)
#    0.000    2.000    2.500    0.750    5.250    1.500 
#    0.000    0.000    0.000    0.000    0.000   14.000 
#    0.000    0.000    0.000    0.000    0.000    0.000 
#
# Total GULP energy -89110.569465 kJ/mol
# GULP energy per Si atom -5569.410592 kJ/mol
# Density = 2.537040 g / cm^3
# Si number density = 25.428278 Si / 1000 Ang^3
#
#
#
# Elastic Constant Matrix: (Units=GPa)
#
#
# Indices 1 2 3 4 5 6 
#
# 1 101.5059 12.3269 36.8365 0.0000 7.0690 0.0000
# 2 12.3269 181.0326 50.6103 0.0000 4.7113 0.0000
# 3 36.8365 50.6103 125.5279 0.0000 7.9952 0.0000
# 4 0.0000 0.0000 0.0000 30.5201 0.0000 2.3654
# 5 7.0690 4.7113 7.9952 0.0000 31.5034 0.0000
# 6 0.0000 0.0000 0.0000 2.3654 0.0000 15.6545
#
#
#
# Elastic Compliance Matrix: (Units=1/GPa)
#
#
# Indices 1 2 3 4 5 6 
#
# 1 0.011120 0.000191 -0.003231 0.000000 -0.001704 0.000000
# 2 0.000191 0.006232 -0.002547 0.000000 -0.000328 0.000000
# 3 -0.003231 -0.002547 0.010033 0.000000 -0.001440 0.000000
# 4 0.000000 0.000000 0.000000 0.033154 0.000000 -0.005010
# 5 -0.001704 -0.000328 -0.001440 0.000000 0.032539 0.000000
# 6 0.000000 0.000000 0.000000 -0.005010 0.000000 0.064636
#
#
# Mechanical properties :
#
#
# Convention : Reuss Voigt Hill
#
# Bulk Modulus (GPa) = 61.69735 67.51264 64.60500
# Shear Modulus (GPa) = 28.68723 36.08846 32.38784
#
# Velocity S-wave (km/s) = 3.36246 3.77135 3.57276
# Velocity P-wave (km/s) = 6.27621 6.75070 6.51777
#
# Compressibility (1/GPa) = 0.01620815
#
# Stress axis : x y z
#
# Youngs Moduli (GPa) = 89.92930 160.47203 99.66638
#
# Poissons Ratio (x) = -0.03058 0.32207
# Poissons Ratio (y) = -0.01714 0.25390
# Poissons Ratio (z) = 0.29060 0.40880
#
# Static dielectric constant tensor:
#      x y z
#    x 2.072520 0.000000 -0.079300 
#    y 0.000000 2.075560 0.000000 
#    z -0.079300 0.000000 2.094910 
# 
# From -- ./inp_files/3972.got.cif
#   From: 2010.05.17/outbox.cif.g08.bks.cpg/sg3_2_cif.got.tgz:3972.got - 2010.06.03 18:33:08.
