data_PCOD9112242
_publ_section_title
;
Structure prediction by ZEFSAII (Michael W. Deem and Ramdas Pophale) SiO2 
 PCOD9112242
Probable space group: P -1
;
_chemical_formula_sum "Si O2"
_cell_formula_units_Z 16
_cell_length_a 12.657621
_cell_length_b 12.233268
_cell_length_c 22.791281
_cell_angle_alpha 27.716050
_cell_angle_beta 152.069493
_cell_angle_gamma 143.722251
_cell_volume 764.122313
_symmetry_space_group_name_H-M "P -1"
_symmetry_group_IT_number 2
_symmetry_cell_setting 'triclinic'
loop_
_space_group_symop_operation_xyz
x,y,z
-x,-y,-z
loop_
_atom_site_type_symbol
_atom_site_label
_atom_site_fract_x
_atom_site_fract_y
_atom_site_fract_z
Si Si1 0.103242 0.750704 0.663161
Si Si2 0.330930 0.039640 0.844194
Si Si3 0.377328 0.580816 0.632959
Si Si4 0.761194 0.072791 0.692644
Si Si5 0.092300 0.250237 0.170067
Si Si6 0.529175 0.271426 0.045685
Si Si7 0.374268 0.694006 0.708341
Si Si8 0.985337 0.768181 0.143369
O O1 0.315834 0.756485 0.808849
O O2 0.181639 0.725847 0.645955
O O3 0.971359 0.490840 0.737229
O O4 0.000000 0.000000 0.500000
O O5 0.342119 0.320598 0.712568
O O6 0.420005 0.917118 0.888676
O O7 0.078687 0.913678 0.794477
O O8 0.500000 0.000000 0.000000
O O9 0.243021 0.747402 0.448304
O O10 0.642623 0.693055 0.709465
O O11 0.302421 0.577259 0.666136
O O12 0.853137 0.184087 0.744564
O O13 0.910596 0.876064 0.834588
O O14 0.510438 0.944629 0.641429
O O15 0.000000 0.500000 0.000000
O O16 0.551065 0.529930 0.902885
O O17 0.271061 0.249682 0.950239
O O18 0.000000 0.000000 0.000000
#
# Coordination Sequence:
#
# PCOD9112242 Si02
#       8
#     2   2   2   2   2   2   2   2
#     4  11  26  44  68 100 130 175 231 286 344 390
#     4  12  22  41  67 103 138 173 226 278 329 407
#     4  11  25  42  65 103 142 177 216 279 345 401
#     4  11  24  42  66 101 131 173 224 278 338 399
#     4  11  22  39  66  98 138 180 223 267 337 407
#     4  11  23  43  69  94 134 177 225 273 335 416
#     4  10  20  45  68  89 138 180 214 272 336 411
#     4  11  24  47  71  94 127 183 234 273 338 415
#
# _framework density 20.939056999999998
#
# number of rings (size 3 to 8) (size 9 to 14) (size 15 to 20)
#    0.000    1.000    2.500    6.000    3.500    2.500 
#    4.500    1.250    0.000    0.000    0.000    0.000 
#    0.000    0.000    0.000    0.000    0.000    0.000 
#
# Total GULP energy -89398.831118 kJ/mol
# GULP energy per Si atom -5587.426945 kJ/mol
# Density = 2.089140 g / cm^3
# Si number density = 20.939057 Si / 1000 Ang^3
#
#
#
# Elastic Constant Matrix: (Units=GPa)
#
#
# Indices 1 2 3 4 5 6 
#
# 1 84.7880 32.8757 39.2570 -16.5671 0.0461 -7.4018
# 2 32.8757 100.2153 24.4199 -28.3249 13.8011 -6.7324
# 3 39.2570 24.4199 75.0750 -28.6056 -3.0022 -3.4060
# 4 -16.5671 -28.3249 -28.6056 34.2905 -4.8074 0.2600
# 5 0.0461 13.8011 -3.0022 -4.8074 25.3356 -6.6776
# 6 -7.4018 -6.7324 -3.4060 0.2600 -6.6776 31.9219
#
#
#
# Elastic Compliance Matrix: (Units=1/GPa)
#
#
# Indices 1 2 3 4 5 6 
#
# 1 0.017004 -0.004158 -0.007996 -0.001679 0.001646 0.002571
# 2 -0.004158 0.014863 0.001115 0.010389 -0.005719 0.001008
# 3 -0.007996 0.001115 0.024489 0.018363 0.006367 0.002176
# 4 -0.001679 0.010389 0.018363 0.053329 0.007954 0.004991
# 5 0.001646 -0.005719 0.006367 0.007954 0.047404 0.009706
# 6 0.002571 0.001008 0.002176 0.004991 0.009706 0.034357
#
#
# Mechanical properties :
#
#
# Convention : Reuss Voigt Hill
#
# Bulk Modulus (GPa) = 29.17377 50.35371 39.76374
# Shear Modulus (GPa) = 22.22720 29.21131 25.71926
#
# Velocity S-wave (km/s) = 3.26163 3.73911 3.50850
# Velocity P-wave (km/s) = 5.30540 6.53767 5.95350
#
# Compressibility (1/GPa) = 0.03427737
#
# Stress axis : x y z
#
# Youngs Moduli (GPa) = 58.80903 67.28340 40.83539
#
# Poissons Ratio (x) = 0.27978 0.32653
# Poissons Ratio (y) = 0.24454 -0.04555
# Poissons Ratio (z) = 0.47025 -0.07505
#
# Static dielectric constant tensor:
#      x y z
#    x 1.770240 0.043250 -0.047530 
#    y 0.043250 1.798140 -0.078410 
#    z -0.047530 -0.078410 1.907590 
# 
# From -- ./inp_files/308027.got.cif
#   From: 2010.05.17/outbox.cif.g08.bks.cpg/sg2_155_cif.got.tgz:308027.got - 2010.06.03 11:33:40.
