data_PCOD9112894
_publ_section_title
;
Structure prediction by ZEFSAII (Michael W. Deem and Ramdas Pophale) SiO2 
 PCOD9112894
Probable space group: P 2
;
_chemical_formula_sum "Si O2"
_cell_formula_units_Z 16
_cell_length_a 8.947839
_cell_length_b 19.902551
_cell_length_c 7.289761
_cell_angle_alpha 90.000000
_cell_angle_beta 145.202895
_cell_angle_gamma 90.000000
_cell_volume 740.844087
_symmetry_space_group_name_H-M "P 2"
_symmetry_group_IT_number 3
_symmetry_cell_setting 'monoclinic'
loop_
_space_group_symop_operation_xyz
x,y,z
-x,y,-z
loop_
_atom_site_type_symbol
_atom_site_label
_atom_site_fract_x
_atom_site_fract_y
_atom_site_fract_z
Si Si1 0.745989 0.611990 0.614092
Si Si2 0.248318 0.743083 0.620905
Si Si3 0.028051 0.878073 0.305154
Si Si4 0.527519 0.950087 0.804610
Si Si5 0.250803 0.321186 0.385409
Si Si6 0.380215 0.100013 0.082323
Si Si7 0.252346 0.466512 0.385946
Si Si8 0.122879 0.180097 0.324471
O O1 0.500000 0.609731 0.500000
O O2 0.707362 0.675167 0.444541
O O3 0.756539 0.538913 0.524803
O O4 0.000000 0.620232 0.000000
O O5 0.158207 0.805731 0.403894
O O6 0.000000 0.730838 0.500000
O O7 0.500000 0.761105 0.000000
O O8 0.234496 0.933684 0.447061
O O9 0.000000 0.881539 0.500000
O O10 0.736163 0.894815 0.948543
O O11 0.636265 0.023472 0.866373
O O12 0.500000 0.946931 0.000000
O O13 0.500000 0.310440 0.500000
O O14 0.268955 0.394075 0.501151
O O15 0.201181 0.255925 0.461220
O O16 0.000000 0.326687 0.000000
O O17 0.608934 0.139321 0.416712
O O18 0.500000 0.096473 0.000000
O O19 0.105953 0.139307 0.803546
O O20 0.500000 0.466145 0.500000
O O21 0.000000 0.467152 0.000000
O O22 0.000000 0.186827 0.000000
#
# Coordination Sequence:
#
# PCOD9112894 Si02
#       8
#     2   2   2   2   2   2   2   2
#     4  10  20  35  55  80 109 143 176 215 263 315
#     4  11  21  34  55  83 110 139 174 220 267 313
#     4   9  16  29  49  74  98 127 173 219 251 291
#     4   9  17  30  50  73  96 128 174 219 251 294
#     4   9  16  29  50  77 102 132 177 223 254 294
#     4  11  22  36  55  80 107 138 175 220 269 318
#     4   8  15  28  49  75 101 131 177 221 250 291
#     4  11  21  35  55  80 108 140 175 217 268 320
#
# _framework density 21.596989000000001
#
# number of rings (size 3 to 8) (size 9 to 14) (size 15 to 20)
#    0.000    2.250    0.000    5.625    0.000    2.000 
#    0.000    0.000    0.000    9.750    0.000    0.000 
#    0.000    0.000    0.000    0.000    0.000    0.000 
#
# Total GULP energy -89208.917945 kJ/mol
# GULP energy per Si atom -5575.557372 kJ/mol
# Density = 2.154783 g / cm^3
# Si number density = 21.596989 Si / 1000 Ang^3
#
#
#
# Elastic Constant Matrix: (Units=GPa)
#
#
# Indices 1 2 3 4 5 6 
#
# 1 34.1236 29.0877 19.3380 0.0000 13.7064 0.0000
# 2 29.0877 199.8558 31.6637 0.0000 21.3114 0.0000
# 3 19.3380 31.6637 105.9423 0.0000 38.6566 0.0000
# 4 0.0000 0.0000 0.0000 28.5797 0.0000 9.6182
# 5 13.7064 21.3114 38.6566 0.0000 33.8978 0.0000
# 6 0.0000 0.0000 0.0000 9.6182 0.0000 22.1544
#
#
#
# Elastic Compliance Matrix: (Units=1/GPa)
#
#
# Indices 1 2 3 4 5 6 
#
# 1 0.038171 -0.004120 -0.001798 0.000000 -0.010794 0.000000
# 2 -0.004120 0.005833 -0.000447 0.000000 -0.001492 0.000000
# 3 -0.001798 -0.000447 0.016327 0.000000 -0.017611 0.000000
# 4 0.000000 0.000000 0.000000 0.040977 0.000000 -0.017790
# 5 -0.010794 -0.001492 -0.017611 0.000000 0.054886 0.000000
# 6 0.000000 0.000000 0.000000 -0.017790 0.000000 0.052861
#
#
# Mechanical properties :
#
#
# Convention : Reuss Voigt Hill
#
# Bulk Modulus (GPa) = 21.00735 55.56672 38.28704
# Shear Modulus (GPa) = 21.03921 34.24854 27.64387
#
# Velocity S-wave (km/s) = 3.12456 3.98653 3.58157
# Velocity P-wave (km/s) = 4.77130 6.85381 5.90508
#
# Compressibility (1/GPa) = 0.04760238
#
# Stress axis : x y z
#
# Youngs Moduli (GPa) = 26.19759 171.43537 61.24910
#
# Poissons Ratio (x) = 0.70627 0.11010
# Poissons Ratio (y) = 0.10793 0.02739
# Poissons Ratio (z) = 0.04709 0.07666
#
# Static dielectric constant tensor:
#      x y z
#    x 1.800360 0.000000 -0.031040 
#    y 0.000000 1.889860 0.000000 
#    z -0.031040 0.000000 1.761240 
# 
# From -- ./inp_files/6335.got.cif
#   From: 2010.05.17/outbox.cif.g08.bks.cpg/sg3_4_cif.got.tgz:6335.got - 2010.06.03 18:33:08.
