data_PCOD9112564
_publ_section_title
;
Structure prediction by ZEFSAII (Michael W. Deem and Ramdas Pophale) SiO2 
 PCOD9112564
Probable space group: P 2
;
_chemical_formula_sum "Si O2"
_cell_formula_units_Z 12
_cell_length_a 10.477086
_cell_length_b 6.667736
_cell_length_c 15.096780
_cell_angle_alpha 90.000000
_cell_angle_beta 34.453411
_cell_angle_gamma 90.000000
_cell_volume 596.646353
_symmetry_space_group_name_H-M "P 2"
_symmetry_group_IT_number 3
_symmetry_cell_setting 'monoclinic'
loop_
_space_group_symop_operation_xyz
x,y,z
-x,y,-z
loop_
_atom_site_type_symbol
_atom_site_label
_atom_site_fract_x
_atom_site_fract_y
_atom_site_fract_z
Si Si1 0.236973 0.537430 0.349828
Si Si2 0.000000 0.272072 0.000000
Si Si3 0.464363 0.910421 0.857682
Si Si4 0.275114 0.228456 0.174099
Si Si5 0.478601 0.257312 0.701297
Si Si6 0.500000 0.054835 0.500000
Si Si7 0.996369 0.021229 0.184554
O O1 0.425953 0.700343 0.225287
O O2 0.200890 0.387743 0.288660
O O3 0.318988 0.394830 0.381944
O O4 0.000000 0.645105 0.500000
O O5 0.243899 0.375361 0.857089
O O6 0.016513 0.141263 0.900858
O O7 0.624795 0.031661 0.834023
O O8 0.460233 0.057668 0.773967
O O9 0.214156 0.882213 0.041778
O O10 0.087008 0.166071 0.210947
O O11 0.500000 0.316800 0.000000
O O12 0.507637 0.189655 0.584051
O O13 0.744560 0.944384 0.351992
#
# Coordination Sequence:
#
# PCOD9112564 Si02
#       7
#     2   1   2   2   2   1   2
#     4  11  22  35  56  85 115 146 182 229 282 330
#     4   8  16  34  56  74 106 150 182 214 268 330
#     4   9  20  37  55  79 114 152 184 222 278 336
#     4   9  19  36  58  82 109 144 185 230 278 328
#     4   9  19  37  57  81 112 147 185 227 275 329
#     4  10  18  32  62  86 108 148 186 230 276 320
#     4   9  17  33  56  82 109 143 186 225 271 327
#
# _framework density 20.112416
#
# number of rings (size 3 to 8) (size 9 to 14) (size 15 to 20)
#    0.000    2.667    0.000    2.000    0.000    6.000 
#    0.000    5.833    0.000    8.000    0.000    0.000 
#    0.000    0.000    0.000    0.000    0.000    0.000 
#
# Total GULP energy -66814.710427 kJ/mol
# GULP energy per Si atom -5567.892536 kJ/mol
# Density = 2.006664 g / cm^3
# Si number density = 20.112416 Si / 1000 Ang^3
#
#
#
# Elastic Constant Matrix: (Units=GPa)
#
#
# Indices 1 2 3 4 5 6 
#
# 1 119.0140 20.0821 41.7092 0.0000 5.7107 0.0000
# 2 20.0821 44.0087 38.3754 0.0000 -9.9806 0.0000
# 3 41.7092 38.3754 135.0342 0.0000 -27.6668 0.0000
# 4 0.0000 0.0000 0.0000 18.1587 0.0000 -0.8992
# 5 5.7107 -9.9806 -27.6668 0.0000 38.6299 0.0000
# 6 0.0000 0.0000 0.0000 -0.8992 0.0000 -5.1684
#
#
#
# Elastic Compliance Matrix: (Units=1/GPa)
#
#
# Indices 1 2 3 4 5 6 
#
# 1 0.010264 -0.002847 -0.003308 0.000000 -0.004622 0.000000
# 2 -0.002847 0.031123 -0.007303 0.000000 0.003231 0.000000
# 3 -0.003308 -0.007303 0.011974 0.000000 0.007178 0.000000
# 4 0.000000 0.000000 0.000000 0.054600 0.000000 -0.009500
# 5 -0.004622 0.003231 0.007178 0.000000 0.032545 0.000000
# 6 0.000000 0.000000 0.000000 -0.009500 0.000000 -0.191830
#
#
# Mechanical properties :
#
#
# Convention : Reuss Voigt Hill
#
# Bulk Modulus (GPa) = 37.81697 55.37671 46.59684
# Shear Modulus (GPa) = -320.69104 23.51671 -148.58716
#
# Velocity S-wave (km/s) = -12.64102 3.42316 -8.60457
# Velocity P-wave (km/s) = 13.93617 6.57399 8.68906
#
# Compressibility (1/GPa) = 0.02644315
#
# Stress axis : x y z
#
# Youngs Moduli (GPa) = 97.42807 32.13015 83.51739
#
# Poissons Ratio (x) = 0.09148 0.27630
# Poissons Ratio (y) = 0.27739 0.60997
# Poissons Ratio (z) = 0.32232 0.23466
#
# Static dielectric constant tensor:
#      x y z
#    x 1.745560 0.000000 -0.027580 
#    y 0.000000 1.650140 0.000000 
#    z -0.027580 0.000000 1.781680 
# 
# From -- ./inp_files/15163.got.cif
#   From: 2010.05.17/outbox.cif.g08.bks.cpg/sg3_8_cif.got.tgz:15163.got - 2010.06.03 18:33:08.
