data_PCOD9112546
_publ_section_title
;
Structure prediction by ZEFSAII (Michael W. Deem and Ramdas Pophale) SiO2 
 PCOD9112546
Probable space group: P 2
;
_chemical_formula_sum "Si O2"
_cell_formula_units_Z 15
_cell_length_a 12.441825
_cell_length_b 8.637266
_cell_length_c 9.564366
_cell_angle_alpha 90.000000
_cell_angle_beta 127.457697
_cell_angle_gamma 90.000000
_cell_volume 815.885249
_symmetry_space_group_name_H-M "P 2"
_symmetry_group_IT_number 3
_symmetry_cell_setting 'monoclinic'
loop_
_space_group_symop_operation_xyz
x,y,z
-x,y,-z
loop_
_atom_site_type_symbol
_atom_site_label
_atom_site_fract_x
_atom_site_fract_y
_atom_site_fract_z
Si Si1 0.715489 0.172340 0.087029
Si Si2 0.500000 0.934980 0.000000
Si Si3 0.865059 0.124456 0.478571
Si Si4 0.090760 0.759843 0.442344
Si Si5 0.987821 0.240603 0.158142
Si Si6 0.072350 0.595169 0.910282
Si Si7 0.634095 0.653484 0.254449
Si Si8 0.644135 0.514466 0.952955
O O1 0.749238 0.180831 0.280754
O O2 0.857132 0.148027 0.116123
O O3 0.657463 0.330568 0.978012
O O4 0.605234 0.037672 0.995648
O O5 0.417982 0.823742 0.830497
O O6 0.000000 0.172144 0.500000
O O7 0.882462 0.190578 0.647954
O O8 0.871297 0.938543 0.499695
O O9 0.230634 0.665414 0.548927
O O10 0.000000 0.704937 0.500000
O O11 0.993758 0.727674 0.236015
O O12 0.962986 0.421935 0.172329
O O13 0.000000 0.222696 0.000000
O O14 0.234968 0.591125 0.039619
O O15 0.000000 0.607479 0.000000
O O16 0.504619 0.564923 0.212977
O O17 0.664268 0.576270 0.127619
#
# Coordination Sequence:
#
# PCOD9112546 Si02
#       8
#     2   1   2   2   2   2   2   2
#     4  10  18  33  55  81 104 137 178 218 264 319
#     4  10  18  32  52  78 110 138 168 224 268 320
#     4   9  19  31  51  81 107 132 173 221 266 312
#     4  11  20  34  55  81 109 138 180 224 269 316
#     4   9  20  36  54  77 108 139 176 222 264 315
#     4  10  21  36  56  80 108 144 182 220 267 318
#     4  10  20  33  52  83 110 137 177 226 268 316
#     4   9  19  33  54  80 109 138 179 217 269 314
#
# _framework density 18.384938999999999
#
# number of rings (size 3 to 8) (size 9 to 14) (size 15 to 20)
#    0.000    2.400    2.667    0.800    1.867    1.067 
#    0.000    0.667    0.000    0.800    0.000    0.000 
#    0.000    0.000    0.000    0.000    0.000    0.000 
#
# Total GULP energy -83549.100207 kJ/mol
# GULP energy per Si atom -5569.940014 kJ/mol
# Density = 1.834309 g / cm^3
# Si number density = 18.384939 Si / 1000 Ang^3
#
#
#
# Elastic Constant Matrix: (Units=GPa)
#
#
# Indices 1 2 3 4 5 6 
#
# 1 84.2108 23.1567 14.6255 0.0000 7.2354 0.0000
# 2 23.1567 37.3488 11.9940 0.0000 7.6746 0.0000
# 3 14.6255 11.9940 36.8288 0.0000 1.3501 0.0000
# 4 0.0000 0.0000 0.0000 17.1019 0.0000 4.3468
# 5 7.2354 7.6746 1.3501 0.0000 23.9623 0.0000
# 6 0.0000 0.0000 0.0000 4.3468 0.0000 21.1685
#
#
#
# Elastic Compliance Matrix: (Units=1/GPa)
#
#
# Indices 1 2 3 4 5 6 
#
# 1 0.014716 -0.007706 -0.003269 0.000000 -0.001791 0.000000
# 2 -0.007706 0.036032 -0.008354 0.000000 -0.008743 0.000000
# 3 -0.003269 -0.008354 0.031101 0.000000 0.001910 0.000000
# 4 0.000000 0.000000 0.000000 0.061693 0.000000 -0.012668
# 5 -0.001791 -0.008743 0.001910 0.000000 0.044966 0.000000
# 6 0.000000 0.000000 0.000000 -0.012668 0.000000 0.049841
#
#
# Mechanical properties :
#
#
# Convention : Reuss Voigt Hill
#
# Bulk Modulus (GPa) = 23.15256 28.66006 25.90631
# Shear Modulus (GPa) = 17.15842 19.68734 18.42288
#
# Velocity S-wave (km/s) = 3.05829 3.27592 3.16897
# Velocity P-wave (km/s) = 5.00913 5.47098 5.24514
#
# Compressibility (1/GPa) = 0.04319176
#
# Stress axis : x y z
#
# Youngs Moduli (GPa) = 67.95507 27.75339 32.15314
#
# Poissons Ratio (x) = 0.21387 0.10509
# Poissons Ratio (y) = 0.52367 0.26859
# Poissons Ratio (z) = 0.22212 0.23184
#
# Static dielectric constant tensor:
#      x y z
#    x 1.645900 0.000000 0.045300 
#    y 0.000000 1.662940 0.000000 
#    z 0.045300 0.000000 1.614270 
# 
# From -- ./inp_files/7260.got.cif
#   From: 2010.05.17/outbox.cif.g08.bks.cpg/sg3_4_cif.got.tgz:7260.got - 2010.06.03 18:33:08.
