data_PCOD9112267
_publ_section_title
;
Structure prediction by ZEFSAII (Michael W. Deem and Ramdas Pophale) SiO2 
 PCOD9112267
Probable space group: P -1
;
_chemical_formula_sum "Si O2"
_cell_formula_units_Z 16
_cell_length_a 15.335853
_cell_length_b 7.913852
_cell_length_c 16.540864
_cell_angle_alpha 121.607798
_cell_angle_beta 154.270452
_cell_angle_gamma 46.513471
_cell_volume 602.315653
_symmetry_space_group_name_H-M "P -1"
_symmetry_group_IT_number 2
_symmetry_cell_setting 'triclinic'
loop_
_space_group_symop_operation_xyz
x,y,z
-x,-y,-z
loop_
_atom_site_type_symbol
_atom_site_label
_atom_site_fract_x
_atom_site_fract_y
_atom_site_fract_z
Si Si1 0.662966 0.974252 0.435280
Si Si2 0.496746 0.432634 0.155978
Si Si3 0.159932 0.897757 0.878208
Si Si4 0.755366 0.802644 0.723663
Si Si5 0.061410 0.573361 0.486153
Si Si6 0.905372 0.337853 0.899137
Si Si7 0.484719 0.362083 0.603553
Si Si8 0.525841 0.992955 0.138332
O O1 0.571068 0.027175 0.279365
O O2 0.769398 0.695200 0.478746
O O3 0.437787 0.132658 0.348809
O O4 0.904052 0.971288 0.644646
O O5 0.507711 0.539720 0.278918
O O6 0.776992 0.325207 0.335438
O O7 0.448031 0.232006 0.084243
O O8 0.336703 0.918922 0.970530
O O9 0.070983 0.096162 0.924392
O O10 0.315122 0.637841 0.989949
O O11 0.016339 0.719181 0.956050
O O12 0.765105 0.593359 0.628170
O O13 0.653873 0.064670 0.665857
O O14 0.797428 0.774024 0.278633
O O15 0.000000 0.500000 0.500000
O O16 0.000000 0.500000 0.000000
O O17 0.620950 0.441579 0.679839
#
# Coordination Sequence:
#
# PCOD9112267 Si02
#       8
#     2   2   2   2   2   2   2   2
#     4  11  22  44  71  93 136 179 217 274 334 389
#     4  12  23  44  72  96 136 175 219 280 330 391
#     4  12  24  45  66  98 138 174 222 274 329 394
#     4  11  22  41  64  90 130 173 216 266 319 389
#     4  10  20  45  72  95 129 180 215 274 344 391
#     4  12  24  39  62  92 133 176 215 265 321 387
#     4  11  23  38  64  94 125 170 221 260 320 388
#     4  11  24  45  69  99 134 173 224 276 331 392
#
# _framework density 26.564143999999999
#
# number of rings (size 3 to 8) (size 9 to 14) (size 15 to 20)
#    0.000    0.750    7.500    1.500    0.000    2.000 
#    2.250    0.625    0.000    0.000    0.000    0.000 
#    0.000    0.000    0.000    0.000    0.000    0.000 
#
# Total GULP energy -89556.785757 kJ/mol
# GULP energy per Si atom -5597.299110 kJ/mol
# Density = 2.650368 g / cm^3
# Si number density = 26.564144 Si / 1000 Ang^3
#
#
#
# Elastic Constant Matrix: (Units=GPa)
#
#
# Indices 1 2 3 4 5 6 
#
# 1 91.3352 33.4779 50.0117 3.1413 16.0856 17.3684
# 2 33.4779 102.1637 36.6979 17.2878 16.9337 24.7723
# 3 50.0117 36.6979 159.6085 8.4656 6.6778 12.5277
# 4 3.1413 17.2878 8.4656 32.5091 -1.1437 16.6439
# 5 16.0856 16.9337 6.6778 -1.1437 42.1662 13.6717
# 6 17.3684 24.7723 12.5277 16.6439 13.6717 26.4361
#
#
#
# Elastic Compliance Matrix: (Units=1/GPa)
#
#
# Indices 1 2 3 4 5 6 
#
# 1 0.015670 -0.002210 -0.003919 0.005173 -0.001452 -0.008872
# 2 -0.002210 0.013819 -0.001631 -0.002641 -0.001901 -0.008078
# 3 -0.003919 -0.001631 0.007842 -0.001198 0.000607 0.000827
# 4 0.005173 -0.002641 -0.001198 0.053743 0.014202 -0.041537
# 5 -0.001452 -0.001901 0.000607 0.014202 0.032953 -0.023537
# 6 -0.008872 -0.008078 0.000827 -0.041537 -0.023537 0.089157
#
#
# Mechanical properties :
#
#
# Convention : Reuss Voigt Hill
#
# Bulk Modulus (GPa) = 45.85122 65.94248 55.89685
# Shear Modulus (GPa) = 21.18868 35.75027 28.46948
#
# Velocity S-wave (km/s) = 2.82732 3.67251 3.27727
# Velocity P-wave (km/s) = 5.28738 6.54682 5.95051
#
# Compressibility (1/GPa) = 0.02180967
#
# Stress axis : x y z
#
# Youngs Moduli (GPa) = 63.81702 72.36288 127.52627
#
# Poissons Ratio (x) = 0.15995 0.49977
# Poissons Ratio (y) = 0.14106 0.20801
# Poissons Ratio (z) = 0.25010 0.11803
#
# Static dielectric constant tensor:
#      x y z
#    x 2.596770 0.457220 -0.882120 
#    y 0.457220 2.679570 -0.961830 
#    z -0.882120 -0.961830 3.787640 
# 
# From -- ./inp_files/322503.got.cif
#   From: 2010.05.17/outbox.cif.g08.bks.cpg/sg2_162_cif.got.tgz:322503.got - 2010.06.03 11:33:40.
