data_PCOD9112532
_publ_section_title
;
Structure prediction by ZEFSAII (Michael W. Deem and Ramdas Pophale) SiO2 
 PCOD9112532
Probable space group: P 2
;
_chemical_formula_sum "Si O2"
_cell_formula_units_Z 14
_cell_length_a 15.802416
_cell_length_b 5.527022
_cell_length_c 12.170645
_cell_angle_alpha 90.000000
_cell_angle_beta 144.208703
_cell_angle_gamma 90.000000
_cell_volume 621.671905
_symmetry_space_group_name_H-M "P 2"
_symmetry_group_IT_number 3
_symmetry_cell_setting 'monoclinic'
loop_
_space_group_symop_operation_xyz
x,y,z
-x,y,-z
loop_
_atom_site_type_symbol
_atom_site_label
_atom_site_fract_x
_atom_site_fract_y
_atom_site_fract_z
Si Si1 0.169035 0.498160 0.291534
Si Si2 0.971977 0.396805 0.635075
Si Si3 0.524278 0.524806 0.257669
Si Si4 0.000000 0.772622 0.500000
Si Si5 0.747803 0.999838 0.722435
Si Si6 0.200495 0.161220 0.733792
Si Si7 0.500000 0.344391 0.000000
Si Si8 0.439533 0.018381 0.266700
O O1 0.050815 0.438109 0.261343
O O2 0.321213 0.514833 0.518154
O O3 0.178010 0.257667 0.225892
O O4 0.165932 0.757551 0.225290
O O5 0.924995 0.633162 0.519913
O O6 0.871076 0.202791 0.463676
O O7 0.129566 0.343470 0.748081
O O8 0.445908 0.777021 0.200457
O O9 0.441911 0.282463 0.213205
O O10 0.548278 0.500846 0.153887
O O11 0.868804 0.911979 0.304884
O O12 0.593735 0.005214 0.494458
O O13 0.695039 0.992794 0.792378
O O14 0.367503 0.182657 0.898348
#
# Coordination Sequence:
#
# PCOD9112532 Si02
#       8
#     2   2   2   1   2   2   1   2
#     4  10  18  30  54  86 106 143 186 244 277 342
#     4   9  18  35  53  79 107 153 184 247 286 322
#     4  10  21  33  52  76 118 151 188 228 281 337
#     4   8  18  34  54  70 106 164 188 238 284 332
#     4   9  18  29  55  80 107 140 191 232 298 337
#     4   9  20  35  52  73 114 153 193 233 279 343
#     4  12  22  38  52  88 112 162 196 224 276 362
#     4   9  18  36  48  76 114 150 177 240 293 335
#
# _framework density 22.519917
#
# number of rings (size 3 to 8) (size 9 to 14) (size 15 to 20)
#    0.000    2.857    1.429    0.857    4.000    5.143 
#    5.143    0.000    0.000    0.000    0.000    6.000 
#    0.000    0.000    0.000    0.000    0.000    0.000 
#
# Total GULP energy -78014.546512 kJ/mol
# GULP energy per Si atom -5572.467608 kJ/mol
# Density = 2.246866 g / cm^3
# Si number density = 22.519917 Si / 1000 Ang^3
#
#
#
# Elastic Constant Matrix: (Units=GPa)
#
#
# Indices 1 2 3 4 5 6 
#
# 1 115.4231 35.2958 12.9988 0.0000 9.8610 0.0000
# 2 35.2958 128.7678 3.1403 0.0000 -3.6537 0.0000
# 3 12.9988 3.1403 46.4185 0.0000 11.2809 0.0000
# 4 0.0000 0.0000 0.0000 -5.5542 0.0000 -5.0744
# 5 9.8610 -3.6537 11.2809 0.0000 29.4377 0.0000
# 6 0.0000 0.0000 0.0000 -5.0744 0.0000 -3.3364
#
#
#
# Elastic Compliance Matrix: (Units=1/GPa)
#
#
# Indices 1 2 3 4 5 6 
#
# 1 0.009977 -0.002773 -0.001886 0.000000 -0.002964 0.000000
# 2 -0.002773 0.008594 -0.000320 0.000000 0.002118 0.000000
# 3 -0.001886 -0.000320 0.024203 0.000000 -0.008683 0.000000
# 4 0.000000 0.000000 0.000000 0.462147 0.000000 -0.702902
# 5 -0.002964 0.002118 -0.008683 0.000000 0.038553 0.000000
# 6 0.000000 0.000000 0.000000 -0.702902 0.000000 0.769350
#
#
# Mechanical properties :
#
#
# Convention : Reuss Voigt Hill
#
# Bulk Modulus (GPa) = 30.47218 43.71995 37.09606
# Shear Modulus (GPa) = 3.74891 20.05439 11.90165
#
# Velocity S-wave (km/s) = 1.29164 2.98739 2.30139
# Velocity P-wave (km/s) = 3.97304 5.59959 4.85492
#
# Compressibility (1/GPa) = 0.03281682
#
# Stress axis : x y z
#
# Youngs Moduli (GPa) = 100.22722 116.36195 41.31709
#
# Poissons Ratio (x) = 0.32266 0.07793
# Poissons Ratio (y) = 0.27792 0.01321
# Poissons Ratio (z) = 0.18905 0.03719
#
# Static dielectric constant tensor:
#      x y z
#    x 1.821380 0.000000 -0.001460 
#    y 0.000000 1.928470 0.000000 
#    z -0.001460 0.000000 1.886780 
# 
# From -- ./inp_files/12111.got.cif
#   From: 2010.05.17/outbox.cif.g08.bks.cpg/sg3_7_cif.got.tgz:12111.got - 2010.06.03 18:33:08.
