data_PCOD9112871
_publ_section_title
;
Structure prediction by ZEFSAII (Michael W. Deem and Ramdas Pophale) SiO2 
 PCOD9112871
Probable space group: P 2
;
_chemical_formula_sum "Si O2"
_cell_formula_units_Z 13
_cell_length_a 18.808322
_cell_length_b 5.444160
_cell_length_c 14.050943
_cell_angle_alpha 90.000000
_cell_angle_beta 21.723063
_cell_angle_gamma 90.000000
_cell_volume 532.512504
_symmetry_space_group_name_H-M "P 2"
_symmetry_group_IT_number 3
_symmetry_cell_setting 'monoclinic'
loop_
_space_group_symop_operation_xyz
x,y,z
-x,y,-z
loop_
_atom_site_type_symbol
_atom_site_label
_atom_site_fract_x
_atom_site_fract_y
_atom_site_fract_z
Si Si1 0.731422 0.939710 0.492938
Si Si2 0.548391 0.436017 0.781477
Si Si3 0.251497 0.996238 0.732003
Si Si4 0.190165 0.437079 0.352411
Si Si5 0.500000 0.369395 0.500000
Si Si6 0.011402 0.935621 0.636135
Si Si7 0.664453 0.779571 0.183905
O O1 0.609888 0.687103 0.652114
O O2 0.869891 0.942639 0.412025
O O3 0.605917 0.186499 0.657679
O O4 0.840991 0.962248 0.255684
O O5 0.674104 0.433891 0.722550
O O6 0.329152 0.424926 0.088681
O O7 0.289950 0.259075 0.730313
O O8 0.479479 0.952063 0.422398
O O9 0.218856 0.819270 0.861816
O O10 0.092765 0.703299 0.477587
O O11 0.053608 0.199066 0.535632
O O12 0.568263 0.517062 0.320421
O O13 0.797077 0.860908 0.933218
#
# Coordination Sequence:
#
# PCOD9112871 Si02
#       7
#     2   2   2   2   1   2   2
#     4  10  20  33  56  83 108 138 178 223 270 311
#     4   9  18  33  53  79 110 142 176 216 265 324
#     4   9  20  35  55  76 106 142 186 214 268 323
#     4   9  18  33  53  79 110 142 176 216 265 324
#     4   8  18  36  56  76 102 156 186 222 254 340
#     4  10  20  33  56  83 108 138 178 223 270 311
#     4   9  20  35  55  76 106 142 186 214 268 323
#
# _framework density 24.412573999999999
#
# number of rings (size 3 to 8) (size 9 to 14) (size 15 to 20)
#    0.000    3.077    0.000    0.923    8.615    4.308 
#    0.000    0.000    0.000    5.538    0.000    0.000 
#    0.000    0.000    0.000    0.000    0.000    0.000 
#
# Total GULP energy -72483.634678 kJ/mol
# GULP energy per Si atom -5575.664206 kJ/mol
# Density = 2.435701 g / cm^3
# Si number density = 24.412574 Si / 1000 Ang^3
#
#
#
# Elastic Constant Matrix: (Units=GPa)
#
#
# Indices 1 2 3 4 5 6 
#
# 1 110.4986 6.3457 -19.4008 0.0000 4.5770 0.0000
# 2 6.3457 143.7213 24.9043 0.0000 18.5968 0.0000
# 3 -19.4008 24.9043 78.4568 0.0000 32.3314 0.0000
# 4 0.0000 0.0000 0.0000 89.2598 0.0000 -165.9811
# 5 4.5770 18.5968 32.3314 0.0000 34.5989 0.0000
# 6 0.0000 0.0000 0.0000 -165.9811 0.0000 431.6491
#
#
#
# Elastic Compliance Matrix: (Units=1/GPa)
#
#
# Indices 1 2 3 4 5 6 
#
# 1 0.010221 -0.000584 0.005107 0.000000 -0.005811 0.000000
# 2 -0.000584 0.007578 -0.001469 0.000000 -0.002623 0.000000
# 3 0.005107 -0.001469 0.023464 0.000000 -0.021812 0.000000
# 4 0.000000 0.000000 0.000000 0.039315 0.000000 0.015118
# 5 -0.005811 -0.002623 -0.021812 0.000000 0.051464 0.000000
# 6 0.000000 0.000000 0.000000 0.015118 0.000000 0.008130
#
#
# Mechanical properties :
#
#
# Convention : Reuss Voigt Hill
#
# Bulk Modulus (GPa) = 21.11029 39.59724 30.35376
# Shear Modulus (GPa) = 33.36605 132.49006 82.92805
#
# Velocity S-wave (km/s) = 3.70098 7.37489 5.83465
# Velocity P-wave (km/s) = 5.18932 9.42199 7.60602
#
# Compressibility (1/GPa) = 0.04737027
#
# Stress axis : x y z
#
# Youngs Moduli (GPa) = 97.83898 131.96691 42.61910
#
# Poissons Ratio (x) = 0.07713 -0.21768
# Poissons Ratio (y) = 0.05718 0.06261
# Poissons Ratio (z) = -0.49971 0.19386
#
# Static dielectric constant tensor:
#      x y z
#    x 2.200220 0.000000 0.001460 
#    y 0.000000 2.025550 0.000000 
#    z 0.001460 0.000000 1.830390 
# 
# From -- ./inp_files/2344.got.cif
#   From: 2010.05.17/outbox.cif.g08.bks.cpg/sg3_2_cif.got.tgz:2344.got - 2010.06.03 18:33:08.
