data_PCOD9112468
_publ_section_title
;
Structure prediction by ZEFSAII (Michael W. Deem and Ramdas Pophale) SiO2 
 PCOD9112468
Probable space group: P 2
;
_chemical_formula_sum "Si O2"
_cell_formula_units_Z 16
_cell_length_a 10.213530
_cell_length_b 5.358396
_cell_length_c 25.821238
_cell_angle_alpha 90.000000
_cell_angle_beta 143.384762
_cell_angle_gamma 90.000000
_cell_volume 842.855853
_symmetry_space_group_name_H-M "P 2"
_symmetry_group_IT_number 3
_symmetry_cell_setting 'monoclinic'
loop_
_space_group_symop_operation_xyz
x,y,z
-x,y,-z
loop_
_atom_site_type_symbol
_atom_site_label
_atom_site_fract_x
_atom_site_fract_y
_atom_site_fract_z
Si Si1 0.856903 0.886760 0.825194
Si Si2 0.453832 0.410011 0.545847
Si Si3 0.041901 0.468534 0.575374
Si Si4 0.374235 0.889603 0.014433
Si Si5 0.680058 0.390675 0.943795
Si Si6 0.409541 0.909734 0.352457
Si Si7 0.795254 0.387744 0.863912
Si Si8 0.799220 0.968699 0.395119
O O1 0.815125 0.900700 0.750746
O O2 0.756732 0.633299 0.817255
O O3 0.114503 0.886389 0.919351
O O4 0.757739 0.132146 0.821057
O O5 0.500000 0.405851 0.500000
O O6 0.192643 0.415974 0.473789
O O7 0.550644 0.662145 0.601675
O O8 0.552912 0.162044 0.603613
O O9 0.000000 0.493918 0.500000
O O10 0.143512 0.734162 0.622576
O O11 0.201996 0.234330 0.633467
O O12 0.418127 0.638479 0.061117
O O13 0.414815 0.139190 0.060838
O O14 0.500000 0.892868 0.000000
O O15 0.942802 0.390987 0.039592
O O16 0.668205 0.394278 0.877908
O O17 0.590489 0.914218 0.364002
O O18 0.000000 0.995328 0.500000
#
# Coordination Sequence:
#
# PCOD9112468 Si02
#       8
#     2   2   2   2   2   2   2   2
#     4  10  21  33  54  79 111 133 179 221 268 321
#     4  12  23  35  55  81 106 140 186 221 271 329
#     4  10  16  32  53  77  97 123 169 224 254 301
#     4  10  19  33  53  83 101 150 191 208 245 321
#     4   9  17  30  55  78 106 132 175 227 255 296
#     4  12  21  36  55  80 106 141 170 233 275 311
#     4   9  17  33  51  80 107 133 165 221 277 305
#     4  10  16  30  55  76  94 124 173 212 261 302
#
# _framework density 18.983079
#
# number of rings (size 3 to 8) (size 9 to 14) (size 15 to 20)
#    0.000    1.750    5.000    2.250    0.000    3.000 
#    0.000    0.000    0.000    9.000    0.000    0.000 
#    0.000    0.000    0.000    0.000    0.000    0.000 
#
# Total GULP energy -89279.948031 kJ/mol
# GULP energy per Si atom -5579.996752 kJ/mol
# Density = 1.893987 g / cm^3
# Si number density = 18.983079 Si / 1000 Ang^3
#
#
#
# Elastic Constant Matrix: (Units=GPa)
#
#
# Indices 1 2 3 4 5 6 
#
# 1 100.2457 44.7768 13.9883 0.0000 -33.7399 0.0000
# 2 44.7768 200.2374 32.3770 0.0000 -30.4442 0.0000
# 3 13.9883 32.3770 44.0317 0.0000 -17.9894 0.0000
# 4 0.0000 0.0000 0.0000 13.7047 0.0000 -11.0546
# 5 -33.7399 -30.4442 -17.9894 0.0000 23.9276 0.0000
# 6 0.0000 0.0000 0.0000 -11.0546 0.0000 11.8798
#
#
#
# Elastic Compliance Matrix: (Units=1/GPa)
#
#
# Indices 1 2 3 4 5 6 
#
# 1 0.020728 -0.000704 0.007950 0.000000 0.034310 0.000000
# 2 -0.000704 0.006331 -0.002232 0.000000 0.005384 0.000000
# 3 0.007950 -0.002232 0.036439 0.000000 0.035766 0.000000
# 4 0.000000 0.000000 0.000000 0.292569 0.000000 0.272246
# 5 0.034310 0.005384 0.035766 0.000000 0.123913 0.000000
# 6 0.000000 0.000000 0.000000 0.272246 0.000000 0.337511
#
#
# Mechanical properties :
#
#
# Convention : Reuss Voigt Hill
#
# Bulk Modulus (GPa) = 13.60054 58.53323 36.06689
# Shear Modulus (GPa) = 6.00982 26.79393 16.40187
#
# Velocity S-wave (km/s) = 1.78122 3.76102 2.94262
# Velocity P-wave (km/s) = 3.37794 7.05420 5.53047
#
# Compressibility (1/GPa) = 0.07352647
#
# Stress axis : x y z
#
# Youngs Moduli (GPa) = 48.24291 157.95155 27.44328
#
# Poissons Ratio (x) = 0.11124 -0.21818
# Poissons Ratio (y) = 0.03398 0.06125
# Poissons Ratio (z) = -0.38354 0.35251
#
# Static dielectric constant tensor:
#      x y z
#    x 1.623950 0.000000 0.034320 
#    y 0.000000 1.721090 0.000000 
#    z 0.034320 0.000000 1.678720 
# 
# From -- ./inp_files/15733.got.cif
#   From: 2010.05.17/outbox.cif.g08.bks.cpg/sg3_8_cif.got.tgz:15733.got - 2010.06.03 18:33:08.
