data_PCOD9112560
_publ_section_title
;
Structure prediction by ZEFSAII (Michael W. Deem and Ramdas Pophale) SiO2 
 PCOD9112560
Probable space group: P 2
;
_chemical_formula_sum "Si O2"
_cell_formula_units_Z 15
_cell_length_a 11.403310
_cell_length_b 7.849910
_cell_length_c 9.131614
_cell_angle_alpha 90.000000
_cell_angle_beta 75.265685
_cell_angle_gamma 90.000000
_cell_volume 790.535801
_symmetry_space_group_name_H-M "P 2"
_symmetry_group_IT_number 3
_symmetry_cell_setting 'monoclinic'
loop_
_space_group_symop_operation_xyz
x,y,z
-x,y,-z
loop_
_atom_site_type_symbol
_atom_site_label
_atom_site_fract_x
_atom_site_fract_y
_atom_site_fract_z
Si Si1 0.126787 0.207950 0.038268
Si Si2 0.259493 0.043996 0.739749
Si Si3 0.433670 0.358287 0.683148
Si Si4 0.017760 0.068488 0.655356
Si Si5 0.765488 0.656968 0.242658
Si Si6 0.500000 0.467185 0.000000
Si Si7 0.991764 0.659331 0.667236
Si Si8 0.765465 0.565297 0.928638
O O1 0.210395 0.370469 0.031953
O O2 0.084173 0.139472 0.206372
O O3 0.196294 0.070493 0.918229
O O4 0.000000 0.256630 0.000000
O O5 0.371448 0.172037 0.698821
O O6 0.279468 0.845380 0.696726
O O7 0.152532 0.108838 0.667218
O O8 0.500000 0.373076 0.500000
O O9 0.335064 0.511328 0.709240
O O10 0.488765 0.378122 0.836630
O O11 0.003380 0.864258 0.663169
O O12 0.000000 0.135144 0.500000
O O13 0.889875 0.601640 0.281208
O O14 0.795372 0.673995 0.061908
O O15 0.623106 0.575938 0.942390
O O16 0.863363 0.608703 0.775478
O O17 0.000000 0.595615 0.500000
#
# Coordination Sequence:
#
# PCOD9112560 Si02
#       8
#     2   2   2   2   2   1   2   2
#     4  10  18  32  59  86 115 155 198 249 314 376
#     4  10  20  40  62  87 122 163 204 253 323 376
#     4  11  25  44  67  89 129 169 217 269 308 375
#     4   9  20  35  55  92 128 152 200 260 318 388
#     4  10  21  40  64  90 121 162 210 260 321 384
#     4  10  24  44  60  94 128 168 224 262 300 386
#     4  10  21  35  58  94 126 157 204 267 324 378
#     4  11  21  37  62  86 125 163 210 262 313 373
#
# _framework density 18.974473
#
# number of rings (size 3 to 8) (size 9 to 14) (size 15 to 20)
#    0.000    1.867    2.667    2.000    3.733    4.267 
#    0.000    2.667    0.000    0.000    0.000    0.000 
#    0.000    0.000    0.000    0.000    0.000    0.000 
#
# Total GULP energy -83501.586848 kJ/mol
# GULP energy per Si atom -5566.772457 kJ/mol
# Density = 1.893129 g / cm^3
# Si number density = 18.974473 Si / 1000 Ang^3
#
#
#
# Elastic Constant Matrix: (Units=GPa)
#
#
# Indices 1 2 3 4 5 6 
#
# 1 100.5364 29.2378 65.4043 0.0000 -4.2472 0.0000
# 2 29.2378 38.3452 12.5522 0.0000 9.2555 0.0000
# 3 65.4043 12.5522 157.8646 0.0000 -0.9335 0.0000
# 4 0.0000 0.0000 0.0000 0.4990 0.0000 8.0411
# 5 -4.2472 9.2555 -0.9335 0.0000 17.0175 0.0000
# 6 0.0000 0.0000 0.0000 8.0411 0.0000 15.9005
#
#
#
# Elastic Compliance Matrix: (Units=1/GPa)
#
#
# Indices 1 2 3 4 5 6 
#
# 1 0.019478 -0.015806 -0.006736 0.000000 0.013089 0.000000
# 2 -0.015806 0.043853 0.002898 0.000000 -0.027637 0.000000
# 3 -0.006736 0.002898 0.008878 0.000000 -0.002771 0.000000
# 4 0.000000 0.000000 0.000000 -0.280306 0.000000 0.141754
# 5 0.013089 -0.027637 -0.002771 0.000000 0.076909 0.000000
# 6 0.000000 0.000000 0.000000 0.141754 0.000000 -0.008796
#
#
# Mechanical properties :
#
#
# Convention : Reuss Voigt Hill
#
# Bulk Modulus (GPa) = 30.37456 56.79276 43.58366
# Shear Modulus (GPa) = -55.72812 19.32020 -18.20396
#
# Velocity S-wave (km/s) = -5.42529 3.19442 -3.10077
# Velocity P-wave (km/s) = 4.81687 6.60317 3.19372
#
# Compressibility (1/GPa) = 0.03292229
#
# Stress axis : x y z
#
# Youngs Moduli (GPa) = 51.33896 22.80339 112.63296
#
# Poissons Ratio (x) = 0.36044 0.75868
# Poissons Ratio (y) = 0.81148 -0.32646
# Poissons Ratio (z) = 0.34581 -0.06609
#
# Static dielectric constant tensor:
#      x y z
#    x 1.668100 0.000000 0.034220 
#    y 0.000000 1.673940 0.000000 
#    z 0.034220 0.000000 1.715300 
# 
# From -- ./inp_files/6998.got.cif
#   From: 2010.05.17/outbox.cif.g08.bks.cpg/sg3_4_cif.got.tgz:6998.got - 2010.06.03 18:33:08.
