data_PCOD9112081
_publ_section_title
;
Structure prediction by ZEFSAII (Michael W. Deem and Ramdas Pophale) SiO2 
 PCOD9112081
Probable space group: P -1
;
_chemical_formula_sum "Si O2"
_cell_formula_units_Z 12
_cell_length_a 7.218819
_cell_length_b 9.070658
_cell_length_c 15.450549
_cell_angle_alpha 73.017248
_cell_angle_beta 125.477863
_cell_angle_gamma 66.570655
_cell_volume 540.026682
_symmetry_space_group_name_H-M "P -1"
_symmetry_group_IT_number 2
_symmetry_cell_setting 'triclinic'
loop_
_space_group_symop_operation_xyz
x,y,z
-x,-y,-z
loop_
_atom_site_type_symbol
_atom_site_label
_atom_site_fract_x
_atom_site_fract_y
_atom_site_fract_z
Si Si1 0.688973 0.943560 0.650916
Si Si2 0.367455 0.280441 0.175273
Si Si3 0.235824 0.922844 0.996650
Si Si4 0.307480 0.573352 0.781673
Si Si5 0.796698 0.889358 0.215051
Si Si6 0.857877 0.564043 0.545998
O O1 0.647167 0.830896 0.730056
O O2 0.070482 0.757868 0.759507
O O3 0.500000 0.000000 0.500000
O O4 0.510906 0.185807 0.593211
O O5 0.526224 0.365066 0.231876
O O6 0.610438 0.084420 0.202997
O O7 0.000000 0.500000 0.000000
O O8 0.412223 0.676144 0.061791
O O9 0.511355 0.907860 0.106589
O O10 0.095028 0.070609 0.847248
O O11 0.000000 0.000000 0.000000
O O12 0.085082 0.572162 0.661222
O O13 0.088216 0.635384 0.371780
O O14 0.000000 0.500000 0.500000
#
# Coordination Sequence:
#
# PCOD9112081 Si02
#       6
#     2   2   2   2   2   2
#     4  10  23  43  68  95 139 174 218 280 333 391
#     4  12  24  41  69  99 135 173 225 277 331 399
#     4  10  21  40  64  93 132 170 215 273 332 391
#     4  10  24  41  68  98 132 173 222 269 341 390
#     4  10  22  39  63  94 129 170 219 269 328 392
#     4  10  20  44  69  92 133 178 221 272 328 397
#
# _framework density 22.221125000000001
#
# number of rings (size 3 to 8) (size 9 to 14) (size 15 to 20)
#    0.000    1.667    1.667    2.000    0.000   12.000 
#    0.000    2.500    0.000    0.000    0.000    0.000 
#    0.000    0.000    0.000    0.000    0.000    0.000 
#
# Total GULP energy -67074.741252 kJ/mol
# GULP energy per Si atom -5589.561771 kJ/mol
# Density = 2.217055 g / cm^3
# Si number density = 22.221125 Si / 1000 Ang^3
#
#
#
# Elastic Constant Matrix: (Units=GPa)
#
#
# Indices 1 2 3 4 5 6 
#
# 1 142.8721 51.9537 85.4919 -21.6158 -30.5622 -15.5212
# 2 51.9537 120.1549 69.8027 -35.9600 -5.9600 -14.3848
# 3 85.4919 69.8027 123.6976 -38.2706 -42.6746 -4.5171
# 4 -21.6158 -35.9600 -38.2706 48.3949 5.0430 3.5482
# 5 -30.5622 -5.9600 -42.6746 5.0430 43.0169 4.4808
# 6 -15.5212 -14.3848 -4.5171 3.5482 4.4808 41.6490
#
#
#
# Elastic Compliance Matrix: (Units=1/GPa)
#
#
# Indices 1 2 3 4 5 6 
#
# 1 0.012631 -0.000323 -0.009163 -0.002092 -0.000313 0.003813
# 2 -0.000323 0.015971 -0.010732 0.003878 -0.009632 0.004938
# 3 -0.009163 -0.010732 0.031390 0.010920 0.022601 -0.007079
# 4 -0.002092 0.003878 0.010920 0.030689 0.006450 -0.001564
# 5 -0.000313 -0.009632 0.022601 0.006450 0.044008 -0.006276
# 6 0.003813 0.004938 -0.007079 -0.001564 -0.006276 0.027177
#
#
# Mechanical properties :
#
#
# Convention : Reuss Voigt Hill
#
# Bulk Modulus (GPa) = 51.13735 89.02456 70.08096
# Shear Modulus (GPa) = 23.94394 38.57725 31.26060
#
# Velocity S-wave (km/s) = 3.28614 4.17113 3.75480
# Velocity P-wave (km/s) = 6.12055 7.95913 7.09961
#
# Compressibility (1/GPa) = 0.01955518
#
# Stress axis : x y z
#
# Youngs Moduli (GPa) = 79.17283 62.61401 31.85683
#
# Poissons Ratio (x) = 0.02023 0.29191
# Poissons Ratio (y) = 0.02558 0.34189
# Poissons Ratio (z) = 0.72547 0.67198
#
# Static dielectric constant tensor:
#      x y z
#    x 1.853500 0.067680 -0.067250 
#    y 0.067680 1.852140 -0.064460 
#    z -0.067250 -0.064460 2.008420 
# 
# From -- ./inp_files/27457.got.cif
#   From: 2010.05.17/outbox.cif.g08.bks.cpg/sg2_14_cif.got.tgz:27457.got - 2010.06.03 11:33:40.
