data_PCOD9112875
_publ_section_title
;
Structure prediction by ZEFSAII (Michael W. Deem and Ramdas Pophale) SiO2 
 PCOD9112875
Probable space group: P 2
;
_chemical_formula_sum "Si O2"
_cell_formula_units_Z 12
_cell_length_a 11.829726
_cell_length_b 8.916291
_cell_length_c 8.248184
_cell_angle_alpha 90.000000
_cell_angle_beta 35.371022
_cell_angle_gamma 90.000000
_cell_volume 503.613579
_symmetry_space_group_name_H-M "P 2"
_symmetry_group_IT_number 3
_symmetry_cell_setting 'monoclinic'
loop_
_space_group_symop_operation_xyz
x,y,z
-x,y,-z
loop_
_atom_site_type_symbol
_atom_site_label
_atom_site_fract_x
_atom_site_fract_y
_atom_site_fract_z
Si Si1 0.770054 0.776890 0.790573
Si Si2 0.737134 0.310658 0.215625
Si Si3 0.746796 0.150322 0.526611
Si Si4 0.724112 0.127832 0.913919
Si Si5 0.787728 0.802999 0.416267
Si Si6 0.782996 0.657328 0.100824
O O1 0.688702 0.762549 0.703628
O O2 0.000000 0.741653 0.500000
O O3 0.758471 0.949454 0.863780
O O4 0.691373 0.679965 0.030659
O O5 0.500000 0.302713 0.500000
O O6 0.807114 0.257885 0.310532
O O7 0.790579 0.482385 0.126624
O O8 0.797991 0.205959 0.991965
O O9 0.801974 0.185773 0.648242
O O10 0.807995 0.982245 0.403751
O O11 0.510013 0.148069 0.808605
O O12 0.694606 0.746219 0.357938
O O13 0.000376 0.727086 0.166740
#
# Coordination Sequence:
#
# PCOD9112875 Si02
#       6
#     2   2   2   2   2   2
#     4   9  18  34  54  77 105 138 179 220 260 310
#     4  10  21  35  53  80 111 141 173 214 267 320
#     4   9  18  35  58  78 102 136 181 226 260 304
#     4   9  18  34  56  81 102 134 181 224 264 305
#     4   9  19  36  54  74 103 139 180 222 257 304
#     4  10  20  34  51  76 111 142 170 210 266 321
#
# _framework density 23.827793
#
# number of rings (size 3 to 8) (size 9 to 14) (size 15 to 20)
#    0.000    2.667    0.000    1.000    0.000    2.667 
#    0.000   15.833    0.000    0.000    0.000    0.000 
#    0.000    0.000    0.000    0.000    0.000    0.000 
#
# Total GULP energy -67075.835050 kJ/mol
# GULP energy per Si atom -5589.652921 kJ/mol
# Density = 2.377356 g / cm^3
# Si number density = 23.827793 Si / 1000 Ang^3
#
#
#
# Elastic Constant Matrix: (Units=GPa)
#
#
# Indices 1 2 3 4 5 6 
#
# 1 137.3116 62.4896 61.6993 0.0000 50.0004 0.0000
# 2 62.4896 116.8876 82.7579 0.0000 60.4868 0.0000
# 3 61.6993 82.7579 168.9953 0.0000 49.3175 0.0000
# 4 0.0000 0.0000 0.0000 257.6481 0.0000 78.8885
# 5 50.0004 60.4868 49.3175 0.0000 65.7203 0.0000
# 6 0.0000 0.0000 0.0000 78.8885 0.0000 69.0100
#
#
#
# Elastic Compliance Matrix: (Units=1/GPa)
#
#
# Indices 1 2 3 4 5 6 
#
# 1 0.010751 -0.002044 -0.001391 0.000000 -0.005255 0.000000
# 2 -0.002044 0.020136 -0.005327 0.000000 -0.012981 0.000000
# 3 -0.001391 -0.005327 0.009339 0.000000 -0.001048 0.000000
# 4 0.000000 0.000000 0.000000 0.005971 0.000000 -0.006826
# 5 -0.005255 -0.012981 -0.001048 0.000000 0.031947 0.000000
# 6 0.000000 0.000000 0.000000 -0.006826 0.000000 0.022294
#
#
# Mechanical properties :
#
#
# Convention : Reuss Voigt Hill
#
# Bulk Modulus (GPa) = 44.04366 93.00980 68.52673
# Shear Modulus (GPa) = 39.83100 92.89220 66.36160
#
# Velocity S-wave (km/s) = 4.09298 6.25056 5.28308
# Velocity P-wave (km/s) = 6.39226 9.55047 8.12627
#
# Compressibility (1/GPa) = 0.02270474
#
# Stress axis : x y z
#
# Youngs Moduli (GPa) = 93.01219 49.66119 107.07359
#
# Poissons Ratio (x) = 0.10149 0.14893
# Poissons Ratio (y) = 0.19009 0.57034
# Poissons Ratio (z) = 0.12937 0.26453
#
# Static dielectric constant tensor:
#      x y z
#    x 1.857610 0.000000 0.091920 
#    y 0.000000 1.793020 0.000000 
#    z 0.091920 0.000000 1.879890 
# 
# From -- ./inp_files/5082.got.cif
#   From: 2010.05.17/outbox.cif.g08.bks.cpg/sg3_3_cif.got.tgz:5082.got - 2010.06.03 18:33:08.
