data_PCOD9112195
_publ_section_title
;
Structure prediction by ZEFSAII (Michael W. Deem and Ramdas Pophale) SiO2 
 PCOD9112195
Probable space group: P -1
;
_chemical_formula_sum "Si O2"
_cell_formula_units_Z 16
_cell_length_a 5.383266
_cell_length_b 7.256134
_cell_length_c 21.377034
_cell_angle_alpha 48.557158
_cell_angle_beta 80.771733
_cell_angle_gamma 76.334526
_cell_volume 608.218432
_symmetry_space_group_name_H-M "P -1"
_symmetry_group_IT_number 2
_symmetry_cell_setting 'triclinic'
loop_
_space_group_symop_operation_xyz
x,y,z
-x,-y,-z
loop_
_atom_site_type_symbol
_atom_site_label
_atom_site_fract_x
_atom_site_fract_y
_atom_site_fract_z
Si Si1 0.116996 0.432286 0.579052
Si Si2 0.532718 0.992256 0.677408
Si Si3 0.713623 0.080316 0.517514
Si Si4 0.776560 0.146010 0.018805
Si Si5 0.296529 0.255453 0.807910
Si Si6 0.819015 0.542107 0.837790
Si Si7 0.701011 0.327407 0.701626
Si Si8 0.956330 0.119999 0.151860
O O1 0.315920 0.619648 0.540840
O O2 0.248439 0.140759 0.640988
O O3 0.000000 0.500000 0.500000
O O4 0.913302 0.475531 0.634702
O O5 0.603340 0.730092 0.768339
O O6 0.261840 0.054863 0.799361
O O7 0.680080 0.970363 0.611344
O O8 0.646809 0.185730 0.672998
O O9 0.500000 0.000000 0.500000
O O10 0.000000 0.000000 0.500000
O O11 0.905963 0.222831 0.060555
O O12 0.611356 0.939657 0.094765
O O13 0.674575 0.381964 0.927312
O O14 0.000000 0.000000 0.000000
O O15 0.451121 0.443766 0.724981
O O16 0.021741 0.392565 0.814105
O O17 0.999286 0.679816 0.844087
O O18 0.804714 0.100685 0.796106
#
# Coordination Sequence:
#
# PCOD9112195 Si02
#       8
#     2   2   2   2   2   2   2   2
#     4  12  26  52  84 105 148 215 265 330 410 499
#     4  11  26  47  77 110 150 205 264 326 404 483
#     4  12  29  53  79 125 161 202 268 347 416 498
#     4   8  17  39  72 102 157 204 258 315 390 469
#     4   9  21  42  71 110 149 201 253 324 385 466
#     4  10  20  44  75 111 154 197 266 321 394 484
#     4  11  23  44  78 108 149 192 278 315 399 468
#     4   9  20  39  70 104 151 200 254 313 392 457
#
# _framework density 26.306338
#
# number of rings (size 3 to 8) (size 9 to 14) (size 15 to 20)
#    0.750    1.000    1.250    2.250    1.750    2.000 
#    2.250   10.000    5.500    0.000    0.000    0.000 
#    0.000    0.000    0.000    0.000    0.000    0.000 
#
# Total GULP energy -89357.488755 kJ/mol
# GULP energy per Si atom -5584.843047 kJ/mol
# Density = 2.624646 g / cm^3
# Si number density = 26.306338 Si / 1000 Ang^3
#
#
#
# Elastic Constant Matrix: (Units=GPa)
#
#
# Indices 1 2 3 4 5 6 
#
# 1 108.4703 44.1575 80.6592 10.6744 -6.0882 1.7611
# 2 44.1575 110.8587 62.7524 16.2799 7.4305 9.6883
# 3 80.6592 62.7524 226.6709 -6.3955 9.2887 -24.5303
# 4 10.6744 16.2799 -6.3955 45.8991 -9.1811 7.0059
# 5 -6.0882 7.4305 9.2887 -9.1811 46.4100 1.8235
# 6 1.7611 9.6883 -24.5303 7.0059 1.8235 45.3998
#
#
#
# Elastic Compliance Matrix: (Units=1/GPa)
#
#
# Indices 1 2 3 4 5 6 
#
# 1 0.014259 -0.002662 -0.004771 -0.002091 0.002931 -0.002358
# 2 -0.002662 0.012910 -0.003026 -0.004352 -0.002533 -0.003513
# 3 -0.004771 -0.003026 0.007569 0.002252 -0.001393 0.004629
# 4 -0.002091 -0.004352 0.002252 0.025437 0.005079 -0.001902
# 5 0.002931 -0.002533 -0.001393 0.005079 0.023702 -0.002061
# 6 -0.002358 -0.003513 0.004629 -0.001902 -0.002061 0.025745
#
#
# Mechanical properties :
#
#
# Convention : Reuss Voigt Hill
#
# Bulk Modulus (GPa) = 72.36459 91.23754 81.80107
# Shear Modulus (GPa) = 36.99690 44.77048 40.88369
#
# Velocity S-wave (km/s) = 3.75425 4.12987 3.94653
# Velocity P-wave (km/s) = 6.80887 7.58282 7.20624
#
# Compressibility (1/GPa) = 0.01381891
#
# Stress axis : x y z
#
# Youngs Moduli (GPa) = 70.12875 77.46158 132.12260
#
# Poissons Ratio (x) = 0.20623 0.63041
# Poissons Ratio (y) = 0.18671 0.39977
# Poissons Ratio (z) = 0.33461 0.23438
#
# Static dielectric constant tensor:
#      x y z
#    x 2.326090 -0.068130 -0.056450 
#    y -0.068130 2.114470 -0.056380 
#    z -0.056450 -0.056380 2.130930 
# 
# From -- ./inp_files/547747.got.cif
#   From: 2010.05.17/outbox.cif.g08.bks.cpg/sg2_274_cif.got.tgz:547747.got - 2010.06.03 11:33:40.
