data_PCOD9112663
_publ_section_title
;
Structure prediction by ZEFSAII (Michael W. Deem and Ramdas Pophale) SiO2 
 PCOD9112663
Probable space group: P 2
;
_chemical_formula_sum "Si O2"
_cell_formula_units_Z 14
_cell_length_a 7.257726
_cell_length_b 16.541684
_cell_length_c 7.904818
_cell_angle_alpha 90.000000
_cell_angle_beta 141.813039
_cell_angle_gamma 90.000000
_cell_volume 586.707872
_symmetry_space_group_name_H-M "P 2"
_symmetry_group_IT_number 3
_symmetry_cell_setting 'monoclinic'
loop_
_space_group_symop_operation_xyz
x,y,z
-x,y,-z
loop_
_atom_site_type_symbol
_atom_site_label
_atom_site_fract_x
_atom_site_fract_y
_atom_site_fract_z
Si Si1 0.679880 0.641350 0.949908
Si Si2 0.500000 0.172675 0.000000
Si Si3 0.828383 0.540496 0.555674
Si Si4 0.000000 0.059358 0.500000
Si Si5 0.377350 0.823857 0.100906
Si Si6 0.905395 0.376881 0.118157
Si Si7 0.795571 0.925047 0.610879
Si Si8 0.398621 0.295830 0.625829
O O1 0.503609 0.572353 0.717537
O O2 0.500000 0.643797 0.000000
O O3 0.696258 0.732724 0.898583
O O4 0.008313 0.611630 0.226541
O O5 0.504409 0.225027 0.177338
O O6 0.782194 0.114988 0.232438
O O7 0.000000 0.532241 0.500000
O O8 0.919044 0.458976 0.717798
O O9 0.149269 0.998655 0.475205
O O10 0.105850 0.889185 0.910211
O O11 0.500000 0.823999 0.000000
O O12 0.660546 0.849430 0.413821
O O13 0.047801 0.313414 0.351427
O O14 0.551335 0.373115 0.834741
O O15 0.000000 0.349796 0.000000
O O16 0.500000 0.950481 0.500000
O O17 0.500000 0.285779 0.500000
#
# Coordination Sequence:
#
# PCOD9112663 Si02
#       8
#     2   1   2   1   2   2   2   2
#     4   9  19  33  55  89 127 170 224 283 342 390
#     4  12  26  44  76  98 136 178 226 278 362 434
#     4  10  19  32  53  88 125 168 228 281 332 402
#     4  12  26  48  70 108 138 176 228 284 358 438
#     4  11  20  41  69  94 134 187 234 288 346 409
#     4  10  21  38  60  87 130 176 223 277 344 404
#     4  12  25  44  71 103 138 178 230 285 346 420
#     4  10  23  42  64  97 131 172 227 281 339 419
#
# _framework density 23.861961000000001
#
# number of rings (size 3 to 8) (size 9 to 14) (size 15 to 20)
#    0.000    1.429    1.429    3.857    2.000    2.857 
#    0.000    4.286    0.000    0.857    0.000    0.000 
#    0.000    0.000    0.000    0.000    0.000    0.000 
#
# Total GULP energy -78127.084263 kJ/mol
# GULP energy per Si atom -5580.506019 kJ/mol
# Density = 2.380765 g / cm^3
# Si number density = 23.861961 Si / 1000 Ang^3
#
#
#
# Elastic Constant Matrix: (Units=GPa)
#
#
# Indices 1 2 3 4 5 6 
#
# 1 86.7601 23.8886 20.8670 0.0000 -12.7395 0.0000
# 2 23.8886 114.4522 42.7580 0.0000 -14.0765 0.0000
# 3 20.8670 42.7580 141.0275 0.0000 1.2921 0.0000
# 4 0.0000 0.0000 0.0000 149.4103 0.0000 -65.9336
# 5 -12.7395 -14.0765 1.2921 0.0000 32.7143 0.0000
# 6 0.0000 0.0000 0.0000 -65.9336 0.0000 59.6454
#
#
#
# Elastic Compliance Matrix: (Units=1/GPa)
#
#
# Indices 1 2 3 4 5 6 
#
# 1 0.012973 -0.001615 -0.001470 0.000000 0.004415 0.000000
# 2 -0.001615 0.010718 -0.003048 0.000000 0.004103 0.000000
# 3 -0.001470 -0.003048 0.008253 0.000000 -0.002210 0.000000
# 4 0.000000 0.000000 0.000000 0.013068 0.000000 0.014445
# 5 0.004415 0.004103 -0.002210 0.000000 0.034140 0.000000
# 6 0.000000 0.000000 0.000000 0.014445 0.000000 0.032734
#
#
# Mechanical properties :
#
#
# Convention : Reuss Voigt Hill
#
# Bulk Modulus (GPa) = 50.82380 57.47411 54.14895
# Shear Modulus (GPa) = 38.25258 65.33574 51.79416
#
# Velocity S-wave (km/s) = 4.00819 5.23833 4.66400
# Velocity P-wave (km/s) = 6.53958 7.79264 7.19345
#
# Compressibility (1/GPa) = 0.01967582
#
# Stress axis : x y z
#
# Youngs Moduli (GPa) = 77.08510 93.30261 121.17188
#
# Poissons Ratio (x) = 0.15073 0.17814
# Poissons Ratio (y) = 0.12453 0.36934
# Poissons Ratio (z) = 0.11333 0.28439
#
# Static dielectric constant tensor:
#      x y z
#    x 1.569160 0.000000 -0.035350 
#    y 0.000000 1.917330 0.000000 
#    z -0.035350 0.000000 1.907810 
# 
# From -- ./inp_files/6298.got.cif
#   From: 2010.05.17/outbox.cif.g08.bks.cpg/sg3_4_cif.got.tgz:6298.got - 2010.06.03 18:33:08.
