data_PCOD9112749
_publ_section_title
;
Structure prediction by ZEFSAII (Michael W. Deem and Ramdas Pophale) SiO2 
 PCOD9112749
Probable space group: P 2
;
_chemical_formula_sum "Si O2"
_cell_formula_units_Z 16
_cell_length_a 8.682279
_cell_length_b 12.058674
_cell_length_c 9.225676
_cell_angle_alpha 90.000000
_cell_angle_beta 120.155390
_cell_angle_gamma 90.000000
_cell_volume 835.179770
_symmetry_space_group_name_H-M "P 2"
_symmetry_group_IT_number 3
_symmetry_cell_setting 'monoclinic'
loop_
_space_group_symop_operation_xyz
x,y,z
-x,y,-z
loop_
_atom_site_type_symbol
_atom_site_label
_atom_site_fract_x
_atom_site_fract_y
_atom_site_fract_z
Si Si1 0.220433 0.353680 0.787421
Si Si2 0.526093 0.107453 0.680875
Si Si3 0.973376 0.586581 0.321343
Si Si4 0.309197 0.729475 0.985171
Si Si5 0.182477 0.976489 0.996614
Si Si6 0.591133 0.350318 0.811284
Si Si7 0.155753 0.107311 0.680290
Si Si8 0.196659 0.562333 0.169428
O O1 0.093086 0.459429 0.726778
O O2 0.387227 0.376714 0.759114
O O3 0.130331 0.238170 0.701794
O O4 0.305058 0.336892 0.986780
O O5 0.500000 0.078744 0.500000
O O6 0.589924 0.235257 0.724934
O O7 0.342361 0.097843 0.683481
O O8 0.669191 0.033358 0.832326
O O9 0.000000 0.610906 0.500000
O O10 0.149354 0.599850 0.308046
O O11 0.824902 0.666814 0.185733
O O12 0.240112 0.851413 0.988562
O O13 0.301024 0.653312 0.125003
O O14 0.500000 0.733228 0.000000
O O15 0.000000 0.977700 0.000000
O O16 0.163805 0.042717 0.836164
O O17 0.691693 0.449699 0.779886
O O18 0.000000 0.067896 0.500000
O O19 0.000000 0.547175 0.000000
#
# Coordination Sequence:
#
# PCOD9112749 Si02
#       8
#     2   2   2   2   2   2   2   2
#     4  10  19  36  60  91 128 168 206 251 312 375
#     4  11  24  42  63  96 131 166 214 264 315 380
#     4  11  23  38  61  94 128 158 204 262 308 368
#     4  11  23  44  67  87 116 164 210 254 313 384
#     4  12  25  43  68  93 122 167 213 264 325 376
#     4  10  19  35  62  90 125 167 208 253 310 376
#     4  11  23  41  63  94 131 170 213 261 313 378
#     4  10  20  36  60  90 122 159 204 249 303 374
#
# _framework density 19.157551999999999
#
# number of rings (size 3 to 8) (size 9 to 14) (size 15 to 20)
#    0.000    1.250    3.750    4.125    0.000    5.000 
#    0.000    5.625    0.000    0.000    0.000    0.000 
#    0.000    0.000    0.000    0.000    0.000    0.000 
#
# Total GULP energy -89436.091944 kJ/mol
# GULP energy per Si atom -5589.755746 kJ/mol
# Density = 1.911395 g / cm^3
# Si number density = 19.157552 Si / 1000 Ang^3
#
#
#
# Elastic Constant Matrix: (Units=GPa)
#
#
# Indices 1 2 3 4 5 6 
#
# 1 125.8180 78.1446 66.2417 0.0000 -17.6799 0.0000
# 2 78.1446 134.8996 63.8190 0.0000 -3.9228 0.0000
# 3 66.2417 63.8190 129.4930 0.0000 -25.5053 0.0000
# 4 0.0000 0.0000 0.0000 13.5928 0.0000 18.8020
# 5 -17.6799 -3.9228 -25.5053 0.0000 29.0699 0.0000
# 6 0.0000 0.0000 0.0000 18.8020 0.0000 71.5047
#
#
#
# Elastic Compliance Matrix: (Units=1/GPa)
#
#
# Indices 1 2 3 4 5 6 
#
# 1 0.014520 -0.006825 -0.003030 0.000000 0.005252 0.000000
# 2 -0.006825 0.013175 -0.004194 0.000000 -0.006053 0.000000
# 3 -0.003030 -0.004194 0.013134 0.000000 0.009115 0.000000
# 4 0.000000 0.000000 0.000000 0.115622 0.000000 -0.030403
# 5 0.005252 -0.006053 0.009115 0.000000 0.044775 0.000000
# 6 0.000000 0.000000 0.000000 -0.030403 0.000000 0.021979
#
#
# Mechanical properties :
#
#
# Convention : Reuss Voigt Hill
#
# Bulk Modulus (GPa) = 78.54120 89.62457 84.08289
# Shear Modulus (GPa) = 19.56589 34.96717 27.26653
#
# Velocity S-wave (km/s) = 3.19927 4.27692 3.77673
# Velocity P-wave (km/s) = 7.39822 8.44238 7.93749
#
# Compressibility (1/GPa) = 0.01273217
#
# Stress axis : x y z
#
# Youngs Moduli (GPa) = 68.87002 75.90370 76.13616
#
# Poissons Ratio (x) = 0.51806 0.23066
# Poissons Ratio (y) = 0.47005 0.31929
# Poissons Ratio (z) = 0.20865 0.31831
#
# Static dielectric constant tensor:
#      x y z
#    x 1.655550 0.000000 -0.001410 
#    y 0.000000 1.641710 0.000000 
#    z -0.001410 0.000000 1.667150 
# 
# From -- ./inp_files/6023.got.cif
#   From: 2010.05.17/outbox.cif.g08.bks.cpg/sg3_4_cif.got.tgz:6023.got - 2010.06.03 18:33:08.
