data_PCOD9112936
_publ_section_title
;
Structure prediction by ZEFSAII (Michael W. Deem and Ramdas Pophale) SiO2 
 PCOD9112936
Probable space group: P 2
;
_chemical_formula_sum "Si O2"
_cell_formula_units_Z 15
_cell_length_a 9.234965
_cell_length_b 11.698361
_cell_length_c 11.467248
_cell_angle_alpha 90.000000
_cell_angle_beta 40.060757
_cell_angle_gamma 90.000000
_cell_volume 797.324708
_symmetry_space_group_name_H-M "P 2"
_symmetry_group_IT_number 3
_symmetry_cell_setting 'monoclinic'
loop_
_space_group_symop_operation_xyz
x,y,z
-x,y,-z
loop_
_atom_site_type_symbol
_atom_site_label
_atom_site_fract_x
_atom_site_fract_y
_atom_site_fract_z
Si Si1 0.700252 0.893370 0.459179
Si Si2 0.563607 0.175425 0.080877
Si Si3 0.290928 0.697909 0.213381
Si Si4 0.785635 0.641437 0.473054
Si Si5 0.500000 0.464237 0.500000
Si Si6 0.961887 0.064813 0.158177
Si Si7 0.258586 0.957266 0.310460
Si Si8 0.739819 0.275645 0.201141
O O1 0.500000 0.925844 0.500000
O O2 0.739786 0.759210 0.433699
O O3 0.637669 0.926855 0.628099
O O4 0.906064 0.963975 0.280162
O O5 0.574739 0.248012 0.193732
O O6 0.392242 0.068041 0.186801
O O7 0.500000 0.239401 0.000000
O O8 0.814952 0.124298 0.930076
O O9 0.311840 0.657370 0.335302
O O10 0.263461 0.837467 0.236325
O O11 0.057167 0.640250 0.316056
O O12 0.500000 0.672192 0.000000
O O13 0.662810 0.541297 0.479859
O O14 0.649265 0.381964 0.327514
O O15 0.769479 0.161791 0.262534
O O16 0.000000 0.025671 0.000000
O O17 0.000000 0.984048 0.500000
O O18 0.000000 0.294940 0.000000
#
# Coordination Sequence:
#
# PCOD9112936 Si02
#       8
#     2   2   2   2   1   2   2   2
#     4  11  19  33  55  86 131 154 194 258 307 375
#     4  10  20  36  58  93 128 157 203 248 306 388
#     4  10  21  42  63  87 129 169 198 252 322 372
#     4  10  23  41  60  98 122 160 218 262 299 387
#     4  12  24  46  70  86 122 170 222 272 318 340
#     4   9  20  37  56  89 126 164 203 249 314 379
#     4  11  20  32  57  92 132 164 194 239 312 386
#     4   9  23  44  64  89 123 166 213 265 308 363
#
# _framework density 18.812912000000001
#
# number of rings (size 3 to 8) (size 9 to 14) (size 15 to 20)
#    0.000    2.133    3.333    2.800    4.667    1.067 
#    0.000    6.667    0.000    0.000    0.000    0.000 
#    0.000    0.000    0.000    0.000    0.000    0.000 
#
# Total GULP energy -83602.318742 kJ/mol
# GULP energy per Si atom -5573.487916 kJ/mol
# Density = 1.877009 g / cm^3
# Si number density = 18.812912 Si / 1000 Ang^3
#
#
#
# Elastic Constant Matrix: (Units=GPa)
#
#
# Indices 1 2 3 4 5 6 
#
# 1 117.4742 38.7934 43.9210 0.0000 2.5861 0.0000
# 2 38.7934 101.4373 54.1200 0.0000 13.1213 0.0000
# 3 43.9210 54.1200 101.2291 0.0000 0.3558 0.0000
# 4 0.0000 0.0000 0.0000 38.7357 0.0000 -48.8466
# 5 2.5861 13.1213 0.3558 0.0000 16.9633 0.0000
# 6 0.0000 0.0000 0.0000 -48.8466 0.0000 70.3781
#
#
#
# Elastic Compliance Matrix: (Units=1/GPa)
#
#
# Indices 1 2 3 4 5 6 
#
# 1 0.010507 -0.002257 -0.003353 0.000000 0.000214 0.000000
# 2 -0.002257 0.016448 -0.007771 0.000000 -0.012215 0.000000
# 3 -0.003353 -0.007771 0.015466 0.000000 0.006198 0.000000
# 4 0.000000 0.000000 0.000000 0.206902 0.000000 0.143602
# 5 0.000214 -0.012215 0.006198 0.000000 0.068237 0.000000
# 6 0.000000 0.000000 0.000000 0.143602 0.000000 0.113877
#
#
# Mechanical properties :
#
#
# Convention : Reuss Voigt Hill
#
# Bulk Modulus (GPa) = 63.86250 65.97883 64.92066
# Shear Modulus (GPa) = 10.78940 37.43583 24.11261
#
# Velocity S-wave (km/s) = 2.39741 4.46567 3.58398
# Velocity P-wave (km/s) = 6.45625 7.85728 7.19097
#
# Compressibility (1/GPa) = 0.01565864
#
# Stress axis : x y z
#
# Youngs Moduli (GPa) = 95.17803 60.79828 64.65732
#
# Poissons Ratio (x) = 0.13723 0.21677
# Poissons Ratio (y) = 0.21483 0.50247
# Poissons Ratio (z) = 0.31909 0.47248
#
# Static dielectric constant tensor:
#      x y z
#    x 1.527320 0.000000 0.191020 
#    y 0.000000 1.641770 0.000000 
#    z 0.191020 0.000000 1.527560 
# 
# From -- ./inp_files/10976.got.cif
#   From: 2010.05.17/outbox.cif.g08.bks.cpg/sg3_6_cif.got.tgz:10976.got - 2010.06.03 18:33:08.
