data_PCOD9112834
_publ_section_title
;
Structure prediction by ZEFSAII (Michael W. Deem and Ramdas Pophale) SiO2 
 PCOD9112834
Probable space group: P 2
;
_chemical_formula_sum "Si O2"
_cell_formula_units_Z 12
_cell_length_a 7.862907
_cell_length_b 9.565653
_cell_length_c 7.592771
_cell_angle_alpha 90.000000
_cell_angle_beta 66.547436
_cell_angle_gamma 90.000000
_cell_volume 523.904360
_symmetry_space_group_name_H-M "P 2"
_symmetry_group_IT_number 3
_symmetry_cell_setting 'monoclinic'
loop_
_space_group_symop_operation_xyz
x,y,z
-x,y,-z
loop_
_atom_site_type_symbol
_atom_site_label
_atom_site_fract_x
_atom_site_fract_y
_atom_site_fract_z
Si Si1 0.502463 0.226110 0.711431
Si Si2 0.793764 0.428318 0.169150
Si Si3 0.591525 0.911489 0.770548
Si Si4 0.278246 0.722828 0.799255
Si Si5 0.092905 0.732220 0.250541
Si Si6 0.194012 0.441015 0.414303
O O1 0.500000 0.226339 0.500000
O O2 0.299043 0.283019 0.847023
O O3 0.644676 0.343134 0.722275
O O4 0.565572 0.073796 0.741569
O O5 0.670066 0.562934 0.173123
O O6 0.779845 0.450028 0.385847
O O7 0.000000 0.444561 0.000000
O O8 0.457117 0.817595 0.704978
O O9 0.800803 0.852875 0.685101
O O10 0.500000 0.889550 0.000000
O O11 0.126952 0.732126 0.703835
O O12 0.172593 0.758277 0.023136
O O13 0.156149 0.584145 0.317497
O O14 0.000000 0.358988 0.500000
#
# Coordination Sequence:
#
# PCOD9112834 Si02
#       6
#     2   2   2   2   2   2
#     4  10  25  44  61  92 135 173 212 266 327 387
#     4  11  21  41  66  96 125 168 217 270 326 380
#     4  10  23  41  62  93 133 173 214 260 323 393
#     4  10  19  39  64  94 128 163 213 271 320 376
#     4  10  20  39  63  96 125 164 217 266 320 382
#     4  11  21  40  66  96 127 164 221 268 321 387
#
# _framework density 22.904942999999999
#
# number of rings (size 3 to 8) (size 9 to 14) (size 15 to 20)
#    0.000    1.667    3.333    1.000    0.000    4.000 
#   12.000    0.000    0.000    0.000    0.000    0.000 
#    0.000    0.000    0.000    0.000    0.000    0.000 
#
# Total GULP energy -66806.187465 kJ/mol
# GULP energy per Si atom -5567.182289 kJ/mol
# Density = 2.285281 g / cm^3
# Si number density = 22.904943 Si / 1000 Ang^3
#
#
#
# Elastic Constant Matrix: (Units=GPa)
#
#
# Indices 1 2 3 4 5 6 
#
# 1 146.3855 103.4809 23.0246 0.0000 4.4961 0.0000
# 2 103.4809 159.9738 13.7423 0.0000 -0.7564 0.0000
# 3 23.0246 13.7423 91.9259 0.0000 13.4474 0.0000
# 4 0.0000 0.0000 0.0000 44.9736 0.0000 12.7274
# 5 4.4961 -0.7564 13.4474 0.0000 20.2955 0.0000
# 6 0.0000 0.0000 0.0000 12.7274 0.0000 31.8010
#
#
#
# Elastic Compliance Matrix: (Units=1/GPa)
#
#
# Indices 1 2 3 4 5 6 
#
# 1 0.013022 -0.008285 -0.001723 0.000000 -0.002052 0.000000
# 2 -0.008285 0.011621 0.000007 0.000000 0.002264 0.000000
# 3 -0.001723 0.000007 0.012461 0.000000 -0.007874 0.000000
# 4 0.000000 0.000000 0.000000 0.025075 0.000000 -0.010036
# 5 -0.002052 0.002264 -0.007874 0.000000 0.055028 0.000000
# 6 0.000000 0.000000 0.000000 -0.010036 0.000000 0.035462
#
#
# Mechanical properties :
#
#
# Convention : Reuss Voigt Hill
#
# Bulk Modulus (GPa) = 58.47670 75.42010 66.94840
# Shear Modulus (GPa) = 28.03131 36.61652 32.32391
#
# Velocity S-wave (km/s) = 3.50210 4.00262 3.76070
# Velocity P-wave (km/s) = 6.47599 7.37294 6.93897
#
# Compressibility (1/GPa) = 0.01710083
#
# Stress axis : x y z
#
# Youngs Moduli (GPa) = 76.79201 86.05442 80.25214
#
# Poissons Ratio (x) = 0.71298 0.13826
# Poissons Ratio (y) = 0.63624 -0.00055
# Poissons Ratio (z) = 0.13230 -0.00059
#
# Static dielectric constant tensor:
#      x y z
#    x 1.974620 0.000000 -0.069930 
#    y 0.000000 1.858530 0.000000 
#    z -0.069930 0.000000 1.706640 
# 
# From -- ./inp_files/5065.got.cif
#   From: 2010.05.17/outbox.cif.g08.bks.cpg/sg3_3_cif.got.tgz:5065.got - 2010.06.03 18:33:08.
