data_PCOD9112688
_publ_section_title
;
Structure prediction by ZEFSAII (Michael W. Deem and Ramdas Pophale) SiO2 
 PCOD9112688
Probable space group: P 2
;
_chemical_formula_sum "Si O2"
_cell_formula_units_Z 16
_cell_length_a 8.792496
_cell_length_b 12.680839
_cell_length_c 8.958700
_cell_angle_alpha 90.000000
_cell_angle_beta 122.270407
_cell_angle_gamma 90.000000
_cell_volume 844.574848
_symmetry_space_group_name_H-M "P 2"
_symmetry_group_IT_number 3
_symmetry_cell_setting 'monoclinic'
loop_
_space_group_symop_operation_xyz
x,y,z
-x,y,-z
loop_
_atom_site_type_symbol
_atom_site_label
_atom_site_fract_x
_atom_site_fract_y
_atom_site_fract_z
Si Si1 0.468487 0.387780 0.159140
Si Si2 0.974094 0.924033 0.661245
Si Si3 0.820288 0.763824 0.804023
Si Si4 0.203953 0.957995 0.042344
Si Si5 0.160530 0.377708 0.463357
Si Si6 0.185565 0.525213 0.189969
Si Si7 0.166762 0.142066 0.471860
Si Si8 0.538817 0.147540 0.845580
O O1 0.656415 0.389425 0.346425
O O2 0.333128 0.466985 0.166862
O O3 0.396031 0.267908 0.135216
O O4 0.500000 0.409178 0.000000
O O5 0.876905 0.823508 0.682747
O O6 0.000000 0.910985 0.500000
O O7 0.864111 0.033055 0.631092
O O8 0.163313 0.938786 0.846394
O O9 0.711641 0.853394 0.838373
O O10 0.753120 0.645881 0.748107
O O11 0.000000 0.752126 0.000000
O O12 0.318600 0.061049 0.128633
O O13 0.000000 0.968782 0.000000
O O14 0.156139 0.461845 0.328417
O O15 0.158413 0.258144 0.394552
O O16 0.000000 0.387988 0.500000
O O17 0.000000 0.524782 0.000000
O O18 0.354556 0.136203 0.657376
O O19 0.000000 0.143600 0.500000
O O20 0.500000 0.131140 0.000000
#
# Coordination Sequence:
#
# PCOD9112688 Si02
#       8
#     2   2   2   2   2   2   2   2
#     4  10  22  39  57  83 117 148 184 231 279 332
#     4   9  16  31  56  80 107 140 176 222 270 319
#     4   8  19  37  53  75 108 143 182 227 270 319
#     4   9  19  36  55  78 112 144 176 220 270 325
#     4  10  21  38  59  85 115 147 186 231 279 332
#     4  11  22  38  60  82 110 150 192 233 280 329
#     4   9  18  32  52  82 115 141 174 223 273 326
#     4  10  19  33  56  83 111 143 179 219 271 332
#
# _framework density 18.944441999999999
#
# number of rings (size 3 to 8) (size 9 to 14) (size 15 to 20)
#    0.000    2.750    0.000    2.625    0.000    6.000 
#    0.000   10.000    0.000    0.000    0.000    0.000 
#    0.000    0.000    0.000    0.000    0.000    0.000 
#
# Total GULP energy -89182.012074 kJ/mol
# GULP energy per Si atom -5573.875755 kJ/mol
# Density = 1.890132 g / cm^3
# Si number density = 18.944442 Si / 1000 Ang^3
#
#
#
# Elastic Constant Matrix: (Units=GPa)
#
#
# Indices 1 2 3 4 5 6 
#
# 1 75.9040 80.4096 30.5850 0.0000 -3.1477 0.0000
# 2 80.4096 205.9391 60.4319 0.0000 -14.3078 0.0000
# 3 30.5850 60.4319 84.6080 0.0000 -22.0896 0.0000
# 4 0.0000 0.0000 0.0000 25.3598 0.0000 -1.9650
# 5 -3.1477 -14.3078 -22.0896 0.0000 27.5911 0.0000
# 6 0.0000 0.0000 0.0000 -1.9650 0.0000 29.3405
#
#
#
# Elastic Compliance Matrix: (Units=1/GPa)
#
#
# Indices 1 2 3 4 5 6 
#
# 1 0.023296 -0.008340 -0.003666 0.000000 -0.004602 0.000000
# 2 -0.008340 0.009133 -0.003186 0.000000 0.001234 0.000000
# 3 -0.003666 -0.003186 0.018812 0.000000 0.012990 0.000000
# 4 0.000000 0.000000 0.000000 0.039638 0.000000 0.002655
# 5 -0.004602 0.001234 0.012990 0.000000 0.046758 0.000000
# 6 0.000000 0.000000 0.000000 0.002655 0.000000 0.034260
#
#
# Mechanical properties :
#
#
# Convention : Reuss Voigt Hill
#
# Bulk Modulus (GPa) = 47.94747 78.81155 63.37951
# Shear Modulus (GPa) = 23.89671 29.45992 26.67831
#
# Velocity S-wave (km/s) = 3.55549 3.94771 3.75672
# Velocity P-wave (km/s) = 6.49767 7.90386 7.23501
#
# Compressibility (1/GPa) = 0.02085616
#
# Stress axis : x y z
#
# Youngs Moduli (GPa) = 42.92613 109.49432 53.15812
#
# Poissons Ratio (x) = 0.91318 0.19487
# Poissons Ratio (y) = 0.35800 0.16938
# Poissons Ratio (z) = 0.15736 0.34889
#
# Static dielectric constant tensor:
#      x y z
#    x 1.650460 0.000000 -0.013770 
#    y 0.000000 1.691200 0.000000 
#    z -0.013770 0.000000 1.677890 
# 
# From -- ./inp_files/6046.got.cif
#   From: 2010.05.17/outbox.cif.g08.bks.cpg/sg3_4_cif.got.tgz:6046.got - 2010.06.03 18:33:08.
