data_PCOD9112218
_publ_section_title
;
Structure prediction by ZEFSAII (Michael W. Deem and Ramdas Pophale) SiO2 
 PCOD9112218
Probable space group: P -1
;
_chemical_formula_sum "Si O2"
_cell_formula_units_Z 14
_cell_length_a 9.306744
_cell_length_b 17.021171
_cell_length_c 12.379938
_cell_angle_alpha 154.410089
_cell_angle_beta 38.094210
_cell_angle_gamma 139.035796
_cell_volume 514.988159
_symmetry_space_group_name_H-M "P -1"
_symmetry_group_IT_number 2
_symmetry_cell_setting 'triclinic'
loop_
_space_group_symop_operation_xyz
x,y,z
-x,-y,-z
loop_
_atom_site_type_symbol
_atom_site_label
_atom_site_fract_x
_atom_site_fract_y
_atom_site_fract_z
Si Si1 0.518440 0.067108 0.920925
Si Si2 0.373814 0.262048 0.667899
Si Si3 0.220597 0.921365 0.494346
Si Si4 0.702080 0.465423 0.580963
Si Si5 0.747304 0.705390 0.494638
Si Si6 0.710590 0.868026 0.085053
Si Si7 0.089483 0.600947 0.840176
O O1 0.346727 0.067128 0.919227
O O2 0.623273 0.880307 0.611183
O O3 0.367655 0.124809 0.180219
O O4 0.741756 0.229773 0.992230
O O5 0.306650 0.114775 0.621194
O O6 0.629257 0.384860 0.643480
O O7 0.175412 0.389059 0.954843
O O8 0.158653 0.975741 0.719623
O O9 0.447490 0.822714 0.237108
O O10 0.002792 0.794675 0.409773
O O11 0.445228 0.433640 0.632150
O O12 0.858704 0.376263 0.290853
O O13 0.808874 0.679736 0.790064
O O14 0.816700 0.580529 0.398623
#
# Coordination Sequence:
#
# PCOD9112218 Si02
#       7
#     2   2   2   2   2   2   2
#     4  10  21  40  65  94 128 165 209 264 316 369
#     4  11  26  38  62  99 135 164 202 266 327 367
#     4  10  25  39  64  95 129 169 216 252 314 386
#     4  11  23  40  69  92 130 167 208 264 319 367
#     4  11  22  40  68  98 122 163 224 258 305 385
#     4  10  20  45  63  89 128 175 211 255 310 379
#     4  11  22  41  64 102 124 161 216 266 309 384
#
# _framework density 27.185092999999998
#
# number of rings (size 3 to 8) (size 9 to 14) (size 15 to 20)
#    0.000    1.429    2.857    2.143    8.000    3.429 
#    0.000    2.143    0.000    0.000    0.000    0.000 
#    0.000    0.000    0.000    0.000    0.000    0.000 
#
# Total GULP energy -78290.911522 kJ/mol
# GULP energy per Si atom -5592.207966 kJ/mol
# Density = 2.712322 g / cm^3
# Si number density = 27.185093 Si / 1000 Ang^3
#
#
#
# Elastic Constant Matrix: (Units=GPa)
#
#
# Indices 1 2 3 4 5 6 
#
# 1 90.1850 23.6110 8.5810 -11.4071 12.9593 2.2978
# 2 23.6110 94.6543 17.1092 -30.9003 -7.7448 7.6784
# 3 8.5810 17.1092 120.9299 -22.4509 -1.5207 9.1788
# 4 -11.4071 -30.9003 -22.4509 44.2398 -12.0292 0.0376
# 5 12.9593 -7.7448 -1.5207 -12.0292 35.5645 -5.2134
# 6 2.2978 7.6784 9.1788 0.0376 -5.2134 30.9335
#
#
#
# Elastic Compliance Matrix: (Units=1/GPa)
#
#
# Indices 1 2 3 4 5 6 
#
# 1 0.012939 -0.004055 -0.000644 -0.001524 -0.006261 -0.000817
# 2 -0.004055 0.016896 0.000755 0.013711 0.009454 -0.002540
# 3 -0.000644 0.000755 0.009519 0.005849 0.002408 -0.002565
# 4 -0.001524 0.013711 0.005849 0.039315 0.016760 -0.002249
# 5 -0.006261 0.009454 0.002408 0.016760 0.038805 0.003923
# 6 -0.000817 -0.002540 -0.002565 -0.002249 0.003923 0.034444
#
#
# Mechanical properties :
#
#
# Convention : Reuss Voigt Hill
#
# Bulk Modulus (GPa) = 31.78171 44.93018 38.35594
# Shear Modulus (GPa) = 29.36093 39.24540 34.30317
#
# Velocity S-wave (km/s) = 3.28996 3.80364 3.55609
# Velocity P-wave (km/s) = 5.11351 5.98779 5.56784
#
# Compressibility (1/GPa) = 0.03146464
#
# Stress axis : x y z
#
# Youngs Moduli (GPa) = 77.28693 59.18708 105.05289
#
# Poissons Ratio (x) = 0.23999 0.06767
# Poissons Ratio (y) = 0.31338 -0.07927
# Poissons Ratio (z) = 0.04979 -0.04466
#
# Static dielectric constant tensor:
#      x y z
#    x 2.228420 -0.085280 -0.016430 
#    y -0.085280 2.121110 -0.033490 
#    z -0.016430 -0.033490 2.050500 
# 
# From -- ./inp_files/205404.got.cif
#   From: 2010.05.17/outbox.cif.g08.bks.cpg/sg2_103_cif.got.tgz:205404.got - 2010.06.03 11:33:40.
