data_PCOD9112641
_publ_section_title
;
Structure prediction by ZEFSAII (Michael W. Deem and Ramdas Pophale) SiO2 
 PCOD9112641
Probable space group: P 2
;
_chemical_formula_sum "Si O2"
_cell_formula_units_Z 14
_cell_length_a 13.151335
_cell_length_b 5.271872
_cell_length_c 24.277429
_cell_angle_alpha 90.000000
_cell_angle_beta 150.165668
_cell_angle_gamma 90.000000
_cell_volume 837.384852
_symmetry_space_group_name_H-M "P 2"
_symmetry_group_IT_number 3
_symmetry_cell_setting 'monoclinic'
loop_
_space_group_symop_operation_xyz
x,y,z
-x,y,-z
loop_
_atom_site_type_symbol
_atom_site_label
_atom_site_fract_x
_atom_site_fract_y
_atom_site_fract_z
Si Si1 0.019404 0.748110 0.777406
Si Si2 0.036678 0.020125 0.675252
Si Si3 0.182400 0.776625 0.630747
Si Si4 0.262318 0.232430 0.877203
Si Si5 0.636697 0.307940 0.452047
Si Si6 0.248141 0.275461 0.619136
Si Si7 0.563996 0.813767 0.593756
O O1 0.134432 0.481226 0.833297
O O2 0.805707 0.757097 0.708442
O O3 0.969162 0.818204 0.689902
O O4 0.168378 0.982877 0.862872
O O5 0.095251 0.873387 0.647521
O O6 0.217611 0.168978 0.791672
O O7 0.856231 0.217375 0.578401
O O8 0.323006 0.002428 0.674266
O O9 0.000000 0.744347 0.500000
O O10 0.286168 0.503069 0.679299
O O11 0.500000 0.264706 0.000000
O O12 0.667805 0.338232 0.401360
O O13 0.554600 0.568265 0.438904
O O14 0.492673 0.069598 0.400059
O O15 0.000000 0.243613 0.500000
O O16 0.500000 0.854758 0.500000
#
# Coordination Sequence:
#
# PCOD9112641 Si02
#       7
#     2   2   2   2   2   2   2
#     4  10  22  36  53  77 110 143 181 225 270 314
#     4  10  22  33  55  77 108 150 174 218 268 321
#     4  10  19  30  49  70 104 141 171 208 266 312
#     4  10  21  37  57  77 107 141 182 233 280 318
#     4  12  22  33  50  75 113 151 183 207 260 320
#     4  10  20  31  47  68 103 145 170 215 255 299
#     4  12  22  33  49  75 108 151 189 209 246 329
#
# _framework density 16.718717999999999
#
# number of rings (size 3 to 8) (size 9 to 14) (size 15 to 20)
#    0.857    0.571    4.286    3.429    4.000    0.000 
#    0.000    0.000    0.000    0.000    0.000    0.000 
#    0.000   17.143    0.000    0.000    0.000    0.000 
#
# Total GULP energy -77996.956253 kJ/mol
# GULP energy per Si atom -5571.211161 kJ/mol
# Density = 1.668067 g / cm^3
# Si number density = 16.718718 Si / 1000 Ang^3
#
#
#
# Elastic Constant Matrix: (Units=GPa)
#
#
# Indices 1 2 3 4 5 6 
#
# 1 73.9058 8.1797 12.6884 0.0000 9.0557 0.0000
# 2 8.1797 100.0502 3.9905 0.0000 6.0365 0.0000
# 3 12.6884 3.9905 60.9925 0.0000 11.9491 0.0000
# 4 0.0000 0.0000 0.0000 15.5713 0.0000 6.5145
# 5 9.0557 6.0365 11.9491 0.0000 12.1820 0.0000
# 6 0.0000 0.0000 0.0000 6.5145 0.0000 69.0865
#
#
#
# Elastic Compliance Matrix: (Units=1/GPa)
#
#
# Indices 1 2 3 4 5 6 
#
# 1 0.014986 -0.000594 -0.001181 0.000000 -0.009688 0.000000
# 2 -0.000594 0.010335 0.000451 0.000000 -0.005122 0.000000
# 3 -0.001181 0.000451 0.020404 0.000000 -0.019360 0.000000
# 4 0.000000 0.000000 0.000000 0.066858 0.000000 -0.006304
# 5 -0.009688 -0.005122 -0.019360 0.000000 0.110818 0.000000
# 6 0.000000 0.000000 0.000000 -0.006304 0.000000 0.015069
#
#
# Mechanical properties :
#
#
# Convention : Reuss Voigt Hill
#
# Bulk Modulus (GPa) = 23.21366 31.62953 27.42160
# Shear Modulus (GPa) = 19.57119 33.37394 26.47256
#
# Velocity S-wave (km/s) = 3.42514 4.47273 3.98352
# Velocity P-wave (km/s) = 5.43664 6.75526 6.13150
#
# Compressibility (1/GPa) = 0.04307808
#
# Stress axis : x y z
#
# Youngs Moduli (GPa) = 66.72791 96.76264 49.00883
#
# Poissons Ratio (x) = 0.05744 0.05787
# Poissons Ratio (y) = 0.03961 -0.02209
# Poissons Ratio (z) = 0.07879 -0.04362
#
# Static dielectric constant tensor:
#      x y z
#    x 1.553220 0.000000 0.134390 
#    y 0.000000 1.634520 0.000000 
#    z 0.134390 0.000000 0.341380 
# 
# From -- ./inp_files/16279.got.cif
#   From: 2010.05.17/outbox.cif.g08.bks.cpg/sg3_9_cif.got.tgz:16279.got - 2010.06.03 18:33:08.
