data_PCOD9112034
_publ_section_title
;
Structure prediction by ZEFSAII (Michael W. Deem and Ramdas Pophale) SiO2 
 PCOD9112034
Probable space group: P -1
;
_chemical_formula_sum "Si O2"
_cell_formula_units_Z 14
_cell_length_a 6.507985
_cell_length_b 17.309764
_cell_length_c 7.961787
_cell_angle_alpha 54.251749
_cell_angle_beta 59.832307
_cell_angle_gamma 57.760571
_cell_volume 591.417747
_symmetry_space_group_name_H-M "P -1"
_symmetry_group_IT_number 2
_symmetry_cell_setting 'triclinic'
loop_
_space_group_symop_operation_xyz
x,y,z
-x,-y,-z
loop_
_atom_site_type_symbol
_atom_site_label
_atom_site_fract_x
_atom_site_fract_y
_atom_site_fract_z
Si Si1 0.637023 0.126093 0.998862
Si Si2 0.405402 0.699291 0.963600
Si Si3 0.113247 0.780651 0.671278
Si Si4 0.181574 0.079459 0.655620
Si Si5 0.621107 0.801320 0.306508
Si Si6 0.969412 0.605488 0.793100
Si Si7 0.083321 0.594912 0.388528
O O1 0.560390 0.235927 0.975059
O O2 0.668063 0.039141 0.234314
O O3 0.442691 0.130727 0.922265
O O4 0.913385 0.101643 0.833476
O O5 0.188663 0.776143 0.839759
O O6 0.670545 0.657194 0.812065
O O7 0.317534 0.607208 0.176245
O O8 0.370011 0.775046 0.478116
O O9 0.895107 0.874245 0.556938
O O10 0.048160 0.680672 0.784986
O O11 0.322159 0.139904 0.631755
O O12 0.855004 0.699236 0.313238
O O13 0.124150 0.592774 0.574154
O O14 0.000000 0.500000 0.000000
O O15 0.000000 0.500000 0.500000
#
# Coordination Sequence:
#
# PCOD9112034 Si02
#       7
#     2   2   2   2   2   2   2
#     4  10  23  38  71 105 136 186 232 282 343 409
#     4  12  26  46  71 104 142 182 229 284 345 411
#     4  11  23  44  70  95 144 182 221 291 336 409
#     4  10  20  44  68 102 141 183 232 282 345 405
#     4  11  21  45  69  99 144 177 230 289 340 408
#     4  12  28  48  70 102 140 183 233 286 346 410
#     4  12  26  45  72 104 135 182 233 282 349 411
#
# _framework density 23.671932999999999
#
# number of rings (size 3 to 8) (size 9 to 14) (size 15 to 20)
#    0.000    0.857    4.286    2.143    6.000    2.286 
#    0.000    2.857    0.000    0.000    0.000    0.000 
#    0.000    0.000    0.000    0.000    0.000    0.000 
#
# Total GULP energy -78390.292057 kJ/mol
# GULP energy per Si atom -5599.306576 kJ/mol
# Density = 2.361805 g / cm^3
# Si number density = 23.671933 Si / 1000 Ang^3
#
#
#
# Elastic Constant Matrix: (Units=GPa)
#
#
# Indices 1 2 3 4 5 6 
#
# 1 108.0773 5.5669 30.8513 -10.3572 12.4537 -1.0065
# 2 5.5669 27.0999 2.7004 -14.5345 -6.2247 3.9265
# 3 30.8513 2.7004 91.9322 -17.7627 14.8284 -7.4700
# 4 -10.3572 -14.5345 -17.7627 41.4561 0.3488 1.3125
# 5 12.4537 -6.2247 14.8284 0.3488 46.3256 -4.6527
# 6 -1.0065 3.9265 -7.4700 1.3125 -4.6527 20.5964
#
#
#
# Elastic Compliance Matrix: (Units=1/GPa)
#
#
# Indices 1 2 3 4 5 6 
#
# 1 0.010533 -0.001868 -0.003052 0.000712 -0.002189 -0.000776
# 2 -0.001868 0.049140 0.000879 0.017373 0.005795 -0.008938
# 3 -0.003052 0.000879 0.013703 0.005329 -0.003125 0.003608
# 4 0.000712 0.017373 0.005329 0.032785 -0.000158 -0.003469
# 5 -0.002189 0.005795 -0.003125 -0.000158 0.024271 0.003148
# 6 -0.000776 -0.008938 0.003608 -0.003469 0.003148 0.052459
#
#
# Mechanical properties :
#
#
# Convention : Reuss Voigt Hill
#
# Bulk Modulus (GPa) = 15.31542 33.92739 24.62140
# Shear Modulus (GPa) = 23.50289 34.20833 28.85561
#
# Velocity S-wave (km/s) = 3.15438 3.80557 3.49518
# Velocity P-wave (km/s) = 4.44418 5.80287 5.16837
#
# Compressibility (1/GPa) = 0.06529369
#
# Stress axis : x y z
#
# Youngs Moduli (GPa) = 94.93590 20.34983 72.97668
#
# Poissons Ratio (x) = 0.03802 0.22276
# Poissons Ratio (y) = 0.17737 -0.06416
# Poissons Ratio (z) = 0.28979 -0.01789
#
# Static dielectric constant tensor:
#      x y z
#    x 1.887960 -0.030610 0.016830 
#    y -0.030610 1.839190 0.004620 
#    z 0.016830 0.004620 1.929450 
# 
# From -- ./inp_files/89655.got.cif
#   From: 2010.05.17/outbox.cif.g08.bks.cpg/sg2_45_cif.got.tgz:89655.got - 2010.06.03 11:33:40.
