data_PCOD9112030
_publ_section_title
;
Structure prediction by ZEFSAII (Michael W. Deem and Ramdas Pophale) SiO2 
 PCOD9112030
Probable space group: P -1
;
_chemical_formula_sum "Si O2"
_cell_formula_units_Z 16
_cell_length_a 12.411996
_cell_length_b 7.766846
_cell_length_c 15.320857
_cell_angle_alpha 85.401654
_cell_angle_beta 152.563865
_cell_angle_gamma 102.158000
_cell_volume 646.307513
_symmetry_space_group_name_H-M "P -1"
_symmetry_group_IT_number 2
_symmetry_cell_setting 'triclinic'
loop_
_space_group_symop_operation_xyz
x,y,z
-x,-y,-z
loop_
_atom_site_type_symbol
_atom_site_label
_atom_site_fract_x
_atom_site_fract_y
_atom_site_fract_z
Si Si1 0.152578 0.674756 0.546737
Si Si2 0.259029 0.129225 0.531693
Si Si3 0.254716 0.870235 0.786195
Si Si4 0.233131 0.409353 0.351242
Si Si5 0.550103 0.486677 0.808984
Si Si6 0.120814 0.472125 0.795742
Si Si7 0.392290 0.994463 0.325125
Si Si8 0.087631 0.279369 0.071705
O O1 0.256010 0.834271 0.684310
O O2 0.362213 0.602035 0.659191
O O3 0.000000 0.500000 0.500000
O O4 0.960868 0.676477 0.332216
O O5 0.251726 0.255152 0.437222
O O6 0.413592 0.273797 0.707804
O O7 0.402745 0.997784 0.601641
O O8 0.980541 0.062816 0.366438
O O9 0.198586 0.672254 0.800075
O O10 0.500000 0.000000 0.000000
O O11 0.500000 0.500000 0.500000
O O12 0.056571 0.324652 0.147665
O O13 0.114776 0.540753 0.312522
O O14 0.750192 0.553179 0.874368
O O15 0.668072 0.536545 0.986667
O O16 0.500000 0.000000 0.500000
O O17 0.253489 0.143480 0.203432
O O18 0.170756 0.809672 0.157042
#
# Coordination Sequence:
#
# PCOD9112030 Si02
#       8
#     2   2   2   2   2   2   2   2
#     4  10  20  44  67  97 134 167 228 291 331 388
#     4  11  22  42  70  99 133 180 232 284 334 411
#     4  10  23  47  72  97 140 179 223 292 356 405
#     4  11  19  38  68  97 135 173 223 279 326 389
#     4  12  23  42  72 103 130 177 237 274 339 406
#     4  10  23  39  71 103 134 172 231 287 332 403
#     4  11  25  43  63  95 146 180 222 270 343 409
#     4  11  25  41  66 101 138 188 218 277 337 411
#
# _framework density 24.756018999999998
#
# number of rings (size 3 to 8) (size 9 to 14) (size 15 to 20)
#    0.000    1.250    6.250    0.750    1.750    5.000 
#    4.500    1.875    0.000    0.000    0.000    0.000 
#    0.000    0.000    0.000    0.000    0.000    0.000 
#
# Total GULP energy -89630.915059 kJ/mol
# GULP energy per Si atom -5601.932191 kJ/mol
# Density = 2.469967 g / cm^3
# Si number density = 24.756019 Si / 1000 Ang^3
#
#
#
# Elastic Constant Matrix: (Units=GPa)
#
#
# Indices 1 2 3 4 5 6 
#
# 1 101.3359 9.8714 62.3196 21.8254 -20.0684 -21.5746
# 2 9.8714 71.3821 33.3046 9.0372 -3.5564 -18.9374
# 3 62.3196 33.3046 203.7474 26.7905 -37.7681 -16.0187
# 4 21.8254 9.0372 26.7905 41.0979 -1.4539 -2.0902
# 5 -20.0684 -3.5564 -37.7681 -1.4539 57.2453 4.0078
# 6 -21.5746 -18.9374 -16.0187 -2.0902 4.0078 33.7132
#
#
#
# Elastic Compliance Matrix: (Units=1/GPa)
#
#
# Indices 1 2 3 4 5 6 
#
# 1 0.015309 0.002657 -0.003093 -0.006139 0.002697 0.009118
# 2 0.002657 0.018003 -0.002610 -0.003155 -0.000483 0.010434
# 3 -0.003093 -0.002610 0.007192 -0.002379 0.003480 -0.000589
# 4 -0.006139 -0.003155 -0.002379 0.029499 -0.002842 -0.004664
# 5 0.002697 -0.000483 0.003480 -0.002842 0.020574 0.000486
# 6 0.009118 0.010434 -0.000589 -0.004664 0.000486 0.040732
#
#
# Mechanical properties :
#
#
# Convention : Reuss Voigt Hill
#
# Bulk Modulus (GPa) = 29.05931 65.27297 47.16614
# Shear Modulus (GPa) = 33.58624 44.47593 39.03109
#
# Velocity S-wave (km/s) = 3.68732 4.24320 3.97499
# Velocity P-wave (km/s) = 5.46738 7.10141 6.33728
#
# Compressibility (1/GPa) = 0.03441238
#
# Stress axis : x y z
#
# Youngs Moduli (GPa) = 65.32116 55.54675 139.04248
#
# Poissons Ratio (x) = -0.14756 0.43002
# Poissons Ratio (y) = -0.17353 0.36284
# Poissons Ratio (z) = 0.20202 0.14495
#
# Static dielectric constant tensor:
#      x y z
#    x 2.118230 0.057100 0.002800 
#    y 0.057100 2.057060 -0.005860 
#    z 0.002800 -0.005860 1.942390 
# 
# From -- ./inp_files/515718.got.cif
#   From: 2010.05.17/outbox.cif.g08.bks.cpg/sg2_258_cif.got.tgz:515718.got - 2010.06.03 11:33:40.
