data_PCOD9112645
_publ_section_title
;
Structure prediction by ZEFSAII (Michael W. Deem and Ramdas Pophale) SiO2 
 PCOD9112645
Probable space group: P 2
;
_chemical_formula_sum "Si O2"
_cell_formula_units_Z 16
_cell_length_a 7.786032
_cell_length_b 19.759077
_cell_length_c 8.909908
_cell_angle_alpha 90.000000
_cell_angle_beta 144.982309
_cell_angle_gamma 90.000000
_cell_volume 786.572583
_symmetry_space_group_name_H-M "P 2"
_symmetry_group_IT_number 3
_symmetry_cell_setting 'monoclinic'
loop_
_space_group_symop_operation_xyz
x,y,z
-x,y,-z
loop_
_atom_site_type_symbol
_atom_site_label
_atom_site_fract_x
_atom_site_fract_y
_atom_site_fract_z
Si Si1 0.146721 0.976740 0.266429
Si Si2 0.853726 0.113207 0.560293
Si Si3 0.707074 0.762090 0.899610
Si Si4 0.644187 0.322896 0.767871
Si Si5 0.092262 0.837905 0.397934
Si Si6 0.643584 0.615895 0.768178
Si Si7 0.353757 0.185723 0.060285
Si Si8 0.357619 0.469965 0.232814
O O1 0.500000 0.976311 0.500000
O O2 0.061876 0.904906 0.276523
O O3 0.078469 0.039822 0.325174
O O4 0.000000 0.985225 0.000000
O O5 0.509570 0.131856 0.283282
O O6 0.000000 0.118044 0.500000
O O7 0.009522 0.167149 0.783210
O O8 0.431234 0.808273 0.644826
O O9 0.586651 0.685211 0.815010
O O10 0.000000 0.766001 0.000000
O O11 0.851068 0.785306 0.158855
O O12 0.500000 0.315901 0.500000
O O13 0.578100 0.259189 0.824786
O O14 0.556406 0.396798 0.771976
O O15 0.000000 0.323199 0.000000
O O16 0.000000 0.854920 0.500000
O O17 0.500000 0.622675 0.500000
O O18 0.554803 0.542832 0.773494
O O19 0.000000 0.613272 0.000000
O O20 0.500000 0.180740 0.000000
O O21 0.500000 0.470651 0.500000
O O22 0.000000 0.469600 0.000000
#
# Coordination Sequence:
#
# PCOD9112645 Si02
#       8
#     2   2   2   2   2   2   2   2
#     4  12  25  40  61  85 109 138 179 229 271 317
#     4  10  22  40  57  77 106 141 176 215 268 328
#     4  11  21  37  61  87 111 143 191 239 274 318
#     4  10  19  31  51  78 107 138 177 225 265 308
#     4  12  25  41  59  82 116 153 182 220 279 342
#     4   9  16  28  50  79 108 138 175 224 275 318
#     4  10  21  36  55  77 107 143 177 213 263 325
#     4   8  15  27  44  73 107 136 171 217 270 316
#
# _framework density 20.341415000000001
#
# number of rings (size 3 to 8) (size 9 to 14) (size 15 to 20)
#    0.000    1.750    0.000    6.000    0.000    3.000 
#    0.000    3.750    0.000    1.500    0.000    1.750 
#    0.000    0.000    0.000    0.000    0.000    0.000 
#
# Total GULP energy -89267.722510 kJ/mol
# GULP energy per Si atom -5579.232657 kJ/mol
# Density = 2.029512 g / cm^3
# Si number density = 20.341415 Si / 1000 Ang^3
#
#
#
# Elastic Constant Matrix: (Units=GPa)
#
#
# Indices 1 2 3 4 5 6 
#
# 1 13.6146 6.5961 23.7088 0.0000 -2.1765 0.0000
# 2 6.5961 148.2993 50.7855 0.0000 -12.9689 0.0000
# 3 23.7088 50.7855 169.0677 0.0000 -6.6092 0.0000
# 4 0.0000 0.0000 0.0000 34.0640 0.0000 3.8619
# 5 -2.1765 -12.9689 -6.6092 0.0000 18.5229 0.0000
# 6 0.0000 0.0000 0.0000 3.8619 0.0000 -8.8118
#
#
#
# Elastic Compliance Matrix: (Units=1/GPa)
#
#
# Indices 1 2 3 4 5 6 
#
# 1 0.098121 0.000991 -0.013772 0.000000 0.007309 0.000000
# 2 0.000991 0.007919 -0.002329 0.000000 0.004830 0.000000
# 3 -0.013772 -0.002329 0.008538 0.000000 -0.000202 0.000000
# 4 0.000000 0.000000 0.000000 0.027967 0.000000 0.012257
# 5 0.007309 0.004830 -0.000202 0.000000 0.058155 0.000000
# 6 0.000000 0.000000 0.000000 0.012257 0.000000 -0.108112
#
#
# Mechanical properties :
#
#
# Convention : Reuss Voigt Hill
#
# Bulk Modulus (GPa) = 11.85411 54.79580 33.32496
# Shear Modulus (GPa) = 33.12856 25.41444 29.27150
#
# Velocity S-wave (km/s) = 4.04000 3.53851 3.79754
# Velocity P-wave (km/s) = 5.25380 6.60994 5.97050
#
# Compressibility (1/GPa) = 0.08435891
#
# Stress axis : x y z
#
# Youngs Moduli (GPa) = 10.19146 126.27914 117.12756
#
# Poissons Ratio (x) = -0.12516 1.61306
# Poissons Ratio (y) = -0.01010 0.27278
# Poissons Ratio (z) = 0.14035 0.29409
#
# Static dielectric constant tensor:
#      x y z
#    x 1.696620 0.000000 0.010490 
#    y 0.000000 1.811710 0.000000 
#    z 0.010490 0.000000 1.695460 
# 
# From -- ./inp_files/6303.got.cif
#   From: 2010.05.17/outbox.cif.g08.bks.cpg/sg3_4_cif.got.tgz:6303.got - 2010.06.03 18:33:08.
