data_PCOD9112635
_publ_section_title
;
Structure prediction by ZEFSAII (Michael W. Deem and Ramdas Pophale) SiO2 
 PCOD9112635
Probable space group: P 2
;
_chemical_formula_sum "Si O2"
_cell_formula_units_Z 16
_cell_length_a 9.249166
_cell_length_b 19.482266
_cell_length_c 6.930136
_cell_angle_alpha 90.000000
_cell_angle_beta 146.238153
_cell_angle_gamma 90.000000
_cell_volume 693.996263
_symmetry_space_group_name_H-M "P 2"
_symmetry_group_IT_number 3
_symmetry_cell_setting 'monoclinic'
loop_
_space_group_symop_operation_xyz
x,y,z
-x,y,-z
loop_
_atom_site_type_symbol
_atom_site_label
_atom_site_fract_x
_atom_site_fract_y
_atom_site_fract_z
Si Si1 0.722786 0.632470 0.585561
Si Si2 0.230520 0.768476 0.603624
Si Si3 0.993333 0.904573 0.257272
Si Si4 0.496216 0.970957 0.766395
Si Si5 0.275417 0.335025 0.415209
Si Si6 0.427081 0.126572 0.197310
Si Si7 0.278048 0.483858 0.416997
Si Si8 0.082334 0.196592 0.319666
O O1 0.500000 0.635455 0.500000
O O2 0.703890 0.698438 0.431259
O O3 0.703245 0.557768 0.459870
O O4 0.000000 0.635218 0.000000
O O5 0.113275 0.830179 0.345737
O O6 0.000000 0.753957 0.500000
O O7 0.500000 0.792989 0.000000
O O8 0.191964 0.959750 0.387846
O O9 0.000000 0.908755 0.500000
O O10 0.692152 0.917821 0.884254
O O11 0.617316 0.045641 0.861838
O O12 0.500000 0.961475 0.000000
O O13 0.500000 0.322937 0.500000
O O14 0.314343 0.409584 0.556522
O O15 0.223924 0.270236 0.496222
O O16 0.000000 0.340943 0.000000
O O17 0.500000 0.142404 0.500000
O O18 0.696638 0.141314 0.389396
O O19 0.186884 0.175823 0.879317
O O20 0.500000 0.484056 0.500000
O O21 0.000000 0.484147 0.000000
O O22 0.000000 0.193563 0.000000
#
# Coordination Sequence:
#
# PCOD9112635 Si02
#       8
#     2   2   2   2   2   2   2   2
#     4  10  20  35  53  79 113 142 168 214 271 314
#     4  11  21  36  58  81 104 138 180 219 257 312
#     4   9  18  33  52  70  91 120 161 207 243 281
#     4  10  19  33  51  68  87 119 159 198 240 290
#     4   9  14  23  40  64  91 124 162 197 233 282
#     4  10  19  30  44  66  95 121 147 191 247 294
#     4   8  15  26  43  67  98 129 160 199 244 290
#     4   9  16  26  41  63  93 123 152 191 238 283
#
# _framework density 23.054879
#
# number of rings (size 3 to 8) (size 9 to 14) (size 15 to 20)
#    0.000    2.500    0.000    5.250    0.000    0.000 
#    0.000    1.875    0.000    0.000    0.000    2.625 
#    0.000    0.000    0.000    0.000    0.000    0.000 
#
# Total GULP energy -89225.676127 kJ/mol
# GULP energy per Si atom -5576.604758 kJ/mol
# Density = 2.300241 g / cm^3
# Si number density = 23.054879 Si / 1000 Ang^3
#
#
#
# Elastic Constant Matrix: (Units=GPa)
#
#
# Indices 1 2 3 4 5 6 
#
# 1 68.0291 9.1455 38.0297 0.0000 17.1046 0.0000
# 2 9.1455 171.7446 40.1545 0.0000 24.4287 0.0000
# 3 38.0297 40.1545 129.7686 0.0000 40.4895 0.0000
# 4 0.0000 0.0000 0.0000 27.0902 0.0000 13.3645
# 5 17.1046 24.4287 40.4895 0.0000 36.3351 0.0000
# 6 0.0000 0.0000 0.0000 13.3645 0.0000 25.6316
#
#
#
# Elastic Compliance Matrix: (Units=1/GPa)
#
#
# Indices 1 2 3 4 5 6 
#
# 1 0.018003 0.000617 -0.004129 0.000000 -0.004289 0.000000
# 2 0.000617 0.006542 -0.001138 0.000000 -0.003421 0.000000
# 3 -0.004129 -0.001138 0.012912 0.000000 -0.011680 0.000000
# 4 0.000000 0.000000 0.000000 0.049697 0.000000 -0.025913
# 5 -0.004289 -0.003421 -0.011680 0.000000 0.044856 0.000000
# 6 0.000000 0.000000 0.000000 -0.025913 0.000000 0.052525
#
#
# Mechanical properties :
#
#
# Convention : Reuss Voigt Hill
#
# Bulk Modulus (GPa) = 35.51336 60.46686 47.99011
# Shear Modulus (GPa) = 24.60360 36.62555 30.61458
#
# Velocity S-wave (km/s) = 3.27031 3.99008 3.64799
# Velocity P-wave (km/s) = 5.44951 6.89289 6.21326
#
# Compressibility (1/GPa) = 0.02815841
#
# Stress axis : x y z
#
# Youngs Moduli (GPa) = 55.54640 152.84986 77.44499
#
# Poissons Ratio (x) = -0.09425 0.31974
# Poissons Ratio (y) = -0.03425 0.08811
# Poissons Ratio (z) = 0.22933 0.17390
#
# Static dielectric constant tensor:
#      x y z
#    x 1.898710 0.000000 -0.041120 
#    y 0.000000 1.940010 0.000000 
#    z -0.041120 0.000000 1.851840 
# 
# From -- ./inp_files/6334.got.cif
#   From: 2010.05.17/outbox.cif.g08.bks.cpg/sg3_4_cif.got.tgz:6334.got - 2010.06.03 18:33:08.
