data_PCOD9112163
_publ_section_title
;
Structure prediction by ZEFSAII (Michael W. Deem and Ramdas Pophale) SiO2 
 PCOD9112163
Probable space group: P -1
;
_chemical_formula_sum "Si O2"
_cell_formula_units_Z 15
_cell_length_a 14.398117
_cell_length_b 6.846436
_cell_length_c 20.065743
_cell_angle_alpha 88.957314
_cell_angle_beta 158.843353
_cell_angle_gamma 87.776272
_cell_volume 705.201755
_symmetry_space_group_name_H-M "P -1"
_symmetry_group_IT_number 2
_symmetry_cell_setting 'triclinic'
loop_
_space_group_symop_operation_xyz
x,y,z
-x,-y,-z
loop_
_atom_site_type_symbol
_atom_site_label
_atom_site_fract_x
_atom_site_fract_y
_atom_site_fract_z
Si Si1 0.000000 0.000000 0.500000
Si Si2 0.843394 0.792596 0.186426
Si Si3 0.699009 0.026710 0.816465
Si Si4 0.602737 0.371936 0.852699
Si Si5 0.673147 0.249021 0.394771
Si Si6 0.517866 0.193157 0.555155
Si Si7 0.537478 0.830731 0.111170
Si Si8 0.061895 0.546014 0.211921
O O1 0.759139 0.941631 0.291773
O O2 0.209975 0.882039 0.588485
O O3 0.651236 0.744473 0.117217
O O4 0.122977 0.785288 0.408376
O O5 0.887716 0.644058 0.155701
O O6 0.717282 0.009162 0.074857
O O7 0.648130 0.167002 0.845332
O O8 0.540483 0.131360 0.647391
O O9 0.591288 0.824476 0.759238
O O10 0.000000 0.000000 0.000000
O O11 0.384060 0.525194 0.668677
O O12 0.519099 0.329095 0.871942
O O13 0.866937 0.465712 0.030886
O O14 0.270331 0.359998 0.375648
O O15 0.772582 0.291039 0.706025
O O16 0.500000 0.000000 0.500000
#
# Coordination Sequence:
#
# PCOD9112163 Si02
#       8
#     1   2   2   2   2   2   2   2
#     4  10  20  44  72  94 136 180 224 278 340 410
#     4  10  23  44  70  99 140 179 234 280 339 417
#     4  12  26  43  69 101 138 187 228 283 348 409
#     4  12  26  43  70 103 139 180 227 285 349 406
#     4  11  24  44  68 101 138 179 230 286 336 416
#     4  11  25  45  69 100 136 185 227 286 343 403
#     4  10  23  43  70 104 133 186 225 284 346 406
#     4  11  25  42  69 101 137 178 233 282 339 416
#
# _framework density 21.270508
#
# number of rings (size 3 to 8) (size 9 to 14) (size 15 to 20)
#    0.000    1.067    1.333    4.000    5.600    6.933 
#    2.400    0.000    0.000    0.000    0.000    0.000 
#    0.000    0.000    0.000    0.000    0.000    0.000 
#
# Total GULP energy -83652.013721 kJ/mol
# GULP energy per Si atom -5576.800915 kJ/mol
# Density = 2.122210 g / cm^3
# Si number density = 21.270508 Si / 1000 Ang^3
#
#
#
# Elastic Constant Matrix: (Units=GPa)
#
#
# Indices 1 2 3 4 5 6 
#
# 1 51.3197 24.5324 -3.5661 -9.4263 3.0588 6.3120
# 2 24.5324 72.4926 23.9506 -3.1006 6.0566 18.5046
# 3 -3.5661 23.9506 89.5916 -11.5110 4.3315 19.0510
# 4 -9.4263 -3.1006 -11.5110 21.8187 -6.7580 -8.7594
# 5 3.0588 6.0566 4.3315 -6.7580 26.5955 -3.1703
# 6 6.3120 18.5046 19.0510 -8.7594 -3.1703 33.7194
#
#
#
# Elastic Compliance Matrix: (Units=1/GPa)
#
#
# Indices 1 2 3 4 5 6 
#
# 1 0.027532 -0.011196 0.005442 0.014735 0.002477 0.001976
# 2 -0.011196 0.022103 -0.005160 -0.010805 -0.006912 -0.010575
# 3 0.005442 -0.005160 0.014715 0.007353 -0.000532 -0.004641
# 4 0.014735 -0.010805 0.007353 0.067822 0.018998 0.018421
# 5 0.002477 -0.006912 -0.000532 0.018998 0.045333 0.012827
# 6 0.001976 -0.010575 -0.004641 0.018421 0.012827 0.043703
#
#
# Mechanical properties :
#
#
# Convention : Reuss Voigt Hill
#
# Bulk Modulus (GPa) = 23.51722 33.69307 28.60514
# Shear Modulus (GPa) = 19.43940 27.65919 23.54929
#
# Velocity S-wave (km/s) = 3.02638 3.60995 3.33097
# Velocity P-wave (km/s) = 4.82620 5.76631 5.31708
#
# Compressibility (1/GPa) = 0.04252204
#
# Stress axis : x y z
#
# Youngs Moduli (GPa) = 36.32157 45.24285 67.95757
#
# Poissons Ratio (x) = 0.50655 -0.36984
# Poissons Ratio (y) = 0.40667 0.35064
# Poissons Ratio (z) = -0.19767 0.23344
#
# Static dielectric constant tensor:
#      x y z
#    x 1.789860 0.037840 -0.000160 
#    y 0.037840 1.747770 0.004100 
#    z -0.000160 0.004100 1.766330 
# 
# From -- ./inp_files/28349.got.cif
#   From: 2010.05.17/outbox.cif.g08.bks.cpg/sg2_15_cif.got.tgz:28349.got - 2010.06.03 11:33:40.
