data_PCOD9112199
_publ_section_title
;
Structure prediction by ZEFSAII (Michael W. Deem and Ramdas Pophale) SiO2 
 PCOD9112199
Probable space group: P -1
;
_chemical_formula_sum "Si O2"
_cell_formula_units_Z 15
_cell_length_a 6.463074
_cell_length_b 11.973128
_cell_length_c 15.218826
_cell_angle_alpha 105.492728
_cell_angle_beta 123.520878
_cell_angle_gamma 44.146689
_cell_volume 666.702934
_symmetry_space_group_name_H-M "P -1"
_symmetry_group_IT_number 2
_symmetry_cell_setting 'triclinic'
loop_
_space_group_symop_operation_xyz
x,y,z
-x,-y,-z
loop_
_atom_site_type_symbol
_atom_site_label
_atom_site_fract_x
_atom_site_fract_y
_atom_site_fract_z
Si Si1 0.268505 0.866485 0.323659
Si Si2 0.500326 0.470190 0.693693
Si Si3 0.635820 0.081992 0.830910
Si Si4 0.336718 0.282816 0.440700
Si Si5 0.452304 0.157076 0.247764
Si Si6 0.609368 0.088500 0.009238
Si Si7 0.292193 0.382035 0.116563
Si Si8 0.500000 0.500000 0.500000
O O1 0.308923 0.715463 0.286652
O O2 0.444454 0.866091 0.278517
O O3 0.485082 0.828617 0.453612
O O4 0.858646 0.029391 0.281734
O O5 0.566377 0.543594 0.799080
O O6 0.598842 0.489130 0.625894
O O7 0.081848 0.584341 0.618147
O O8 0.687715 0.926510 0.817059
O O9 0.419007 0.176515 0.889596
O O10 0.968395 0.053484 0.923396
O O11 0.445863 0.185530 0.355609
O O12 0.456502 0.376088 0.484712
O O13 0.221483 0.325667 0.174081
O O14 0.550685 0.213459 0.087275
O O15 0.500000 0.000000 0.000000
O O16 0.000000 0.500000 0.000000
#
# Coordination Sequence:
#
# PCOD9112199 Si02
#       8
#     2   2   2   2   2   2   2   1
#     4  11  25  44  74 111 141 196 238 300 361 437
#     4  11  26  48  72 107 151 187 250 293 368 430
#     4  11  24  41  75  97 144 186 244 297 359 424
#     4  11  25  45  75 109 148 192 241 298 364 441
#     4  12  25  47  72 104 150 189 243 300 362 432
#     4  11  23  46  70  97 140 192 243 298 360 422
#     4  12  27  45  74 102 143 191 239 303 359 431
#     4  10  20  44  76 100 148 188 230 296 372 410
#
# _framework density 22.498777
#
# number of rings (size 3 to 8) (size 9 to 14) (size 15 to 20)
#    0.000    0.800    4.000    2.800    3.733    5.867 
#    0.000    2.000    0.000    0.000    0.000    0.000 
#    0.000    0.000    0.000    0.000    0.000    0.000 
#
# Total GULP energy -83501.954740 kJ/mol
# GULP energy per Si atom -5566.796983 kJ/mol
# Density = 2.244757 g / cm^3
# Si number density = 22.498777 Si / 1000 Ang^3
#
#
#
# Elastic Constant Matrix: (Units=GPa)
#
#
# Indices 1 2 3 4 5 6 
#
# 1 46.7097 10.5911 40.6755 -0.3985 -22.5460 4.9629
# 2 10.5911 57.3622 37.2097 9.3292 -8.8176 0.3488
# 3 40.6755 37.2097 160.9315 16.2051 -32.6484 5.3608
# 4 -0.3985 9.3292 16.2051 45.6339 3.0619 0.3967
# 5 -22.5460 -8.8176 -32.6484 3.0619 57.7877 1.9962
# 6 4.9629 0.3488 5.3608 0.3967 1.9962 26.7844
#
#
#
# Elastic Compliance Matrix: (Units=1/GPa)
#
#
# Indices 1 2 3 4 5 6 
#
# 1 0.031763 -0.000873 -0.006044 0.002050 0.008921 -0.005360
# 2 -0.000873 0.020882 -0.004230 -0.002820 0.000579 0.000735
# 3 -0.006044 -0.004230 0.009546 -0.002742 0.002565 -0.000886
# 4 0.002050 -0.002820 -0.002742 0.023645 -0.002434 0.000037
# 5 0.008921 0.000579 0.002565 -0.002434 0.022584 -0.003821
# 6 -0.005360 0.000735 -0.000886 0.000037 -0.003821 0.038780
#
#
# Mechanical properties :
#
#
# Convention : Reuss Voigt Hill
#
# Bulk Modulus (GPa) = 25.06619 49.10622 37.08621
# Shear Modulus (GPa) = 27.35322 37.80967 32.58145
#
# Velocity S-wave (km/s) = 3.49056 4.10386 3.80958
# Velocity P-wave (km/s) = 5.23552 6.65801 5.98915
#
# Compressibility (1/GPa) = 0.03989437
#
# Stress axis : x y z
#
# Youngs Moduli (GPa) = 31.48290 47.88887 104.75877
#
# Poissons Ratio (x) = 0.04182 0.63320
# Poissons Ratio (y) = 0.02749 0.44317
# Poissons Ratio (z) = 0.19030 0.20259
#
# Static dielectric constant tensor:
#      x y z
#    x 1.820540 -0.026210 -0.041930 
#    y -0.026210 1.812700 -0.033790 
#    z -0.041930 -0.033790 1.868730 
# 
# From -- ./inp_files/335210.got.cif
#   From: 2010.05.17/outbox.cif.g08.bks.cpg/sg2_168_cif.got.tgz:335210.got - 2010.06.03 11:33:40.
