data_PCOD9112396
_publ_section_title
;
Structure prediction by ZEFSAII (Michael W. Deem and Ramdas Pophale) SiO2 
 PCOD9112396
Probable space group: P -1
;
_chemical_formula_sum "Si O2"
_cell_formula_units_Z 16
_cell_length_a 11.198242
_cell_length_b 5.440027
_cell_length_c 16.587088
_cell_angle_alpha 108.677366
_cell_angle_beta 117.761522
_cell_angle_gamma 63.805560
_cell_volume 793.920504
_symmetry_space_group_name_H-M "P -1"
_symmetry_group_IT_number 2
_symmetry_cell_setting 'triclinic'
loop_
_space_group_symop_operation_xyz
x,y,z
-x,-y,-z
loop_
_atom_site_type_symbol
_atom_site_label
_atom_site_fract_x
_atom_site_fract_y
_atom_site_fract_z
Si Si1 0.695009 0.183160 0.844101
Si Si2 0.401153 0.259575 0.662964
Si Si3 0.488338 0.620632 0.598271
Si Si4 0.395708 0.941036 0.896880
Si Si5 0.844993 0.276227 0.051418
Si Si6 0.222419 0.454933 0.222203
Si Si7 0.668044 0.581184 0.183040
Si Si8 0.070063 0.238632 0.885014
O O1 0.544765 0.209741 0.756600
O O2 0.740736 0.410665 0.833422
O O3 0.778970 0.853864 0.822069
O O4 0.722120 0.235296 0.951810
O O5 0.411121 0.460647 0.615296
O O6 0.280252 0.404388 0.707906
O O7 0.408475 0.953930 0.607947
O O8 0.500000 0.500000 0.500000
O O9 0.650068 0.558711 0.677546
O O10 0.407908 0.104029 0.837870
O O11 0.229012 0.067656 0.883622
O O12 0.426168 0.618326 0.865322
O O13 0.500000 0.000000 0.000000
O O14 0.780464 0.440064 0.131793
O O15 0.914285 0.477000 0.050764
O O16 0.950350 0.974479 0.078687
O O17 0.060207 0.664413 0.209604
#
# Coordination Sequence:
#
# PCOD9112396 Si02
#       8
#     2   2   2   2   2   2   2   2
#     4  10  21  32  49  74 109 142 187 210 251 296
#     4  10  21  34  56  83 108 136 170 228 269 315
#     4  10  21  40  60  82 103 130 172 220 287 341
#     4  10  21  32  50  75 102 148 191 215 245 291
#     4  10  21  33  49  74 103 156 182 210 241 301
#     4  10  21  37  51  75 104 138 174 229 261 314
#     4  10  21  34  50  75 108 143 180 221 255 298
#     4  10  21  33  49  72 104 143 191 211 258 290
#
# _framework density 20.153153
#
# number of rings (size 3 to 8) (size 9 to 14) (size 15 to 20)
#    0.000    2.000    0.000    3.000    7.000    3.000 
#    0.000    0.000    0.000    0.000    0.000   21.000 
#    0.000    0.000    0.000    0.000    0.000    0.000 
#
# Total GULP energy -89136.718131 kJ/mol
# GULP energy per Si atom -5571.044883 kJ/mol
# Density = 2.010728 g / cm^3
# Si number density = 20.153153 Si / 1000 Ang^3
#
#
#
# Elastic Constant Matrix: (Units=GPa)
#
#
# Indices 1 2 3 4 5 6 
#
# 1 49.8798 32.5836 28.9728 0.0103 -13.7665 17.6635
# 2 32.5836 130.8815 25.9836 6.7788 2.3851 37.4240
# 3 28.9728 25.9836 90.7388 14.6990 -21.0064 -0.1809
# 4 0.0103 6.7788 14.6990 27.5042 -1.8294 0.1949
# 5 -13.7665 2.3851 -21.0064 -1.8294 22.7687 -2.9354
# 6 17.6635 37.4240 -0.1809 0.1949 -2.9354 41.1128
#
#
#
# Elastic Compliance Matrix: (Units=1/GPa)
#
#
# Indices 1 2 3 4 5 6 
#
# 1 0.034931 -0.005096 -0.007472 0.006237 0.014046 -0.009428
# 2 -0.005096 0.012906 -0.004063 -0.001575 -0.009631 -0.010256
# 3 -0.007472 -0.004063 0.019174 -0.008371 0.013961 0.008030
# 4 0.006237 -0.001575 -0.008371 0.041184 -0.000675 -0.001526
# 5 0.014046 -0.009631 0.013961 -0.000675 0.067227 0.007596
# 6 -0.009428 -0.010256 0.008030 -0.001526 0.007596 0.038295
#
#
# Mechanical properties :
#
#
# Convention : Reuss Voigt Hill
#
# Bulk Modulus (GPa) = 29.63059 49.62004 39.62531
# Shear Modulus (GPa) = 19.36275 30.54115 24.95195
#
# Velocity S-wave (km/s) = 3.10301 3.89711 3.52251
# Velocity P-wave (km/s) = 5.25098 6.70260 6.02070
#
# Compressibility (1/GPa) = 0.03374891
#
# Stress axis : x y z
#
# Youngs Moduli (GPa) = 28.62762 77.48568 52.15440
#
# Poissons Ratio (x) = 0.39487 0.38968
# Poissons Ratio (y) = 0.14589 0.21192
# Poissons Ratio (z) = 0.21389 0.31484
#
# Static dielectric constant tensor:
#      x y z
#    x 1.731180 0.071290 -0.021430 
#    y 0.071290 1.739830 -0.000910 
#    z -0.021430 -0.000910 1.672730 
# 
# From -- ./inp_files/95463.got.cif
#   From: 2010.05.17/outbox.cif.g08.bks.cpg/sg2_48_cif.got.tgz:95463.got - 2010.06.03 11:33:40.
