data_PCOD9112770
_publ_section_title
;
Structure prediction by ZEFSAII (Michael W. Deem and Ramdas Pophale) SiO2 
 PCOD9112770
Probable space group: P 2
;
_chemical_formula_sum "Si O2"
_cell_formula_units_Z 16
_cell_length_a 10.052637
_cell_length_b 18.195891
_cell_length_c 8.575766
_cell_angle_alpha 90.000000
_cell_angle_beta 31.369503
_cell_angle_gamma 90.000000
_cell_volume 816.569339
_symmetry_space_group_name_H-M "P 2"
_symmetry_group_IT_number 3
_symmetry_cell_setting 'monoclinic'
loop_
_space_group_symop_operation_xyz
x,y,z
-x,y,-z
loop_
_atom_site_type_symbol
_atom_site_label
_atom_site_fract_x
_atom_site_fract_y
_atom_site_fract_z
Si Si1 0.494452 0.633600 0.192671
Si Si2 0.965853 0.215847 0.219975
Si Si3 0.459381 0.462293 0.226062
Si Si4 0.040712 0.386809 0.144468
Si Si5 0.534702 0.139340 0.151823
Si Si6 0.005663 0.714887 0.180081
Si Si7 0.002406 0.880350 0.308392
Si Si8 0.497764 0.970020 0.191933
O O1 0.489746 0.547662 0.240972
O O2 0.241894 0.673421 0.506610
O O3 0.500000 0.638307 0.000000
O O4 0.742444 0.673764 0.011451
O O5 0.004807 0.301314 0.222722
O O6 0.687056 0.187990 0.548688
O O7 0.000000 0.208843 0.000000
O O8 0.186442 0.168694 0.082145
O O9 0.179305 0.433641 0.551006
O O10 0.500000 0.456377 0.000000
O O11 0.679501 0.415079 0.089134
O O12 0.000000 0.393864 0.000000
O O13 0.502967 0.054733 0.236225
O O14 0.500000 0.142345 0.000000
O O15 0.004113 0.798593 0.240709
O O16 0.000000 0.713644 0.000000
O O17 0.753843 0.926137 0.507462
O O18 0.000000 0.875702 0.500000
O O19 0.252562 0.925337 0.008669
O O20 0.500000 0.971194 0.000000
#
# Coordination Sequence:
#
# PCOD9112770 Si02
#       8
#     2   2   2   2   2   2   2   2
#     4  11  24  43  64  88 120 161 200 239 296 364
#     4  11  24  41  59  87 125 163 198 239 298 364
#     4  11  24  41  64  92 120 151 200 255 296 344
#     4  11  24  41  62  87 122 163 200 239 296 364
#     4  11  22  39  64  92 118 153 204 255 294 344
#     4  12  25  40  61  93 125 154 197 252 296 344
#     4  10  19  36  60  83 114 158 197 236 292 358
#     4   9  19  35  58  86 114 149 198 245 290 348
#
# _framework density 19.594173000000001
#
# number of rings (size 3 to 8) (size 9 to 14) (size 15 to 20)
#    0.000    1.250    0.000    6.000    0.000   13.000 
#    0.000    3.750    0.000    0.000    0.000    0.000 
#    0.000    0.000    0.000    0.000    0.000    0.000 
#
# Total GULP energy -89529.690252 kJ/mol
# GULP energy per Si atom -5595.605641 kJ/mol
# Density = 1.954958 g / cm^3
# Si number density = 19.594173 Si / 1000 Ang^3
#
#
#
# Elastic Constant Matrix: (Units=GPa)
#
#
# Indices 1 2 3 4 5 6 
#
# 1 46.2641 21.1740 1.7581 0.0000 -10.8649 0.0000
# 2 21.1740 118.1714 14.1527 0.0000 1.0744 0.0000
# 3 1.7581 14.1527 85.5653 0.0000 -10.4142 0.0000
# 4 0.0000 0.0000 0.0000 28.6461 0.0000 -26.4241
# 5 -10.8649 1.0744 -10.4142 0.0000 33.9818 0.0000
# 6 0.0000 0.0000 0.0000 -26.4241 0.0000 1.5124
#
#
#
# Elastic Compliance Matrix: (Units=1/GPa)
#
#
# Indices 1 2 3 4 5 6 
#
# 1 0.025872 -0.004878 0.001351 0.000000 0.008840 0.000000
# 2 -0.004878 0.009571 -0.001776 0.000000 -0.002406 0.000000
# 3 0.001351 -0.001776 0.012478 0.000000 0.004312 0.000000
# 4 0.000000 0.000000 0.000000 -0.002309 0.000000 -0.040348
# 5 0.008840 -0.002406 0.004312 0.000000 0.033652 0.000000
# 6 0.000000 0.000000 0.000000 -0.040348 0.000000 -0.043741
#
#
# Mechanical properties :
#
#
# Convention : Reuss Voigt Hill
#
# Bulk Modulus (GPa) = 26.79819 36.01895 31.40857
# Shear Modulus (GPa) = 85.37315 27.02245 56.19780
#
# Velocity S-wave (km/s) = 6.60797 3.71766 5.36126
# Velocity P-wave (km/s) = 8.48096 6.07045 7.37486
#
# Compressibility (1/GPa) = 0.03731595
#
# Stress axis : x y z
#
# Youngs Moduli (GPa) = 38.65126 104.48368 80.14264
#
# Poissons Ratio (x) = 0.50967 -0.10829
# Poissons Ratio (y) = 0.18854 0.14231
# Poissons Ratio (z) = -0.05223 0.18553
#
# Static dielectric constant tensor:
#      x y z
#    x 1.679110 0.000000 -0.011990 
#    y 0.000000 1.658070 0.000000 
#    z -0.011990 0.000000 1.672110 
# 
# From -- ./inp_files/6205.got.cif
#   From: 2010.05.17/outbox.cif.g08.bks.cpg/sg3_4_cif.got.tgz:6205.got - 2010.06.03 18:33:08.
