data_PCOD9112404
_publ_section_title
;
Structure prediction by ZEFSAII (Michael W. Deem and Ramdas Pophale) SiO2 
 PCOD9112404
Probable space group: P -1
;
_chemical_formula_sum "Si O2"
_cell_formula_units_Z 12
_cell_length_a 5.438363
_cell_length_b 18.016148
_cell_length_c 21.572626
_cell_angle_alpha 12.077123
_cell_angle_beta 80.936963
_cell_angle_gamma 80.332343
_cell_volume 435.724965
_symmetry_space_group_name_H-M "P -1"
_symmetry_group_IT_number 2
_symmetry_cell_setting 'triclinic'
loop_
_space_group_symop_operation_xyz
x,y,z
-x,-y,-z
loop_
_atom_site_type_symbol
_atom_site_label
_atom_site_fract_x
_atom_site_fract_y
_atom_site_fract_z
Si Si1 0.275273 0.045519 0.923791
Si Si2 0.925174 0.455183 0.740913
Si Si3 0.788871 0.192018 0.671324
Si Si4 0.157387 0.559917 0.036161
Si Si5 0.700088 0.927471 0.472297
Si Si6 0.400951 0.318903 0.993422
O O1 0.266936 0.461019 0.567721
O O2 0.500000 0.000000 0.000000
O O3 0.305343 0.728478 0.131954
O O4 0.000000 0.000000 0.000000
O O5 0.879048 0.703350 0.599816
O O6 0.053574 0.660371 0.513026
O O7 0.079487 0.111420 0.043656
O O8 0.584661 0.986909 0.808937
O O9 0.224993 0.171190 0.379753
O O10 0.364450 0.759300 0.906147
O O11 0.871851 0.662726 0.980044
O O12 0.244851 0.671352 0.873783
O O13 0.450615 0.718539 0.641205
#
# Coordination Sequence:
#
# PCOD9112404 Si02
#       6
#     2   2   2   2   2   2
#     4  10  25  40  54  66  82  95 109 123 138 150
#     4  11  21  40  53  69  82  97 110 125 138 153
#     4  11  22  37  56  66  85  94 113 122 141 150
#     4  10  22  32  50  66  88  90 118 118 146 146
#     4  10  21  32  52  66  83  96 111 125 139 153
#     4  10  22  33  51  67  82  97 110 126 138 154
#
# _framework density 27.540305
#
# number of rings (size 3 to 8) (size 9 to 14) (size 15 to 20)
#    1.000    0.667    3.333    0.500    7.000    2.667 
#    0.000    7.500    0.000    0.000    0.000    0.000 
#    0.000    0.000    0.000    0.000    0.000    0.000 
#
# Total GULP energy -67017.631699 kJ/mol
# GULP energy per Si atom -5584.802642 kJ/mol
# Density = 2.747762 g / cm^3
# Si number density = 27.540305 Si / 1000 Ang^3
#
#
#
# Elastic Constant Matrix: (Units=GPa)
#
#
# Indices 1 2 3 4 5 6 
#
# 1 138.0798 -22.6052 116.7517 -33.8467 -27.8417 14.9038
# 2 -22.6052 2.3785 187.1126 -91.1330 -29.7615 29.2987
# 3 116.7517 187.1126 -97.5840 231.0748 -42.0216 -73.7582
# 4 -33.8467 -91.1330 231.0748 -90.2656 23.4970 33.5965
# 5 -27.8417 -29.7615 -42.0216 23.4970 39.0820 1.6410
# 6 14.9038 29.2987 -73.7582 33.5965 1.6410 46.1431
#
#
#
# Elastic Compliance Matrix: (Units=1/GPa)
#
#
# Indices 1 2 3 4 5 6 
#
# 1 0.012238 0.013214 -0.000388 -0.013502 0.026653 -0.004080
# 2 0.013214 0.049138 0.001437 -0.036056 0.070451 -0.009425
# 3 -0.000388 0.001437 0.002171 0.004250 0.000615 -0.000434
# 4 -0.013502 -0.036056 0.004250 0.032249 -0.052417 0.012432
# 5 0.026653 0.070451 0.000615 -0.052417 0.131192 -0.018860
# 6 -0.004080 -0.009425 -0.000434 0.012432 -0.018860 0.019900
#
#
# Mechanical properties :
#
#
# Convention : Reuss Voigt Hill
#
# Bulk Modulus (GPa) = 10.86095 67.26584 39.06340
# Shear Modulus (GPa) = 20.07622 -16.90041 1.58790
#
# Velocity S-wave (km/s) = 2.70288 -2.47991 0.76015
# Velocity P-wave (km/s) = 3.70041 4.03455 3.87109
#
# Compressibility (1/GPa) = 0.09207295
#
# Stress axis : x y z
#
# Youngs Moduli (GPa) = 81.71236 20.35098 460.69895
#
# Poissons Ratio (x) = -0.26892 0.17854
# Poissons Ratio (y) = -1.07976 -0.66190
# Poissons Ratio (z) = 0.03167 -0.02924
#
# Static dielectric constant tensor:
#      x y z
#    x 2.140880 -0.013070 0.018540 
#    y -0.013070 2.278000 0.072490 
#    z 0.018540 0.072490 2.304620 
# 
# From -- ./inp_files/605119.got.cif
#   From: 2010.05.17/outbox.cif.g08.bks.cpg/sg2_303_cif.got.tgz:605119.got - 2010.06.03 11:33:40.
