data_PCOD9112727
_publ_section_title
;
Structure prediction by ZEFSAII (Michael W. Deem and Ramdas Pophale) SiO2 
 PCOD9112727
Probable space group: P 2
;
_chemical_formula_sum "Si O2"
_cell_formula_units_Z 13
_cell_length_a 8.607178
_cell_length_b 9.102047
_cell_length_c 10.567057
_cell_angle_alpha 90.000000
_cell_angle_beta 132.887771
_cell_angle_gamma 90.000000
_cell_volume 606.559053
_symmetry_space_group_name_H-M "P 2"
_symmetry_group_IT_number 3
_symmetry_cell_setting 'monoclinic'
loop_
_space_group_symop_operation_xyz
x,y,z
-x,y,-z
loop_
_atom_site_type_symbol
_atom_site_label
_atom_site_fract_x
_atom_site_fract_y
_atom_site_fract_z
Si Si1 0.704132 0.491200 0.460237
Si Si2 0.786994 0.522637 0.797404
Si Si3 0.000000 0.071483 0.000000
Si Si4 0.066175 0.066717 0.770582
Si Si5 0.370030 0.836969 0.197544
Si Si6 0.000000 0.275537 0.500000
Si Si7 0.173039 0.832618 0.485644
Si Si8 0.500000 0.899752 0.000000
O O1 0.798674 0.475943 0.655885
O O2 0.451834 0.464569 0.306091
O O3 0.770876 0.660782 0.475386
O O4 0.806828 0.384868 0.415672
O O5 0.734510 0.697521 0.790523
O O6 0.000000 0.491455 0.000000
O O7 0.203693 0.967117 0.105410
O O8 0.984219 0.148695 0.126050
O O9 0.007272 0.172086 0.624750
O O10 0.932230 0.914147 0.691356
O O11 0.301760 0.008349 0.875617
O O12 0.590667 0.896653 0.375381
O O13 0.440030 0.804089 0.090216
O O14 0.000000 0.860896 0.500000
#
# Coordination Sequence:
#
# PCOD9112727 Si02
#       8
#     2   2   1   2   2   1   2   1
#     4  10  24  42  66  98 135 167 224 275 324 398
#     4  10  21  42  64  97 132 176 211 270 336 397
#     4  10  22  38  60 102 132 164 208 280 320 392
#     4  11  23  42  67  94 132 174 217 266 332 389
#     4  10  19  34  62  99 139 160 210 267 329 390
#     4  12  24  48  66  90 126 184 222 270 326 386
#     4  11  19  37  66  99 125 170 207 270 325 386
#     4  10  20  36  60 100 136 164 216 268 316 400
#
# _framework density 21.432372999999998
#
# number of rings (size 3 to 8) (size 9 to 14) (size 15 to 20)
#    0.000    1.538    3.846    0.923    2.154    1.846 
#    4.154    7.692    0.000    0.000    0.000    0.000 
#    0.000    0.000    0.000    0.000    0.000    0.000 
#
# Total GULP energy -72374.111727 kJ/mol
# GULP energy per Si atom -5567.239364 kJ/mol
# Density = 2.138359 g / cm^3
# Si number density = 21.432373 Si / 1000 Ang^3
#
#
#
# Elastic Constant Matrix: (Units=GPa)
#
#
# Indices 1 2 3 4 5 6 
#
# 1 101.9224 22.4509 40.5197 0.0000 -6.6555 0.0000
# 2 22.4509 37.2598 7.3712 0.0000 -0.7849 0.0000
# 3 40.5197 7.3712 120.6523 0.0000 27.5939 0.0000
# 4 0.0000 0.0000 0.0000 -46.9303 0.0000 -86.2694
# 5 -6.6555 -0.7849 27.5939 0.0000 45.9986 0.0000
# 6 0.0000 0.0000 0.0000 -86.2694 0.0000 -111.7170
#
#
#
# Elastic Compliance Matrix: (Units=1/GPa)
#
#
# Indices 1 2 3 4 5 6 
#
# 1 0.013871 -0.007184 -0.005390 0.000000 0.005118 0.000000
# 2 -0.007184 0.031001 0.000736 0.000000 -0.000952 0.000000
# 3 -0.005390 0.000736 0.011855 0.000000 -0.007879 0.000000
# 4 0.000000 0.000000 0.000000 0.050792 0.000000 -0.039222
# 5 0.005118 -0.000952 -0.007879 0.000000 0.027191 0.000000
# 6 0.000000 0.000000 0.000000 -0.039222 0.000000 0.021337
#
#
# Mechanical properties :
#
#
# Convention : Reuss Voigt Hill
#
# Bulk Modulus (GPa) = 30.25445 44.50201 37.37823
# Shear Modulus (GPa) = 26.21375 -9.89690 8.15843
#
# Velocity S-wave (km/s) = 3.50107 -2.15122 1.95317
# Velocity P-wave (km/s) = 5.52179 3.82605 4.75020
#
# Compressibility (1/GPa) = 0.03305298
#
# Stress axis : x y z
#
# Youngs Moduli (GPa) = 72.09429 32.25663 84.34948
#
# Poissons Ratio (x) = 0.23172 0.45463
# Poissons Ratio (y) = 0.51790 -0.06211
# Poissons Ratio (z) = 0.38858 -0.02375
#
# Static dielectric constant tensor:
#      x y z
#    x 1.835510 0.000000 0.051950 
#    y 0.000000 1.760880 0.000000 
#    z 0.051950 0.000000 2.184200 
# 
# From -- ./inp_files/7357.got.cif
#   From: 2010.05.17/outbox.cif.g08.bks.cpg/sg3_4_cif.got.tgz:7357.got - 2010.06.03 18:33:08.
