data_PCOD9112587
_publ_section_title
;
Structure prediction by ZEFSAII (Michael W. Deem and Ramdas Pophale) SiO2 
 PCOD9112587
Probable space group: P 2
;
_chemical_formula_sum "Si O2"
_cell_formula_units_Z 9
_cell_length_a 12.082384
_cell_length_b 7.443532
_cell_length_c 8.228676
_cell_angle_alpha 90.000000
_cell_angle_beta 146.242939
_cell_angle_gamma 90.000000
_cell_volume 411.226142
_symmetry_space_group_name_H-M "P 2"
_symmetry_group_IT_number 3
_symmetry_cell_setting 'monoclinic'
loop_
_space_group_symop_operation_xyz
x,y,z
-x,y,-z
loop_
_atom_site_type_symbol
_atom_site_label
_atom_site_fract_x
_atom_site_fract_y
_atom_site_fract_z
Si Si1 0.500000 0.013300 0.000000
Si Si2 0.407834 0.343478 0.114939
Si Si3 0.089133 0.192713 0.933056
Si Si4 0.803411 0.463068 0.454146
Si Si5 0.076503 0.848494 0.409951
O O1 0.572659 0.149408 0.948949
O O2 0.689175 0.904307 0.298098
O O3 0.283952 0.466867 0.835648
O O4 0.295845 0.291473 0.143281
O O5 0.625339 0.430658 0.365337
O O6 0.938485 0.287484 0.624438
O O7 0.060143 0.981556 0.863111
O O8 0.000000 0.231294 0.000000
O O9 0.924274 0.641124 0.642129
O O10 0.000000 0.862769 0.500000
#
# Coordination Sequence:
#
# PCOD9112587 Si02
#       5
#     1   2   2   2   2
#     4  10  18  34  66  88 114 148 202 258 302 336
#     4  10  19  41  63  88 118 156 200 257 302 349
#     4  12  24  39  60  87 129 168 196 238 306 373
#     4  10  22  39  65  89 117 154 208 254 309 342
#     4  12  21  38  66  95 118 153 207 263 299 354
#
# _framework density 21.885769
#
# number of rings (size 3 to 8) (size 9 to 14) (size 15 to 20)
#    0.000    1.333    6.667    3.333    0.000    1.778 
#    0.000    0.000    4.889    0.000    0.000    0.000 
#    0.000    0.000    0.000    0.000    0.000    0.000 
#
# Total GULP energy -50218.190133 kJ/mol
# GULP energy per Si atom -5579.798904 kJ/mol
# Density = 2.183596 g / cm^3
# Si number density = 21.885769 Si / 1000 Ang^3
#
#
#
# Elastic Constant Matrix: (Units=GPa)
#
#
# Indices 1 2 3 4 5 6 
#
# 1 165.7387 19.6933 8.4845 0.0000 9.2835 0.0000
# 2 19.6933 95.9546 4.0507 0.0000 6.9183 0.0000
# 3 8.4845 4.0507 34.0876 0.0000 12.2017 0.0000
# 4 0.0000 0.0000 0.0000 19.5239 0.0000 17.2988
# 5 9.2835 6.9183 12.2017 0.0000 20.8467 0.0000
# 6 0.0000 0.0000 0.0000 17.2988 0.0000 25.2950
#
#
#
# Elastic Compliance Matrix: (Units=1/GPa)
#
#
# Indices 1 2 3 4 5 6 
#
# 1 0.006317 -0.001120 -0.000715 0.000000 -0.002023 0.000000
# 2 -0.001120 0.010876 0.000126 0.000000 -0.003184 0.000000
# 3 -0.000715 0.000126 0.037192 0.000000 -0.021492 0.000000
# 4 0.000000 0.000000 0.000000 0.129979 0.000000 -0.088890
# 5 -0.002023 -0.003184 -0.021492 0.000000 0.062506 0.000000
# 6 0.000000 0.000000 0.000000 -0.088890 0.000000 0.100324
#
#
# Mechanical properties :
#
#
# Convention : Reuss Voigt Hill
#
# Bulk Modulus (GPa) = 19.62075 40.02644 29.82359
# Shear Modulus (GPa) = 13.60167 30.70329 22.15248
#
# Velocity S-wave (km/s) = 2.49566 3.74958 3.18494
# Velocity P-wave (km/s) = 4.15800 6.08887 5.21360
#
# Compressibility (1/GPa) = 0.05096645
#
# Stress axis : x y z
#
# Youngs Moduli (GPa) = 158.31264 91.94739 26.88719
#
# Poissons Ratio (x) = 0.10302 0.01923
# Poissons Ratio (y) = 0.17737 -0.00340
# Poissons Ratio (z) = 0.11321 -0.01161
#
# Static dielectric constant tensor:
#      x y z
#    x 1.846180 0.000000 0.042820 
#    y 0.000000 1.772990 0.000000 
#    z 0.042820 0.000000 1.872340 
# 
# From -- ./inp_files/6884.got.cif
#   From: 2010.05.17/outbox.cif.g08.bks.cpg/sg3_4_cif.got.tgz:6884.got - 2010.06.03 18:33:08.
