data_PCOD9112521
_publ_section_title
;
Structure prediction by ZEFSAII (Michael W. Deem and Ramdas Pophale) SiO2 
 PCOD9112521
Probable space group: P 2
;
_chemical_formula_sum "Si O2"
_cell_formula_units_Z 16
_cell_length_a 19.038346
_cell_length_b 8.054524
_cell_length_c 5.444637
_cell_angle_alpha 90.000000
_cell_angle_beta 121.491453
_cell_angle_gamma 90.000000
_cell_volume 711.940183
_symmetry_space_group_name_H-M "P 2"
_symmetry_group_IT_number 3
_symmetry_cell_setting 'monoclinic'
loop_
_space_group_symop_operation_xyz
x,y,z
-x,y,-z
loop_
_atom_site_type_symbol
_atom_site_label
_atom_site_fract_x
_atom_site_fract_y
_atom_site_fract_z
Si Si1 0.588072 0.788230 0.751343
Si Si2 0.140573 0.858659 0.319810
Si Si3 0.369979 0.341292 0.646587
Si Si4 0.194345 0.404898 0.820288
Si Si5 0.604981 0.398987 0.810839
Si Si6 0.087671 0.713135 0.719456
Si Si7 0.325868 0.741076 0.592155
Si Si8 0.813129 0.232391 0.695148
O O1 0.500000 0.856516 0.500000
O O2 0.576949 0.588623 0.760599
O O3 0.649468 0.811071 0.631505
O O4 0.624580 0.826233 0.089099
O O5 0.101751 0.838331 0.518305
O O6 0.229943 0.768672 0.471348
O O7 0.154871 0.050891 0.295628
O O8 0.090117 0.785510 0.997344
O O9 0.418062 0.317053 0.485134
O O10 0.346300 0.541525 0.615076
O O11 0.286336 0.237508 0.487237
O O12 0.416371 0.307724 0.980515
O O13 0.162066 0.585431 0.826104
O O14 0.164372 0.348484 0.496588
O O15 0.293907 0.402343 0.004811
O O16 0.163176 0.293995 0.990766
O O17 0.000000 0.629801 0.500000
#
# Coordination Sequence:
#
# PCOD9112521 Si02
#       8
#     2   2   2   2   2   2   2   2
#     4  10  18  29  48  82 116 144 185 238 286 330
#     4  12  23  40  62  88 120 151 197 244 292 351
#     4   8  14  27  46  72 100 130 177 222 265 314
#     4  10  19  38  60  83 112 147 199 241 281 349
#     4   8  14  25  46  71 100 133 170 224 272 306
#     4  12  25  42  62  86 118 158 192 237 299 357
#     4  10  19  33  55  80 109 151 190 236 284 337
#     4  10  20  34  59  88 111 144 192 248 287 330
#
# _framework density 22.473797999999999
#
# number of rings (size 3 to 8) (size 9 to 14) (size 15 to 20)
#    0.000    2.000    0.000    7.500    0.000    0.000 
#    0.000    3.750    0.000    0.000    0.000   47.250 
#    0.000    0.000    0.000    0.000    0.000    0.000 
#
# Total GULP energy -89333.367036 kJ/mol
# GULP energy per Si atom -5583.335440 kJ/mol
# Density = 2.242265 g / cm^3
# Si number density = 22.473798 Si / 1000 Ang^3
#
#
#
# Elastic Constant Matrix: (Units=GPa)
#
#
# Indices 1 2 3 4 5 6 
#
# 1 49.0630 -7.2693 28.9333 0.0000 -25.1769 0.0000
# 2 -7.2693 30.8856 -10.8100 0.0000 -4.4433 0.0000
# 3 28.9333 -10.8100 110.2420 0.0000 -28.2826 0.0000
# 4 0.0000 0.0000 0.0000 10.8985 0.0000 -15.0996
# 5 -25.1769 -4.4433 -28.2826 0.0000 47.5230 0.0000
# 6 0.0000 0.0000 0.0000 -15.0996 0.0000 12.6070
#
#
#
# Elastic Compliance Matrix: (Units=1/GPa)
#
#
# Indices 1 2 3 4 5 6 
#
# 1 0.031636 0.008442 -0.003508 0.000000 0.015462 0.000000
# 2 0.008442 0.037301 0.004112 0.000000 0.010407 0.000000
# 3 -0.003508 0.004112 0.011822 0.000000 0.005561 0.000000
# 4 0.000000 0.000000 0.000000 -0.139149 0.000000 -0.166661
# 5 0.015462 0.010407 0.005561 0.000000 0.033516 0.000000
# 6 0.000000 0.000000 0.000000 -0.166661 0.000000 -0.120292
#
#
# Mechanical properties :
#
#
# Convention : Reuss Voigt Hill
#
# Bulk Modulus (GPa) = 10.11635 23.54430 16.83032
# Shear Modulus (GPa) = -38.37091 26.16147 -6.10472
#
# Velocity S-wave (km/s) = -4.13651 3.41557 -1.64993
# Velocity P-wave (km/s) = 4.27821 5.10431 1.96861
#
# Compressibility (1/GPa) = 0.09884991
#
# Stress axis : x y z
#
# Youngs Moduli (GPa) = 31.60966 26.80901 84.59020
#
# Poissons Ratio (x) = -0.22633 0.29678
# Poissons Ratio (y) = -0.26686 -0.34783
# Poissons Ratio (z) = 0.11090 -0.11024
#
# Static dielectric constant tensor:
#      x y z
#    x 1.664000 0.000000 -0.126950 
#    y 0.000000 1.806120 0.000000 
#    z -0.126950 0.000000 1.859100 
# 
# From -- ./inp_files/3943.got.cif
#   From: 2010.05.17/outbox.cif.g08.bks.cpg/sg3_2_cif.got.tgz:3943.got - 2010.06.03 18:33:08.
