data_PCOD9112008
_publ_section_title
;
Structure prediction by ZEFSAII (Michael W. Deem and Ramdas Pophale) SiO2 
 PCOD9112008
Probable space group: P -1
;
_chemical_formula_sum "Si O2"
_cell_formula_units_Z 15
_cell_length_a 15.067909
_cell_length_b 15.436514
_cell_length_c 8.418261
_cell_angle_alpha 63.012974
_cell_angle_beta 78.428787
_cell_angle_gamma 26.884302
_cell_volume 680.234110
_symmetry_space_group_name_H-M "P -1"
_symmetry_group_IT_number 2
_symmetry_cell_setting 'triclinic'
loop_
_space_group_symop_operation_xyz
x,y,z
-x,-y,-z
loop_
_atom_site_type_symbol
_atom_site_label
_atom_site_fract_x
_atom_site_fract_y
_atom_site_fract_z
Si Si1 0.842703 0.017654 0.669393
Si Si2 0.786183 0.390013 0.875754
Si Si3 0.739593 0.333542 0.380860
Si Si4 0.131063 0.351330 0.411907
Si Si5 0.552721 0.805728 0.737965
Si Si6 0.500000 0.500000 0.000000
Si Si7 0.681968 0.740261 0.100323
Si Si8 0.617000 0.614301 0.433736
O O1 0.016022 0.859908 0.591369
O O2 0.770798 0.200647 0.570199
O O3 0.631939 0.155884 0.591141
O O4 0.981270 0.840432 0.917124
O O5 0.613411 0.635385 0.819293
O O6 0.801892 0.409018 0.672766
O O7 0.672007 0.397105 0.915064
O O8 0.621211 0.425847 0.179931
O O9 0.617385 0.532876 0.364815
O O10 0.296401 0.277357 0.367508
O O11 0.000000 0.500000 0.500000
O O12 0.936134 0.530451 0.201848
O O13 0.293460 0.097065 0.573409
O O14 0.630186 0.754499 0.930944
O O15 0.655497 0.678802 0.285590
O O16 0.500000 0.000000 0.000000
#
# Coordination Sequence:
#
# PCOD9112008 Si02
#       8
#     2   2   2   2   2   1   2   2
#     4  10  23  44  69  99 139 184 228 292 345 418
#     4  11  25  42  71 103 137 185 233 286 355 420
#     4  10  22  46  68 102 141 182 234 285 350 423
#     4  11  24  48  75 103 138 180 242 294 357 428
#     4  11  26  47  72 102 142 189 230 296 361 420
#     4  10  20  44  66  98 144 176 224 288 342 410
#     4  12  26  45  72 104 141 185 236 298 355 421
#     4  12  26  45  69 103 140 185 239 287 353 429
#
# _framework density 22.051231999999999
#
# number of rings (size 3 to 8) (size 9 to 14) (size 15 to 20)
#    0.000    1.067    2.667    3.200    3.733    3.733 
#    4.800    0.000    0.000    0.000    0.000    0.000 
#    0.000    0.000    0.000    0.000    0.000    0.000 
#
# Total GULP energy -83667.340840 kJ/mol
# GULP energy per Si atom -5577.822723 kJ/mol
# Density = 2.200104 g / cm^3
# Si number density = 22.051232 Si / 1000 Ang^3
#
#
#
# Elastic Constant Matrix: (Units=GPa)
#
#
# Indices 1 2 3 4 5 6 
#
# 1 14.6664 27.7237 9.1082 -6.6364 0.9198 -5.1991
# 2 27.7237 65.1984 27.4417 4.2115 4.4598 -1.4095
# 3 9.1082 27.4417 121.0978 -0.8961 -9.6247 12.1596
# 4 -6.6364 4.2115 -0.8961 34.7802 -8.6601 6.8272
# 5 0.9198 4.4598 -9.6247 -8.6601 29.9704 8.2395
# 6 -5.1991 -1.4095 12.1596 6.8272 8.2395 27.7587
#
#
#
# Elastic Compliance Matrix: (Units=1/GPa)
#
#
# Indices 1 2 3 4 5 6 
#
# 1 4.936408 -2.292563 0.178602 1.317051 0.561801 0.239244
# 2 -2.292563 1.083590 -0.088687 -0.617661 -0.269346 -0.103657
# 3 0.178602 -0.088687 0.017589 0.052400 0.028537 -0.000115
# 4 1.317051 -0.617661 0.052400 0.388750 0.167740 0.046961
# 5 0.561801 -0.269346 0.028537 0.167740 0.112641 0.004356
# 6 0.239244 -0.103657 -0.000115 0.046961 0.004356 0.062778
#
#
# Mechanical properties :
#
#
# Convention : Reuss Voigt Hill
#
# Bulk Modulus (GPa) = 0.61264 36.61219 18.61241
# Shear Modulus (GPa) = 0.43286 27.61446 14.02366
#
# Velocity S-wave (km/s) = 0.44353 3.54261 2.52456
# Velocity P-wave (km/s) = 0.73534 5.77691 4.11785
#
# Compressibility (1/GPa) = 1.63229011
#
# Stress axis : x y z
#
# Youngs Moduli (GPa) = 0.20258 0.92286 56.85324
#
# Poissons Ratio (x) = 2.11571 -10.15409
# Poissons Ratio (y) = 0.46442 5.04217
# Poissons Ratio (z) = -0.03618 0.08185
#
# Static dielectric constant tensor:
#      x y z
#    x 1.780520 0.004790 -0.007450 
#    y 0.004790 1.809290 -0.014960 
#    z -0.007450 -0.014960 1.822080 
# 
# From -- ./inp_files/312705.got.cif
#   From: 2010.05.17/outbox.cif.g08.bks.cpg/sg2_157_cif.got.tgz:312705.got - 2010.06.03 11:33:40.
