data_PCOD9112590
_publ_section_title
;
Structure prediction by ZEFSAII (Michael W. Deem and Ramdas Pophale) SiO2 
 PCOD9112590
Probable space group: P 2
;
_chemical_formula_sum "Si O2"
_cell_formula_units_Z 12
_cell_length_a 10.771761
_cell_length_b 7.134909
_cell_length_c 9.556946
_cell_angle_alpha 90.000000
_cell_angle_beta 118.308883
_cell_angle_gamma 90.000000
_cell_volume 646.660313
_symmetry_space_group_name_H-M "P 2"
_symmetry_group_IT_number 3
_symmetry_cell_setting 'monoclinic'
loop_
_space_group_symop_operation_xyz
x,y,z
-x,y,-z
loop_
_atom_site_type_symbol
_atom_site_label
_atom_site_fract_x
_atom_site_fract_y
_atom_site_fract_z
Si Si1 0.352820 0.566920 0.848163
Si Si2 0.597504 0.419405 0.429433
Si Si3 0.174545 0.283156 0.244776
Si Si4 0.842456 0.303383 0.082548
Si Si5 0.576097 0.025356 0.673612
Si Si6 0.362311 0.961086 0.993821
O O1 0.375514 0.531316 0.696796
O O2 0.226161 0.445489 0.844743
O O3 0.329244 0.780966 0.883178
O O4 0.500000 0.510439 0.000000
O O5 0.500000 0.503290 0.500000
O O6 0.745068 0.386208 0.587413
O O7 0.515967 0.219675 0.350994
O O8 0.266024 0.091987 0.282089
O O9 0.009155 0.272372 0.184524
O O10 0.188783 0.367382 0.094869
O O11 0.763071 0.107011 0.061922
O O12 0.500000 0.936390 0.500000
O O13 0.590300 0.910295 0.822980
O O14 0.500000 0.055736 0.000000
#
# Coordination Sequence:
#
# PCOD9112590 Si02
#       6
#     2   2   2   2   2   2
#     4  11  21  33  54  80 106 143 184 222 270 318
#     4   9  17  33  59  84 106 141 183 223 271 325
#     4   8  17  32  56  83 107 145 181 211 273 325
#     4  10  18  35  57  79 112 144 175 223 268 321
#     4   8  15  32  57  81 105 138 181 225 268 320
#     4  10  20  33  51  79 106 138 184 222 266 321
#
# _framework density 18.556881000000001
#
# number of rings (size 3 to 8) (size 9 to 14) (size 15 to 20)
#    0.000    3.000    0.000    4.500    0.000    0.667 
#    0.000   13.333    0.000   17.000    0.000    0.000 
#    0.000    0.000    0.000    0.000    0.000    0.000 
#
# Total GULP energy -66833.781637 kJ/mol
# GULP energy per Si atom -5569.481803 kJ/mol
# Density = 1.851464 g / cm^3
# Si number density = 18.556881 Si / 1000 Ang^3
#
#
#
# Elastic Constant Matrix: (Units=GPa)
#
#
# Indices 1 2 3 4 5 6 
#
# 1 139.1594 39.4599 73.7518 0.0000 -1.7814 0.0000
# 2 39.4599 78.9885 43.6052 0.0000 -13.0517 0.0000
# 3 73.7518 43.6052 140.7337 0.0000 -15.0159 0.0000
# 4 0.0000 0.0000 0.0000 30.4122 0.0000 -13.4967
# 5 -1.7814 -13.0517 -15.0159 0.0000 41.0574 0.0000
# 6 0.0000 0.0000 0.0000 -13.4967 0.0000 1.5531
#
#
#
# Elastic Compliance Matrix: (Units=1/GPa)
#
#
# Indices 1 2 3 4 5 6 
#
# 1 0.010578 -0.002974 -0.004864 0.000000 -0.002265 0.000000
# 2 -0.002974 0.016537 -0.003141 0.000000 0.003979 0.000000
# 3 -0.004864 -0.003141 0.010925 0.000000 0.002786 0.000000
# 4 0.000000 0.000000 0.000000 -0.011510 0.000000 -0.100028
# 5 -0.002265 0.003979 0.002786 0.000000 0.026542 0.000000
# 6 0.000000 0.000000 0.000000 -0.100028 0.000000 -0.225394
#
#
# Mechanical properties :
#
#
# Convention : Reuss Voigt Hill
#
# Bulk Modulus (GPa) = 62.17643 74.72394 68.45018
# Shear Modulus (GPa) = -34.48147 28.07552 -3.20298
#
# Velocity S-wave (km/s) = -4.31530 3.89388 -1.31521
# Velocity P-wave (km/s) = 2.95795 7.78276 5.88731
#
# Compressibility (1/GPa) = 0.01608326
#
# Stress axis : x y z
#
# Youngs Moduli (GPa) = 94.53703 60.47027 91.53401
#
# Poissons Ratio (x) = 0.17982 0.44519
# Poissons Ratio (y) = 0.28112 0.28750
# Poissons Ratio (z) = 0.45980 0.18993
#
# Static dielectric constant tensor:
#      x y z
#    x 1.627360 0.000000 -0.021290 
#    y 0.000000 1.675600 0.000000 
#    z -0.021290 0.000000 1.665830 
# 
# From -- ./inp_files/7041.got.cif
#   From: 2010.05.17/outbox.cif.g08.bks.cpg/sg3_4_cif.got.tgz:7041.got - 2010.06.03 18:33:08.
