data_PCOD9112324
_publ_section_title
;
Structure prediction by ZEFSAII (Michael W. Deem and Ramdas Pophale) SiO2 
 PCOD9112324
Probable space group: P -1
;
_chemical_formula_sum "Si O2"
_cell_formula_units_Z 13
_cell_length_a 14.395091
_cell_length_b 12.472325
_cell_length_c 14.977547
_cell_angle_alpha 28.334071
_cell_angle_beta 152.228474
_cell_angle_gamma 150.657788
_cell_volume 539.654072
_symmetry_space_group_name_H-M "P -1"
_symmetry_group_IT_number 2
_symmetry_cell_setting 'triclinic'
loop_
_space_group_symop_operation_xyz
x,y,z
-x,-y,-z
loop_
_atom_site_type_symbol
_atom_site_label
_atom_site_fract_x
_atom_site_fract_y
_atom_site_fract_z
Si Si1 0.180708 0.789799 0.374091
Si Si2 0.695425 0.659767 0.983753
Si Si3 0.323165 0.584667 0.488262
Si Si4 0.902686 0.615723 0.021264
Si Si5 0.794569 0.026367 0.559465
Si Si6 0.911140 0.942404 0.366253
Si Si7 0.000000 0.500000 0.000000
O O1 0.266529 0.614573 0.520860
O O2 0.931726 0.727949 0.180219
O O3 0.207245 0.782175 0.508381
O O4 0.311588 0.076373 0.241448
O O5 0.718115 0.527887 0.006630
O O6 0.500000 0.500000 0.000000
O O7 0.555984 0.806174 0.502845
O O8 0.132704 0.623672 0.243793
O O9 0.303109 0.314579 0.639801
O O10 0.929763 0.895094 0.821957
O O11 0.861307 0.480111 0.990756
O O12 0.912767 0.114384 0.502032
O O13 0.000000 0.000000 0.500000
O O14 0.909546 0.195090 0.143897
#
# Coordination Sequence:
#
# PCOD9112324 Si02
#       7
#     2   2   2   2   2   2   1
#     4   9  20  38  60  99 140 173 219 288 333 404
#     4   9  18  35  65  98 137 179 224 273 349 412
#     4  11  22  41  69  99 134 178 228 279 349 408
#     4   9  20  40  64  94 134 175 218 284 335 388
#     4  10  23  41  67  98 138 177 227 281 336 417
#     4  11  24  44  69  98 136 178 233 288 340 403
#     4  10  20  46  70  90 144 174 222 302 328 400
#
# _framework density 24.089507999999999
#
# number of rings (size 3 to 8) (size 9 to 14) (size 15 to 20)
#    0.000    2.154    1.538    1.385    0.000    6.154 
#    0.000    6.154    0.000    0.000    0.000    0.000 
#    0.000    0.000    0.000    0.000    0.000    0.000 
#
# Total GULP energy -72426.735668 kJ/mol
# GULP energy per Si atom -5571.287359 kJ/mol
# Density = 2.403468 g / cm^3
# Si number density = 24.089508 Si / 1000 Ang^3
#
#
#
# Elastic Constant Matrix: (Units=GPa)
#
#
# Indices 1 2 3 4 5 6 
#
# 1 189.9590 46.9220 0.2396 10.8982 -13.5669 -20.7055
# 2 46.9220 96.9233 36.6894 -10.4953 0.8728 -11.8355
# 3 0.2396 36.6894 79.4016 -17.3188 5.6615 2.8325
# 4 10.8982 -10.4953 -17.3188 29.8218 -0.6161 8.5810
# 5 -13.5669 0.8728 5.6615 -0.6161 21.1350 -10.5717
# 6 -20.7055 -11.8355 2.8325 8.5810 -10.5717 44.1286
#
#
#
# Elastic Compliance Matrix: (Units=1/GPa)
#
#
# Indices 1 2 3 4 5 6 
#
# 1 0.007646 -0.003556 -0.000390 -0.005735 0.007816 0.005647
# 2 -0.003556 0.015051 -0.006586 0.002078 0.000130 0.002418
# 3 -0.000390 -0.006586 0.018814 0.010657 -0.008320 -0.007222
# 4 -0.005735 0.002078 0.010657 0.046580 -0.012730 -0.014925
# 5 0.007816 0.000130 -0.008320 -0.012730 0.065376 0.022374
# 6 0.005647 0.002418 -0.007222 -0.014925 0.022374 0.034685
#
#
# Mechanical properties :
#
#
# Convention : Reuss Voigt Hill
#
# Bulk Modulus (GPa) = 48.90570 59.33177 54.11874
# Shear Modulus (GPa) = 23.14474 37.84594 30.49534
#
# Velocity S-wave (km/s) = 3.10301 3.96795 3.56183
# Velocity P-wave (km/s) = 5.76055 6.75841 6.27933
#
# Compressibility (1/GPa) = 0.02044751
#
# Stress axis : x y z
#
# Youngs Moduli (GPa) = 130.78922 66.43975 53.15176
#
# Poissons Ratio (x) = 0.23625 0.02071
# Poissons Ratio (y) = 0.46507 0.35007
# Poissons Ratio (z) = 0.05097 0.43759
#
# Static dielectric constant tensor:
#      x y z
#    x 1.978410 -0.015860 -0.019090 
#    y -0.015860 1.934550 -0.010690 
#    z -0.019090 -0.010690 1.989200 
# 
# From -- ./inp_files/287383.got.cif
#   From: 2010.05.17/outbox.cif.g08.bks.cpg/sg2_144_cif.got.tgz:287383.got - 2010.06.03 11:33:40.
