data_PCOD9112013
_publ_section_title
;
Structure prediction by ZEFSAII (Michael W. Deem and Ramdas Pophale) SiO2 
 PCOD9112013
Probable space group: P -1
;
_chemical_formula_sum "Si O2"
_cell_formula_units_Z 14
_cell_length_a 10.061625
_cell_length_b 19.146540
_cell_length_c 7.794567
_cell_angle_alpha 126.401749
_cell_angle_beta 132.958416
_cell_angle_gamma 30.242675
_cell_volume 553.447523
_symmetry_space_group_name_H-M "P -1"
_symmetry_group_IT_number 2
_symmetry_cell_setting 'triclinic'
loop_
_space_group_symop_operation_xyz
x,y,z
-x,-y,-z
loop_
_atom_site_type_symbol
_atom_site_label
_atom_site_fract_x
_atom_site_fract_y
_atom_site_fract_z
Si Si1 0.886167 0.679791 0.055082
Si Si2 0.786897 0.301840 0.437627
Si Si3 0.098849 0.002227 0.274705
Si Si4 0.627218 0.760048 0.611168
Si Si5 0.339126 0.369750 0.977914
Si Si6 0.786717 0.204547 0.809562
Si Si7 0.809193 0.374792 0.187604
O O1 0.731746 0.698826 0.115381
O O2 0.106172 0.674156 0.286837
O O3 0.663009 0.787926 0.869503
O O4 0.064236 0.529970 0.922188
O O5 0.791595 0.355710 0.343538
O O6 0.471965 0.375596 0.261963
O O7 0.985964 0.141703 0.382597
O O8 0.424238 0.883692 0.471248
O O9 0.996809 0.957755 0.236603
O O10 0.000000 0.000000 0.000000
O O11 0.459521 0.730546 0.447789
O O12 0.952908 0.639380 0.646226
O O13 0.579751 0.278904 0.908463
O O14 0.930648 0.243112 0.005932
O O15 0.500000 0.500000 0.000000
#
# Coordination Sequence:
#
# PCOD9112013 Si02
#       7
#     2   2   2   2   2   2   2
#     4  11  24  38  58  93 127 161 199 245 315 373
#     4  11  22  41  63  90 122 163 202 252 303 368
#     4  10  20  44  67  86 121 159 217 254 298 355
#     4  10  23  39  60  94 121 160 200 258 301 357
#     4  10  21  40  62  85 124 166 201 245 306 365
#     4   9  21  41  63  89 117 159 209 251 296 352
#     4  11  22  37  65  95 119 157 207 257 303 354
#
# _framework density 25.295985000000002
#
# number of rings (size 3 to 8) (size 9 to 14) (size 15 to 20)
#    0.857    0.857    2.857    3.000    0.000    6.857 
#    2.571    0.714    0.000    0.000    0.000    0.000 
#    0.000    0.000    0.000    0.000    0.000    0.000 
#
# Total GULP energy -77947.844392 kJ/mol
# GULP energy per Si atom -5567.703171 kJ/mol
# Density = 2.523841 g / cm^3
# Si number density = 25.295985 Si / 1000 Ang^3
#
#
#
# Elastic Constant Matrix: (Units=GPa)
#
#
# Indices 1 2 3 4 5 6 
#
# 1 61.0914 26.7832 13.9105 -6.8718 -9.7595 2.5726
# 2 26.7832 97.3363 47.4080 -17.5008 -17.5046 8.0763
# 3 13.9105 47.4080 139.4722 -22.0033 -1.8746 16.3953
# 4 -6.8718 -17.5008 -22.0033 43.5787 6.3150 6.3298
# 5 -9.7595 -17.5046 -1.8746 6.3150 32.7368 -7.7672
# 6 2.5726 8.0763 16.3953 6.3298 -7.7672 20.7041
#
#
#
# Elastic Compliance Matrix: (Units=1/GPa)
#
#
# Indices 1 2 3 4 5 6 
#
# 1 0.018942 -0.004416 -0.000370 0.000422 0.003373 0.000798
# 2 -0.004416 0.015058 -0.004131 0.002504 0.005869 -0.000617
# 3 -0.000370 -0.004131 0.010758 0.006062 -0.005423 -0.010749
# 4 0.000422 0.002504 0.006062 0.031011 -0.008565 -0.018523
# 5 0.003373 0.005869 -0.005423 -0.008565 0.040648 0.019454
# 6 0.000798 -0.000617 -0.010749 -0.018523 0.019454 0.069915
#
#
# Mechanical properties :
#
#
# Convention : Reuss Voigt Hill
#
# Bulk Modulus (GPa) = 37.14271 52.67814 44.91042
# Shear Modulus (GPa) = 23.45876 33.39047 28.42461
#
# Velocity S-wave (km/s) = 3.04858 3.63711 3.35577
# Velocity P-wave (km/s) = 5.20643 6.20548 5.72778
#
# Compressibility (1/GPa) = 0.02692318
#
# Stress axis : x y z
#
# Youngs Moduli (GPa) = 52.79363 66.41091 92.95305
#
# Poissons Ratio (x) = 0.29324 0.03441
# Poissons Ratio (y) = 0.23311 0.38403
# Poissons Ratio (z) = 0.01955 0.27437
#
# Static dielectric constant tensor:
#      x y z
#    x 2.098230 0.018370 -0.046250 
#    y 0.018370 2.095280 0.021090 
#    z -0.046250 0.021090 2.060950 
# 
# From -- ./inp_files/282356.got.cif
#   From: 2010.05.17/outbox.cif.g08.bks.cpg/sg2_142_cif.got.tgz:282356.got - 2010.06.03 11:33:40.
