data_PCOD9112238
_publ_section_title
;
Structure prediction by ZEFSAII (Michael W. Deem and Ramdas Pophale) SiO2 
 PCOD9112238
Probable space group: P -1
;
_chemical_formula_sum "Si O2"
_cell_formula_units_Z 16
_cell_length_a 5.164418
_cell_length_b 30.300859
_cell_length_c 26.843945
_cell_angle_alpha 11.136669
_cell_angle_beta 118.998805
_cell_angle_gamma 116.160607
_cell_volume 694.449036
_symmetry_space_group_name_H-M "P -1"
_symmetry_group_IT_number 2
_symmetry_cell_setting 'triclinic'
loop_
_space_group_symop_operation_xyz
x,y,z
-x,-y,-z
loop_
_atom_site_type_symbol
_atom_site_label
_atom_site_fract_x
_atom_site_fract_y
_atom_site_fract_z
Si Si1 0.460627 0.424977 0.829934
Si Si2 0.717088 0.951716 0.419739
Si Si3 0.200951 0.166432 0.956112
Si Si4 0.903692 0.781739 0.342196
Si Si5 0.402545 0.531412 0.399036
Si Si6 0.639731 0.908693 0.666703
Si Si7 0.227394 0.193097 0.583610
Si Si8 0.636212 0.400732 0.258632
O O1 0.172905 0.557979 0.625399
O O2 0.729985 0.538945 0.708090
O O3 0.426412 0.515695 0.783057
O O4 0.534932 0.149636 0.146309
O O5 0.586903 0.007942 0.400954
O O6 0.057948 0.991080 0.406975
O O7 0.638697 0.706363 0.668821
O O8 0.359091 0.348921 0.740154
O O9 0.930896 0.304562 0.811119
O O10 0.046402 0.991972 0.101168
O O11 0.472769 0.984890 0.209283
O O12 0.647436 0.701697 0.374905
O O13 0.801917 0.861348 0.300619
O O14 0.500000 0.500000 0.500000
O O15 0.500000 0.000000 0.500000
O O16 0.695997 0.625902 0.985444
O O17 0.940200 0.199724 0.514554
#
# Coordination Sequence:
#
# PCOD9112238 Si02
#       8
#     2   2   2   2   2   2   2   2
#     4   9  21  39  63  96 136 164 218 278 339 403
#     4  11  24  41  68  97 126 183 218 274 343 381
#     4  11  25  46  67 100 131 174 225 277 340 398
#     4  10  24  44  68 100 135 179 219 281 347 402
#     4  12  28  47  70 100 136 182 231 273 334 413
#     4  11  25  45  65  97 139 177 229 273 319 402
#     4  10  20  45  67  98 139 171 219 291 343 403
#     4  10  23  41  65  99 136 171 223 280 337 401
#
# _framework density 23.039850999999999
#
# number of rings (size 3 to 8) (size 9 to 14) (size 15 to 20)
#    0.000    1.500    2.500    0.750    7.000    2.000 
#    0.000    0.000    0.000    0.000    0.000    0.000 
#    0.000    0.000    0.000    0.000    0.000    0.000 
#
# Total GULP energy -89415.234581 kJ/mol
# GULP energy per Si atom -5588.452161 kJ/mol
# Density = 2.298741 g / cm^3
# Si number density = 23.039851 Si / 1000 Ang^3
#
#
#
# Elastic Constant Matrix: (Units=GPa)
#
#
# Indices 1 2 3 4 5 6 
#
# 1 87.8512 5.9788 26.0820 -12.5046 -30.6554 11.7587
# 2 5.9788 69.8543 34.6626 -38.6207 -18.5769 17.1470
# 3 26.0820 34.6626 71.2209 -33.0730 -28.7825 16.6927
# 4 -12.5046 -38.6207 -33.0730 -1.7679 11.6398 -8.4032
# 5 -30.6554 -18.5769 -28.7825 11.6398 41.9301 -3.2263
# 6 11.7587 17.1470 16.6927 -8.4032 -3.2263 21.9527
#
#
#
# Elastic Compliance Matrix: (Units=1/GPa)
#
#
# Indices 1 2 3 4 5 6 
#
# 1 0.016821 0.002707 -0.002570 -0.004843 0.012369 -0.009206
# 2 0.002707 0.013491 -0.012181 -0.017853 0.003859 -0.008993
# 3 -0.002570 -0.012181 0.021540 -0.011732 0.010114 -0.008492
# 4 -0.004843 -0.017853 -0.011732 -0.034296 -0.009137 0.010989
# 5 0.012369 0.003859 0.010114 -0.009137 0.042964 -0.014513
# 6 -0.009206 -0.008993 -0.008492 0.010989 -0.014513 0.066039
#
#
# Mechanical properties :
#
#
# Convention : Reuss Voigt Hill
#
# Bulk Modulus (GPa) = 36.01626 40.26368 38.13997
# Shear Modulus (GPa) = 31.26955 23.23652 27.25304
#
# Velocity S-wave (km/s) = 3.68801 3.17919 3.44301
# Velocity P-wave (km/s) = 5.81389 5.56686 5.69172
#
# Compressibility (1/GPa) = 0.02776524
#
# Stress axis : x y z
#
# Youngs Moduli (GPa) = 59.45057 74.12164 46.42581
#
# Poissons Ratio (x) = -0.20067 0.11932
# Poissons Ratio (y) = -0.16095 0.56549
# Poissons Ratio (z) = 0.15279 0.90284
#
# Static dielectric constant tensor:
#      x y z
#    x 1.939990 0.026310 0.020320 
#    y 0.026310 1.874960 0.007870 
#    z 0.020320 0.007870 1.922040 
# 
# From -- ./inp_files/10821.got.cif
#   From: 2010.05.17/outbox.cif.g08.bks.cpg/sg2_6_cif.got.tgz:10821.got - 2010.06.03 11:33:40.
