data_PCOD9112333
_publ_section_title
;
Structure prediction by ZEFSAII (Michael W. Deem and Ramdas Pophale) SiO2 
 PCOD9112333
Probable space group: P -1
;
_chemical_formula_sum "Si O2"
_cell_formula_units_Z 11
_cell_length_a 8.814367
_cell_length_b 5.399916
_cell_length_c 12.053663
_cell_angle_alpha 85.630207
_cell_angle_beta 124.638652
_cell_angle_gamma 72.835884
_cell_volume 428.741586
_symmetry_space_group_name_H-M "P -1"
_symmetry_group_IT_number 2
_symmetry_cell_setting 'triclinic'
loop_
_space_group_symop_operation_xyz
x,y,z
-x,-y,-z
loop_
_atom_site_type_symbol
_atom_site_label
_atom_site_fract_x
_atom_site_fract_y
_atom_site_fract_z
Si Si1 0.829863 0.352849 0.627534
Si Si2 0.077796 0.465767 0.907803
Si Si3 0.737907 0.375151 0.210150
Si Si4 0.446299 0.859081 0.381103
Si Si5 0.000000 0.500000 0.500000
Si Si6 0.514294 0.993499 0.855801
O O1 0.631061 0.557252 0.470132
O O2 0.763033 0.146123 0.670267
O O3 0.895738 0.488946 0.751441
O O4 0.996335 0.290298 0.604625
O O5 0.172625 0.649138 0.876577
O O6 0.265487 0.169769 0.994679
O O7 0.000000 0.500000 0.000000
O O8 0.615241 0.187773 0.179221
O O9 0.910385 0.344795 0.374928
O O10 0.587486 0.695635 0.155462
O O11 0.500000 0.000000 0.500000
O O12 0.454421 0.985266 0.263406
#
# Coordination Sequence:
#
# PCOD9112333 Si02
#       6
#     2   2   2   2   1   2
#     4  10  23  45  67 104 141 181 242 294 365 422
#     4  11  26  48  73 109 147 195 244 306 359 440
#     4  11  26  50  75 108 146 197 241 304 368 441
#     4  11  23  42  72 101 143 188 238 301 366 427
#     4  10  20  46  72 106 138 184 244 300 356 430
#     4  12  26  49  76 104 152 194 246 293 376 436
#
# _framework density 25.656483000000001
#
# number of rings (size 3 to 8) (size 9 to 14) (size 15 to 20)
#    0.000    1.091    1.818    3.273    5.091    1.455 
#   22.909    0.000    0.000    0.000    0.000    0.000 
#    0.000    0.000    0.000    0.000    0.000    0.000 
#
# Total GULP energy -61258.744625 kJ/mol
# GULP energy per Si atom -5568.976784 kJ/mol
# Density = 2.559809 g / cm^3
# Si number density = 25.656483 Si / 1000 Ang^3
#
#
#
# Elastic Constant Matrix: (Units=GPa)
#
#
# Indices 1 2 3 4 5 6 
#
# 1 169.8530 80.6169 72.7668 -0.0727 -54.9921 50.6487
# 2 80.6169 121.0945 15.2873 -6.7659 0.5935 22.4645
# 3 72.7668 15.2873 130.1448 -2.5373 -45.5529 5.3539
# 4 -0.0727 -6.7659 -2.5373 34.9461 -9.9025 10.0537
# 5 -54.9921 0.5935 -45.5529 -9.9025 70.9435 -9.7242
# 6 50.6487 22.4645 5.3539 10.0537 -9.7242 53.7712
#
#
#
# Elastic Compliance Matrix: (Units=1/GPa)
#
#
# Indices 1 2 3 4 5 6 
#
# 1 0.021516 -0.010759 -0.006012 0.004851 0.011670 -0.013969
# 2 -0.010759 0.014793 0.001744 0.000284 -0.006966 0.002468
# 3 -0.006012 0.001744 0.012002 0.001046 0.003756 0.004223
# 4 0.004851 0.000284 0.001046 0.033759 0.007813 -0.009691
# 5 0.011670 -0.006966 0.003756 0.007813 0.025987 -0.005217
# 6 -0.013969 0.002468 0.004223 -0.009691 -0.005217 0.031172
#
#
# Mechanical properties :
#
#
# Convention : Reuss Voigt Hill
#
# Bulk Modulus (GPa) = 54.77897 84.27047 69.52472
# Shear Modulus (GPa) = 28.51129 48.76024 38.63576
#
# Velocity S-wave (km/s) = 3.33719 4.36421 3.88479
# Velocity P-wave (km/s) = 6.02050 7.63623 6.87599
#
# Compressibility (1/GPa) = 0.01825518
#
# Stress axis : x y z
#
# Youngs Moduli (GPa) = 46.47780 67.59940 83.32041
#
# Poissons Ratio (x) = 0.72733 0.50093
# Poissons Ratio (y) = 0.50008 -0.14530
# Poissons Ratio (z) = 0.27943 -0.11789
#
# Static dielectric constant tensor:
#      x y z
#    x 2.191860 -0.097990 0.072230 
#    y -0.097990 2.030990 -0.078310 
#    z 0.072230 -0.078310 1.991730 
# 
# From -- ./inp_files/22164.got.cif
#   From: 2010.05.17/outbox.cif.g08.bks.cpg/sg2_12_cif.got.tgz:22164.got - 2010.06.03 11:33:40.
