data_PCOD9112849
_publ_section_title
;
Structure prediction by ZEFSAII (Michael W. Deem and Ramdas Pophale) SiO2 
 PCOD9112849
Probable space group: P 2
;
_chemical_formula_sum "Si O2"
_cell_formula_units_Z 12
_cell_length_a 9.505737
_cell_length_b 8.177593
_cell_length_c 7.930890
_cell_angle_alpha 90.000000
_cell_angle_beta 111.102741
_cell_angle_gamma 90.000000
_cell_volume 575.155410
_symmetry_space_group_name_H-M "P 2"
_symmetry_group_IT_number 3
_symmetry_cell_setting 'monoclinic'
loop_
_space_group_symop_operation_xyz
x,y,z
-x,y,-z
loop_
_atom_site_type_symbol
_atom_site_label
_atom_site_fract_x
_atom_site_fract_y
_atom_site_fract_z
Si Si1 0.353865 0.813330 0.826963
Si Si2 0.832907 0.315772 0.495588
Si Si3 0.820127 0.792995 0.921590
Si Si4 0.677410 0.995093 0.545991
Si Si5 0.582102 0.425207 0.197409
Si Si6 0.360470 0.534903 0.348052
O O1 0.322803 0.897371 0.633689
O O2 0.379092 0.618466 0.804054
O O3 0.500000 0.868148 0.000000
O O4 0.222985 0.841212 0.906958
O O5 0.730276 0.323260 0.286505
O O6 0.763601 0.464685 0.577860
O O7 0.000000 0.331684 0.500000
O O8 0.784479 0.152231 0.568908
O O9 0.750627 0.901720 0.738659
O O10 0.728790 0.626856 0.837393
O O11 0.000000 0.776496 0.000000
O O12 0.500000 0.032429 0.500000
O O13 0.465889 0.402527 0.301458
O O14 0.500000 0.366277 0.000000
O O15 0.500000 0.633614 0.500000
#
# Coordination Sequence:
#
# PCOD9112849 Si02
#       6
#     2   2   2   2   2   2
#     4  11  22  43  74 103 124 171 226 269 324 396
#     4  11  27  42  62  95 132 176 212 269 337 374
#     4  12  26  41  70 106 133 165 218 280 336 379
#     4  12  24  47  69  92 138 178 219 266 322 406
#     4  10  19  41  69  95 124 163 224 264 314 395
#     4  10  20  43  68  93 127 172 218 263 323 392
#
# _framework density 20.863924999999998
#
# number of rings (size 3 to 8) (size 9 to 14) (size 15 to 20)
#    0.000    1.000    5.000    4.000    4.667    0.667 
#    3.000    0.833    0.000    0.000    0.000    0.000 
#    0.000    0.000    0.000    0.000    0.000    0.000 
#
# Total GULP energy -66873.221848 kJ/mol
# GULP energy per Si atom -5572.768487 kJ/mol
# Density = 2.081644 g / cm^3
# Si number density = 20.863925 Si / 1000 Ang^3
#
#
#
# Elastic Constant Matrix: (Units=GPa)
#
#
# Indices 1 2 3 4 5 6 
#
# 1 204.9253 24.6236 58.9830 0.0000 1.6958 0.0000
# 2 24.6236 35.4453 17.7739 0.0000 -3.6603 0.0000
# 3 58.9830 17.7739 119.3575 0.0000 -14.0748 0.0000
# 4 0.0000 0.0000 0.0000 11.7718 0.0000 -1.0908
# 5 1.6958 -3.6603 -14.0748 0.0000 37.3960 0.0000
# 6 0.0000 0.0000 0.0000 -1.0908 0.0000 20.3220
#
#
#
# Elastic Compliance Matrix: (Units=1/GPa)
#
#
# Indices 1 2 3 4 5 6 
#
# 1 0.006037 -0.002992 -0.002726 0.000000 -0.001592 0.000000
# 2 -0.002992 0.032035 -0.003041 0.000000 0.002127 0.000000
# 3 -0.002726 -0.003041 0.010629 0.000000 0.003826 0.000000
# 4 0.000000 0.000000 0.000000 0.085373 0.000000 0.004583
# 5 -0.001592 0.002127 0.003826 0.000000 0.028461 0.000000
# 6 0.000000 0.000000 0.000000 0.004583 0.000000 0.049454
#
#
# Mechanical properties :
#
#
# Convention : Reuss Voigt Hill
#
# Bulk Modulus (GPa) = 32.06714 62.49878 47.28296
# Shear Modulus (GPa) = 20.84185 31.12113 25.98149
#
# Velocity S-wave (km/s) = 3.16403 3.86634 3.53269
# Velocity P-wave (km/s) = 5.36201 7.06767 6.27308
#
# Compressibility (1/GPa) = 0.03118457
#
# Stress axis : x y z
#
# Youngs Moduli (GPa) = 165.64623 31.21545 94.08030
#
# Poissons Ratio (x) = 0.09338 0.25642
# Poissons Ratio (y) = 0.49554 0.28613
# Poissons Ratio (z) = 0.45148 0.09494
#
# Static dielectric constant tensor:
#      x y z
#    x 1.732060 0.000000 -0.038440 
#    y 0.000000 1.831450 0.000000 
#    z -0.038440 0.000000 1.807490 
# 
# From -- ./inp_files/5166.got.cif
#   From: 2010.05.17/outbox.cif.g08.bks.cpg/sg3_3_cif.got.tgz:5166.got - 2010.06.03 18:33:08.
