data_PCOD9112530
_publ_section_title
;
Structure prediction by ZEFSAII (Michael W. Deem and Ramdas Pophale) SiO2 
 PCOD9112530
Probable space group: P 2
;
_chemical_formula_sum "Si O2"
_cell_formula_units_Z 16
_cell_length_a 8.976237
_cell_length_b 9.222880
_cell_length_c 20.907101
_cell_angle_alpha 90.000000
_cell_angle_beta 30.835723
_cell_angle_gamma 90.000000
_cell_volume 887.186477
_symmetry_space_group_name_H-M "P 2"
_symmetry_group_IT_number 3
_symmetry_cell_setting 'monoclinic'
loop_
_space_group_symop_operation_xyz
x,y,z
-x,y,-z
loop_
_atom_site_type_symbol
_atom_site_label
_atom_site_fract_x
_atom_site_fract_y
_atom_site_fract_z
Si Si1 0.822443 0.290330 0.500076
Si Si2 0.677764 0.604899 0.500050
Si Si3 0.197494 0.284066 0.240236
Si Si4 0.176829 0.795097 0.999942
Si Si5 0.871453 0.631394 0.226875
Si Si6 0.779064 0.631373 0.773018
Si Si7 0.841859 0.284087 0.240095
Si Si8 0.179836 0.132081 0.999925
O O1 0.776630 0.460450 0.500077
O O2 0.492461 0.234333 0.628726
O O3 0.000000 0.272180 0.500000
O O4 0.006863 0.234308 0.371469
O O5 0.500000 0.562326 0.500000
O O6 0.443030 0.682736 0.631187
O O7 0.967609 0.682737 0.368924
O O8 0.250579 0.457958 0.226112
O O9 0.506884 0.206595 0.123002
O O10 0.015235 0.261104 0.242385
O O11 0.479691 0.713595 0.877756
O O12 0.222794 0.962954 0.999913
O O13 0.000000 0.790592 0.000000
O O14 0.991144 0.713638 0.122106
O O15 0.845340 0.457984 0.225959
O O16 0.096866 0.651979 0.201597
O O17 0.001621 0.206616 0.122806
O O18 0.000000 0.145191 0.000000
#
# Coordination Sequence:
#
# PCOD9112530 Si02
#       8
#     2   2   2   2   2   2   2   2
#     4  10  18  30  53  84 113 140 170 214 268 320
#     4   8  16  32  53  80 109 134 170 222 266 310
#     4  10  20  36  58  83 108 139 179 223 267 317
#     4  11  24  37  50  74 110 145 178 217 264 316
#     4   9  18  34  57  81 105 134 173 218 264 314
#     4   9  18  34  57  81 105 134 173 218 264 314
#     4  10  20  36  58  83 108 139 179 223 267 317
#     4  11  24  39  52  74 108 145 184 227 270 316
#
# _framework density 18.03454
#
# number of rings (size 3 to 8) (size 9 to 14) (size 15 to 20)
#    0.000    2.250    0.000    4.875    0.000   10.000 
#    0.000    1.250    0.000    6.000    0.000    0.000 
#    0.000    0.000    0.000    0.000    0.000    0.000 
#
# Total GULP energy -89258.355623 kJ/mol
# GULP energy per Si atom -5578.647226 kJ/mol
# Density = 1.799349 g / cm^3
# Si number density = 18.034540 Si / 1000 Ang^3
#
#
#
# Elastic Constant Matrix: (Units=GPa)
#
#
# Indices 1 2 3 4 5 6 
#
# 1 80.9137 46.9640 85.0381 0.0000 0.2190 0.0000
# 2 46.9640 47.7090 66.9321 0.0000 0.0742 0.0000
# 3 85.0381 66.9321 200.9741 0.0000 0.3910 0.0000
# 4 0.0000 0.0000 0.0000 -10.3048 0.0000 -0.2498
# 5 0.2190 0.0742 0.3910 0.0000 20.4571 0.0000
# 6 0.0000 0.0000 0.0000 -0.2498 0.0000 15.2528
#
#
#
# Elastic Compliance Matrix: (Units=1/GPa)
#
#
# Indices 1 2 3 4 5 6 
#
# 1 0.031993 -0.023465 -0.005722 0.000000 -0.000148 0.000000
# 2 -0.023465 0.056553 -0.008906 0.000000 0.000216 0.000000
# 3 -0.005722 -0.008906 0.010363 0.000000 -0.000105 0.000000
# 4 0.000000 0.000000 0.000000 -0.097004 0.000000 -0.001588
# 5 -0.000148 0.000216 -0.000105 0.000000 0.048885 0.000000
# 6 0.000000 0.000000 0.000000 -0.001588 0.000000 0.065536
#
#
# Mechanical properties :
#
#
# Convention : Reuss Voigt Hill
#
# Bulk Modulus (GPa) = 44.00904 80.82945 62.41925
# Shear Modulus (GPa) = 24.98918 13.79188 19.39053
#
# Velocity S-wave (km/s) = 3.72644 2.76841 3.28256
# Velocity P-wave (km/s) = 6.55521 7.42532 7.00379
#
# Compressibility (1/GPa) = 0.02272261
#
# Stress axis : x y z
#
# Youngs Moduli (GPa) = 31.25728 17.68242 96.49651
#
# Poissons Ratio (x) = 0.41493 0.55214
# Poissons Ratio (y) = 0.73346 0.85939
# Poissons Ratio (z) = 0.17885 0.15748
#
# Static dielectric constant tensor:
#      x y z
#    x 1.600720 0.000000 0.000250 
#    y 0.000000 1.591440 0.000000 
#    z 0.000250 0.000000 1.632360 
# 
# From -- ./inp_files/9420.got.cif
#   From: 2010.05.17/outbox.cif.g08.bks.cpg/sg3_5_cif.got.tgz:9420.got - 2010.06.03 18:33:08.
