data_PCOD9112773
_publ_section_title
;
Structure prediction by ZEFSAII (Michael W. Deem and Ramdas Pophale) SiO2 
 PCOD9112773
Probable space group: P 2
;
_chemical_formula_sum "Si O2"
_cell_formula_units_Z 16
_cell_length_a 8.467164
_cell_length_b 18.013564
_cell_length_c 8.331295
_cell_angle_alpha 90.000000
_cell_angle_beta 146.256948
_cell_angle_gamma 90.000000
_cell_volume 705.846508
_symmetry_space_group_name_H-M "P 2"
_symmetry_group_IT_number 3
_symmetry_cell_setting 'monoclinic'
loop_
_space_group_symop_operation_xyz
x,y,z
-x,y,-z
loop_
_atom_site_type_symbol
_atom_site_label
_atom_site_fract_x
_atom_site_fract_y
_atom_site_fract_z
Si Si1 0.122035 0.022960 0.927095
Si Si2 0.273156 0.099579 0.611389
Si Si3 0.890764 0.859750 0.092775
Si Si4 0.106182 0.533157 0.273622
Si Si5 0.559230 0.609374 0.869475
Si Si6 0.610153 0.765150 0.408656
Si Si7 0.314011 0.267761 0.697537
Si Si8 0.203057 0.378082 0.319747
O O1 0.908163 0.089072 0.700810
O O2 0.074964 0.941958 0.806247
O O3 0.448075 0.047134 0.166874
O O4 0.000000 0.007423 0.000000
O O5 0.394498 0.181849 0.737324
O O6 0.000000 0.084017 0.500000
O O7 0.068914 0.793514 0.321992
O O8 0.566951 0.834932 0.807549
O O9 0.000000 0.859245 0.000000
O O10 0.403910 0.559785 0.601266
O O11 0.063695 0.447944 0.294878
O O12 0.000000 0.525001 0.000000
O O13 0.895595 0.598722 0.145981
O O14 0.458478 0.692403 0.749890
O O15 0.500000 0.584109 0.000000
O O16 0.500000 0.751067 0.500000
O O17 0.296696 0.313862 0.519849
O O18 0.000000 0.264310 0.500000
O O19 0.500000 0.300164 0.000000
O O20 0.500000 0.408912 0.500000
O O21 0.000000 0.354369 0.000000
#
# Coordination Sequence:
#
# PCOD9112773 Si02
#       8
#     2   2   2   2   2   2   2   2
#     4  11  22  39  64  95 125 165 221 282 332 387
#     4  11  23  41  62  90 131 174 218 268 332 405
#     4   9  19  35  59  89 120 155 208 264 317 380
#     4  11  23  43  65  90 124 167 209 253 316 390
#     4  12  25  40  62  95 129 162 208 266 316 374
#     4  10  19  36  60  85 118 165 207 252 316 389
#     4  11  24  43  66  93 130 177 220 264 325 402
#     4  11  24  43  67  97 128 161 212 277 326 377
#
# _framework density 22.667816999999999
#
# number of rings (size 3 to 8) (size 9 to 14) (size 15 to 20)
#    0.000    1.250    0.000    7.500    0.000    6.000 
#    0.000    2.500    0.000    0.000    0.000    0.000 
#    0.000    0.000    0.000    0.000    0.000    0.000 
#
# Total GULP energy -89115.351695 kJ/mol
# GULP energy per Si atom -5569.709481 kJ/mol
# Density = 2.261622 g / cm^3
# Si number density = 22.667817 Si / 1000 Ang^3
#
#
#
# Elastic Constant Matrix: (Units=GPa)
#
#
# Indices 1 2 3 4 5 6 
#
# 1 21.9479 30.5677 23.1622 0.0000 -5.4521 0.0000
# 2 30.5677 100.6433 30.1282 0.0000 -4.2937 0.0000
# 3 23.1622 30.1282 126.0783 0.0000 1.9693 0.0000
# 4 0.0000 0.0000 0.0000 29.9032 0.0000 20.1296
# 5 -5.4521 -4.2937 1.9693 0.0000 29.6599 0.0000
# 6 0.0000 0.0000 0.0000 20.1296 0.0000 28.0716
#
#
#
# Elastic Compliance Matrix: (Units=1/GPa)
#
#
# Indices 1 2 3 4 5 6 
#
# 1 0.097219 -0.025279 -0.012054 0.000000 0.015012 0.000000
# 2 -0.025279 0.017363 0.000529 0.000000 -0.002168 0.000000
# 3 -0.012054 0.000529 0.010064 0.000000 -0.002807 0.000000
# 4 0.000000 0.000000 0.000000 0.064647 0.000000 -0.046357
# 5 0.015012 -0.002168 -0.002807 0.000000 0.036347 0.000000
# 6 0.000000 0.000000 0.000000 -0.046357 0.000000 0.068865
#
#
# Mechanical properties :
#
#
# Convention : Reuss Voigt Hill
#
# Bulk Modulus (GPa) = 19.59342 46.26509 32.92925
# Shear Modulus (GPa) = 12.98274 28.51438 20.74856
#
# Velocity S-wave (km/s) = 2.39579 3.55057 3.02873
# Velocity P-wave (km/s) = 4.03925 6.10435 5.17584
#
# Compressibility (1/GPa) = 0.05103755
#
# Stress axis : x y z
#
# Youngs Moduli (GPa) = 10.28600 57.59346 99.36831
#
# Poissons Ratio (x) = 1.45590 1.19780
# Poissons Ratio (y) = 0.26002 -0.05254
# Poissons Ratio (z) = 0.12399 -0.03045
#
# Static dielectric constant tensor:
#      x y z
#    x 1.871630 0.000000 -0.040310 
#    y 0.000000 1.843880 0.000000 
#    z -0.040310 0.000000 1.837540 
# 
# From -- ./inp_files/6256.got.cif
#   From: 2010.05.17/outbox.cif.g08.bks.cpg/sg3_4_cif.got.tgz:6256.got - 2010.06.03 18:33:08.
