data_PCOD9112211
_publ_section_title
;
Structure prediction by ZEFSAII (Michael W. Deem and Ramdas Pophale) SiO2 
 PCOD9112211
Probable space group: P -1
;
_chemical_formula_sum "Si O2"
_cell_formula_units_Z 15
_cell_length_a 14.080759
_cell_length_b 10.878852
_cell_length_c 5.156242
_cell_angle_alpha 105.654693
_cell_angle_beta 64.992948
_cell_angle_gamma 125.072568
_cell_volume 585.444243
_symmetry_space_group_name_H-M "P -1"
_symmetry_group_IT_number 2
_symmetry_cell_setting 'triclinic'
loop_
_space_group_symop_operation_xyz
x,y,z
-x,-y,-z
loop_
_atom_site_type_symbol
_atom_site_label
_atom_site_fract_x
_atom_site_fract_y
_atom_site_fract_z
Si Si1 0.000000 0.500000 0.500000
Si Si2 0.442084 0.716019 0.980618
Si Si3 0.282581 0.245792 0.693423
Si Si4 0.134262 0.328286 0.304379
Si Si5 0.876648 0.052969 0.578999
Si Si6 0.323842 0.047646 0.887787
Si Si7 0.634720 0.481198 0.549397
Si Si8 0.248439 0.788707 0.480024
O O1 0.074482 0.415306 0.297932
O O2 0.123798 0.631422 0.594500
O O3 0.426737 0.596199 0.151412
O O4 0.342872 0.759221 0.204781
O O5 0.577539 0.864631 0.949478
O O6 0.402205 0.638905 0.703565
O O7 0.374468 0.381337 0.475232
O O8 0.173696 0.106294 0.585369
O O9 0.221483 0.304463 0.998877
O O10 0.350439 0.174899 0.721704
O O11 0.219411 0.426474 0.500522
O O12 0.019158 0.170052 0.442977
O O13 0.804626 0.128875 0.584402
O O14 0.818940 0.015714 0.909659
O O15 0.321573 0.904834 0.693838
#
# Coordination Sequence:
#
# PCOD9112211 Si02
#       8
#     1   2   2   2   2   2   2   2
#     4  10  20  44  76 106 148 180 248 300 378 436
#     4  12  28  48  76 108 152 197 252 304 366 438
#     4  11  24  47  71 110 150 192 253 300 378 432
#     4  11  23  47  74 113 147 192 240 315 368 451
#     4  10  25  42  75 107 148 196 245 303 375 442
#     4  11  27  47  70 108 150 201 251 300 364 443
#     4  12  26  47  77 109 143 198 244 307 371 426
#     4  10  23  45  72 111 142 196 241 312 369 436
#
# _framework density 25.621569999999998
#
# number of rings (size 3 to 8) (size 9 to 14) (size 15 to 20)
#    0.000    1.067    2.667    1.600    5.600    8.000 
#    0.000    4.667    0.000    0.000    0.000    0.000 
#    0.000    0.000    0.000    0.000    0.000    0.000 
#
# Total GULP energy -83731.697711 kJ/mol
# GULP energy per Si atom -5582.113181 kJ/mol
# Density = 2.556325 g / cm^3
# Si number density = 25.621570 Si / 1000 Ang^3
#
#
#
# Elastic Constant Matrix: (Units=GPa)
#
#
# Indices 1 2 3 4 5 6 
#
# 1 80.2912 43.0617 41.0797 10.7826 -11.6350 18.0445
# 2 43.0617 147.3375 63.2327 8.2948 -8.4909 30.1192
# 3 41.0797 63.2327 142.0502 17.1933 0.2905 14.3496
# 4 10.7826 8.2948 17.1933 42.7863 -9.0983 -5.4351
# 5 -11.6350 -8.4909 0.2905 -9.0983 23.9546 -5.7786
# 6 18.0445 30.1192 14.3496 -5.4351 -5.7786 47.0477
#
#
#
# Elastic Compliance Matrix: (Units=1/GPa)
#
#
# Indices 1 2 3 4 5 6 
#
# 1 0.017419 -0.002470 -0.003392 -0.001688 0.006140 -0.003506
# 2 -0.002470 0.009840 -0.003203 -0.000286 0.001190 -0.004262
# 3 -0.003392 -0.003203 0.009947 -0.003537 -0.004399 -0.000631
# 4 -0.001688 -0.000286 -0.003537 0.028578 0.011576 0.006633
# 5 0.006140 0.001190 -0.004399 0.011576 0.051005 0.005827
# 6 -0.003506 -0.004262 -0.000631 0.006633 0.005827 0.027003
#
#
# Mechanical properties :
#
#
# Convention : Reuss Voigt Hill
#
# Bulk Modulus (GPa) = 52.42110 73.82521 63.12316
# Shear Modulus (GPa) = 29.71224 37.57803 33.64513
#
# Velocity S-wave (km/s) = 3.40907 3.83385 3.62768
# Velocity P-wave (km/s) = 5.99999 6.96234 6.49900
#
# Compressibility (1/GPa) = 0.01907629
#
# Stress axis : x y z
#
# Youngs Moduli (GPa) = 57.40857 101.63109 100.52784
#
# Poissons Ratio (x) = 0.25099 0.34101
# Poissons Ratio (y) = 0.14178 0.32200
# Poissons Ratio (z) = 0.19474 0.32553
#
# Static dielectric constant tensor:
#      x y z
#    x 2.028830 -0.027140 0.020280 
#    y -0.027140 2.018470 -0.021550 
#    z 0.020280 -0.021550 2.011500 
# 
# From -- ./inp_files/94023.got.cif
#   From: 2010.05.17/outbox.cif.g08.bks.cpg/sg2_48_cif.got.tgz:94023.got - 2010.06.03 11:33:40.
