data_PCOD9112497
_publ_section_title
;
Structure prediction by ZEFSAII (Michael W. Deem and Ramdas Pophale) SiO2 
 PCOD9112497
Probable space group: P 2
;
_chemical_formula_sum "Si O2"
_cell_formula_units_Z 9
_cell_length_a 16.171596
_cell_length_b 4.950543
_cell_length_c 7.062183
_cell_angle_alpha 90.000000
_cell_angle_beta 145.214383
_cell_angle_gamma 90.000000
_cell_volume 322.556636
_symmetry_space_group_name_H-M "P 2"
_symmetry_group_IT_number 3
_symmetry_cell_setting 'monoclinic'
loop_
_space_group_symop_operation_xyz
x,y,z
-x,y,-z
loop_
_atom_site_type_symbol
_atom_site_label
_atom_site_fract_x
_atom_site_fract_y
_atom_site_fract_z
Si Si1 0.721900 0.770080 0.588237
Si Si2 0.444736 0.252453 0.677647
Si Si3 0.137132 0.318414 0.634304
Si Si4 0.000000 0.493028 0.000000
Si Si5 0.312535 0.827646 0.927043
O O1 0.606009 0.557806 0.460416
O O2 0.884909 0.668753 0.901671
O O3 0.700175 0.073491 0.615817
O O4 0.685249 0.785353 0.295572
O O5 0.500000 0.267934 0.000000
O O6 0.559023 0.045183 0.798400
O O7 0.178709 0.009371 0.742445
O O8 0.000000 0.395374 0.500000
O O9 0.271886 0.526526 0.919769
O O10 0.093341 0.335337 0.330181
#
# Coordination Sequence:
#
# PCOD9112497 Si02
#       5
#     2   2   2   1   2
#     4  10  19  30  53  83 112 148 186 233 283 336
#     4  10  17  30  52  82 112 145 191 233 279 336
#     4  11  23  39  61  86 117 155 192 240 291 341
#     4  10  22  38  58  86 118 148 194 236 288 348
#     4  10  20  36  57  85 118 152 196 241 285 343
#
# _framework density 27.902077999999999
#
# number of rings (size 3 to 8) (size 9 to 14) (size 15 to 20)
#    0.000    1.778    0.000    9.333    0.000    8.000 
#    0.000    0.000    0.000    8.000    0.000    0.000 
#    0.000    0.000    0.000    0.000    0.000    0.000 
#
# Total GULP energy -50323.210292 kJ/mol
# GULP energy per Si atom -5591.467810 kJ/mol
# Density = 2.783857 g / cm^3
# Si number density = 27.902078 Si / 1000 Ang^3
#
#
#
# Elastic Constant Matrix: (Units=GPa)
#
#
# Indices 1 2 3 4 5 6 
#
# 1 93.1259 16.6243 26.6610 0.0000 -7.9267 0.0000
# 2 16.6243 211.4213 13.7929 0.0000 16.2370 0.0000
# 3 26.6610 13.7929 71.4493 0.0000 -12.3689 0.0000
# 4 0.0000 0.0000 0.0000 4.7757 0.0000 39.9242
# 5 -7.9267 16.2370 -12.3689 0.0000 59.2679 0.0000
# 6 0.0000 0.0000 0.0000 39.9242 0.0000 24.1570
#
#
#
# Elastic Compliance Matrix: (Units=1/GPa)
#
#
# Indices 1 2 3 4 5 6 
#
# 1 0.012164 -0.000754 -0.004229 0.000000 0.000951 0.000000
# 2 -0.000754 0.004980 -0.000969 0.000000 -0.001667 0.000000
# 3 -0.004229 -0.000969 0.016298 0.000000 0.003101 0.000000
# 4 0.000000 0.000000 0.000000 -0.016338 0.000000 0.027002
# 5 0.000951 -0.001667 0.003101 0.000000 0.018104 0.000000
# 6 0.000000 0.000000 0.000000 0.027002 0.000000 -0.003230
#
#
# Mechanical properties :
#
#
# Convention : Reuss Voigt Hill
#
# Bulk Modulus (GPa) = 46.42610 54.46145 50.44377
# Shear Modulus (GPa) = 97.92155 38.90133 68.41144
#
# Velocity S-wave (km/s) = 5.93051 3.73796 4.95698
# Velocity P-wave (km/s) = 7.97305 6.17988 7.13304
#
# Compressibility (1/GPa) = 0.02153961
#
# Stress axis : x y z
#
# Youngs Moduli (GPa) = 82.20758 200.78645 61.35774
#
# Poissons Ratio (x) = 0.15132 0.25948
# Poissons Ratio (y) = 0.06195 0.05945
# Poissons Ratio (z) = 0.34765 0.19454
#
# Static dielectric constant tensor:
#      x y z
#    x 2.251000 0.000000 0.015880 
#    y 0.000000 2.048000 0.000000 
#    z 0.015880 0.000000 2.188770 
# 
# From -- ./inp_files/4727.got.cif
#   From: 2010.05.17/outbox.cif.g08.bks.cpg/sg3_3_cif.got.tgz:4727.got - 2010.06.03 18:33:08.
