data_PCOD9112408
_publ_section_title
;
Structure prediction by ZEFSAII (Michael W. Deem and Ramdas Pophale) SiO2 
 PCOD9112408
Probable space group: P -1
;
_chemical_formula_sum "Si O2"
_cell_formula_units_Z 15
_cell_length_a 12.335764
_cell_length_b 11.891286
_cell_length_c 4.898305
_cell_angle_alpha 88.244208
_cell_angle_beta 98.537131
_cell_angle_gamma 90.862628
_cell_volume 710.187978
_symmetry_space_group_name_H-M "P -1"
_symmetry_group_IT_number 2
_symmetry_cell_setting 'triclinic'
loop_
_space_group_symop_operation_xyz
x,y,z
-x,-y,-z
loop_
_atom_site_type_symbol
_atom_site_label
_atom_site_fract_x
_atom_site_fract_y
_atom_site_fract_z
Si Si1 0.376200 0.913531 0.182135
Si Si2 0.152660 0.428049 0.626849
Si Si3 0.500000 0.500000 0.500000
Si Si4 0.617943 0.630744 0.045336
Si Si5 0.180737 0.760926 0.171704
Si Si6 0.515545 0.850275 0.732863
Si Si7 0.936599 0.331862 0.337521
Si Si8 0.690742 0.443177 0.706849
O O1 0.251338 0.873663 0.181291
O O2 0.457897 0.846871 0.418636
O O3 0.399294 0.044322 0.241119
O O4 0.417689 0.885315 0.897939
O O5 0.252201 0.375462 0.836493
O O6 0.098382 0.537735 0.739813
O O7 0.210154 0.483961 0.378972
O O8 0.057778 0.343619 0.504977
O O9 0.554146 0.601211 0.298046
O O10 0.604736 0.414154 0.441905
O O11 0.577388 0.742878 0.880873
O O12 0.605895 0.529974 0.817763
O O13 0.142479 0.722356 0.459044
O O14 0.266237 0.663622 0.116927
O O15 0.079631 0.742666 0.931345
#
# Coordination Sequence:
#
# PCOD9112408 Si02
#       8
#     2   2   1   2   2   2   2   2
#     4  10  22  42  59  87 111 154 197 241 281 348
#     4   9  21  35  53  81 118 149 197 227 291 349
#     4  10  22  32  46  82 118 148 180 224 290 342
#     4  11  21  36  55  84 117 157 187 239 283 358
#     4  11  21  35  58  82 113 147 194 240 288 330
#     4  10  23  39  63  82 117 153 196 234 289 339
#     4  10  21  36  56  82 114 154 189 242 282 343
#     4  10  21  32  52  81 115 151 185 230 288 353
#
# _framework density 21.121168000000001
#
# number of rings (size 3 to 8) (size 9 to 14) (size 15 to 20)
#    0.000    1.867    1.333    2.000    7.467    1.600 
#    0.000    0.000    0.000    1.600    0.000    0.000 
#    0.000    0.000    0.000    0.000    0.000    0.000 
#
# Total GULP energy -83593.924136 kJ/mol
# GULP energy per Si atom -5572.928276 kJ/mol
# Density = 2.107310 g / cm^3
# Si number density = 21.121168 Si / 1000 Ang^3
#
#
#
# Elastic Constant Matrix: (Units=GPa)
#
#
# Indices 1 2 3 4 5 6 
#
# 1 81.1644 23.6669 7.0181 -5.0061 21.0317 22.0854
# 2 23.6669 69.4588 19.1108 -16.2665 13.5429 14.6480
# 3 7.0181 19.1108 80.9550 -8.6627 7.1024 1.4864
# 4 -5.0061 -16.2665 -8.6627 25.4113 1.3280 0.3648
# 5 21.0317 13.5429 7.1024 1.3280 37.0335 4.7217
# 6 22.0854 14.6480 1.4864 0.3648 4.7217 29.6575
#
#
#
# Elastic Compliance Matrix: (Units=1/GPa)
#
#
# Indices 1 2 3 4 5 6 
#
# 1 0.018300 -0.001333 0.000055 0.003385 -0.008551 -0.011652
# 2 -0.001333 0.021750 -0.002931 0.013100 -0.005981 -0.008812
# 3 0.000055 -0.002931 0.013477 0.002808 -0.001769 0.000978
# 4 0.003385 0.013100 0.002808 0.049900 -0.007960 -0.008478
# 5 -0.008551 -0.005981 -0.001769 -0.007960 0.034152 0.004071
# 6 -0.011652 -0.008812 0.000978 -0.008478 0.004071 0.046154
#
#
# Mechanical properties :
#
#
# Convention : Reuss Voigt Hill
#
# Bulk Modulus (GPa) = 22.16857 36.79665 29.48261
# Shear Modulus (GPa) = 24.13267 30.53929 27.33598
#
# Velocity S-wave (km/s) = 3.38388 3.80664 3.60147
# Velocity P-wave (km/s) = 5.07801 6.06466 5.59314
#
# Compressibility (1/GPa) = 0.04510890
#
# Stress axis : x y z
#
# Youngs Moduli (GPa) = 54.64497 45.97712 74.19871
#
# Poissons Ratio (x) = 0.06130 -0.00405
# Poissons Ratio (y) = 0.07285 0.21744
# Poissons Ratio (z) = -0.00298 0.13474
#
# Static dielectric constant tensor:
#      x y z
#    x 1.799470 0.000400 0.041010 
#    y 0.000400 1.800930 0.063320 
#    z 0.041010 0.063320 1.901220 
# 
# From -- ./inp_files/64742.got.cif
#   From: 2010.05.17/outbox.cif.g08.bks.cpg/sg2_33_cif.got.tgz:64742.got - 2010.06.03 11:33:40.
