data_PCOD9112089
_publ_section_title
;
Structure prediction by ZEFSAII (Michael W. Deem and Ramdas Pophale) SiO2 
 PCOD9112089
Probable space group: P -1
;
_chemical_formula_sum "Si O2"
_cell_formula_units_Z 14
_cell_length_a 6.973018
_cell_length_b 19.598214
_cell_length_c 9.668838
_cell_angle_alpha 150.259440
_cell_angle_beta 127.296033
_cell_angle_gamma 52.915415
_cell_volume 511.453293
_symmetry_space_group_name_H-M "P -1"
_symmetry_group_IT_number 2
_symmetry_cell_setting 'triclinic'
loop_
_space_group_symop_operation_xyz
x,y,z
-x,-y,-z
loop_
_atom_site_type_symbol
_atom_site_label
_atom_site_fract_x
_atom_site_fract_y
_atom_site_fract_z
Si Si1 0.661786 0.312920 0.203944
Si Si2 0.402104 0.156956 0.178207
Si Si3 0.258232 0.229138 0.537215
Si Si4 0.754217 0.362081 0.635878
Si Si5 0.851399 0.764992 0.090354
Si Si6 0.652582 0.391358 0.046617
Si Si7 0.774359 0.995271 0.667829
O O1 0.708478 0.384757 0.492450
O O2 0.721428 0.398555 0.249854
O O3 0.380039 0.290664 0.045877
O O4 0.810683 0.152281 0.975191
O O5 0.256554 0.239928 0.390397
O O6 0.641500 0.224351 0.373831
O O7 0.500000 0.000000 0.000000
O O8 0.244549 0.178801 0.005749
O O9 0.219689 0.079528 0.312794
O O10 0.048254 0.333372 0.715011
O O11 0.573673 0.480663 0.851445
O O12 0.920380 0.891458 0.434617
O O13 0.474508 0.744007 0.258872
O O14 0.091707 0.642702 0.979289
O O15 0.500000 0.000000 0.500000
#
# Coordination Sequence:
#
# PCOD9112089 Si02
#       7
#     2   2   2   2   2   2   2
#     4  10  22  44  70  98 135 176 232 283 339 398
#     4  11  26  46  70 105 137 175 227 286 352 396
#     4  12  25  44  68 100 140 183 222 284 339 402
#     4  11  27  45  66 101 141 182 228 279 338 414
#     4  10  23  43  71 101 133 178 229 287 326 411
#     4  12  25  42  70 101 136 188 230 270 342 404
#     4  10  20  44  69  99 130 173 232 280 334 399
#
# _framework density 27.372979000000001
#
# number of rings (size 3 to 8) (size 9 to 14) (size 15 to 20)
#    0.000    1.143    2.857    4.286    2.000    8.000 
#    0.000    0.000    0.000    0.000    0.000    0.000 
#    0.000    0.000    0.000    0.000    0.000    0.000 
#
# Total GULP energy -78442.522206 kJ/mol
# GULP energy per Si atom -5603.037300 kJ/mol
# Density = 2.731068 g / cm^3
# Si number density = 27.372979 Si / 1000 Ang^3
#
#
#
# Elastic Constant Matrix: (Units=GPa)
#
#
# Indices 1 2 3 4 5 6 
#
# 1 121.5154 20.2810 18.4035 -6.9579 -26.0710 -14.8927
# 2 20.2810 93.7435 16.5300 -12.5064 -13.0341 -2.1442
# 3 18.4035 16.5300 75.2306 5.6866 -29.2184 3.1929
# 4 -6.9579 -12.5064 5.6866 46.6096 4.2131 -6.9556
# 5 -26.0710 -13.0341 -29.2184 4.2131 53.3147 -2.3679
# 6 -14.8927 -2.1442 3.1929 -6.9556 -2.3679 45.3220
#
#
#
# Elastic Compliance Matrix: (Units=1/GPa)
#
#
# Indices 1 2 3 4 5 6 
#
# 1 0.009989 -0.001151 -0.000828 0.001460 0.004199 0.003730
# 2 -0.001151 0.011910 -0.002291 0.003360 0.000868 0.000908
# 3 -0.000828 -0.002291 0.017906 -0.004010 0.009086 -0.001783
# 4 0.001460 0.003360 -0.004010 0.023944 -0.002356 0.004473
# 5 0.004199 0.000868 0.009086 -0.002356 0.026267 0.001792
# 6 0.003730 0.000908 -0.001783 0.004473 0.001792 0.024239
#
#
# Mechanical properties :
#
#
# Convention : Reuss Voigt Hill
#
# Bulk Modulus (GPa) = 31.98474 44.54650 38.26562
# Shear Modulus (GPa) = 37.53291 44.73424 41.13358
#
# Velocity S-wave (km/s) = 3.70694 4.04697 3.88068
# Velocity P-wave (km/s) = 5.48015 6.17629 5.83860
#
# Compressibility (1/GPa) = 0.03126491
#
# Stress axis : x y z
#
# Youngs Moduli (GPa) = 100.11365 83.96210 55.84724
#
# Poissons Ratio (x) = 0.09663 0.04626
# Poissons Ratio (y) = 0.11522 0.12793
# Poissons Ratio (z) = 0.08293 0.19233
#
# Static dielectric constant tensor:
#      x y z
#    x 2.065680 -0.006420 -0.046200 
#    y -0.006420 2.212520 0.058840 
#    z -0.046200 0.058840 2.198630 
# 
# From -- ./inp_files/371137.got.cif
#   From: 2010.05.17/outbox.cif.g08.bks.cpg/sg2_186_cif.got.tgz:371137.got - 2010.06.03 11:33:40.
