data_PCOD9112159
_publ_section_title
;
Structure prediction by ZEFSAII (Michael W. Deem and Ramdas Pophale) SiO2 
 PCOD9112159
Probable space group: P -1
;
_chemical_formula_sum "Si O2"
_cell_formula_units_Z 14
_cell_length_a 11.536262
_cell_length_b 5.014172
_cell_length_c 8.488346
_cell_angle_alpha 99.365731
_cell_angle_beta 96.055399
_cell_angle_gamma 96.886762
_cell_volume 477.033709
_symmetry_space_group_name_H-M "P -1"
_symmetry_group_IT_number 2
_symmetry_cell_setting 'triclinic'
loop_
_space_group_symop_operation_xyz
x,y,z
-x,-y,-z
loop_
_atom_site_type_symbol
_atom_site_label
_atom_site_fract_x
_atom_site_fract_y
_atom_site_fract_z
Si Si1 0.675702 0.502613 0.882298
Si Si2 0.075737 0.193495 0.320989
Si Si3 0.387837 0.262533 0.433017
Si Si4 0.722552 0.332683 0.191726
Si Si5 0.146839 0.783337 0.506840
Si Si6 0.896033 0.241909 0.959448
Si Si7 0.454959 0.120021 0.751256
O O1 0.680723 0.654738 0.727765
O O2 0.540880 0.370817 0.856872
O O3 0.704050 0.569746 0.082697
O O4 0.779629 0.318481 0.860444
O O5 0.091821 0.519313 0.372115
O O6 0.951783 0.120642 0.384955
O O7 0.073045 0.035570 0.140180
O O8 0.169118 0.042368 0.419405
O O9 0.500000 0.500000 0.500000
O O10 0.447116 0.015720 0.345093
O O11 0.365581 0.195352 0.611125
O O12 0.758930 0.343995 0.382652
O O13 0.833612 0.215848 0.117160
O O14 0.608904 0.101924 0.158053
O O15 0.000000 0.500000 0.000000
#
# Coordination Sequence:
#
# PCOD9112159 Si02
#       7
#     2   2   2   2   2   2   2
#     4   9  22  45  70 107 154 209 255 333 406 476
#     4  10  24  50  77 107 158 211 277 330 406 483
#     4   9  20  41  73 107 149 200 261 320 403 479
#     4  10  24  46  70 116 158 204 266 334 408 469
#     4  10  24  47  78 111 152 214 271 340 394 487
#     4  10  25  48  74 114 161 211 266 332 405 487
#     4  10  20  44  72 109 153 201 265 330 397 490
#
# _framework density 29.348032
#
# number of rings (size 3 to 8) (size 9 to 14) (size 15 to 20)
#    0.857    1.429    0.000    0.429    6.000    4.571 
#   18.000    0.000    0.000    0.000    0.000    0.000 
#    0.000    0.000    0.000    0.000    0.000    0.000 
#
# Total GULP energy -78048.820983 kJ/mol
# GULP energy per Si atom -5574.915785 kJ/mol
# Density = 2.928123 g / cm^3
# Si number density = 29.348032 Si / 1000 Ang^3
#
#
#
# Elastic Constant Matrix: (Units=GPa)
#
#
# Indices 1 2 3 4 5 6 
#
# 1 61.5067 2.2303 40.6328 7.2456 16.4567 1.7911
# 2 2.2303 101.8796 68.3964 -11.1443 14.1982 -9.2371
# 3 40.6328 68.3964 238.1198 -31.4383 20.9659 1.8258
# 4 7.2456 -11.1443 -31.4383 58.0566 -6.5953 -1.9211
# 5 16.4567 14.1982 20.9659 -6.5953 58.0457 -18.9037
# 6 1.7911 -9.2371 1.8258 -1.9211 -18.9037 53.3227
#
#
#
# Elastic Compliance Matrix: (Units=1/GPa)
#
#
# Indices 1 2 3 4 5 6 
#
# 1 0.021708 0.002695 -0.004603 -0.005527 -0.006645 -0.002660
# 2 0.002695 0.012846 -0.004017 -0.000218 -0.001970 0.001566
# 3 -0.004603 -0.004017 0.006578 0.003356 0.000093 -0.000613
# 4 -0.005527 -0.000218 0.003356 0.020132 0.003327 0.001938
# 5 -0.006645 -0.001970 0.000093 0.003327 0.022540 0.007989
# 6 -0.002660 0.001566 -0.000613 0.001938 0.007989 0.022037
#
#
# Mechanical properties :
#
#
# Convention : Reuss Voigt Hill
#
# Bulk Modulus (GPa) = 34.14928 69.33615 51.74272
# Shear Modulus (GPa) = 39.23057 53.23477 46.23267
#
# Velocity S-wave (km/s) = 3.66011 4.26363 3.97334
# Velocity P-wave (km/s) = 5.43351 6.92205 6.22245
#
# Compressibility (1/GPa) = 0.02928319
#
# Stress axis : x y z
#
# Youngs Moduli (GPa) = 46.06630 77.84494 152.01401
#
# Poissons Ratio (x) = -0.20980 0.69966
# Poissons Ratio (y) = -0.12415 0.61064
# Poissons Ratio (z) = 0.21202 0.31270
#
# Static dielectric constant tensor:
#      x y z
#    x 2.241200 0.052890 0.139150 
#    y 0.052890 2.351410 0.007600 
#    z 0.139150 0.007600 2.428340 
# 
# From -- ./inp_files/288698.got.cif
#   From: 2010.05.17/outbox.cif.g08.bks.cpg/sg2_145_cif.got.tgz:288698.got - 2010.06.03 11:33:40.
