data_PCOD9112444
_publ_section_title
;
Structure prediction by ZEFSAII (Michael W. Deem and Ramdas Pophale) SiO2 
 PCOD9112444
Probable space group: P 2
;
_chemical_formula_sum "Si O2"
_cell_formula_units_Z 16
_cell_length_a 7.792004
_cell_length_b 19.912833
_cell_length_c 5.387354
_cell_angle_alpha 90.000000
_cell_angle_beta 121.421596
_cell_angle_gamma 90.000000
_cell_volume 713.324503
_symmetry_space_group_name_H-M "P 2"
_symmetry_group_IT_number 3
_symmetry_cell_setting 'monoclinic'
loop_
_space_group_symop_operation_xyz
x,y,z
-x,y,-z
loop_
_atom_site_type_symbol
_atom_site_label
_atom_site_fract_x
_atom_site_fract_y
_atom_site_fract_z
Si Si1 0.745405 0.053820 0.660283
Si Si2 0.246342 0.262590 0.935778
Si Si3 0.865744 0.844920 0.148561
Si Si4 0.208661 0.206092 0.407774
Si Si5 0.136536 0.408607 0.853118
Si Si6 0.730928 0.989743 0.151719
Si Si7 0.137069 0.699410 0.853563
Si Si8 0.863298 0.554842 0.146969
O O1 0.500000 0.055699 0.500000
O O2 0.815949 0.126490 0.622124
O O3 0.806127 0.001224 0.489373
O O4 0.815264 0.033952 0.989083
O O5 0.316154 0.230070 0.735233
O O6 0.271259 0.342382 0.958214
O O7 0.005784 0.244552 0.752901
O O8 0.312866 0.227901 0.235296
O O9 0.756467 0.772074 0.061032
O O10 0.000000 0.844814 0.500000
O O11 0.739116 0.912554 0.073036
O O12 0.000000 0.849063 0.000000
O O13 0.000000 0.404574 0.500000
O O14 0.241116 0.481952 0.932277
O O15 0.000000 0.405153 0.000000
O O16 0.500000 0.010648 0.000000
O O17 0.000000 0.699345 0.500000
O O18 0.247583 0.627088 0.937803
O O19 0.000000 0.699403 0.000000
O O20 0.000000 0.554753 0.500000
O O21 0.000000 0.554760 0.000000
#
# Coordination Sequence:
#
# PCOD9112444 Si02
#       8
#     2   2   2   2   2   2   2   2
#     4  10  21  37  52  64  86 119 156 196 231 275
#     4  10  17  28  41  63  91 116 133 182 226 270
#     4  10  19  33  50  73  99 123 151 198 238 277
#     4  10  18  30  43  61  85 113 143 177 233 265
#     4  10  14  23  36  54  86 119 144 168 212 264
#     4  10  21  38  53  69  93 125 160 196 235 285
#     4   8  14  25  39  59  89 118 141 176 221 260
#     4   8  14  20  34  55  79 119 147 167 200 266
#
# _framework density 22.430184000000001
#
# number of rings (size 3 to 8) (size 9 to 14) (size 15 to 20)
#    0.000    2.500    2.500    1.500    0.000    0.000 
#   13.500    0.000    0.000    0.000    0.000    0.000 
#    0.000    2.000    0.000    0.000    0.000    0.000 
#
# Total GULP energy -89195.982104 kJ/mol
# GULP energy per Si atom -5574.748882 kJ/mol
# Density = 2.237913 g / cm^3
# Si number density = 22.430184 Si / 1000 Ang^3
#
#
#
# Elastic Constant Matrix: (Units=GPa)
#
#
# Indices 1 2 3 4 5 6 
#
# 1 82.9860 16.8042 35.9363 0.0000 -29.6130 0.0000
# 2 16.8042 201.0836 8.5020 0.0000 -31.8520 0.0000
# 3 35.9363 8.5020 134.4653 0.0000 -48.5890 0.0000
# 4 0.0000 0.0000 0.0000 -0.7363 0.0000 -65.7119
# 5 -29.6130 -31.8520 -48.5890 0.0000 42.1663 0.0000
# 6 0.0000 0.0000 0.0000 -65.7119 0.0000 -73.1064
#
#
#
# Elastic Compliance Matrix: (Units=1/GPa)
#
#
# Indices 1 2 3 4 5 6 
#
# 1 0.016128 0.000475 -0.000202 0.000000 0.011453 0.000000
# 2 0.000475 0.006006 0.002147 0.000000 0.007345 0.000000
# 3 -0.000202 0.002147 0.013519 0.000000 0.017059 0.000000
# 4 0.000000 0.000000 0.000000 0.017144 0.000000 -0.015410
# 5 0.011453 0.007345 0.017059 0.000000 0.056964 0.000000
# 6 0.000000 0.000000 0.000000 -0.015410 0.000000 0.000173
#
#
# Mechanical properties :
#
#
# Convention : Reuss Voigt Hill
#
# Bulk Modulus (GPa) = 24.69470 60.11331 42.40401
# Shear Modulus (GPa) = 42.16130 17.48422 29.82276
#
# Velocity S-wave (km/s) = 4.34022 2.79497 3.65030
# Velocity P-wave (km/s) = 6.01250 6.10526 6.05906
#
# Compressibility (1/GPa) = 0.04049452
#
# Stress axis : x y z
#
# Youngs Moduli (GPa) = 62.00248 166.49950 73.96859
#
# Poissons Ratio (x) = -0.07907 0.01493
# Poissons Ratio (y) = -0.02944 -0.15884
# Poissons Ratio (z) = 0.01252 -0.35754
#
# Static dielectric constant tensor:
#      x y z
#    x 1.972310 0.000000 0.065430 
#    y 0.000000 1.853210 0.000000 
#    z 0.065430 0.000000 1.853870 
# 
# From -- ./inp_files/1736.got.cif
#   From: 2010.05.17/outbox.cif.g08.bks.cpg/sg3_1_cif.got.tgz:1736.got - 2010.06.03 18:33:08.
