data_PCOD9112119
_publ_section_title
;
Structure prediction by ZEFSAII (Michael W. Deem and Ramdas Pophale) SiO2 
 PCOD9112119
Probable space group: P -1
;
_chemical_formula_sum "Si O2"
_cell_formula_units_Z 13
_cell_length_a 9.499376
_cell_length_b 11.902344
_cell_length_c 8.828004
_cell_angle_alpha 65.436242
_cell_angle_beta 135.481711
_cell_angle_gamma 130.937115
_cell_volume 526.168316
_symmetry_space_group_name_H-M "P -1"
_symmetry_group_IT_number 2
_symmetry_cell_setting 'triclinic'
loop_
_space_group_symop_operation_xyz
x,y,z
-x,-y,-z
loop_
_atom_site_type_symbol
_atom_site_label
_atom_site_fract_x
_atom_site_fract_y
_atom_site_fract_z
Si Si1 0.271937 0.498144 0.766754
Si Si2 0.379961 0.983897 0.236311
Si Si3 0.075951 0.778339 0.563050
Si Si4 0.500000 0.000000 0.000000
Si Si5 0.479789 0.207519 0.411806
Si Si6 0.813005 0.406057 0.042083
Si Si7 0.670265 0.800902 0.372922
O O1 0.093677 0.358854 0.601687
O O2 0.380687 0.646299 0.665819
O O3 0.151482 0.508711 0.822070
O O4 0.500000 0.500000 0.000000
O O5 0.303525 0.067345 0.243889
O O6 0.674855 0.105346 0.394023
O O7 0.319277 0.977427 0.019423
O O8 0.341371 0.832972 0.352421
O O9 0.913946 0.833321 0.469499
O O10 0.170208 0.731550 0.809224
O O11 0.604230 0.919320 0.222877
O O12 0.350849 0.225339 0.447721
O O13 0.550963 0.343123 0.804868
O O14 0.000000 0.500000 0.000000
#
# Coordination Sequence:
#
# PCOD9112119 Si02
#       7
#     2   2   2   1   2   2   2
#     4  12  25  45  70 100 145 183 228 288 352 408
#     4  10  22  44  73  99 133 188 231 285 347 408
#     4  12  25  44  73 104 137 184 234 287 349 413
#     4  10  20  44  70  94 136 180 220 282 342 410
#     4  10  23  43  71  98 141 184 225 288 348 410
#     4  12  26  44  68 103 137 184 232 287 347 419
#     4  11  24  43  70 102 141 176 234 286 343 408
#
# _framework density 24.706921999999999
#
# number of rings (size 3 to 8) (size 9 to 14) (size 15 to 20)
#    0.000    0.923    4.615    1.385    4.308    3.692 
#    0.000    0.769    0.000    0.000    0.000    0.000 
#    0.000    0.000    0.000    0.000    0.000    0.000 
#
# Total GULP energy -72504.953269 kJ/mol
# GULP energy per Si atom -5577.304098 kJ/mol
# Density = 2.465069 g / cm^3
# Si number density = 24.706922 Si / 1000 Ang^3
#
#
#
# Elastic Constant Matrix: (Units=GPa)
#
#
# Indices 1 2 3 4 5 6 
#
# 1 139.9854 30.0087 58.6522 -10.4277 -27.8413 -8.1229
# 2 30.0087 80.6937 37.5066 -10.0999 -6.6803 6.6212
# 3 58.6522 37.5066 112.6785 5.5821 -20.7107 6.8987
# 4 -10.4277 -10.0999 5.5821 46.0142 7.8142 -14.9232
# 5 -27.8413 -6.6803 -20.7107 7.8142 66.5860 3.1142
# 6 -8.1229 6.6212 6.8987 -14.9232 3.1142 45.9075
#
#
#
# Elastic Compliance Matrix: (Units=1/GPa)
#
#
# Indices 1 2 3 4 5 6 
#
# 1 0.010419 -0.001220 -0.005049 0.003589 0.002065 0.003805
# 2 -0.001220 0.015533 -0.004853 0.003722 -0.000877 -0.000458
# 3 -0.005049 -0.004853 0.014171 -0.005812 0.002697 -0.004395
# 4 0.003589 0.003722 -0.005812 0.028052 -0.003709 0.010342
# 5 0.002065 -0.000877 0.002697 -0.003709 0.017175 -0.002284
# 6 0.003805 -0.000458 -0.004395 0.010342 -0.002284 0.026700
#
#
# Mechanical properties :
#
#
# Convention : Reuss Voigt Hill
#
# Bulk Modulus (GPa) = 55.92872 65.07694 60.50283
# Shear Modulus (GPa) = 35.65020 45.51423 40.58222
#
# Velocity S-wave (km/s) = 3.80270 4.29670 4.05723
# Velocity P-wave (km/s) = 6.47818 7.14229 6.81832
#
# Compressibility (1/GPa) = 0.01787990
#
# Stress axis : x y z
#
# Youngs Moduli (GPa) = 95.97586 64.38052 70.56746
#
# Poissons Ratio (x) = 0.07856 0.35627
# Poissons Ratio (y) = 0.11711 0.34244
# Poissons Ratio (z) = 0.48455 0.31241
#
# Static dielectric constant tensor:
#      x y z
#    x 2.018220 -0.091380 -0.041210 
#    y -0.091380 1.945860 0.013600 
#    z -0.041210 0.013600 1.917460 
# 
# From -- ./inp_files/169060.got.cif
#   From: 2010.05.17/outbox.cif.g08.bks.cpg/sg2_85_cif.got.tgz:169060.got - 2010.06.03 11:33:40.
