data_PCOD9112505
_publ_section_title
;
Structure prediction by ZEFSAII (Michael W. Deem and Ramdas Pophale) SiO2 
 PCOD9112505
Probable space group: P 2
;
_chemical_formula_sum "Si O2"
_cell_formula_units_Z 16
_cell_length_a 11.065690
_cell_length_b 9.864402
_cell_length_c 9.441055
_cell_angle_alpha 90.000000
_cell_angle_beta 116.731239
_cell_angle_gamma 90.000000
_cell_volume 920.412814
_symmetry_space_group_name_H-M "P 2"
_symmetry_group_IT_number 3
_symmetry_cell_setting 'monoclinic'
loop_
_space_group_symop_operation_xyz
x,y,z
-x,y,-z
loop_
_atom_site_type_symbol
_atom_site_label
_atom_site_fract_x
_atom_site_fract_y
_atom_site_fract_z
Si Si1 0.227997 0.469140 0.093204
Si Si2 0.168842 0.353625 0.346095
Si Si3 0.621504 0.143940 0.449812
Si Si4 0.113271 0.729859 0.175694
Si Si5 0.649896 0.836672 0.511689
Si Si6 0.719360 0.568115 0.388887
Si Si7 0.935307 0.524798 0.271540
Si Si8 0.483257 0.356793 0.828178
O O1 0.151774 0.378086 0.170142
O O2 0.206436 0.620185 0.142668
O O3 0.376645 0.408161 0.164498
O O4 0.166496 0.477525 0.905285
O O5 0.243155 0.215373 0.419865
O O6 0.264415 0.472307 0.463515
O O7 0.028083 0.392361 0.344386
O O8 0.500000 0.157435 0.500000
O O9 0.576311 0.230834 0.290490
O O10 0.646699 0.985354 0.441207
O O11 0.222657 0.826391 0.310655
O O12 0.028165 0.643408 0.249114
O O13 0.000000 0.779339 0.000000
O O14 0.500000 0.816593 0.500000
O O15 0.674202 0.714811 0.415092
O O16 0.855178 0.572861 0.366858
O O17 0.614416 0.486007 0.238028
O O18 0.500000 0.320185 0.000000
#
# Coordination Sequence:
#
# PCOD9112505 Si02
#       8
#     2   2   2   2   2   2   2   2
#     4  10  17  33  57  88 112 143 191 245 300 340
#     4  10  19  33  59  82 111 143 195 239 288 345
#     4  10  22  38  60  82 115 158 199 243 287 346
#     4   9  19  35  60  86 123 151 191 247 299 350
#     4  11  22  38  60  87 120 161 205 241 286 354
#     4  11  21  32  60  86 112 149 192 248 290 346
#     4  10  19  33  55  88 116 145 183 246 305 343
#     4  11  21  36  59  86 118 147 193 252 305 346
#
# _framework density 17.383503999999999
#
# number of rings (size 3 to 8) (size 9 to 14) (size 15 to 20)
#    0.000    1.750    5.000    2.250    0.000    0.000 
#    0.000    1.875   16.500    0.000    0.000    0.000 
#    0.000    0.000    0.000    0.000    0.000    0.000 
#
# Total GULP energy -89106.330112 kJ/mol
# GULP energy per Si atom -5569.145632 kJ/mol
# Density = 1.734394 g / cm^3
# Si number density = 17.383504 Si / 1000 Ang^3
#
#
#
# Elastic Constant Matrix: (Units=GPa)
#
#
# Indices 1 2 3 4 5 6 
#
# 1 96.0085 47.6976 21.7994 0.0000 -0.6969 0.0000
# 2 47.6976 119.7808 42.2680 0.0000 0.2972 0.0000
# 3 21.7994 42.2680 91.3461 0.0000 1.0705 0.0000
# 4 0.0000 0.0000 0.0000 17.8180 0.0000 2.8588
# 5 -0.6969 0.2972 1.0705 0.0000 29.7350 0.0000
# 6 0.0000 0.0000 0.0000 2.8588 0.0000 20.5404
#
#
#
# Elastic Compliance Matrix: (Units=1/GPa)
#
#
# Indices 1 2 3 4 5 6 
#
# 1 0.013044 -0.004894 -0.000853 0.000000 0.000385 0.000000
# 2 -0.004894 0.011814 -0.004298 0.000000 -0.000078 0.000000
# 3 -0.000853 -0.004298 0.013145 0.000000 -0.000450 0.000000
# 4 0.000000 0.000000 0.000000 0.057405 0.000000 -0.007989
# 5 0.000385 -0.000078 -0.000450 0.000000 0.033656 0.000000
# 6 0.000000 0.000000 0.000000 -0.007989 0.000000 0.049796
#
#
# Mechanical properties :
#
#
# Convention : Reuss Voigt Hill
#
# Bulk Modulus (GPa) = 55.82420 58.96281 57.39351
# Shear Modulus (GPa) = 24.39968 26.64340 25.52154
#
# Velocity S-wave (km/s) = 3.75054 3.91920 3.83580
# Velocity P-wave (km/s) = 7.13712 7.38056 7.25986
#
# Compressibility (1/GPa) = 0.01791338
#
# Stress axis : x y z
#
# Youngs Moduli (GPa) = 76.66620 84.64341 76.07526
#
# Poissons Ratio (x) = 0.41425 0.06487
# Poissons Ratio (y) = 0.37521 0.32696
# Poissons Ratio (z) = 0.06537 0.36379
#
# Static dielectric constant tensor:
#      x y z
#    x 1.629670 0.000000 0.027690 
#    y 0.000000 1.555360 0.000000 
#    z 0.027690 0.000000 1.642580 
# 
# From -- ./inp_files/7462.got.cif
#   From: 2010.05.17/outbox.cif.g08.bks.cpg/sg3_4_cif.got.tgz:7462.got - 2010.06.03 18:33:08.
