data_PCOD9112015
_publ_section_title
;
Structure prediction by ZEFSAII (Michael W. Deem and Ramdas Pophale) SiO2 
 PCOD9112015
Probable space group: P -1
;
_chemical_formula_sum "Si O2"
_cell_formula_units_Z 16
_cell_length_a 29.635749
_cell_length_b 6.802100
_cell_length_c 10.603710
_cell_angle_alpha 102.156090
_cell_angle_beta 151.836204
_cell_angle_gamma 58.835066
_cell_volume 685.247921
_symmetry_space_group_name_H-M "P -1"
_symmetry_group_IT_number 2
_symmetry_cell_setting 'triclinic'
loop_
_space_group_symop_operation_xyz
x,y,z
-x,-y,-z
loop_
_atom_site_type_symbol
_atom_site_label
_atom_site_fract_x
_atom_site_fract_y
_atom_site_fract_z
Si Si1 0.832160 0.265211 0.898224
Si Si2 0.932711 0.880308 0.292000
Si Si3 0.088561 0.925095 0.331343
Si Si4 0.151774 0.211549 0.670512
Si Si5 0.395986 0.225781 0.465768
Si Si6 0.463169 0.789344 0.947517
Si Si7 0.691487 0.614251 0.339802
Si Si8 0.467585 0.774874 0.426588
O O1 0.762804 0.545076 0.850119
O O2 0.762220 0.405931 0.609556
O O3 0.816211 0.096794 0.926491
O O4 0.991297 0.016471 0.219947
O O5 0.868235 0.885430 0.261388
O O6 0.045284 0.555225 0.470369
O O7 0.000000 0.000000 0.500000
O O8 0.228202 0.589971 0.610023
O O9 0.117438 0.115687 0.455423
O O10 0.000000 0.000000 0.000000
O O11 0.310817 0.033388 0.024778
O O12 0.471011 0.230360 0.762445
O O13 0.423125 0.304142 0.414030
O O14 0.464138 0.911370 0.562498
O O15 0.538318 0.763206 0.004890
O O16 0.500000 0.500000 0.000000
O O17 0.317453 0.129638 0.636512
O O18 0.500000 0.500000 0.500000
#
# Coordination Sequence:
#
# PCOD9112015 Si02
#       8
#     2   2   2   2   2   2   2   2
#     4  10  20  44  67  90 135 178 212 277 339 388
#     4  11  22  42  66  98 133 174 226 276 337 396
#     4  10  22  43  67  98 137 174 219 284 337 398
#     4  11  25  40  70 102 131 182 228 273 343 408
#     4  10  24  42  63  96 137 169 225 282 326 396
#     4  10  22  42  68  97 128 178 221 270 338 402
#     4   9  22  42  64  96 135 168 220 275 331 390
#     4  11  25  42  65  98 135 177 225 277 338 392
#
# _framework density 23.349215000000001
#
# number of rings (size 3 to 8) (size 9 to 14) (size 15 to 20)
#    0.000    1.750    1.250    1.500    5.250    4.000 
#    9.000    1.250    0.000    0.000    0.000    0.000 
#    0.000    0.000    0.000    0.000    0.000    0.000 
#
# Total GULP energy -89169.016935 kJ/mol
# GULP energy per Si atom -5573.063558 kJ/mol
# Density = 2.329607 g / cm^3
# Si number density = 23.349215 Si / 1000 Ang^3
#
#
#
# Elastic Constant Matrix: (Units=GPa)
#
#
# Indices 1 2 3 4 5 6 
#
# 1 103.8468 55.5861 29.6978 -17.6190 12.9629 -24.8360
# 2 55.5861 188.0478 38.9533 -18.7037 1.3288 -19.6802
# 3 29.6978 38.9533 54.7617 -17.1527 0.3221 -17.3497
# 4 -17.6190 -18.7037 -17.1527 42.8798 -9.8040 -1.1474
# 5 12.9629 1.3288 0.3221 -9.8040 52.1167 -15.2720
# 6 -24.8360 -19.6802 -17.3497 -1.1474 -15.2720 45.1013
#
#
#
# Elastic Compliance Matrix: (Units=1/GPa)
#
#
# Indices 1 2 3 4 5 6 
#
# 1 0.013766 -0.002599 -0.003081 0.003120 -0.001318 0.004895
# 2 -0.002599 0.006864 -0.002928 0.000981 0.000899 0.000767
# 3 -0.003081 -0.002928 0.028440 0.010381 0.005584 0.010121
# 4 0.003120 0.000981 0.010381 0.031227 0.007816 0.009581
# 5 -0.001318 0.000899 0.005584 0.007816 0.023889 0.010103
# 6 0.004895 0.000767 0.010121 0.009581 0.010103 0.032760
#
#
# Mechanical properties :
#
#
# Convention : Reuss Voigt Hill
#
# Bulk Modulus (GPa) = 31.39379 66.12562 48.75971
# Shear Modulus (GPa) = 30.34338 42.84751 36.59544
#
# Velocity S-wave (km/s) = 3.60883 4.28842 3.96322
# Velocity P-wave (km/s) = 5.55332 7.27341 6.47078
#
# Compressibility (1/GPa) = 0.03185343
#
# Stress axis : x y z
#
# Youngs Moduli (GPa) = 72.64094 145.68532 35.16192
#
# Poissons Ratio (x) = 0.37866 0.10834
# Poissons Ratio (y) = 0.18881 0.10296
# Poissons Ratio (z) = 0.22381 0.42660
#
# Static dielectric constant tensor:
#      x y z
#    x 1.831100 0.020960 -0.015240 
#    y 0.020960 1.928210 0.009020 
#    z -0.015240 0.009020 2.080660 
# 
# From -- ./inp_files/477399.got.cif
#   From: 2010.05.17/outbox.cif.g08.bks.cpg/sg2_239_cif.got.tgz:477399.got - 2010.06.03 11:33:40.
