data_PCOD9112140
_publ_section_title
;
Structure prediction by ZEFSAII (Michael W. Deem and Ramdas Pophale) SiO2 
 PCOD9112140
Probable space group: P -1
;
_chemical_formula_sum "Si O2"
_cell_formula_units_Z 16
_cell_length_a 10.545650
_cell_length_b 11.442034
_cell_length_c 12.541842
_cell_angle_alpha 45.146451
_cell_angle_beta 132.257703
_cell_angle_gamma 127.295427
_cell_volume 768.634048
_symmetry_space_group_name_H-M "P -1"
_symmetry_group_IT_number 2
_symmetry_cell_setting 'triclinic'
loop_
_space_group_symop_operation_xyz
x,y,z
-x,-y,-z
loop_
_atom_site_type_symbol
_atom_site_label
_atom_site_fract_x
_atom_site_fract_y
_atom_site_fract_z
Si Si1 0.228756 0.899237 0.426648
Si Si2 0.037303 0.503313 0.142364
Si Si3 0.542640 0.864473 0.031194
Si Si4 0.434414 0.530061 0.326297
Si Si5 0.237745 0.776473 0.736509
Si Si6 0.893234 0.876050 0.111190
Si Si7 0.254789 0.415641 0.944900
Si Si8 0.460199 0.274403 0.320540
O O1 0.222773 0.897236 0.553393
O O2 0.353117 0.777556 0.536698
O O3 0.039096 0.848509 0.295585
O O4 0.325018 0.094121 0.329797
O O5 0.244645 0.560580 0.228307
O O6 0.950504 0.311947 0.259416
O O7 0.000000 0.500000 0.000000
O O8 0.926496 0.618776 0.064562
O O9 0.533294 0.691096 0.205340
O O10 0.735999 0.934549 0.043756
O O11 0.390651 0.834440 0.873022
O O12 0.500000 0.000000 0.000000
O O13 0.500000 0.500000 0.500000
O O14 0.425544 0.365063 0.352322
O O15 0.280791 0.613112 0.809056
O O16 0.787088 0.704316 0.102453
O O17 0.000000 0.000000 0.000000
O O18 0.410982 0.393697 0.124049
#
# Coordination Sequence:
#
# PCOD9112140 Si02
#       8
#     2   2   2   2   2   2   2   2
#     4  11  27  42  68 105 137 175 233 289 345 411
#     4  10  20  44  71  98 129 187 231 280 344 416
#     4  12  29  46  72 105 139 185 234 291 349 414
#     4  12  27  43  70 102 144 182 236 285 352 411
#     4  10  24  44  72  98 135 176 235 284 339 414
#     4  12  28  46  71 104 142 185 230 293 354 410
#     4  10  22  44  77  92 134 186 232 281 348 416
#     4  11  23  46  69  96 138 185 227 283 350 411
#
# _framework density 20.81615
#
# number of rings (size 3 to 8) (size 9 to 14) (size 15 to 20)
#    0.750    0.250    5.000    0.750   10.500    2.500 
#    0.000    1.250    0.000    0.000    0.000    0.000 
#    0.000    0.000    0.000    0.000    0.000    0.000 
#
# Total GULP energy -89233.303286 kJ/mol
# GULP energy per Si atom -5577.081455 kJ/mol
# Density = 2.076877 g / cm^3
# Si number density = 20.816150 Si / 1000 Ang^3
#
#
#
# Elastic Constant Matrix: (Units=GPa)
#
#
# Indices 1 2 3 4 5 6 
#
# 1 124.2886 18.2116 8.0979 5.8526 12.4877 -3.8247
# 2 18.2116 68.9030 17.9351 17.4353 12.0823 -20.5208
# 3 8.0979 17.9351 81.0696 23.3925 -11.9346 -1.6736
# 4 5.8526 17.4353 23.3925 33.6563 -6.6767 -3.4621
# 5 12.4877 12.0823 -11.9346 -6.6767 20.6910 -2.3095
# 6 -3.8247 -20.5208 -1.6736 -3.4621 -2.3095 42.1889
#
#
#
# Elastic Compliance Matrix: (Units=1/GPa)
#
#
# Indices 1 2 3 4 5 6 
#
# 1 0.008916 -0.000480 -0.001227 -0.001706 -0.006355 0.000038
# 2 -0.000480 0.025784 -0.004713 -0.013037 -0.020563 0.010115
# 3 -0.001227 -0.004713 0.017169 -0.007305 0.010846 -0.001728
# 4 -0.001706 -0.013037 -0.007305 0.045368 0.018842 -0.002031
# 5 -0.006355 -0.020563 0.010846 0.018842 0.076013 -0.004440
# 6 0.000038 0.010115 -0.001728 -0.002031 -0.004440 0.028148
#
#
# Mechanical properties :
#
#
# Convention : Reuss Voigt Hill
#
# Bulk Modulus (GPa) = 25.62162 40.30560 32.96361
# Shear Modulus (GPa) = 22.00244 34.64167 28.32206
#
# Velocity S-wave (km/s) = 3.25466 4.08385 3.69261
# Velocity P-wave (km/s) = 5.14383 6.45305 5.83527
#
# Compressibility (1/GPa) = 0.03902955
#
# Stress axis : x y z
#
# Youngs Moduli (GPa) = 112.15751 38.78404 58.24478
#
# Poissons Ratio (x) = 0.01861 0.07147
# Poissons Ratio (y) = 0.05381 0.27450
# Poissons Ratio (z) = 0.13762 0.18278
#
# Static dielectric constant tensor:
#      x y z
#    x 1.369830 -0.108210 -0.338090 
#    y -0.108210 1.671320 -0.098540 
#    z -0.338090 -0.098540 1.436590 
# 
# From -- ./inp_files/392245.got.cif
#   From: 2010.05.17/outbox.cif.g08.bks.cpg/sg2_197_cif.got.tgz:392245.got - 2010.06.03 11:33:40.
