data_PCOD9112115
_publ_section_title
;
Structure prediction by ZEFSAII (Michael W. Deem and Ramdas Pophale) SiO2 
 PCOD9112115
Probable space group: P -1
;
_chemical_formula_sum "Si O2"
_cell_formula_units_Z 15
_cell_length_a 8.124902
_cell_length_b 13.283462
_cell_length_c 7.333675
_cell_angle_alpha 90.708354
_cell_angle_beta 74.792773
_cell_angle_gamma 127.391575
_cell_volume 595.582362
_symmetry_space_group_name_H-M "P -1"
_symmetry_group_IT_number 2
_symmetry_cell_setting 'triclinic'
loop_
_space_group_symop_operation_xyz
x,y,z
-x,-y,-z
loop_
_atom_site_type_symbol
_atom_site_label
_atom_site_fract_x
_atom_site_fract_y
_atom_site_fract_z
Si Si1 0.037995 0.942890 0.759634
Si Si2 0.234264 0.984686 0.352664
Si Si3 0.002989 0.620417 0.467643
Si Si4 0.350120 0.516467 0.166936
Si Si5 0.750517 0.197853 0.910220
Si Si6 0.701071 0.241459 0.291487
Si Si7 0.000000 0.500000 0.000000
Si Si8 0.364238 0.193107 0.897265
O O1 0.928997 0.002515 0.704075
O O2 0.837687 0.831225 0.936237
O O3 0.113929 0.904358 0.568622
O O4 0.243205 0.064603 0.809031
O O5 0.444837 0.124029 0.361112
O O6 0.287051 0.914588 0.198555
O O7 0.051759 0.667067 0.243459
O O8 0.210170 0.731360 0.529983
O O9 0.000000 0.500000 0.500000
O O10 0.785222 0.581304 0.626939
O O11 0.495362 0.661430 0.212139
O O12 0.500000 0.500000 0.000000
O O13 0.167108 0.496416 0.085560
O O14 0.539922 0.191989 0.957826
O O15 0.793583 0.196558 0.110706
O O16 0.787661 0.376435 0.178587
#
# Coordination Sequence:
#
# PCOD9112115 Si02
#       8
#     2   2   2   2   2   2   1   2
#     4  10  24  41  64  96 137 177 220 293 337 421
#     4  11  24  42  65 100 134 177 231 281 353 410
#     4  11  24  43  70 101 134 181 238 285 348 421
#     4  11  24  42  70 102 138 184 232 294 354 420
#     4  12  23  43  70 100 134 181 229 284 343 423
#     4  11  22  42  72  94 138 179 227 286 345 418
#     4  10  20  44  70  94 132 184 226 282 348 410
#     4  11  22  44  66  94 137 179 228 278 357 412
#
# _framework density 25.185434000000001
#
# number of rings (size 3 to 8) (size 9 to 14) (size 15 to 20)
#    0.000    1.067    4.000    2.000    1.867    4.267 
#    2.400    0.000    0.000    7.200    0.000    0.000 
#    0.000    0.000    0.000    0.000    0.000    0.000 
#
# Total GULP energy -83679.304705 kJ/mol
# GULP energy per Si atom -5578.620314 kJ/mol
# Density = 2.512811 g / cm^3
# Si number density = 25.185434 Si / 1000 Ang^3
#
#
#
# Elastic Constant Matrix: (Units=GPa)
#
#
# Indices 1 2 3 4 5 6 
#
# 1 65.6747 23.4776 12.4980 4.5184 -12.5427 11.2630
# 2 23.4776 100.5288 -15.1385 -8.9634 -5.7177 15.0991
# 3 12.4980 -15.1385 114.7941 -7.9401 -9.7154 10.7718
# 4 4.5184 -8.9634 -7.9401 41.3231 -2.6719 -0.7433
# 5 -12.5427 -5.7177 -9.7154 -2.6719 32.0678 -0.1462
# 6 11.2630 15.0991 10.7718 -0.7433 -0.1462 30.2630
#
#
#
# Elastic Compliance Matrix: (Units=1/GPa)
#
#
# Indices 1 2 3 4 5 6 
#
# 1 0.019131 -0.004013 -0.001899 -0.003025 0.005919 -0.004487
# 2 -0.004013 0.012670 0.003078 0.003797 0.001912 -0.005821
# 3 -0.001899 0.003078 0.010203 0.002959 0.003124 -0.004373
# 4 -0.003025 0.003797 0.002959 0.026067 0.002557 -0.001169
# 5 0.005919 0.001912 0.003124 0.002557 0.034981 -0.004037
# 6 -0.004487 -0.005821 -0.004373 -0.001169 -0.004037 0.039126
#
#
# Mechanical properties :
#
#
# Convention : Reuss Voigt Hill
#
# Bulk Modulus (GPa) = 27.52048 35.85242 31.68645
# Shear Modulus (GPa) = 31.25823 38.07480 34.66651
#
# Velocity S-wave (km/s) = 3.52678 3.89238 3.71408
# Velocity P-wave (km/s) = 5.24739 5.87087 5.56786
#
# Compressibility (1/GPa) = 0.03633658
#
# Stress axis : x y z
#
# Youngs Moduli (GPa) = 52.27199 78.92795 98.00631
#
# Poissons Ratio (x) = 0.31673 0.18614
# Poissons Ratio (y) = 0.20976 -0.30171
# Poissons Ratio (z) = 0.09928 -0.24297
#
# Static dielectric constant tensor:
#      x y z
#    x 1.956600 -0.187530 -0.013710 
#    y -0.187530 2.845580 0.099330 
#    z -0.013710 0.099330 2.103890 
# 
# From -- ./inp_files/197167.got.cif
#   From: 2010.05.17/outbox.cif.g08.bks.cpg/sg2_99_cif.got.tgz:197167.got - 2010.06.03 11:33:40.
