data_PCOD9112951
_publ_section_title
;
Structure prediction by ZEFSAII (Michael W. Deem and Ramdas Pophale) SiO2 
 PCOD9112951
Probable space group: P 2
;
_chemical_formula_sum "Si O2"
_cell_formula_units_Z 14
_cell_length_a 12.509365
_cell_length_b 6.265827
_cell_length_c 8.672383
_cell_angle_alpha 90.000000
_cell_angle_beta 97.776104
_cell_angle_gamma 90.000000
_cell_volume 673.503755
_symmetry_space_group_name_H-M "P 2"
_symmetry_group_IT_number 3
_symmetry_cell_setting 'monoclinic'
loop_
_space_group_symop_operation_xyz
x,y,z
-x,y,-z
loop_
_atom_site_type_symbol
_atom_site_label
_atom_site_fract_x
_atom_site_fract_y
_atom_site_fract_z
Si Si1 0.010315 0.477780 0.818922
Si Si2 0.570364 0.246761 0.263317
Si Si3 0.809960 0.721083 0.650059
Si Si4 0.500000 0.945333 0.500000
Si Si5 0.500000 0.910090 0.000000
Si Si6 0.398829 0.626023 0.229446
Si Si7 0.090759 0.127634 0.406290
Si Si8 0.791367 0.471335 0.349021
O O1 0.927880 0.639847 0.721053
O O2 0.971341 0.251867 0.741060
O O3 0.129395 0.520167 0.776386
O O4 0.000000 0.487367 0.000000
O O5 0.575151 0.107451 0.419929
O O6 0.558864 0.070505 0.128436
O O7 0.467253 0.407116 0.244615
O O8 0.676428 0.388897 0.270786
O O9 0.725613 0.608887 0.747940
O O10 0.779288 0.661711 0.468830
O O11 0.821660 0.974161 0.652748
O O12 0.443365 0.788347 0.368633
O O13 0.419854 0.753210 0.075864
O O14 0.150054 0.294067 0.531435
O O15 0.000000 0.020089 0.500000
#
# Coordination Sequence:
#
# PCOD9112951 Si02
#       8
#     2   2   2   1   1   2   2   2
#     4  10  23  38  56  88 121 154 196 237 292 359
#     4  11  22  40  62  86 124 161 193 254 306 343
#     4  11  21  38  63  87 116 152 196 247 294 347
#     4  10  20  36  60  94 120 150 206 248 298 362
#     4  10  26  42  56  86 122 162 204 240 302 372
#     4  11  23  39  61  91 120 157 205 246 299 366
#     4   9  19  38  60  84 116 153 196 245 291 342
#     4  10  21  38  62  87 114 154 201 244 293 353
#
# _framework density 20.786816000000002
#
# number of rings (size 3 to 8) (size 9 to 14) (size 15 to 20)
#    0.000    1.714    0.000    5.571    0.000    8.571 
#    0.000    1.429    0.000    0.000    0.000    0.000 
#    0.000    0.000    0.000    0.000    0.000    0.000 
#
# Total GULP energy -78171.458385 kJ/mol
# GULP energy per Si atom -5583.675599 kJ/mol
# Density = 2.073950 g / cm^3
# Si number density = 20.786816 Si / 1000 Ang^3
#
#
#
# Elastic Constant Matrix: (Units=GPa)
#
#
# Indices 1 2 3 4 5 6 
#
# 1 45.2417 -5.7942 -4.3521 0.0000 -13.1263 0.0000
# 2 -5.7942 57.6068 7.9259 0.0000 -8.9528 0.0000
# 3 -4.3521 7.9259 82.0346 0.0000 -23.5880 0.0000
# 4 0.0000 0.0000 0.0000 24.1069 0.0000 -9.6154
# 5 -13.1263 -8.9528 -23.5880 0.0000 26.1365 0.0000
# 6 0.0000 0.0000 0.0000 -9.6154 0.0000 24.6550
#
#
#
# Elastic Compliance Matrix: (Units=1/GPa)
#
#
# Indices 1 2 3 4 5 6 
#
# 1 0.030890 0.005852 0.008252 0.000000 0.024965 0.000000
# 2 0.005852 0.019444 0.001610 0.000000 0.011052 0.000000
# 3 0.008252 0.001610 0.018666 0.000000 0.021542 0.000000
# 4 0.000000 0.000000 0.000000 0.049123 0.000000 0.019158
# 5 0.024965 0.011052 0.021542 0.000000 0.074026 0.000000
# 6 0.000000 0.000000 0.000000 0.019158 0.000000 0.048031
#
#
# Mechanical properties :
#
#
# Convention : Reuss Voigt Hill
#
# Bulk Modulus (GPa) = 9.95754 20.04913 15.00333
# Shear Modulus (GPa) = 20.64155 27.45326 24.04740
#
# Velocity S-wave (km/s) = 3.15463 3.63809 3.40495
# Velocity P-wave (km/s) = 4.25084 5.22625 4.76358
#
# Compressibility (1/GPa) = 0.10042644
#
# Stress axis : x y z
#
# Youngs Moduli (GPa) = 32.37276 51.43049 53.57238
#
# Poissons Ratio (x) = -0.30095 -0.44207
# Poissons Ratio (y) = -0.18943 -0.08623
# Poissons Ratio (z) = -0.26714 -0.08278
#
# Static dielectric constant tensor:
#      x y z
#    x 1.776350 0.000000 -0.029050 
#    y 0.000000 1.744590 0.000000 
#    z -0.029050 0.000000 1.736240 
# 
# From -- ./inp_files/6655.got.cif
#   From: 2010.05.17/outbox.cif.g08.bks.cpg/sg3_4_cif.got.tgz:6655.got - 2010.06.03 18:33:08.
