data_PCOD9112362
_publ_section_title
;
Structure prediction by ZEFSAII (Michael W. Deem and Ramdas Pophale) SiO2 
 PCOD9112362
Probable space group: P -1
;
_chemical_formula_sum "Si O2"
_cell_formula_units_Z 13
_cell_length_a 11.890321
_cell_length_b 12.064592
_cell_length_c 7.188481
_cell_angle_alpha 66.016714
_cell_angle_beta 77.897625
_cell_angle_gamma 129.339002
_cell_volume 546.578386
_symmetry_space_group_name_H-M "P -1"
_symmetry_group_IT_number 2
_symmetry_cell_setting 'triclinic'
loop_
_space_group_symop_operation_xyz
x,y,z
-x,-y,-z
loop_
_atom_site_type_symbol
_atom_site_label
_atom_site_fract_x
_atom_site_fract_y
_atom_site_fract_z
Si Si1 0.755952 0.316265 0.888593
Si Si2 0.500000 0.000000 0.500000
Si Si3 0.855052 0.969431 0.969914
Si Si4 0.348107 0.119933 0.535703
Si Si5 0.716219 0.727398 0.817667
Si Si6 0.807955 0.549534 0.013796
Si Si7 0.065994 0.377458 0.660042
O O1 0.751892 0.407830 0.656228
O O2 0.891377 0.324669 0.763346
O O3 0.858655 0.480538 0.908571
O O4 0.563037 0.102109 0.197618
O O5 0.669938 0.036996 0.401648
O O6 0.739655 0.807248 0.956622
O O7 0.711112 0.902011 0.219370
O O8 0.990639 0.195149 0.706295
O O9 0.000000 0.000000 0.000000
O O10 0.241095 0.130196 0.441340
O O11 0.578157 0.334143 0.279048
O O12 0.500000 0.500000 0.000000
O O13 0.832937 0.700841 0.806798
O O14 0.895376 0.621781 0.139371
#
# Coordination Sequence:
#
# PCOD9112362 Si02
#       7
#     2   1   2   2   2   2   2
#     4  10  23  42  70  99 144 190 237 295 359 423
#     4  10  20  48  68 102 142 188 244 292 354 432
#     4  12  25  44  71 107 143 185 242 299 353 428
#     4  10  24  43  69  99 140 189 236 293 355 426
#     4  10  24  44  68 102 138 187 234 291 362 427
#     4  10  22  42  70  97 140 189 235 293 357 427
#     4  11  23  44  68 107 140 185 242 299 357 415
#
# _framework density 23.784330000000001
#
# number of rings (size 3 to 8) (size 9 to 14) (size 15 to 20)
#    0.000    1.538    3.077    0.462    2.154    8.000 
#   11.077    3.846    0.000    0.000    0.000    0.000 
#    0.000    0.000    0.000    0.000    0.000    0.000 
#
# Total GULP energy -72369.648662 kJ/mol
# GULP energy per Si atom -5566.896051 kJ/mol
# Density = 2.373020 g / cm^3
# Si number density = 23.784330 Si / 1000 Ang^3
#
#
#
# Elastic Constant Matrix: (Units=GPa)
#
#
# Indices 1 2 3 4 5 6 
#
# 1 54.4187 19.2432 33.7206 -6.3995 25.6395 -17.1626
# 2 19.2432 89.1534 13.3841 13.1900 6.3815 7.5784
# 3 33.7206 13.3841 125.3379 13.4574 3.8092 -10.0741
# 4 -6.3995 13.1900 13.4574 33.7498 3.6360 -2.8475
# 5 25.6395 6.3815 3.8092 3.6360 35.3082 0.5570
# 6 -17.1626 7.5784 -10.0741 -2.8475 0.5570 30.3091
#
#
#
# Elastic Compliance Matrix: (Units=1/GPa)
#
#
# Indices 1 2 3 4 5 6 
#
# 1 0.104014 -0.026902 -0.023375 0.053013 -0.074619 0.064207
# 2 -0.026902 0.019468 0.004939 -0.018315 0.017693 -0.020505
# 3 -0.023375 0.004939 0.013889 -0.014626 0.016271 -0.011528
# 4 0.053013 -0.018315 -0.014626 0.060068 -0.040364 0.036122
# 5 -0.074619 0.017693 0.016271 -0.040364 0.082446 -0.046577
# 6 0.064207 -0.020505 -0.011528 0.036122 -0.046577 0.074896
#
#
# Mechanical properties :
#
#
# Convention : Reuss Voigt Hill
#
# Bulk Modulus (GPa) = 21.41445 44.62285 33.01865
# Shear Modulus (GPa) = 10.84551 33.37756 22.11154
#
# Velocity S-wave (km/s) = 2.13772 3.75019 3.05235
# Velocity P-wave (km/s) = 3.88796 6.12813 5.13178
#
# Compressibility (1/GPa) = 0.04669743
#
# Stress axis : x y z
#
# Youngs Moduli (GPa) = 9.61409 51.36675 71.99948
#
# Poissons Ratio (x) = 1.38184 1.68295
# Poissons Ratio (y) = 0.25863 -0.35563
# Poissons Ratio (z) = 0.22472 -0.25372
#
# Static dielectric constant tensor:
#      x y z
#    x 1.898370 0.045670 0.028630 
#    y 0.045670 1.686650 -0.075090 
#    z 0.028630 -0.075090 1.978540 
# 
# From -- ./inp_files/59514.got.cif
#   From: 2010.05.17/outbox.cif.g08.bks.cpg/sg2_30_cif.got.tgz:59514.got - 2010.06.03 11:33:40.
