data_PCOD9112722
_publ_section_title
;
Structure prediction by ZEFSAII (Michael W. Deem and Ramdas Pophale) SiO2 
 PCOD9112722
Probable space group: P 2
;
_chemical_formula_sum "Si O2"
_cell_formula_units_Z 16
_cell_length_a 8.685353
_cell_length_b 12.459303
_cell_length_c 8.959750
_cell_angle_alpha 90.000000
_cell_angle_beta 58.128089
_cell_angle_gamma 90.000000
_cell_volume 823.384664
_symmetry_space_group_name_H-M "P 2"
_symmetry_group_IT_number 3
_symmetry_cell_setting 'monoclinic'
loop_
_space_group_symop_operation_xyz
x,y,z
-x,y,-z
loop_
_atom_site_type_symbol
_atom_site_label
_atom_site_fract_x
_atom_site_fract_y
_atom_site_fract_z
Si Si1 0.540829 0.379390 0.654335
Si Si2 0.972563 0.599894 0.838638
Si Si3 0.831282 0.378603 0.971864
Si Si4 0.836830 0.138245 0.963803
Si Si5 0.204206 0.576674 0.460612
Si Si6 0.816631 0.987324 0.687520
Si Si7 0.465817 0.133429 0.341328
Si Si8 0.691119 0.747905 0.820649
O O1 0.500000 0.393351 0.500000
O O2 0.686820 0.468148 0.622119
O O3 0.602097 0.256274 0.641527
O O4 0.356644 0.392207 0.843361
O O5 0.870742 0.486107 0.859824
O O6 0.848620 0.695214 0.841184
O O7 0.164097 0.595376 0.655645
O O8 0.000000 0.609630 0.000000
O O9 0.832026 0.260187 0.900209
O O10 0.000000 0.374192 0.000000
O O11 0.848390 0.053897 0.823955
O O12 0.652595 0.124881 0.153015
O O13 0.000000 0.129176 0.000000
O O14 0.303548 0.675883 0.331570
O O15 0.000000 0.572486 0.500000
O O16 0.737305 0.870696 0.764917
O O17 0.000000 0.975272 0.500000
O O18 0.675854 0.052847 0.658036
O O19 0.500000 0.115030 0.500000
O O20 0.500000 0.737586 0.000000
#
# Coordination Sequence:
#
# PCOD9112722 Si02
#       8
#     2   2   2   2   2   2   2   2
#     4  10  19  34  59  89 121 155 195 241 290 347
#     4  10  20  37  61  87 119 155 193 236 288 351
#     4   9  18  33  56  88 123 156 192 237 291 350
#     4  10  21  39  63  91 123 158 197 244 297 352
#     4  10  22  38  58  87 123 155 192 239 293 350
#     4  12  25  42  63  86 117 158 202 248 299 351
#     4  10  22  40  61  90 123 157 200 245 293 353
#     4  11  24  43  61  82 115 152 197 248 295 346
#
# _framework density 19.431985999999998
#
# number of rings (size 3 to 8) (size 9 to 14) (size 15 to 20)
#    0.000    1.750    0.000    5.250    0.000    6.000 
#    0.000    6.875    0.000    0.000    0.000    0.000 
#    0.000    0.000    0.000    0.000    0.000    0.000 
#
# Total GULP energy -89378.858262 kJ/mol
# GULP energy per Si atom -5586.178641 kJ/mol
# Density = 1.938776 g / cm^3
# Si number density = 19.431986 Si / 1000 Ang^3
#
#
#
# Elastic Constant Matrix: (Units=GPa)
#
#
# Indices 1 2 3 4 5 6 
#
# 1 65.4776 56.5729 38.5353 0.0000 -6.3539 0.0000
# 2 56.5729 164.3868 75.4337 0.0000 -2.6024 0.0000
# 3 38.5353 75.4337 143.8857 0.0000 -2.7869 0.0000
# 4 0.0000 0.0000 0.0000 41.1023 0.0000 6.6308
# 5 -6.3539 -2.6024 -2.7869 0.0000 37.7258 0.0000
# 6 0.0000 0.0000 0.0000 6.6308 0.0000 39.6513
#
#
#
# Elastic Compliance Matrix: (Units=1/GPa)
#
#
# Indices 1 2 3 4 5 6 
#
# 1 0.022819 -0.006619 -0.002580 0.000000 0.003196 0.000000
# 2 -0.006619 0.009932 -0.003448 0.000000 -0.000684 0.000000
# 3 -0.002580 -0.003448 0.009449 0.000000 0.000026 0.000000
# 4 0.000000 0.000000 0.000000 0.025004 0.000000 -0.004181
# 5 0.003196 -0.000684 0.000026 0.000000 0.027000 0.000000
# 6 0.000000 0.000000 0.000000 -0.004181 0.000000 0.025919
#
#
# Mechanical properties :
#
#
# Convention : Reuss Voigt Hill
#
# Bulk Modulus (GPa) = 59.14274 79.42599 69.28437
# Shear Modulus (GPa) = 33.10113 37.24309 35.17211
#
# Velocity S-wave (km/s) = 4.13175 4.38263 4.25904
# Velocity P-wave (km/s) = 7.29819 8.15920 7.74068
#
# Compressibility (1/GPa) = 0.01690825
#
# Stress axis : x y z
#
# Youngs Moduli (GPa) = 43.82234 100.68128 105.83339
#
# Poissons Ratio (x) = 0.66640 0.27300
# Poissons Ratio (y) = 0.29006 0.36488
# Poissons Ratio (z) = 0.11304 0.34712
#
# Static dielectric constant tensor:
#      x y z
#    x 1.666700 0.000000 0.022570 
#    y 0.000000 1.668830 0.000000 
#    z 0.022570 0.000000 1.693520 
# 
# From -- ./inp_files/5942.got.cif
#   From: 2010.05.17/outbox.cif.g08.bks.cpg/sg3_3_cif.got.tgz:5942.got - 2010.06.03 18:33:08.
