data_PCOD9112409
_publ_section_title
;
Structure prediction by ZEFSAII (Michael W. Deem and Ramdas Pophale) SiO2 
 PCOD9112409
Probable space group: P -1
;
_chemical_formula_sum "Si O2"
_cell_formula_units_Z 14
_cell_length_a 8.916856
_cell_length_b 19.863011
_cell_length_c 14.360894
_cell_angle_alpha 17.664804
_cell_angle_beta 120.928431
_cell_angle_gamma 113.835000
_cell_volume 625.235541
_symmetry_space_group_name_H-M "P -1"
_symmetry_group_IT_number 2
_symmetry_cell_setting 'triclinic'
loop_
_space_group_symop_operation_xyz
x,y,z
-x,-y,-z
loop_
_atom_site_type_symbol
_atom_site_label
_atom_site_fract_x
_atom_site_fract_y
_atom_site_fract_z
Si Si1 0.326793 0.894102 0.407319
Si Si2 0.924374 0.657547 0.044891
Si Si3 0.894462 0.778166 0.672644
Si Si4 0.279034 0.587651 0.957519
Si Si5 0.813597 0.224108 0.658501
Si Si6 0.637206 0.102652 0.289171
Si Si7 0.939070 0.285351 0.801847
O O1 0.352998 0.676473 0.771908
O O2 0.336727 0.820112 0.399812
O O3 0.459861 0.041884 0.280087
O O4 0.118224 0.058912 0.142402
O O5 0.856372 0.447343 0.334524
O O6 0.076848 0.675447 0.144170
O O7 0.975885 0.630084 0.988483
O O8 0.746489 0.897799 0.668097
O O9 0.783266 0.033571 0.341350
O O10 0.065265 0.750649 0.696882
O O11 0.752037 0.660166 0.740262
O O12 0.389241 0.651238 0.994856
O O13 0.786285 0.260858 0.712625
O O14 0.000000 0.000000 0.000000
O O15 0.000000 0.500000 0.500000
#
# Coordination Sequence:
#
# PCOD9112409 Si02
#       7
#     2   2   2   2   2   2   2
#     4  11  18  33  52  81 111 132 167 228 271 309
#     4   9  17  32  49  76 109 131 172 221 262 307
#     4   9  21  34  50  79 109 146 173 202 268 333
#     4  11  19  33  53  77 112 144 172 203 270 331
#     4   9  18  30  48  73 106 140 178 213 256 306
#     4  10  21  32  52  82 117 130 166 223 282 311
#     4   9  18  31  48  74 104 140 178 211 259 307
#
# _framework density 22.391562
#
# number of rings (size 3 to 8) (size 9 to 14) (size 15 to 20)
#    0.857    1.429    2.857    0.857    0.000    2.286 
#    2.571    0.000    0.000    0.000    0.000   32.000 
#    0.000    0.000    0.000    0.000    0.000    0.000 
#
# Total GULP energy -78043.719822 kJ/mol
# GULP energy per Si atom -5574.551416 kJ/mol
# Density = 2.234060 g / cm^3
# Si number density = 22.391562 Si / 1000 Ang^3
#
#
#
# Elastic Constant Matrix: (Units=GPa)
#
#
# Indices 1 2 3 4 5 6 
#
# 1 60.9659 42.5963 8.6180 5.1530 -4.0008 -3.9432
# 2 42.5963 228.2330 23.7754 -11.4779 -14.9843 3.6090
# 3 8.6180 23.7754 59.9208 -6.6481 -4.4041 -1.5524
# 4 5.1530 -11.4779 -6.6481 28.8575 -0.3293 -1.2733
# 5 -4.0008 -14.9843 -4.4041 -0.3293 17.0269 -7.1106
# 6 -3.9432 3.6090 -1.5524 -1.2733 -7.1106 32.3780
#
#
#
# Elastic Compliance Matrix: (Units=1/GPa)
#
#
# Indices 1 2 3 4 5 6 
#
# 1 0.020044 -0.003733 -0.001755 -0.005310 0.002134 0.003033
# 2 -0.003733 0.005574 -0.001113 0.002660 0.003704 -0.000211
# 3 -0.001755 -0.001113 0.018203 0.004194 0.004177 0.001865
# 4 -0.005310 0.002660 0.004194 0.037733 0.003543 0.001520
# 5 0.002134 0.003704 0.004177 0.003543 0.070152 0.015593
# 6 0.003033 -0.000211 0.001865 0.001520 0.015593 0.034852
#
#
# Mechanical properties :
#
#
# Convention : Reuss Voigt Hill
#
# Bulk Modulus (GPa) = 32.65917 55.45547 44.05732
# Shear Modulus (GPa) = 23.81319 33.92783 28.87051
#
# Velocity S-wave (km/s) = 3.26466 3.89679 3.59464
# Velocity P-wave (km/s) = 5.36915 6.71317 6.07842
#
# Compressibility (1/GPa) = 0.03061927
#
# Stress axis : x y z
#
# Youngs Moduli (GPa) = 49.89030 179.39051 54.93470
#
# Poissons Ratio (x) = 0.66965 0.09643
# Poissons Ratio (y) = 0.18624 0.06114
# Poissons Ratio (z) = 0.08757 0.19967
#
# Static dielectric constant tensor:
#      x y z
#    x 1.836930 -0.030410 0.026490 
#    y -0.030410 1.936880 -0.018710 
#    z 0.026490 -0.018710 1.938180 
# 
# From -- ./inp_files/235162.got.cif
#   From: 2010.05.17/outbox.cif.g08.bks.cpg/sg2_118_cif.got.tgz:235162.got - 2010.06.03 11:33:40.
