data_PCOD9112884
_publ_section_title
;
Structure prediction by ZEFSAII (Michael W. Deem and Ramdas Pophale) SiO2 
 PCOD9112884
Probable space group: P 2
;
_chemical_formula_sum "Si O2"
_cell_formula_units_Z 14
_cell_length_a 12.550973
_cell_length_b 9.851047
_cell_length_c 6.555793
_cell_angle_alpha 90.000000
_cell_angle_beta 58.852671
_cell_angle_gamma 90.000000
_cell_volume 693.709522
_symmetry_space_group_name_H-M "P 2"
_symmetry_group_IT_number 3
_symmetry_cell_setting 'monoclinic'
loop_
_space_group_symop_operation_xyz
x,y,z
-x,y,-z
loop_
_atom_site_type_symbol
_atom_site_label
_atom_site_fract_x
_atom_site_fract_y
_atom_site_fract_z
Si Si1 0.128773 0.758280 0.296368
Si Si2 0.376782 0.377308 0.233346
Si Si3 0.500000 0.447196 0.500000
Si Si4 0.129604 0.008698 0.988961
Si Si5 0.259667 0.954958 0.460148
Si Si6 0.500000 0.876562 0.000000
Si Si7 0.854820 0.202988 0.669901
Si Si8 0.640351 0.625089 0.029696
O O1 0.202903 0.817323 0.419325
O O2 0.214465 0.654147 0.091956
O O3 0.000000 0.699929 0.500000
O O4 0.107194 0.887483 0.172049
O O5 0.407595 0.366478 0.441562
O O6 0.248971 0.312852 0.284098
O O7 0.372568 0.534566 0.163159
O O8 0.500000 0.318041 0.000000
O O9 0.418079 0.539645 0.731008
O O10 0.236226 0.965158 0.723586
O O11 0.000000 0.029209 0.000000
O O12 0.163084 0.141462 0.086155
O O13 0.179253 0.077654 0.445457
O O14 0.399672 0.959655 0.231861
O O15 0.575456 0.771486 0.069484
O O16 0.000000 0.241004 0.500000
#
# Coordination Sequence:
#
# PCOD9112884 Si02
#       8
#     2   2   1   2   2   1   2   2
#     4  10  20  34  57  90 128 167 207 263 315 370
#     4  10  23  43  65  87 127 170 219 268 325 376
#     4  10  20  42  64  90 116 170 220 264 322 382
#     4  11  19  38  62  91 128 176 212 251 323 393
#     4  10  21  36  59  91 130 165 211 255 317 383
#     4  10  20  38  60  94 130 168 204 268 318 378
#     4  11  23  41  64  94 132 169 213 274 322 377
#     4  10  21  38  61  88 126 165 211 267 317 379
#
# _framework density 20.181356000000001
#
# number of rings (size 3 to 8) (size 9 to 14) (size 15 to 20)
#    0.000    1.714    5.000    0.857    3.000    2.857 
#    0.000    0.000    0.000    0.000    0.000    0.000 
#    0.000    0.000    0.000    0.000    0.000    0.000 
#
# Total GULP energy -78089.002398 kJ/mol
# GULP energy per Si atom -5577.785886 kJ/mol
# Density = 2.013542 g / cm^3
# Si number density = 20.181356 Si / 1000 Ang^3
#
#
#
# Elastic Constant Matrix: (Units=GPa)
#
#
# Indices 1 2 3 4 5 6 
#
# 1 126.0376 36.7714 61.5347 0.0000 -19.1654 0.0000
# 2 36.7714 36.7533 15.2720 0.0000 -3.9550 0.0000
# 3 61.5347 15.2720 121.7470 0.0000 -10.1269 0.0000
# 4 0.0000 0.0000 0.0000 4.6043 0.0000 1.3412
# 5 -19.1654 -3.9550 -10.1269 0.0000 48.4531 0.0000
# 6 0.0000 0.0000 0.0000 1.3412 0.0000 25.8950
#
#
#
# Elastic Compliance Matrix: (Units=1/GPa)
#
#
# Indices 1 2 3 4 5 6 
#
# 1 0.014757 -0.012023 -0.005645 0.000000 0.003676 0.000000
# 2 -0.012023 0.038625 0.001118 0.000000 -0.001369 0.000000
# 3 -0.005645 0.001118 0.010939 0.000000 0.000145 0.000000
# 4 0.000000 0.000000 0.000000 0.220517 0.000000 -0.011422
# 5 0.003676 -0.001369 0.000145 0.000000 0.022011 0.000000
# 6 0.000000 0.000000 0.000000 -0.011422 0.000000 0.039209
#
#
# Mechanical properties :
#
#
# Convention : Reuss Voigt Hill
#
# Bulk Modulus (GPa) = 32.02961 56.85489 44.44225
# Shear Modulus (GPa) = 12.83487 27.18780 20.01133
#
# Velocity S-wave (km/s) = 2.52459 3.67437 3.15235
# Velocity P-wave (km/s) = 4.93998 6.79959 5.94297
#
# Compressibility (1/GPa) = 0.03122111
#
# Stress axis : x y z
#
# Youngs Moduli (GPa) = 67.76667 25.88967 91.42015
#
# Poissons Ratio (x) = 0.31127 0.51602
# Poissons Ratio (y) = 0.81474 -0.10217
# Poissons Ratio (z) = 0.38251 -0.02893
#
# Static dielectric constant tensor:
#      x y z
#    x 1.769030 0.000000 -0.005930 
#    y 0.000000 1.728360 0.000000 
#    z -0.005930 0.000000 1.772370 
# 
# From -- ./inp_files/2462.got.cif
#   From: 2010.05.17/outbox.cif.g08.bks.cpg/sg3_2_cif.got.tgz:2462.got - 2010.06.03 18:33:08.
