data_PCOD9112728
_publ_section_title
;
Structure prediction by ZEFSAII (Michael W. Deem and Ramdas Pophale) SiO2 
 PCOD9112728
Probable space group: P 2
;
_chemical_formula_sum "Si O2"
_cell_formula_units_Z 13
_cell_length_a 4.964889
_cell_length_b 15.473383
_cell_length_c 6.740232
_cell_angle_alpha 90.000000
_cell_angle_beta 72.327435
_cell_angle_gamma 90.000000
_cell_volume 493.372094
_symmetry_space_group_name_H-M "P 2"
_symmetry_group_IT_number 3
_symmetry_cell_setting 'monoclinic'
loop_
_space_group_symop_operation_xyz
x,y,z
-x,y,-z
loop_
_atom_site_type_symbol
_atom_site_label
_atom_site_fract_x
_atom_site_fract_y
_atom_site_fract_z
Si Si1 0.189678 0.345430 0.151516
Si Si2 0.411489 0.179352 0.251137
Si Si3 0.722361 0.776542 0.694800
Si Si4 0.500000 0.661589 0.000000
Si Si5 0.500000 0.929755 0.500000
Si Si6 0.044108 0.534570 0.226261
Si Si7 0.500000 0.633018 0.500000
Si Si8 0.085240 0.071819 0.750634
O O1 0.253665 0.270760 0.298751
O O2 0.061429 0.433093 0.264284
O O3 0.500000 0.369919 0.000000
O O4 0.000000 0.317456 0.000000
O O5 0.694504 0.153115 0.302844
O O6 0.194343 0.099886 0.303141
O O7 0.500000 0.182933 0.000000
O O8 0.747637 0.737779 0.907586
O O9 0.609135 0.869541 0.656451
O O10 0.488399 0.706399 0.676857
O O11 0.000000 0.763167 0.500000
O O12 0.663150 0.586555 0.825870
O O13 0.247459 0.988309 0.638748
O O14 0.780861 0.576995 0.399085
O O15 0.000000 0.541739 0.000000
O O16 0.000000 0.059748 0.000000
#
# Coordination Sequence:
#
# PCOD9112728 Si02
#       8
#     2   2   2   1   1   2   1   2
#     4  10  19  34  63 102 138 177 232 279 330 401
#     4   9  18  37  65  97 131 177 216 276 331 403
#     4  11  25  42  66  93 130 170 223 291 348 404
#     4  12  22  42  68  92 128 182 226 270 346 416
#     4  11  28  44  65  98 130 170 223 290 350 411
#     4  11  22  37  65  97 134 180 228 275 333 404
#     4  11  22  42  61  94 138 176 223 284 340 403
#     4  10  22  42  69  93 132 173 223 269 348 409
#
# _framework density 26.349277000000001
#
# number of rings (size 3 to 8) (size 9 to 14) (size 15 to 20)
#    0.000    1.538    3.846    2.308    2.154    1.231 
#    1.385    0.769    0.000   12.923    0.000    0.000 
#    0.000    0.000    0.000    0.000    0.000    0.000 
#
# Total GULP energy -72513.279969 kJ/mol
# GULP energy per Si atom -5577.944613 kJ/mol
# Density = 2.628930 g / cm^3
# Si number density = 26.349277 Si / 1000 Ang^3
#
#
#
# Elastic Constant Matrix: (Units=GPa)
#
#
# Indices 1 2 3 4 5 6 
#
# 1 130.1881 50.4935 30.8638 0.0000 -10.6787 0.0000
# 2 50.4935 203.4228 58.8324 0.0000 -17.6712 0.0000
# 3 30.8638 58.8324 170.0341 0.0000 -38.5058 0.0000
# 4 0.0000 0.0000 0.0000 48.2694 0.0000 -2.1595
# 5 -10.6787 -17.6712 -38.5058 0.0000 49.9809 0.0000
# 6 0.0000 0.0000 0.0000 -2.1595 0.0000 63.5106
#
#
#
# Elastic Compliance Matrix: (Units=1/GPa)
#
#
# Indices 1 2 3 4 5 6 
#
# 1 0.008640 -0.001865 -0.000792 0.000000 0.000576 0.000000
# 2 -0.001865 0.005879 -0.001593 0.000000 0.000453 0.000000
# 3 -0.000792 -0.001593 0.007765 0.000000 0.005250 0.000000
# 4 0.000000 0.000000 0.000000 0.020749 0.000000 0.000705
# 5 0.000576 0.000453 0.005250 0.000000 0.024335 0.000000
# 6 0.000000 0.000000 0.000000 0.000705 0.000000 0.015769
#
#
# Mechanical properties :
#
#
# Convention : Reuss Voigt Hill
#
# Bulk Modulus (GPa) = 72.55735 87.11383 79.83559
# Shear Modulus (GPa) = 51.95748 56.58256 54.27002
#
# Velocity S-wave (km/s) = 4.44540 4.63904 4.54325
# Velocity P-wave (km/s) = 7.34474 7.86303 7.60830
#
# Compressibility (1/GPa) = 0.01378220
#
# Stress axis : x y z
#
# Youngs Moduli (GPa) = 115.74386 170.09884 128.78227
#
# Poissons Ratio (x) = 0.31729 0.10205
# Poissons Ratio (y) = 0.21590 0.20515
# Poissons Ratio (z) = 0.09172 0.27097
#
# Static dielectric constant tensor:
#      x y z
#    x 1.469010 0.000000 -0.610920 
#    y 0.000000 2.043370 0.000000 
#    z -0.610920 0.000000 1.481240 
# 
# From -- ./inp_files/4429.got.cif
#   From: 2010.05.17/outbox.cif.g08.bks.cpg/sg3_3_cif.got.tgz:4429.got - 2010.06.03 18:33:08.
