data_PCOD9112966
_publ_section_title
;
Structure prediction by ZEFSAII (Michael W. Deem and Ramdas Pophale) SiO2 
 PCOD9112966
Probable space group: P 2
;
_chemical_formula_sum "Si O2"
_cell_formula_units_Z 13
_cell_length_a 7.399276
_cell_length_b 9.803908
_cell_length_c 11.272462
_cell_angle_alpha 90.000000
_cell_angle_beta 136.003965
_cell_angle_gamma 90.000000
_cell_volume 567.998755
_symmetry_space_group_name_H-M "P 2"
_symmetry_group_IT_number 3
_symmetry_cell_setting 'monoclinic'
loop_
_space_group_symop_operation_xyz
x,y,z
-x,y,-z
loop_
_atom_site_type_symbol
_atom_site_label
_atom_site_fract_x
_atom_site_fract_y
_atom_site_fract_z
Si Si1 0.663201 0.971240 0.462963
Si Si2 0.448561 0.360131 0.142589
Si Si3 0.055848 0.723061 0.653387
Si Si4 0.924632 0.467961 0.201304
Si Si5 0.718987 0.051869 0.928745
Si Si6 0.500000 0.850764 0.000000
Si Si7 0.783439 0.281976 0.502506
O O1 0.500000 0.931474 0.500000
O O2 0.481154 0.988109 0.261655
O O3 0.887581 0.859684 0.561787
O O4 0.763145 0.124618 0.527331
O O5 0.684622 0.425986 0.177820
O O6 0.536499 0.348018 0.319805
O O7 0.385273 0.201263 0.082454
O O8 0.196916 0.444656 0.984373
O O9 0.980500 0.618028 0.721064
O O10 0.348775 0.762331 0.830280
O O11 0.000000 0.651583 0.500000
O O12 0.139618 0.362612 0.344762
O O13 0.708614 0.949207 0.034588
O O14 0.000000 0.064822 0.000000
O O15 0.000000 0.286338 0.500000
#
# Coordination Sequence:
#
# PCOD9112966 Si02
#       7
#     2   2   2   2   2   1   2
#     4  11  24  42  65  98 142 176 230 296 344 413
#     4   9  19  36  60  92 126 160 215 275 334 390
#     4  12  24  41  65  99 137 183 235 275 347 424
#     4  10  20  36  65  93 126 172 220 277 333 410
#     4  11  24  42  69 107 140 177 234 296 352 408
#     4  12  24  40  68 100 140 186 230 282 350 418
#     4   9  19  36  63  93 122 160 217 278 335 397
#
# _framework density 22.887374999999999
#
# number of rings (size 3 to 8) (size 9 to 14) (size 15 to 20)
#    0.000    1.538    1.538    4.615    8.615    0.000 
#    0.000    0.769    3.385    1.846    0.000    0.000 
#    0.000    0.000    0.000    0.000    0.000    0.000 
#
# Total GULP energy -72607.283386 kJ/mol
# GULP energy per Si atom -5585.175645 kJ/mol
# Density = 2.283528 g / cm^3
# Si number density = 22.887375 Si / 1000 Ang^3
#
#
#
# Elastic Constant Matrix: (Units=GPa)
#
#
# Indices 1 2 3 4 5 6 
#
# 1 77.4986 12.1071 6.7553 0.0000 -5.2740 0.0000
# 2 12.1071 89.8770 51.7045 0.0000 8.9924 0.0000
# 3 6.7553 51.7045 132.4054 0.0000 16.7249 0.0000
# 4 0.0000 0.0000 0.0000 48.4671 0.0000 -62.0589
# 5 -5.2740 8.9924 16.7249 0.0000 9.5225 0.0000
# 6 0.0000 0.0000 0.0000 -62.0589 0.0000 177.5932
#
#
#
# Elastic Compliance Matrix: (Units=1/GPa)
#
#
# Indices 1 2 3 4 5 6 
#
# 1 0.014252 -0.002381 -0.001386 0.000000 0.012576 0.000000
# 2 -0.002381 0.014918 -0.004829 0.000000 -0.006924 0.000000
# 3 -0.001386 -0.004829 0.011605 0.000000 -0.016589 0.000000
# 4 0.000000 0.000000 0.000000 0.037340 0.000000 0.013048
# 5 0.012576 -0.006924 -0.016589 0.000000 0.147655 0.000000
# 6 0.000000 0.000000 0.000000 0.013048 0.000000 0.010190
#
#
# Mechanical properties :
#
#
# Convention : Reuss Voigt Hill
#
# Bulk Modulus (GPa) = 42.40469 48.99053 45.69761
# Shear Modulus (GPa) = 19.15611 62.39747 40.77679
#
# Velocity S-wave (km/s) = 2.89619 5.22705 4.22551
# Velocity P-wave (km/s) = 5.45451 7.60795 6.61938
#
# Compressibility (1/GPa) = 0.02358229
#
# Stress axis : x y z
#
# Youngs Moduli (GPa) = 70.16546 67.03274 86.17242
#
# Poissons Ratio (x) = 0.15959 0.11943
# Poissons Ratio (y) = 0.16705 0.41617
# Poissons Ratio (z) = 0.09725 0.32373
#
# Static dielectric constant tensor:
#      x y z
#    x 1.310220 0.000000 0.157090 
#    y 0.000000 1.828030 0.000000 
#    z 0.157090 0.000000 1.875530 
# 
# From -- ./inp_files/10837.got.cif
#   From: 2010.05.17/outbox.cif.g08.bks.cpg/sg3_6_cif.got.tgz:10837.got - 2010.06.03 18:33:08.
