data_PCOD9112273
_publ_section_title
;
Structure prediction by ZEFSAII (Michael W. Deem and Ramdas Pophale) SiO2 
 PCOD9112273
Probable space group: P -1
;
_chemical_formula_sum "Si O2"
_cell_formula_units_Z 10
_cell_length_a 11.193533
_cell_length_b 6.789468
_cell_length_c 10.233745
_cell_angle_alpha 115.240308
_cell_angle_beta 139.526020
_cell_angle_gamma 82.862982
_cell_volume 429.291564
_symmetry_space_group_name_H-M "P -1"
_symmetry_group_IT_number 2
_symmetry_cell_setting 'triclinic'
loop_
_space_group_symop_operation_xyz
x,y,z
-x,-y,-z
loop_
_atom_site_type_symbol
_atom_site_label
_atom_site_fract_x
_atom_site_fract_y
_atom_site_fract_z
Si Si1 0.324998 0.071000 0.015295
Si Si2 0.428041 0.057357 0.592203
Si Si3 0.011667 0.750463 0.486216
Si Si4 0.000755 0.313132 0.835515
Si Si5 0.614575 0.494755 0.226328
O O1 0.424918 0.977839 0.187516
O O2 0.499450 0.255504 0.133291
O O3 0.173864 0.204066 0.968998
O O4 0.204809 0.855222 0.764034
O O5 0.209263 0.887361 0.388301
O O6 0.500000 0.000000 0.500000
O O7 0.423254 0.313930 0.658845
O O8 0.992072 0.614845 0.292903
O O9 0.840020 0.606709 0.400262
O O10 0.000000 0.000000 0.500000
O O11 0.000000 0.500000 0.000000
O O12 0.500000 0.500000 0.000000
#
# Coordination Sequence:
#
# PCOD9112273 Si02
#       5
#     2   2   2   2   2
#     4  11  25  50  74 105 146 189 242 298 358 425
#     4  12  28  47  73 107 145 192 245 297 358 429
#     4  10  20  45  73 105 146 181 240 296 347 439
#     4  11  23  45  73 104 149 185 233 299 355 427
#     4  12  22  45  78 106 145 189 235 298 360 426
#
# _framework density 23.294191999999999
#
# number of rings (size 3 to 8) (size 9 to 14) (size 15 to 20)
#    0.000    0.800    8.000    1.200    0.000    7.200 
#    7.200    2.000    0.000    0.000    0.000    0.000 
#    0.000    0.000    0.000    0.000    0.000    0.000 
#
# Total GULP energy -55938.972769 kJ/mol
# GULP energy per Si atom -5593.897277 kJ/mol
# Density = 2.324117 g / cm^3
# Si number density = 23.294192 Si / 1000 Ang^3
#
#
#
# Elastic Constant Matrix: (Units=GPa)
#
#
# Indices 1 2 3 4 5 6 
#
# 1 199.0884 55.9332 78.2174 8.7668 9.3158 -5.9158
# 2 55.9332 106.2279 64.0316 11.2043 8.8764 15.2840
# 3 78.2174 64.0316 168.5318 9.1780 10.9989 2.6700
# 4 8.7668 11.2043 9.1780 37.4257 -6.1496 -9.3540
# 5 9.3158 8.8764 10.9989 -6.1496 58.1615 1.8343
# 6 -5.9158 15.2840 2.6700 -9.3540 1.8343 40.8903
#
#
#
# Elastic Compliance Matrix: (Units=1/GPa)
#
#
# Indices 1 2 3 4 5 6 
#
# 1 0.006639 -0.002488 -0.002158 0.000188 -0.000321 0.002089
# 2 -0.002488 0.014681 -0.003971 -0.004716 -0.001381 -0.006605
# 3 -0.002158 -0.003971 0.008502 -0.000366 -0.000713 0.000565
# 4 0.000188 -0.004716 -0.000366 0.030977 0.003759 0.008732
# 5 -0.000321 -0.001381 -0.000713 0.003759 0.017970 0.000570
# 6 0.002089 -0.006605 0.000565 0.008732 0.000570 0.029162
#
#
# Mechanical properties :
#
#
# Convention : Reuss Voigt Hill
#
# Bulk Modulus (GPa) = 79.45517 96.69029 88.07273
# Shear Modulus (GPa) = 38.65167 45.67322 42.16244
#
# Velocity S-wave (km/s) = 4.07785 4.43280 4.25902
# Velocity P-wave (km/s) = 7.50702 8.23396 7.87887
#
# Compressibility (1/GPa) = 0.01258571
#
# Stress axis : x y z
#
# Youngs Moduli (GPa) = 150.63363 68.11569 117.62568
#
# Poissons Ratio (x) = 0.16949 0.25384
# Poissons Ratio (y) = 0.37481 0.46714
# Poissons Ratio (z) = 0.32508 0.27051
#
# Static dielectric constant tensor:
#      x y z
#    x 1.974540 -0.110120 0.046020 
#    y -0.110120 1.976680 -0.035160 
#    z 0.046020 -0.035160 1.884750 
# 
# From -- ./inp_files/240777.got.cif
#   From: 2010.05.17/outbox.cif.g08.bks.cpg/sg2_121_cif.got.tgz:240777.got - 2010.06.03 11:33:40.
