data_PCOD9112572
_publ_section_title
;
Structure prediction by ZEFSAII (Michael W. Deem and Ramdas Pophale) SiO2 
 PCOD9112572
Probable space group: P 2
;
_chemical_formula_sum "Si O2"
_cell_formula_units_Z 16
_cell_length_a 12.146843
_cell_length_b 7.420237
_cell_length_c 9.516515
_cell_angle_alpha 90.000000
_cell_angle_beta 56.911077
_cell_angle_gamma 90.000000
_cell_volume 718.641135
_symmetry_space_group_name_H-M "P 2"
_symmetry_group_IT_number 3
_symmetry_cell_setting 'monoclinic'
loop_
_space_group_symop_operation_xyz
x,y,z
-x,y,-z
loop_
_atom_site_type_symbol
_atom_site_label
_atom_site_fract_x
_atom_site_fract_y
_atom_site_fract_z
Si Si1 0.637704 0.258200 0.702821
Si Si2 0.858110 0.727424 0.986024
Si Si3 0.636757 0.206798 0.034270
Si Si4 0.127626 0.881948 0.728159
Si Si5 0.580545 0.779542 0.076993
Si Si6 0.919177 0.252716 0.411636
Si Si7 0.406571 0.882537 0.432278
Si Si8 0.094797 0.336111 0.043534
O O1 0.483313 0.315396 0.808743
O O2 0.774007 0.334063 0.544154
O O3 0.627181 0.061743 0.634794
O O4 0.658685 0.254989 0.856215
O O5 0.870944 0.530246 0.043984
O O6 0.989226 0.778847 0.810995
O O7 0.845767 0.870074 0.121908
O O8 0.728058 0.711751 0.984446
O O9 0.599463 0.996384 0.055518
O O10 0.771661 0.234364 0.019933
O O11 0.264854 0.805442 0.572907
O O12 0.104333 0.069506 0.662421
O O13 0.493026 0.751570 0.275714
O O14 0.500000 0.714148 0.000000
O O15 0.000000 0.218229 0.500000
O O16 0.014692 0.364136 0.243208
O O17 0.500000 0.929698 0.500000
O O18 0.000000 0.239705 0.000000
#
# Coordination Sequence:
#
# PCOD9112572 Si02
#       8
#     2   2   2   2   2   2   2   2
#     4   9  19  37  60  97 131 153 212 281 327 374
#     4  11  24  44  61  95 136 175 223 260 330 405
#     4  10  19  38  69  93 129 169 213 275 326 387
#     4  10  22  39  68  93 127 169 222 284 318 379
#     4  11  21  40  67  99 125 167 220 277 331 383
#     4  11  23  40  68 104 129 163 225 283 331 380
#     4  10  18  33  62  99 127 155 206 280 335 367
#     4  12  26  43  65  92 138 187 215 264 328 403
#
# _framework density 22.264241999999999
#
# number of rings (size 3 to 8) (size 9 to 14) (size 15 to 20)
#    0.000    1.500    6.250    0.750    3.500    1.000 
#    2.250    3.125    2.750    0.000    0.000    0.000 
#    0.000    0.000    0.000    0.000    0.000    0.000 
#
# Total GULP energy -89177.703312 kJ/mol
# GULP energy per Si atom -5573.606457 kJ/mol
# Density = 2.221357 g / cm^3
# Si number density = 22.264242 Si / 1000 Ang^3
#
#
#
# Elastic Constant Matrix: (Units=GPa)
#
#
# Indices 1 2 3 4 5 6 
#
# 1 210.1935 14.2457 67.3282 0.0000 -21.9653 0.0000
# 2 14.2457 30.2397 20.3589 0.0000 8.7244 0.0000
# 3 67.3282 20.3589 114.4650 0.0000 -29.1411 0.0000
# 4 0.0000 0.0000 0.0000 5.5722 0.0000 4.5959
# 5 -21.9653 8.7244 -29.1411 0.0000 48.3357 0.0000
# 6 0.0000 0.0000 0.0000 4.5959 0.0000 33.0451
#
#
#
# Elastic Compliance Matrix: (Units=1/GPa)
#
#
# Indices 1 2 3 4 5 6 
#
# 1 0.005906 -0.001055 -0.003018 0.000000 0.001055 0.000000
# 2 -0.001055 0.045868 -0.011538 0.000000 -0.015715 0.000000
# 3 -0.003018 -0.011538 0.015055 0.000000 0.009788 0.000000
# 4 0.000000 0.000000 0.000000 0.202718 0.000000 -0.028194
# 5 0.001055 -0.015715 0.009788 0.000000 0.029906 0.000000
# 6 0.000000 0.000000 0.000000 -0.028194 0.000000 0.034183
#
#
# Mechanical properties :
#
#
# Convention : Reuss Voigt Hill
#
# Bulk Modulus (GPa) = 28.08399 62.08485 45.08442
# Shear Modulus (GPa) = 13.27221 34.25494 23.76358
#
# Velocity S-wave (km/s) = 2.44421 3.92671 3.27057
# Velocity P-wave (km/s) = 4.53948 6.96453 5.87842
#
# Compressibility (1/GPa) = 0.03560747
#
# Stress axis : x y z
#
# Youngs Moduli (GPa) = 169.32374 21.80159 66.42135
#
# Poissons Ratio (x) = 0.02300 0.20043
# Poissons Ratio (y) = 0.17863 0.76640
# Poissons Ratio (z) = 0.51095 0.25156
#
# Static dielectric constant tensor:
#      x y z
#    x 1.839640 0.000000 -0.037650 
#    y 0.000000 1.823920 0.000000 
#    z -0.037650 0.000000 1.841120 
# 
# From -- ./inp_files/7449.got.cif
#   From: 2010.05.17/outbox.cif.g08.bks.cpg/sg3_4_cif.got.tgz:7449.got - 2010.06.03 18:33:08.
