data_PCOD9112418
_publ_section_title
;
Structure prediction by ZEFSAII (Michael W. Deem and Ramdas Pophale) SiO2 
 PCOD9112418
Probable space group: P -1
;
_chemical_formula_sum "Si O2"
_cell_formula_units_Z 16
_cell_length_a 13.862964
_cell_length_b 19.046348
_cell_length_c 9.326110
_cell_angle_alpha 42.525190
_cell_angle_beta 39.566936
_cell_angle_gamma 23.103629
_cell_volume 611.631280
_symmetry_space_group_name_H-M "P -1"
_symmetry_group_IT_number 2
_symmetry_cell_setting 'triclinic'
loop_
_space_group_symop_operation_xyz
x,y,z
-x,-y,-z
loop_
_atom_site_type_symbol
_atom_site_label
_atom_site_fract_x
_atom_site_fract_y
_atom_site_fract_z
Si Si1 0.794548 0.553132 0.345821
Si Si2 0.110153 0.259404 0.633537
Si Si3 0.348524 0.975223 0.237034
Si Si4 0.186344 0.884614 0.105442
Si Si5 0.336547 0.975662 0.575999
Si Si6 0.494485 0.487313 0.696552
Si Si7 0.264648 0.441646 0.906853
Si Si8 0.072763 0.824626 0.828182
O O1 0.563172 0.764758 0.296572
O O2 0.769223 0.502087 0.303471
O O3 0.859004 0.459874 0.559274
O O4 0.057107 0.471747 0.135588
O O5 0.344751 0.198343 0.519642
O O6 0.235845 0.131533 0.544070
O O7 0.024006 0.216423 0.901560
O O8 0.253108 0.033571 0.421351
O O9 0.115768 0.074551 0.246139
O O10 0.500000 0.000000 0.000000
O O11 0.258284 0.723701 0.227689
O O12 0.444090 0.765562 0.089831
O O13 0.965127 0.053390 0.211337
O O14 0.224318 0.936258 0.844282
O O15 0.500000 0.500000 0.500000
O O16 0.251745 0.538520 0.894420
O O17 0.372419 0.641602 0.707268
#
# Coordination Sequence:
#
# PCOD9112418 Si02
#       8
#     2   2   2   2   2   2   2   2
#     4  11  21  33  57  85 127 157 183 238 293 357
#     4  10  21  34  53  81 120 162 190 226 292 356
#     4  12  23  31  52  87 122 158 196 235 283 357
#     4   9  20  40  54  86 119 152 194 239 290 348
#     4  10  21  32  53  80 126 156 191 231 289 350
#     4  10  22  40  65  84 110 154 207 252 290 341
#     4   9  20  34  55  85 119 151 193 230 295 340
#     4  11  22  39  57  89 117 151 202 241 290 359
#
# _framework density 26.159552999999999
#
# number of rings (size 3 to 8) (size 9 to 14) (size 15 to 20)
#    0.750    1.000    3.750    0.750    7.000    1.000 
#    0.000    0.000    0.000    1.500    0.000    0.000 
#    0.000    0.000    0.000    0.000    0.000    0.000 
#
# Total GULP energy -89534.581120 kJ/mol
# GULP energy per Si atom -5595.911320 kJ/mol
# Density = 2.610001 g / cm^3
# Si number density = 26.159553 Si / 1000 Ang^3
#
#
#
# Elastic Constant Matrix: (Units=GPa)
#
#
# Indices 1 2 3 4 5 6 
#
# 1 103.5685 40.4895 29.4774 6.5384 18.0671 6.2710
# 2 40.4895 159.4226 40.4196 -11.4899 9.9751 28.0669
# 3 29.4774 40.4196 124.1694 -13.3250 22.8044 4.8922
# 4 6.5384 -11.4899 -13.3250 44.1839 -6.8136 2.9831
# 5 18.0671 9.9751 22.8044 -6.8136 46.3460 3.2883
# 6 6.2710 28.0669 4.8922 2.9831 3.2883 34.8249
#
#
#
# Elastic Compliance Matrix: (Units=1/GPa)
#
#
# Indices 1 2 3 4 5 6 
#
# 1 0.012098 -0.002857 -0.001664 -0.003707 -0.003901 0.001044
# 2 -0.002857 0.008756 -0.001797 0.002757 0.000988 -0.006620
# 3 -0.001664 -0.001797 0.009900 0.002183 -0.003551 0.000505
# 4 -0.003707 0.002757 0.002183 0.025445 0.003831 -0.004403
# 5 -0.003901 0.000988 -0.003551 0.003831 0.025360 -0.002318
# 6 0.001044 -0.006620 0.000505 -0.004403 -0.002318 0.034387
#
#
# Mechanical properties :
#
#
# Convention : Reuss Voigt Hill
#
# Bulk Modulus (GPa) = 55.19780 67.54817 61.37299
# Shear Modulus (GPa) = 37.14126 43.52255 40.33191
#
# Velocity S-wave (km/s) = 3.77211 4.08332 3.93079
# Velocity P-wave (km/s) = 6.33387 6.93606 6.64180
#
# Compressibility (1/GPa) = 0.01811666
#
# Stress axis : x y z
#
# Youngs Moduli (GPa) = 82.66090 114.20478 101.01063
#
# Poissons Ratio (x) = 0.32634 0.16811
# Poissons Ratio (y) = 0.23620 0.18150
# Poissons Ratio (z) = 0.13757 0.20520
#
# Static dielectric constant tensor:
#      x y z
#    x 2.142200 -0.047460 -0.060250 
#    y -0.047460 2.092130 -0.029170 
#    z -0.060250 -0.029170 2.065350 
# 
# From -- ./inp_files/200698.got.cif
#   From: 2010.05.17/outbox.cif.g08.bks.cpg/sg2_101_cif.got.tgz:200698.got - 2010.06.03 11:33:40.
