data_PCOD9112320
_publ_section_title
;
Structure prediction by ZEFSAII (Michael W. Deem and Ramdas Pophale) SiO2 
 PCOD9112320
Probable space group: P -1
;
_chemical_formula_sum "Si O2"
_cell_formula_units_Z 10
_cell_length_a 8.944515
_cell_length_b 14.139324
_cell_length_c 12.521381
_cell_angle_alpha 149.023270
_cell_angle_beta 143.176013
_cell_angle_gamma 58.820237
_cell_volume 409.102215
_symmetry_space_group_name_H-M "P -1"
_symmetry_group_IT_number 2
_symmetry_cell_setting 'triclinic'
loop_
_space_group_symop_operation_xyz
x,y,z
-x,-y,-z
loop_
_atom_site_type_symbol
_atom_site_label
_atom_site_fract_x
_atom_site_fract_y
_atom_site_fract_z
Si Si1 0.762428 0.532809 0.107648
Si Si2 0.830497 0.862568 0.873897
Si Si3 0.031215 0.015437 0.685209
Si Si4 0.649280 0.423577 0.421784
Si Si5 0.255606 0.744622 0.347117
O O1 0.889115 0.760416 0.336981
O O2 0.055713 0.563939 0.361216
O O3 0.500000 0.500000 0.000000
O O4 0.628247 0.316811 0.750404
O O5 0.751300 0.614056 0.577489
O O6 0.517338 0.844519 0.678816
O O7 0.982501 0.955954 0.166265
O O8 0.000000 0.000000 0.000000
O O9 0.624419 0.821216 0.993820
O O10 0.857853 0.106571 0.613722
O O11 0.500000 0.500000 0.500000
O O12 0.000000 0.500000 0.000000
#
# Coordination Sequence:
#
# PCOD9112320 Si02
#       5
#     2   2   2   2   2
#     4  12  26  43  74 110 142 181 238 302 355 405
#     4  11  23  41  72 102 140 188 228 288 363 412
#     4  11  24  48  73  98 146 190 234 291 352 423
#     4  10  20  46  69  94 142 191 224 279 353 424
#     4  12  24  47  74 104 140 189 242 284 352 433
#
# _framework density 24.443770000000001
#
# number of rings (size 3 to 8) (size 9 to 14) (size 15 to 20)
#    0.000    0.800    6.000    3.000    2.800    2.400 
#    3.600    2.000    0.000    0.000    0.000    0.000 
#    0.000    0.000    0.000    0.000    0.000    0.000 
#
# Total GULP energy -55990.862075 kJ/mol
# GULP energy per Si atom -5599.086207 kJ/mol
# Density = 2.438813 g / cm^3
# Si number density = 24.443770 Si / 1000 Ang^3
#
#
#
# Elastic Constant Matrix: (Units=GPa)
#
#
# Indices 1 2 3 4 5 6 
#
# 1 100.4024 55.3279 28.5981 1.8096 14.8667 -6.7837
# 2 55.3279 241.6437 66.0893 4.1656 18.5238 -12.1418
# 3 28.5981 66.0893 93.8994 11.6840 9.6412 -5.8627
# 4 1.8096 4.1656 11.6840 55.4629 2.3727 7.5090
# 5 14.8667 18.5238 9.6412 2.3727 38.6000 5.6872
# 6 -6.7837 -12.1418 -5.8627 7.5090 5.6872 54.0356
#
#
#
# Elastic Compliance Matrix: (Units=1/GPa)
#
#
# Indices 1 2 3 4 5 6 
#
# 1 0.012169 -0.001933 -0.001930 0.000136 -0.003467 0.001230
# 2 -0.001933 0.005587 -0.003199 0.000268 -0.001266 0.000761
# 3 -0.001930 -0.003199 0.014022 -0.002743 -0.001213 0.001069
# 4 0.000136 0.000268 -0.002743 0.018977 -0.000246 -0.002832
# 5 -0.003467 -0.001266 -0.001213 -0.000246 0.028733 -0.003841
# 6 0.001230 0.000761 0.001069 -0.002832 -0.003841 0.019746
#
#
# Mechanical properties :
#
#
# Convention : Reuss Voigt Hill
#
# Bulk Modulus (GPa) = 56.64778 81.77512 69.21145
# Shear Modulus (GPa) = 41.93155 48.68170 45.30663
#
# Velocity S-wave (km/s) = 4.14627 4.46755 4.30990
# Velocity P-wave (km/s) = 6.79316 7.75494 7.28993
#
# Compressibility (1/GPa) = 0.01765294
#
# Stress axis : x y z
#
# Youngs Moduli (GPa) = 82.17695 178.99949 71.31819
#
# Poissons Ratio (x) = 0.34606 0.13762
# Poissons Ratio (y) = 0.15887 0.22815
# Poissons Ratio (z) = 0.15858 0.57264
#
# Static dielectric constant tensor:
#      x y z
#    x 2.102100 0.017710 -0.026040 
#    y 0.017710 1.927180 -0.008010 
#    z -0.026040 -0.008010 1.992240 
# 
# From -- ./inp_files/393333.got.cif
#   From: 2010.05.17/outbox.cif.g08.bks.cpg/sg2_197_cif.got.tgz:393333.got - 2010.06.03 11:33:40.
