data_PCOD9112014
_publ_section_title
;
Structure prediction by ZEFSAII (Michael W. Deem and Ramdas Pophale) SiO2 
 PCOD9112014
Probable space group: P -1
;
_chemical_formula_sum "Si O2"
_cell_formula_units_Z 14
_cell_length_a 22.761454
_cell_length_b 12.080245
_cell_length_c 19.271571
_cell_angle_alpha 27.973559
_cell_angle_beta 161.517358
_cell_angle_gamma 143.131663
_cell_volume 762.369585
_symmetry_space_group_name_H-M "P -1"
_symmetry_group_IT_number 2
_symmetry_cell_setting 'triclinic'
loop_
_space_group_symop_operation_xyz
x,y,z
-x,-y,-z
loop_
_atom_site_type_symbol
_atom_site_label
_atom_site_fract_x
_atom_site_fract_y
_atom_site_fract_z
Si Si1 0.359086 0.379316 0.754751
Si Si2 0.825596 0.079887 0.706256
Si Si3 0.347773 0.430393 0.547265
Si Si4 0.251991 0.984249 0.613910
Si Si5 0.000942 0.811022 0.543345
Si Si6 0.285158 0.382945 0.176251
Si Si7 0.935707 0.775751 0.868337
O O1 0.282421 0.641051 0.559685
O O2 0.353130 0.423319 0.640630
O O3 0.210254 0.216511 0.693636
O O4 0.573848 0.236994 0.093073
O O5 0.687880 0.895981 0.663905
O O6 0.910948 0.003786 0.767394
O O7 0.000000 0.000000 0.000000
O O8 0.345383 0.165116 0.663299
O O9 0.528880 0.517501 0.674651
O O10 0.151707 0.615644 0.200679
O O11 0.141488 0.133334 0.343186
O O12 0.107649 0.889676 0.554105
O O13 0.124081 0.552074 0.853720
O O14 0.000000 0.000000 0.500000
O O15 0.194239 0.382132 0.151548
#
# Coordination Sequence:
#
# PCOD9112014 Si02
#       7
#     2   2   2   2   2   2   2
#     4  12  22  40  67  90 127 164 212 259 302 370
#     4  10  20  44  67  86 123 170 215 254 295 375
#     4  12  21  40  68  93 122 169 208 253 312 381
#     4  12  26  39  63 100 132 156 205 266 322 358
#     4  12  21  38  64  95 124 164 206 256 310 373
#     4  10  22  39  66  93 114 168 219 240 310 371
#     4  10  24  44  61  94 130 162 207 265 308 365
#
# _framework density 18.363797999999999
#
# number of rings (size 3 to 8) (size 9 to 14) (size 15 to 20)
#    0.857    0.000    7.143    1.714    0.000    2.857 
#    2.571    0.714    0.000    0.000    0.000    0.000 
#    0.000    0.000    0.000    0.000    0.000    0.000 
#
# Total GULP energy -78150.954336 kJ/mol
# GULP energy per Si atom -5582.211024 kJ/mol
# Density = 1.832200 g / cm^3
# Si number density = 18.363798 Si / 1000 Ang^3
#
#
#
# Elastic Constant Matrix: (Units=GPa)
#
#
# Indices 1 2 3 4 5 6 
#
# 1 71.1721 13.4238 14.1997 8.6254 -3.4404 29.5760
# 2 13.4238 18.8755 -15.6238 5.4589 -8.1618 15.8091
# 3 14.1997 -15.6238 70.0726 7.1611 1.0698 19.0647
# 4 8.6254 5.4589 7.1611 24.8451 3.4636 17.0293
# 5 -3.4404 -8.1618 1.0698 3.4636 24.9546 -3.6842
# 6 29.5760 15.8091 19.0647 17.0293 -3.6842 40.3545
#
#
#
# Elastic Compliance Matrix: (Units=1/GPa)
#
#
# Indices 1 2 3 4 5 6 
#
# 1 0.021010 -0.013281 -0.004884 0.004376 -0.003327 -0.010039
# 2 -0.013281 0.387933 0.142786 0.005883 0.087970 -0.204148
# 3 -0.004884 0.142786 0.069052 0.003611 0.030201 -0.083746
# 4 0.004376 0.005883 0.003611 0.061346 -0.011180 -0.034127
# 5 -0.003327 0.087970 0.030201 -0.011180 0.063359 -0.035790
# 6 -0.010039 -0.204148 -0.083746 -0.034127 -0.035790 0.162812
#
#
# Mechanical properties :
#
#
# Convention : Reuss Voigt Hill
#
# Bulk Modulus (GPa) = 1.37507 20.45773 10.91640
# Shear Modulus (GPa) = 6.59036 27.90554 17.24795
#
# Velocity S-wave (km/s) = 1.89646 3.90243 3.06802
# Velocity P-wave (km/s) = 2.35496 5.60978 4.30207
#
# Compressibility (1/GPa) = 0.72723613
#
# Stress axis : x y z
#
# Youngs Moduli (GPa) = 47.59560 2.57776 14.48189
#
# Poissons Ratio (x) = 0.03424 0.07073
# Poissons Ratio (y) = 0.63213 -2.06781
# Poissons Ratio (z) = 0.23246 -0.36807
#
# Static dielectric constant tensor:
#      x y z
#    x 1.616180 -0.006460 0.012790 
#    y -0.006460 1.641200 -0.013260 
#    z 0.012790 -0.013260 1.622330 
# 
# From -- ./inp_files/179604.got.cif
#   From: 2010.05.17/outbox.cif.g08.bks.cpg/sg2_90_cif.got.tgz:179604.got - 2010.06.03 11:33:40.
