data_PCOD9112306
_publ_section_title
;
Structure prediction by ZEFSAII (Michael W. Deem and Ramdas Pophale) SiO2 
 PCOD9112306
Probable space group: P -1
;
_chemical_formula_sum "Si O2"
_cell_formula_units_Z 15
_cell_length_a 22.387241
_cell_length_b 11.646886
_cell_length_c 13.727477
_cell_angle_alpha 148.341633
_cell_angle_beta 23.754641
_cell_angle_gamma 147.231141
_cell_volume 723.715691
_symmetry_space_group_name_H-M "P -1"
_symmetry_group_IT_number 2
_symmetry_cell_setting 'triclinic'
loop_
_space_group_symop_operation_xyz
x,y,z
-x,-y,-z
loop_
_atom_site_type_symbol
_atom_site_label
_atom_site_fract_x
_atom_site_fract_y
_atom_site_fract_z
Si Si1 0.850941 0.446363 0.749970
Si Si2 0.674163 0.981622 0.220850
Si Si3 0.140406 0.530912 0.625797
Si Si4 0.206902 0.709456 0.072637
Si Si5 0.678448 0.824127 0.882057
Si Si6 0.307278 0.219980 0.748659
Si Si7 0.321485 0.725992 0.305569
Si Si8 0.500000 0.500000 0.500000
O O1 0.837152 0.276360 0.737513
O O2 0.714580 0.342801 0.801631
O O3 0.000000 0.500000 0.500000
O O4 0.841049 0.689827 0.981243
O O5 0.683245 0.815481 0.176012
O O6 0.500000 0.000000 0.500000
O O7 0.792372 0.227697 0.246540
O O8 0.704562 0.898049 0.009369
O O9 0.224829 0.351749 0.411364
O O10 0.200055 0.577539 0.458037
O O11 0.955343 0.435271 0.837446
O O12 0.267583 0.952634 0.105006
O O13 0.343208 0.588737 0.783695
O O14 0.493388 0.719055 0.070502
O O15 0.443211 0.410801 0.631119
O O16 0.309751 0.983186 0.524375
#
# Coordination Sequence:
#
# PCOD9112306 Si02
#       8
#     2   2   2   2   2   2   2   1
#     4  11  24  42  67  95 132 175 222 280 334 389
#     4  11  22  40  67 100 129 178 222 261 338 400
#     4  11  24  42  69 101 132 176 221 279 334 400
#     4  11  24  46  66 102 137 174 226 281 338 393
#     4  12  24  43  68  98 141 172 223 280 331 403
#     4  10  22  41  65  94 129 172 224 272 319 406
#     4  11  22  42  69  99 127 179 227 267 341 401
#     4  10  20  46  66  88 142 176 208 290 322 384
#
# _framework density 20.726372000000001
#
# number of rings (size 3 to 8) (size 9 to 14) (size 15 to 20)
#    0.000    1.067    5.333    1.600    1.867    1.600 
#    2.400    1.333    0.000    0.000    0.000    0.000 
#    0.000    0.000    0.000    0.000    0.000    0.000 
#
# Total GULP energy -83517.041191 kJ/mol
# GULP energy per Si atom -5567.802746 kJ/mol
# Density = 2.067920 g / cm^3
# Si number density = 20.726372 Si / 1000 Ang^3
#
#
#
# Elastic Constant Matrix: (Units=GPa)
#
#
# Indices 1 2 3 4 5 6 
#
# 1 82.9860 68.0188 36.6702 13.7889 -1.9541 -11.9330
# 2 68.0188 44.9931 14.8526 -19.8474 5.1063 -24.6605
# 3 36.6702 14.8526 82.1229 -17.6298 6.9296 -16.1351
# 4 13.7889 -19.8474 -17.6298 27.6393 0.1709 -1.3681
# 5 -1.9541 5.1063 6.9296 0.1709 18.5021 -0.9938
# 6 -11.9330 -24.6605 -16.1351 -1.3681 -0.9938 37.6744
#
#
#
# Elastic Compliance Matrix: (Units=1/GPa)
#
#
# Indices 1 2 3 4 5 6 
#
# 1 -0.001784 0.013786 0.003708 0.013701 -0.004949 0.010414
# 2 0.013786 -0.007841 -0.010761 -0.019710 0.007516 -0.005892
# 3 0.003708 -0.010761 0.011975 -0.001974 -0.001151 -0.000843
# 4 0.013701 -0.019710 -0.001974 0.013457 0.007033 -0.008733
# 5 -0.004949 0.007516 -0.001151 0.007033 0.052058 0.004488
# 6 0.010414 -0.005892 -0.000843 -0.008733 0.004488 0.025426
#
#
# Mechanical properties :
#
#
# Convention : Reuss Voigt Hill
#
# Bulk Modulus (GPa) = 63.21976 49.90947 56.56461
# Shear Modulus (GPa) = 58.75698 22.80051 40.77875
#
# Velocity S-wave (km/s) = 5.33014 3.32033 4.44044
# Velocity P-wave (km/s) = 8.27338 6.23153 7.32396
#
# Compressibility (1/GPa) = 0.01581784
#
# Stress axis : x y z
#
# Youngs Moduli (GPa) = -560.55509 -127.54223 83.50703
#
# Poissons Ratio (x) = 1.75835 -0.30967
# Poissons Ratio (y) = 7.72803 0.89862
# Poissons Ratio (z) = 2.07872 -1.37249
#
# Static dielectric constant tensor:
#      x y z
#    x 1.782500 0.018790 -0.034840 
#    y 0.018790 1.766790 0.018630 
#    z -0.034840 0.018630 1.764050 
# 
# From -- ./inp_files/519373.got.cif
#   From: 2010.05.17/outbox.cif.g08.bks.cpg/sg2_260_cif.got.tgz:519373.got - 2010.06.03 11:33:40.
