data_PCOD9112885
_publ_section_title
;
Structure prediction by ZEFSAII (Michael W. Deem and Ramdas Pophale) SiO2 
 PCOD9112885
Probable space group: P 2
;
_chemical_formula_sum "Si O2"
_cell_formula_units_Z 14
_cell_length_a 19.011532
_cell_length_b 8.372863
_cell_length_c 9.912974
_cell_angle_alpha 90.000000
_cell_angle_beta 152.019115
_cell_angle_gamma 90.000000
_cell_volume 740.340915
_symmetry_space_group_name_H-M "P 2"
_symmetry_group_IT_number 3
_symmetry_cell_setting 'monoclinic'
loop_
_space_group_symop_operation_xyz
x,y,z
-x,y,-z
loop_
_atom_site_type_symbol
_atom_site_label
_atom_site_fract_x
_atom_site_fract_y
_atom_site_fract_z
Si Si1 0.154799 0.685520 0.342010
Si Si2 0.371568 0.137999 0.393554
Si Si3 0.921397 0.163491 0.742468
Si Si4 0.933432 0.006722 0.249136
Si Si5 0.361113 0.000646 0.663406
Si Si6 0.973579 0.635760 0.302780
Si Si7 0.186860 0.425813 0.173657
O O1 0.267053 0.835410 0.520771
O O2 0.208446 0.531200 0.345158
O O3 0.109351 0.644243 0.420790
O O4 0.000000 0.723396 0.000000
O O5 0.500000 0.143991 0.500000
O O6 0.323243 0.309958 0.370334
O O7 0.404032 0.027942 0.579344
O O8 0.222529 0.075871 0.065766
O O9 0.943951 0.057937 0.651038
O O10 0.747300 0.152115 0.482651
O O11 0.000000 0.075447 0.000000
O O12 0.032105 0.317408 0.917845
O O13 0.000000 0.071193 0.500000
O O14 0.922030 0.817280 0.235490
O O15 0.500000 0.997487 0.000000
O O16 0.000000 0.571604 0.500000
O O17 0.845948 0.539911 0.007884
#
# Coordination Sequence:
#
# PCOD9112885 Si02
#       7
#     2   2   2   2   2   2   2
#     4  10  20  40  69  91 120 164 219 261 312 376
#     4  11  25  43  59  91 131 170 209 258 329 377
#     4  11  19  39  65  94 117 164 217 263 307 370
#     4  10  21  37  67  93 123 155 213 266 308 367
#     4  12  25  40  63  97 130 168 213 261 322 382
#     4  10  20  34  59 100 121 150 206 268 315 360
#     4  10  22  38  67  88 121 169 215 261 315 375
#
# _framework density 18.910208000000001
#
# number of rings (size 3 to 8) (size 9 to 14) (size 15 to 20)
#    0.000    1.429    4.286    3.429    2.000    2.286 
#    0.000    5.000    0.000    0.000    0.000    0.000 
#    0.000    0.000    0.000    0.000    0.000    0.000 
#
# Total GULP energy -77958.917428 kJ/mol
# GULP energy per Si atom -5568.494102 kJ/mol
# Density = 1.886717 g / cm^3
# Si number density = 18.910208 Si / 1000 Ang^3
#
#
#
# Elastic Constant Matrix: (Units=GPa)
#
#
# Indices 1 2 3 4 5 6 
#
# 1 159.1528 41.5990 69.0133 0.0000 -16.9041 0.0000
# 2 41.5990 66.9401 20.4413 0.0000 -0.4324 0.0000
# 3 69.0133 20.4413 99.1886 0.0000 -15.5151 0.0000
# 4 0.0000 0.0000 0.0000 11.9929 0.0000 4.5601
# 5 -16.9041 -0.4324 -15.5151 0.0000 38.5278 0.0000
# 6 0.0000 0.0000 0.0000 4.5601 0.0000 19.2905
#
#
#
# Elastic Compliance Matrix: (Units=1/GPa)
#
#
# Indices 1 2 3 4 5 6 
#
# 1 0.010235 -0.004559 -0.005857 0.000000 0.002081 0.000000
# 2 -0.004559 0.018026 -0.000880 0.000000 -0.002152 0.000000
# 3 -0.005857 -0.000880 0.014871 0.000000 0.003409 0.000000
# 4 0.000000 0.000000 0.000000 0.091617 0.000000 -0.021657
# 5 0.002081 -0.002152 0.003409 0.000000 0.028217 0.000000
# 6 0.000000 0.000000 0.000000 -0.021657 0.000000 0.056959
#
#
# Mechanical properties :
#
#
# Convention : Reuss Voigt Hill
#
# Bulk Modulus (GPa) = 48.67842 65.26544 56.97193
# Shear Modulus (GPa) = 20.05100 26.91077 23.48089
#
# Velocity S-wave (km/s) = 3.25980 3.77647 3.52761
# Velocity P-wave (km/s) = 6.32188 7.32147 6.83996
#
# Compressibility (1/GPa) = 0.02054299
#
# Stress axis : x y z
#
# Youngs Moduli (GPa) = 97.69931 55.47393 67.24388
#
# Poissons Ratio (x) = 0.25290 0.39382
# Poissons Ratio (y) = 0.44540 0.05915
# Poissons Ratio (z) = 0.57218 0.04880
#
# Static dielectric constant tensor:
#      x y z
#    x 1.720300 0.000000 -0.024640 
#    y 0.000000 1.712270 0.000000 
#    z -0.024640 0.000000 1.661590 
# 
# From -- ./inp_files/9149.got.cif
#   From: 2010.05.17/outbox.cif.g08.bks.cpg/sg3_5_cif.got.tgz:9149.got - 2010.06.03 18:33:08.
