data_PCOD9112694
_publ_section_title
;
Structure prediction by ZEFSAII (Michael W. Deem and Ramdas Pophale) SiO2 
 PCOD9112694
Probable space group: P 2
;
_chemical_formula_sum "Si O2"
_cell_formula_units_Z 16
_cell_length_a 17.623029
_cell_length_b 5.455373
_cell_length_c 7.672563
_cell_angle_alpha 90.000000
_cell_angle_beta 75.745831
_cell_angle_gamma 90.000000
_cell_volume 714.931937
_symmetry_space_group_name_H-M "P 2"
_symmetry_group_IT_number 3
_symmetry_cell_setting 'monoclinic'
loop_
_space_group_symop_operation_xyz
x,y,z
-x,y,-z
loop_
_atom_site_type_symbol
_atom_site_label
_atom_site_fract_x
_atom_site_fract_y
_atom_site_fract_z
Si Si1 0.849690 0.231220 0.744671
Si Si2 0.408820 0.815909 0.510947
Si Si3 0.921811 0.841454 0.497377
Si Si4 0.843150 0.465520 0.361082
Si Si5 0.006443 0.216295 0.813644
Si Si6 0.326269 0.303747 0.135009
Si Si7 0.327199 0.315788 0.562369
Si Si8 0.591418 0.804269 0.907031
O O1 0.849647 0.355264 0.554020
O O2 0.763935 0.268940 0.867548
O O3 0.922478 0.327483 0.813768
O O4 0.873604 0.949571 0.687288
O O5 0.500000 0.847476 0.500000
O O6 0.378252 0.550824 0.590715
O O7 0.399508 0.809694 0.307219
O O8 0.360919 0.054108 0.602370
O O9 0.854442 0.747730 0.404208
O O10 0.000000 0.679295 0.500000
O O11 0.966978 0.043646 0.357782
O O12 0.920906 0.399750 0.212484
O O13 0.761915 0.372894 0.333171
O O14 0.000000 0.078662 0.000000
O O15 0.327417 0.308665 0.348363
O O16 0.362832 0.561953 0.055379
O O17 0.374683 0.064773 0.048916
O O18 0.500000 0.782432 0.000000
#
# Coordination Sequence:
#
# PCOD9112694 Si02
#       8
#     2   2   2   2   2   2   2   2
#     4   9  19  33  55  81 104 142 191 239 276 318
#     4  10  20  37  56  83 112 145 180 226 281 337
#     4   9  18  32  55  79 103 141 189 235 276 321
#     4  10  19  33  58  80 105 139 193 240 274 317
#     4  10  21  36  50  77 117 151 180 221 284 346
#     4   9  19  33  57  84 109 139 187 234 275 319
#     4   9  20  32  59  85 109 140 187 235 277 321
#     4  10  20  36  56  83 109 145 179 227 279 336
#
# _framework density 22.379753999999998
#
# number of rings (size 3 to 8) (size 9 to 14) (size 15 to 20)
#    0.000    2.500    0.000    2.625   10.500    0.500 
#    0.000    2.500    0.000    0.000    0.000    0.000 
#    0.000    0.000    0.000    0.000    0.000    0.000 
#
# Total GULP energy -89168.422931 kJ/mol
# GULP energy per Si atom -5573.026433 kJ/mol
# Density = 2.232882 g / cm^3
# Si number density = 22.379754 Si / 1000 Ang^3
#
#
#
# Elastic Constant Matrix: (Units=GPa)
#
#
# Indices 1 2 3 4 5 6 
#
# 1 176.0153 76.6532 25.4856 0.0000 -47.2966 0.0000
# 2 76.6532 126.5349 17.6549 0.0000 -25.7800 0.0000
# 3 25.4856 17.6549 46.4654 0.0000 -4.4933 0.0000
# 4 0.0000 0.0000 0.0000 -3.3502 0.0000 -4.7280
# 5 -47.2966 -25.7800 -4.4933 0.0000 32.6737 0.0000
# 6 0.0000 0.0000 0.0000 -4.7280 0.0000 28.4788
#
#
#
# Elastic Compliance Matrix: (Units=1/GPa)
#
#
# Indices 1 2 3 4 5 6 
#
# 1 0.011277 -0.003708 -0.003527 0.000000 0.012912 0.000000
# 2 -0.003708 0.011038 -0.001862 0.000000 0.003085 0.000000
# 3 -0.003527 -0.001862 0.023845 0.000000 -0.003296 0.000000
# 4 0.000000 0.000000 0.000000 -0.241829 0.000000 -0.040148
# 5 0.012912 0.003085 -0.003296 0.000000 0.051278 0.000000
# 6 0.000000 0.000000 0.000000 -0.040148 0.000000 0.028449
#
#
# Mechanical properties :
#
#
# Convention : Reuss Voigt Hill
#
# Bulk Modulus (GPa) = 35.75972 65.40035 50.58003
# Shear Modulus (GPa) = -56.54329 26.84192 -14.85068
#
# Velocity S-wave (km/s) = -5.03192 3.46697 -2.57879
# Velocity P-wave (km/s) = 4.21272 6.73149 3.71254
#
# Compressibility (1/GPa) = 0.02796443
#
# Stress axis : x y z
#
# Youngs Moduli (GPa) = 88.67852 90.59891 41.93800
#
# Poissons Ratio (x) = 0.33597 0.14793
# Poissons Ratio (y) = 0.32885 0.07807
# Poissons Ratio (z) = 0.31281 0.16866
#
# Static dielectric constant tensor:
#      x y z
#    x 1.874540 0.000000 0.034960 
#    y 0.000000 2.012920 0.000000 
#    z 0.034960 0.000000 1.847110 
# 
# From -- ./inp_files/8290.got.cif
#   From: 2010.05.17/outbox.cif.g08.bks.cpg/sg3_5_cif.got.tgz:8290.got - 2010.06.03 18:33:08.
