data_PCOD9112605
_publ_section_title
;
Structure prediction by ZEFSAII (Michael W. Deem and Ramdas Pophale) SiO2 
 PCOD9112605
Probable space group: P 2
;
_chemical_formula_sum "Si O2"
_cell_formula_units_Z 14
_cell_length_a 7.118798
_cell_length_b 8.985021
_cell_length_c 19.014152
_cell_angle_alpha 90.000000
_cell_angle_beta 148.509552
_cell_angle_gamma 90.000000
_cell_volume 635.286544
_symmetry_space_group_name_H-M "P 2"
_symmetry_group_IT_number 3
_symmetry_cell_setting 'monoclinic'
loop_
_space_group_symop_operation_xyz
x,y,z
-x,y,-z
loop_
_atom_site_type_symbol
_atom_site_label
_atom_site_fract_x
_atom_site_fract_y
_atom_site_fract_z
Si Si1 0.298225 0.641790 0.781747
Si Si2 0.316901 0.873271 0.258383
Si Si3 0.568508 0.963611 0.851737
Si Si4 0.816203 0.134632 0.158205
Si Si5 0.785799 0.435725 0.714857
Si Si6 0.710267 0.661617 0.493376
Si Si7 0.845005 0.597489 0.056869
O O1 0.389683 0.813985 0.827492
O O2 0.017779 0.549777 0.739762
O O3 0.124413 0.650067 0.649347
O O4 0.670077 0.570377 0.925318
O O5 0.511532 0.957518 0.256614
O O6 0.572532 0.787404 0.395300
O O7 0.074168 0.747017 0.141976
O O8 0.049258 0.992599 0.207770
O O9 0.390299 0.097350 0.836146
O O10 0.000000 0.965329 0.000000
O O11 0.088393 0.270101 0.257997
O O12 0.500000 0.166979 0.000000
O O13 0.398435 0.500165 0.572133
O O14 0.901761 0.470214 0.831497
O O15 0.500000 0.694583 0.500000
O O16 0.500000 0.607696 0.000000
#
# Coordination Sequence:
#
# PCOD9112605 Si02
#       7
#     2   2   2   2   2   2   2
#     4  10  18  36  59  84 117 155 207 261 295 355
#     4  11  22  38  63  94 125 161 209 263 315 370
#     4  12  23  38  62  97 127 161 208 260 315 367
#     4  12  21  37  62  91 133 166 204 256 314 380
#     4   9  20  35  59  91 122 162 204 253 313 372
#     4   9  19  38  63  90 118 159 213 255 308 366
#     4   9  15  31  58  87 113 149 205 255 301 350
#
# _framework density 22.037299000000001
#
# number of rings (size 3 to 8) (size 9 to 14) (size 15 to 20)
#    0.000    1.714    2.857    6.000    0.000    0.571 
#    0.000   10.000    0.000    0.000    0.000    0.000 
#    0.000    0.000    0.000    0.000    0.000    0.000 
#
# Total GULP energy -78053.070854 kJ/mol
# GULP energy per Si atom -5575.219347 kJ/mol
# Density = 2.198714 g / cm^3
# Si number density = 22.037299 Si / 1000 Ang^3
#
#
#
# Elastic Constant Matrix: (Units=GPa)
#
#
# Indices 1 2 3 4 5 6 
#
# 1 82.5610 24.9402 29.5101 0.0000 -13.7559 0.0000
# 2 24.9402 88.5021 47.7669 0.0000 0.1888 0.0000
# 3 29.5101 47.7669 186.5873 0.0000 -20.8887 0.0000
# 4 0.0000 0.0000 0.0000 12.3033 0.0000 2.9490
# 5 -13.7559 0.1888 -20.8887 0.0000 30.2752 0.0000
# 6 0.0000 0.0000 0.0000 2.9490 0.0000 18.3737
#
#
#
# Elastic Compliance Matrix: (Units=1/GPa)
#
#
# Indices 1 2 3 4 5 6 
#
# 1 0.014504 -0.003754 -0.000642 0.000000 0.006170 0.000000
# 2 -0.003754 0.014274 -0.003534 0.000000 -0.004233 0.000000
# 3 -0.000642 -0.003534 0.006866 0.000000 0.004467 0.000000
# 4 0.000000 0.000000 0.000000 0.084531 0.000000 -0.013567
# 5 0.006170 -0.004233 0.004467 0.000000 0.038943 0.000000
# 6 0.000000 0.000000 0.000000 -0.013567 0.000000 0.056603
#
#
# Mechanical properties :
#
#
# Convention : Reuss Voigt Hill
#
# Bulk Modulus (GPa) = 50.54885 62.45389 56.50137
# Shear Modulus (GPa) = 20.99302 29.21933 25.10617
#
# Velocity S-wave (km/s) = 3.08979 3.64525 3.37895
# Velocity P-wave (km/s) = 5.97635 6.79107 6.39670
#
# Compressibility (1/GPa) = 0.01978284
#
# Stress axis : x y z
#
# Youngs Moduli (GPa) = 68.94739 70.05948 145.64720
#
# Poissons Ratio (x) = 0.26299 0.09352
# Poissons Ratio (y) = 0.25882 0.51476
# Poissons Ratio (z) = 0.04427 0.24761
#
# Static dielectric constant tensor:
#      x y z
#    x 1.970950 0.000000 0.029450 
#    y 0.000000 1.788370 0.000000 
#    z 0.029450 0.000000 1.887030 
# 
# From -- ./inp_files/15786.got.cif
#   From: 2010.05.17/outbox.cif.g08.bks.cpg/sg3_8_cif.got.tgz:15786.got - 2010.06.03 18:33:08.
