data_PCOD9112916
_publ_section_title
;
Structure prediction by ZEFSAII (Michael W. Deem and Ramdas Pophale) SiO2 
 PCOD9112916
Probable space group: P 2
;
_chemical_formula_sum "Si O2"
_cell_formula_units_Z 14
_cell_length_a 15.958583
_cell_length_b 9.285059
_cell_length_c 5.637719
_cell_angle_alpha 90.000000
_cell_angle_beta 124.660893
_cell_angle_gamma 90.000000
_cell_volume 687.124508
_symmetry_space_group_name_H-M "P 2"
_symmetry_group_IT_number 3
_symmetry_cell_setting 'monoclinic'
loop_
_space_group_symop_operation_xyz
x,y,z
-x,y,-z
loop_
_atom_site_type_symbol
_atom_site_label
_atom_site_fract_x
_atom_site_fract_y
_atom_site_fract_z
Si Si1 0.392907 0.111180 0.220804
Si Si2 0.733930 0.877974 0.696088
Si Si3 0.892349 0.245987 0.226349
Si Si4 0.434052 0.633657 0.643101
Si Si5 0.293304 0.363833 0.299532
Si Si6 0.057061 0.932147 0.845260
Si Si7 0.258440 0.117952 0.624849
O O1 0.500000 0.077949 0.500000
O O2 0.363922 0.276192 0.228344
O O3 0.315848 0.002432 0.223362
O O4 0.371182 0.090941 0.912216
O O5 0.646051 0.765862 0.494534
O O6 0.771843 0.964746 0.526891
O O7 0.839015 0.837513 0.992588
O O8 0.823945 0.172846 0.321036
O O9 0.000000 0.298729 0.500000
O O10 0.916295 0.105587 0.101358
O O11 0.819579 0.369590 0.998990
O O12 0.500000 0.638784 0.500000
O O13 0.358143 0.496537 0.498048
O O14 0.500000 0.632183 0.000000
O O15 0.273532 0.248098 0.471551
O O16 0.000000 0.914793 0.500000
O O17 0.000000 0.897478 0.000000
#
# Coordination Sequence:
#
# PCOD9112916 Si02
#       7
#     2   2   2   2   2   2   2
#     4  10  21  35  63  92 128 166 224 280 333 377
#     4  11  23  41  63  99 131 170 225 270 328 395
#     4  10  20  35  66 101 131 169 215 277 336 385
#     4  12  31  48  69  92 135 187 223 268 333 396
#     4  10  23  40  61  94 129 177 219 272 324 399
#     4  11  22  37  67 101 136 168 210 273 338 391
#     4  10  20  38  64  97 130 169 218 283 326 388
#
# _framework density 20.374766999999999
#
# number of rings (size 3 to 8) (size 9 to 14) (size 15 to 20)
#    0.000    1.429    4.286    2.571   10.000    1.143 
#    0.000    0.714    3.143    0.000    0.000    0.000 
#    0.000    0.000    0.000    0.000    0.000    0.000 
#
# Total GULP energy -77934.105496 kJ/mol
# GULP energy per Si atom -5566.721821 kJ/mol
# Density = 2.032839 g / cm^3
# Si number density = 20.374767 Si / 1000 Ang^3
#
#
#
# Elastic Constant Matrix: (Units=GPa)
#
#
# Indices 1 2 3 4 5 6 
#
# 1 84.2593 20.1370 68.8864 0.0000 20.3653 0.0000
# 2 20.1370 84.7400 52.2858 0.0000 9.6944 0.0000
# 3 68.8864 52.2858 183.0151 0.0000 35.0931 0.0000
# 4 0.0000 0.0000 0.0000 28.6421 0.0000 13.7454
# 5 20.3653 9.6944 35.0931 0.0000 38.2640 0.0000
# 6 0.0000 0.0000 0.0000 13.7454 0.0000 18.7401
#
#
#
# Elastic Compliance Matrix: (Units=1/GPa)
#
#
# Indices 1 2 3 4 5 6 
#
# 1 0.017636 -0.000134 -0.005832 0.000000 -0.004004 0.000000
# 2 -0.000134 0.014328 -0.004077 0.000000 0.000181 0.000000
# 3 -0.005832 -0.004077 0.009744 0.000000 -0.004800 0.000000
# 4 0.000000 0.000000 0.000000 0.053879 0.000000 -0.039519
# 5 -0.004004 0.000181 -0.004800 0.000000 0.032621 0.000000
# 6 0.000000 0.000000 0.000000 -0.039519 0.000000 0.082348
#
#
# Mechanical properties :
#
#
# Convention : Reuss Voigt Hill
#
# Bulk Modulus (GPa) = 46.25254 70.51474 58.38364
# Shear Modulus (GPa) = 21.02160 31.17624 26.09892
#
# Velocity S-wave (km/s) = 3.21557 3.91594 3.58291
# Velocity P-wave (km/s) = 6.04456 7.42497 6.77004
#
# Compressibility (1/GPa) = 0.02162043
#
# Stress axis : x y z
#
# Youngs Moduli (GPa) = 56.70256 69.79396 102.62228
#
# Poissons Ratio (x) = 0.00938 0.59849
# Poissons Ratio (y) = 0.00762 0.41844
# Poissons Ratio (z) = 0.33069 0.28458
#
# Static dielectric constant tensor:
#      x y z
#    x 1.795070 0.000000 -0.022110 
#    y 0.000000 1.709460 0.000000 
#    z -0.022110 0.000000 1.879760 
# 
# From -- ./inp_files/3723.got.cif
#   From: 2010.05.17/outbox.cif.g08.bks.cpg/sg3_2_cif.got.tgz:3723.got - 2010.06.03 18:33:08.
