data_PCOD9112788
_publ_section_title
;
Structure prediction by ZEFSAII (Michael W. Deem and Ramdas Pophale) SiO2 
 PCOD9112788
Probable space group: P 2
;
_chemical_formula_sum "Si O2"
_cell_formula_units_Z 14
_cell_length_a 9.482644
_cell_length_b 8.054541
_cell_length_c 11.930927
_cell_angle_alpha 90.000000
_cell_angle_beta 43.522243
_cell_angle_gamma 90.000000
_cell_volume 627.529624
_symmetry_space_group_name_H-M "P 2"
_symmetry_group_IT_number 3
_symmetry_cell_setting 'monoclinic'
loop_
_space_group_symop_operation_xyz
x,y,z
-x,y,-z
loop_
_atom_site_type_symbol
_atom_site_label
_atom_site_fract_x
_atom_site_fract_y
_atom_site_fract_z
Si Si1 0.768199 0.980140 0.628348
Si Si2 0.033374 0.212263 0.117138
Si Si3 0.331719 0.422609 0.685111
Si Si4 0.510575 0.295318 0.181812
Si Si5 0.713565 0.980284 0.398458
Si Si6 0.445058 0.679976 0.160665
Si Si7 0.230399 0.759394 0.844352
O O1 0.719882 0.943131 0.525588
O O2 0.742189 0.804517 0.707115
O O3 0.000000 0.038674 0.500000
O O4 0.630405 0.133453 0.752864
O O5 0.869870 0.347438 0.254240
O O6 0.267815 0.259188 0.002510
O O7 0.933621 0.056797 0.237315
O O8 0.000000 0.198642 0.000000
O O9 0.500000 0.479679 0.500000
O O10 0.439642 0.305343 0.714339
O O11 0.237446 0.565947 0.815281
O O12 0.429389 0.481914 0.198991
O O13 0.500000 0.081091 0.500000
O O14 0.691450 0.841036 0.315318
O O15 0.621439 0.770891 0.134329
O O16 0.500000 0.687574 0.000000
O O17 0.000000 0.814643 0.000000
#
# Coordination Sequence:
#
# PCOD9112788 Si02
#       7
#     2   2   2   2   2   2   2
#     4  12  29  48  70 110 146 191 247 301 374 436
#     4  10  20  37  66 106 139 183 239 291 363 432
#     4  10  19  36  64 104 144 181 233 300 359 421
#     4  10  24  47  71 102 145 193 247 293 363 440
#     4  12  23  42  70 107 144 186 238 301 367 422
#     4  11  27  49  73 103 147 192 245 301 363 440
#     4  11  24  40  69 105 142 189 241 298 360 424
#
# _framework density 22.309704
#
# number of rings (size 3 to 8) (size 9 to 14) (size 15 to 20)
#    0.000    1.143    1.429    6.000    6.000    2.286 
#    0.000    1.429    0.000    0.000    0.000    0.000 
#    0.000    0.000    0.000    0.000    0.000    0.000 
#
# Total GULP energy -78058.691856 kJ/mol
# GULP energy per Si atom -5575.620847 kJ/mol
# Density = 2.225893 g / cm^3
# Si number density = 22.309704 Si / 1000 Ang^3
#
#
#
# Elastic Constant Matrix: (Units=GPa)
#
#
# Indices 1 2 3 4 5 6 
#
# 1 52.0989 17.8677 25.4487 0.0000 2.5951 0.0000
# 2 17.8677 107.7849 44.5973 0.0000 -6.7104 0.0000
# 3 25.4487 44.5973 135.7361 0.0000 -8.3855 0.0000
# 4 0.0000 0.0000 0.0000 33.4988 0.0000 0.5469
# 5 2.5951 -6.7104 -8.3855 0.0000 47.7532 0.0000
# 6 0.0000 0.0000 0.0000 0.5469 0.0000 18.4079
#
#
#
# Elastic Compliance Matrix: (Units=1/GPa)
#
#
# Indices 1 2 3 4 5 6 
#
# 1 0.021780 -0.002313 -0.003454 0.000000 -0.002115 0.000000
# 2 -0.002313 0.011021 -0.003118 0.000000 0.001127 0.000000
# 3 -0.003454 -0.003118 0.009123 0.000000 0.001352 0.000000
# 4 0.000000 0.000000 0.000000 0.029866 0.000000 -0.000887
# 5 -0.002115 0.001127 0.001352 0.000000 0.021452 0.000000
# 6 0.000000 0.000000 0.000000 -0.000887 0.000000 0.054351
#
#
# Mechanical properties :
#
#
# Convention : Reuss Voigt Hill
#
# Bulk Modulus (GPa) = 41.40084 52.38304 46.89194
# Shear Modulus (GPa) = 28.83261 33.77905 31.30583
#
# Velocity S-wave (km/s) = 3.59887 3.89536 3.75005
# Velocity P-wave (km/s) = 5.98889 6.61534 6.30989
#
# Compressibility (1/GPa) = 0.02415410
#
# Stress axis : x y z
#
# Youngs Moduli (GPa) = 45.91329 90.73263 109.61591
#
# Poissons Ratio (x) = 0.20987 0.37864
# Poissons Ratio (y) = 0.10620 0.34177
# Poissons Ratio (z) = 0.15859 0.28289
#
# Static dielectric constant tensor:
#      x y z
#    x 1.866080 0.000000 -0.038870 
#    y 0.000000 1.878410 0.000000 
#    z -0.038870 0.000000 1.819080 
# 
# From -- ./inp_files/10643.got.cif
#   From: 2010.05.17/outbox.cif.g08.bks.cpg/sg3_6_cif.got.tgz:10643.got - 2010.06.03 18:33:08.
