data_PCOD9112228
_publ_section_title
;
Structure prediction by ZEFSAII (Michael W. Deem and Ramdas Pophale) SiO2 
 PCOD9112228
Probable space group: P -1
;
_chemical_formula_sum "Si O2"
_cell_formula_units_Z 16
_cell_length_a 9.920312
_cell_length_b 11.701182
_cell_length_c 7.954290
_cell_angle_alpha 83.553109
_cell_angle_beta 110.019221
_cell_angle_gamma 127.176063
_cell_volume 685.701728
_symmetry_space_group_name_H-M "P -1"
_symmetry_group_IT_number 2
_symmetry_cell_setting 'triclinic'
loop_
_space_group_symop_operation_xyz
x,y,z
-x,-y,-z
loop_
_atom_site_type_symbol
_atom_site_label
_atom_site_fract_x
_atom_site_fract_y
_atom_site_fract_z
Si Si1 0.981426 0.841054 0.113639
Si Si2 0.417019 0.179796 0.539051
Si Si3 0.643758 0.284659 0.287641
Si Si4 0.718938 0.905736 0.007641
Si Si5 0.937294 0.562670 0.209552
Si Si6 0.740815 0.433678 0.790369
Si Si7 0.178202 0.278333 0.311280
Si Si8 0.215741 0.898069 0.697967
O O1 0.890566 0.777904 0.900208
O O2 0.851460 0.870844 0.140825
O O3 0.990534 0.721688 0.222454
O O4 0.173507 0.990398 0.125546
O O5 0.555797 0.224183 0.440831
O O6 0.549722 0.277887 0.732536
O O7 0.299387 0.233022 0.431842
O O8 0.293930 0.012786 0.562422
O O9 0.805863 0.453997 0.316769
O O10 0.722324 0.202332 0.271006
O O11 0.472287 0.234781 0.108086
O O12 0.708059 0.004375 0.117186
O O13 0.111224 0.569146 0.247109
O O14 0.819728 0.489769 0.000833
O O15 0.724293 0.551247 0.680516
O O16 0.998887 0.200128 0.359416
#
# Coordination Sequence:
#
# PCOD9112228 Si02
#       8
#     2   2   2   2   2   2   2   2
#     4   9  20  40  68  98 124 160 209 271 312 367
#     4  12  25  41  62  94 131 172 210 258 318 379
#     4  12  24  42  62  97 134 163 212 267 313 375
#     4  10  21  40  67  95 125 163 217 260 313 369
#     4  10  22  42  69  93 127 165 211 267 316 369
#     4  10  22  42  67  95 122 169 215 257 317 379
#     4  10  20  45  65  90 133 165 209 259 319 379
#     4  11  24  42  65  93 126 173 215 257 314 377
#
# _framework density 23.333760000000002
#
# number of rings (size 3 to 8) (size 9 to 14) (size 15 to 20)
#    0.000    1.500    2.500    2.250    3.500    1.000 
#    4.500    0.000    0.000    0.000    0.000    0.000 
#    0.000    0.000    0.000    0.000    0.000    0.000 
#
# Total GULP energy -89608.442195 kJ/mol
# GULP energy per Si atom -5600.527637 kJ/mol
# Density = 2.328065 g / cm^3
# Si number density = 23.333760 Si / 1000 Ang^3
#
#
#
# Elastic Constant Matrix: (Units=GPa)
#
#
# Indices 1 2 3 4 5 6 
#
# 1 91.1880 32.9229 4.2580 -8.5598 -4.1355 -0.8128
# 2 32.9229 106.5337 -2.6109 -22.4262 1.4958 -5.0157
# 3 4.2580 -2.6109 45.6935 -1.1674 -6.4572 5.9285
# 4 -8.5598 -22.4262 -1.1674 29.6446 5.9305 7.9322
# 5 -4.1355 1.4958 -6.4572 5.9305 19.7271 -3.1448
# 6 -0.8128 -5.0157 5.9285 7.9322 -3.1448 35.6208
#
#
#
# Elastic Compliance Matrix: (Units=1/GPa)
#
#
# Indices 1 2 3 4 5 6 
#
# 1 0.012556 -0.003922 -0.001043 0.000067 0.002587 0.000121
# 2 -0.003922 0.012672 0.000819 0.009670 -0.004581 -0.000999
# 3 -0.001043 0.000819 0.023424 0.000835 0.006592 -0.003411
# 4 0.000067 0.009670 0.000835 0.047248 -0.016362 -0.010742
# 5 0.002587 -0.004581 0.006592 -0.016362 0.059813 0.007241
# 6 0.000121 -0.000999 -0.003411 -0.010742 0.007241 0.031535
#
#
# Mechanical properties :
#
#
# Convention : Reuss Voigt Hill
#
# Bulk Modulus (GPa) = 24.77700 34.72836 29.75268
# Shear Modulus (GPa) = 23.92431 30.92152 27.42292
#
# Velocity S-wave (km/s) = 3.20552 3.64426 3.43191
# Velocity P-wave (km/s) = 4.93376 5.71166 5.33691
#
# Compressibility (1/GPa) = 0.04036002
#
# Stress axis : x y z
#
# Youngs Moduli (GPa) = 79.64400 78.91574 42.69068
#
# Poissons Ratio (x) = 0.30953 0.04451
# Poissons Ratio (y) = 0.31239 -0.03496
# Poissons Ratio (z) = 0.08303 -0.06462
#
# Static dielectric constant tensor:
#      x y z
#    x 1.817360 -0.001070 -0.025070 
#    y -0.001070 1.834100 0.015580 
#    z -0.025070 0.015580 1.941950 
# 
# From -- ./inp_files/186823.got.cif
#   From: 2010.05.17/outbox.cif.g08.bks.cpg/sg2_94_cif.got.tgz:186823.got - 2010.06.03 11:33:40.
