data_PCOD9112828
_publ_section_title
;
Structure prediction by ZEFSAII (Michael W. Deem and Ramdas Pophale) SiO2 
 PCOD9112828
Probable space group: P 2
;
_chemical_formula_sum "Si O2"
_cell_formula_units_Z 11
_cell_length_a 12.466969
_cell_length_b 6.018900
_cell_length_c 6.318723
_cell_angle_alpha 90.000000
_cell_angle_beta 100.975275
_cell_angle_gamma 90.000000
_cell_volume 465.468492
_symmetry_space_group_name_H-M "P 2"
_symmetry_group_IT_number 3
_symmetry_cell_setting 'monoclinic'
loop_
_space_group_symop_operation_xyz
x,y,z
-x,y,-z
loop_
_atom_site_type_symbol
_atom_site_label
_atom_site_fract_x
_atom_site_fract_y
_atom_site_fract_z
Si Si1 0.660204 0.257120 0.816062
Si Si2 0.860997 0.487093 0.649798
Si Si3 0.480075 0.630368 0.735054
Si Si4 0.803401 0.877197 0.888113
Si Si5 0.000000 0.201977 0.000000
Si Si6 0.749409 0.509519 0.213113
O O1 0.750787 0.374764 0.703717
O O2 0.548522 0.395891 0.752060
O O3 0.698511 0.302094 0.070769
O O4 0.688076 0.998456 0.793412
O O5 0.958849 0.362826 0.799778
O O6 0.849671 0.455354 0.398735
O O7 0.853971 0.745698 0.708483
O O8 0.500000 0.728857 0.500000
O O9 0.350401 0.605419 0.690595
O O10 0.500000 0.707901 0.000000
O O11 0.782548 0.690174 0.053292
O O12 0.895291 0.047412 0.002090
#
# Coordination Sequence:
#
# PCOD9112828 Si02
#       6
#     2   2   2   2   1   2
#     4   9  20  39  62  90 134 170 216 269 336 399
#     4  10  20  40  64  89 125 173 212 283 337 403
#     4  10  19  38  69  97 138 188 221 268 343 408
#     4  10  22  41  64  96 126 170 226 281 335 414
#     4  10  22  42  64  88 132 170 220 282 358 400
#     4  10  21  39  67  92 133 172 221 274 342 401
#
# _framework density 23.632104999999999
#
# number of rings (size 3 to 8) (size 9 to 14) (size 15 to 20)
#    0.000    2.182    1.818    0.545    0.000    2.909 
#    0.000   35.455    0.000    0.000    0.000    0.000 
#    0.000    0.000    0.000    0.000    0.000    0.000 
#
# Total GULP energy -61245.879207 kJ/mol
# GULP energy per Si atom -5567.807201 kJ/mol
# Density = 2.357832 g / cm^3
# Si number density = 23.632105 Si / 1000 Ang^3
#
#
#
# Elastic Constant Matrix: (Units=GPa)
#
#
# Indices 1 2 3 4 5 6 
#
# 1 90.0768 1.6494 29.7649 0.0000 -4.7657 0.0000
# 2 1.6494 51.6428 28.6087 0.0000 14.8337 0.0000
# 3 29.7649 28.6087 141.7602 0.0000 21.0736 0.0000
# 4 0.0000 0.0000 0.0000 5.6567 0.0000 18.1312
# 5 -4.7657 14.8337 21.0736 0.0000 46.5833 0.0000
# 6 0.0000 0.0000 0.0000 18.1312 0.0000 31.7003
#
#
#
# Elastic Compliance Matrix: (Units=1/GPa)
#
#
# Indices 1 2 3 4 5 6 
#
# 1 0.012228 0.000599 -0.003051 0.000000 0.002441 0.000000
# 2 0.000599 0.023128 -0.003975 0.000000 -0.005505 0.000000
# 3 -0.003051 -0.003975 0.008958 0.000000 -0.003099 0.000000
# 4 0.000000 0.000000 0.000000 -0.212151 0.000000 0.121341
# 5 0.002441 -0.005505 -0.003099 0.000000 0.024872 0.000000
# 6 0.000000 0.000000 0.000000 0.121341 0.000000 -0.037857
#
#
# Mechanical properties :
#
#
# Convention : Reuss Voigt Hill
#
# Bulk Modulus (GPa) = 31.78733 44.83621 38.31177
# Shear Modulus (GPa) = -31.74976 31.68518 -0.03229
#
# Velocity S-wave (km/s) = -3.66936 3.66562 -0.11703
# Velocity P-wave (km/s) = 2.11474 6.07696 4.02848
#
# Compressibility (1/GPa) = 0.03145907
#
# Stress axis : x y z
#
# Youngs Moduli (GPa) = 81.77946 43.23787 111.63725
#
# Poissons Ratio (x) = -0.02588 0.34062
# Poissons Ratio (y) = -0.04896 0.44373
# Poissons Ratio (z) = 0.24952 0.17186
#
# Static dielectric constant tensor:
#      x y z
#    x 1.910330 0.000000 -0.025520 
#    y 0.000000 1.968520 0.000000 
#    z -0.025520 0.000000 2.002480 
# 
# From -- ./inp_files/2731.got.cif
#   From: 2010.05.17/outbox.cif.g08.bks.cpg/sg3_2_cif.got.tgz:2731.got - 2010.06.03 18:33:08.
