data_PCOD9112279
_publ_section_title
;
Structure prediction by ZEFSAII (Michael W. Deem and Ramdas Pophale) SiO2 
 PCOD9112279
Probable space group: P -1
;
_chemical_formula_sum "Si O2"
_cell_formula_units_Z 16
_cell_length_a 10.038805
_cell_length_b 7.572247
_cell_length_c 17.764419
_cell_angle_alpha 112.754207
_cell_angle_beta 42.596827
_cell_angle_gamma 82.062858
_cell_volume 620.013599
_symmetry_space_group_name_H-M "P -1"
_symmetry_group_IT_number 2
_symmetry_cell_setting 'triclinic'
loop_
_space_group_symop_operation_xyz
x,y,z
-x,-y,-z
loop_
_atom_site_type_symbol
_atom_site_label
_atom_site_fract_x
_atom_site_fract_y
_atom_site_fract_z
Si Si1 0.740438 0.646019 0.726981
Si Si2 0.753315 0.611526 0.428075
Si Si3 0.961418 0.115664 0.721781
Si Si4 0.751821 0.218823 0.975602
Si Si5 0.789516 0.854059 0.259922
Si Si6 0.860333 0.903153 0.604275
Si Si7 0.511886 0.519004 0.389637
Si Si8 0.609216 0.634429 0.212760
O O1 0.442038 0.799892 0.905395
O O2 0.873160 0.377392 0.583372
O O3 0.950992 0.537676 0.690383
O O4 0.750019 0.823194 0.697726
O O5 0.725986 0.473018 0.350032
O O6 0.607671 0.607233 0.560485
O O7 0.525165 0.918095 0.555789
O O8 0.889202 0.088072 0.665484
O O9 0.244543 0.821924 0.565122
O O10 0.040586 0.267180 0.752301
O O11 0.736269 0.196676 0.888608
O O12 0.662823 0.481309 0.089809
O O13 0.071678 0.050295 0.821251
O O14 0.810476 0.660052 0.165473
O O15 0.340026 0.927028 0.352422
O O16 0.595577 0.496780 0.265758
#
# Coordination Sequence:
#
# PCOD9112279 Si02
#       8
#     2   2   2   2   2   2   2   2
#     4  11  23  45  72 103 134 178 232 285 338 406
#     4  10  20  45  73  99 131 178 235 284 327 409
#     4   9  21  43  64  96 139 177 216 283 330 408
#     4  10  25  43  68  99 144 177 225 283 346 403
#     4   9  22  46  68  95 139 177 228 280 335 402
#     4  11  24  43  71 101 139 175 232 281 334 411
#     4  10  22  41  76  98 132 179 237 283 331 403
#     4  12  24  44  70 103 134 186 228 281 340 405
#
# _framework density 25.805883999999999
#
# number of rings (size 3 to 8) (size 9 to 14) (size 15 to 20)
#    0.750    1.000    2.500    1.125    1.750    5.000 
#    2.250    5.000    0.000    0.000    0.000    0.000 
#    0.000    0.000    0.000    0.000    0.000    0.000 
#
# Total GULP energy -89190.854743 kJ/mol
# GULP energy per Si atom -5574.428421 kJ/mol
# Density = 2.574715 g / cm^3
# Si number density = 25.805884 Si / 1000 Ang^3
#
#
#
# Elastic Constant Matrix: (Units=GPa)
#
#
# Indices 1 2 3 4 5 6 
#
# 1 162.2641 39.1554 18.1140 -17.3291 3.3036 24.3006
# 2 39.1554 63.3423 22.2299 -14.8377 6.5271 6.9398
# 3 18.1140 22.2299 111.1191 -29.1720 5.9680 11.1167
# 4 -17.3291 -14.8377 -29.1720 35.2024 14.3292 4.7462
# 5 3.3036 6.5271 5.9680 14.3292 33.2039 -3.0469
# 6 24.3006 6.9398 11.1167 4.7462 -3.0469 32.3051
#
#
#
# Elastic Compliance Matrix: (Units=1/GPa)
#
#
# Indices 1 2 3 4 5 6 
#
# 1 0.008906 -0.002882 0.002539 0.008601 -0.005287 -0.008716
# 2 -0.002882 0.022280 0.000814 0.013824 -0.010750 -0.005943
# 3 0.002539 0.000814 0.016369 0.022632 -0.014258 -0.012387
# 4 0.008601 0.013824 0.022632 0.080140 -0.045279 -0.033272
# 5 -0.005287 -0.010750 -0.014258 -0.045279 0.056990 0.023221
# 6 -0.008716 -0.005943 -0.012387 -0.033272 0.023221 0.050129
#
#
# Mechanical properties :
#
#
# Convention : Reuss Voigt Hill
#
# Bulk Modulus (GPa) = 20.61987 55.08046 37.85016
# Shear Modulus (GPa) = 19.99684 37.29066 28.64375
#
# Velocity S-wave (km/s) = 2.78671 3.80550 3.33524
# Velocity P-wave (km/s) = 4.28510 6.37962 5.43423
#
# Compressibility (1/GPa) = 0.04849691
#
# Stress axis : x y z
#
# Youngs Moduli (GPa) = 112.27904 44.88266 61.09005
#
# Poissons Ratio (x) = 0.12935 -0.15509
# Poissons Ratio (y) = 0.32358 -0.04971
# Poissons Ratio (z) = -0.28504 -0.03652
#
# Static dielectric constant tensor:
#      x y z
#    x 2.094060 -0.028270 0.017390 
#    y -0.028270 2.193850 -0.082780 
#    z 0.017390 -0.082780 2.055870 
# 
# From -- ./inp_files/610112.got.cif
#   From: 2010.05.17/outbox.cif.g08.bks.cpg/sg2_306_cif.got.tgz:610112.got - 2010.06.03 11:33:40.
