data_PCOD9112134
_publ_section_title
;
Structure prediction by ZEFSAII (Michael W. Deem and Ramdas Pophale) SiO2 
 PCOD9112134
Probable space group: P -1
;
_chemical_formula_sum "Si O2"
_cell_formula_units_Z 14
_cell_length_a 18.595462
_cell_length_b 5.558045
_cell_length_c 7.903998
_cell_angle_alpha 116.416464
_cell_angle_beta 74.295943
_cell_angle_gamma 136.650377
_cell_volume 500.356403
_symmetry_space_group_name_H-M "P -1"
_symmetry_group_IT_number 2
_symmetry_cell_setting 'triclinic'
loop_
_space_group_symop_operation_xyz
x,y,z
-x,-y,-z
loop_
_atom_site_type_symbol
_atom_site_label
_atom_site_fract_x
_atom_site_fract_y
_atom_site_fract_z
Si Si1 0.253299 0.712106 0.038554
Si Si2 0.425493 0.546681 0.930930
Si Si3 0.981025 0.110155 0.717003
Si Si4 0.429434 0.414386 0.356963
Si Si5 0.306646 0.458705 0.670240
Si Si6 0.216579 0.167897 0.112531
Si Si7 0.068185 0.813177 0.700428
O O1 0.314820 0.775329 0.849120
O O2 0.024123 0.006748 0.794704
O O3 0.326800 0.975449 0.234342
O O4 0.183305 0.784224 0.060032
O O5 0.498479 0.472274 0.817749
O O6 0.349500 0.367765 0.759362
O O7 0.342852 0.418755 0.093054
O O8 0.500000 0.000000 0.000000
O O9 0.042733 0.549092 0.792644
O O10 0.855462 0.840122 0.721778
O O11 0.000000 0.000000 0.500000
O O12 0.500000 0.500000 0.500000
O O13 0.377772 0.567713 0.496249
O O14 0.183483 0.096740 0.626043
O O15 0.197445 0.295892 0.996853
O O16 0.000000 0.500000 0.500000
#
# Coordination Sequence:
#
# PCOD9112134 Si02
#       7
#     2   2   2   2   2   2   2
#     4  11  25  47  72 105 149 183 241 288 363 419
#     4  10  20  44  71 105 145 188 237 291 358 425
#     4  10  23  41  70 102 140 185 240 294 360 420
#     4  10  22  43  77 105 146 193 238 293 364 424
#     4  10  23  43  75 106 148 189 239 299 355 429
#     4  11  24  44  76 100 149 189 232 307 354 421
#     4  10  23  42  70 103 142 182 241 292 355 425
#
# _framework density 27.980053999999999
#
# number of rings (size 3 to 8) (size 9 to 14) (size 15 to 20)
#    0.000    1.714    2.857    0.857    8.000    2.857 
#    0.000   15.714    0.000    0.000    0.000    0.000 
#    0.000    0.000    0.000    0.000    0.000    0.000 
#
# Total GULP energy -78016.232334 kJ/mol
# GULP energy per Si atom -5572.588024 kJ/mol
# Density = 2.791637 g / cm^3
# Si number density = 27.980054 Si / 1000 Ang^3
#
#
#
# Elastic Constant Matrix: (Units=GPa)
#
#
# Indices 1 2 3 4 5 6 
#
# 1 220.6369 65.9019 41.0241 -21.7266 -26.3064 17.7193
# 2 65.9019 166.6751 56.0845 -16.2224 -14.2463 26.5207
# 3 41.0241 56.0845 145.2923 -28.3996 -24.6282 24.8414
# 4 -21.7266 -16.2224 -28.3996 62.8302 19.5040 -15.4787
# 5 -26.3064 -14.2463 -24.6282 19.5040 58.2876 -15.8652
# 6 17.7193 26.5207 24.8414 -15.4787 -15.8652 65.8200
#
#
#
# Elastic Compliance Matrix: (Units=1/GPa)
#
#
# Indices 1 2 3 4 5 6 
#
# 1 0.005405 -0.001785 -0.000425 0.000721 0.001575 -0.000026
# 2 -0.001785 0.007720 -0.002212 0.000029 -0.000375 -0.001878
# 3 -0.000425 -0.002212 0.008865 0.002386 0.001852 -0.001332
# 4 0.000721 0.000029 0.002386 0.019209 -0.004451 0.002338
# 5 0.001575 -0.000375 0.001852 -0.004451 0.020867 0.003011
# 6 -0.000026 -0.001878 -0.001332 0.002338 0.003011 0.017735
#
#
# Mechanical properties :
#
#
# Convention : Reuss Voigt Hill
#
# Bulk Modulus (GPa) = 76.07489 95.40282 85.73886
# Shear Modulus (GPa) = 53.74732 62.02714 57.88723
#
# Velocity S-wave (km/s) = 4.38758 4.71343 4.55342
# Velocity P-wave (km/s) = 7.27433 7.98703 7.63900
#
# Compressibility (1/GPa) = 0.01314494
#
# Stress axis : x y z
#
# Youngs Moduli (GPa) = 184.99681 129.53727 112.80704
#
# Poissons Ratio (x) = 0.23128 0.04790
# Poissons Ratio (y) = 0.33029 0.24958
# Poissons Ratio (z) = 0.07856 0.28660
#
# Static dielectric constant tensor:
#      x y z
#    x 2.213400 -0.008770 0.067180 
#    y -0.008770 2.167980 0.032520 
#    z 0.067180 0.032520 2.247600 
# 
# From -- ./inp_files/352418.got.cif
#   From: 2010.05.17/outbox.cif.g08.bks.cpg/sg2_177_cif.got.tgz:352418.got - 2010.06.03 11:33:40.
