data_PCOD9112319
_publ_section_title
;
Structure prediction by ZEFSAII (Michael W. Deem and Ramdas Pophale) SiO2 
 PCOD9112319
Probable space group: P -1
;
_chemical_formula_sum "Si O2"
_cell_formula_units_Z 14
_cell_length_a 12.921088
_cell_length_b 5.179611
_cell_length_c 12.228269
_cell_angle_alpha 96.944248
_cell_angle_beta 50.997009
_cell_angle_gamma 72.808811
_cell_volume 553.217715
_symmetry_space_group_name_H-M "P -1"
_symmetry_group_IT_number 2
_symmetry_cell_setting 'triclinic'
loop_
_space_group_symop_operation_xyz
x,y,z
-x,-y,-z
loop_
_atom_site_type_symbol
_atom_site_label
_atom_site_fract_x
_atom_site_fract_y
_atom_site_fract_z
Si Si1 0.879985 0.640725 0.245438
Si Si2 0.030642 0.581580 0.602889
Si Si3 0.715231 0.981710 0.950857
Si Si4 0.419765 0.315599 0.512464
Si Si5 0.458007 0.828730 0.132819
Si Si6 0.340458 0.467180 0.333392
Si Si7 0.866873 0.923714 0.058406
O O1 0.906054 0.675338 0.357873
O O2 0.756542 0.527606 0.326455
O O3 0.041940 0.403134 0.076160
O O4 0.810897 0.895416 0.213702
O O5 0.164907 0.660312 0.494892
O O6 0.000000 0.500000 0.500000
O O7 0.876271 0.827849 0.773063
O O8 0.746433 0.097264 0.051655
O O9 0.600515 0.212388 0.949711
O O10 0.629791 0.784724 0.021792
O O11 0.500000 0.500000 0.500000
O O12 0.424966 0.298610 0.378028
O O13 0.500000 0.000000 0.500000
O O14 0.406018 0.667878 0.248405
O O15 0.359747 0.190390 0.232695
O O16 0.000000 0.000000 0.000000
#
# Coordination Sequence:
#
# PCOD9112319 Si02
#       7
#     2   2   2   2   2   2   2
#     4   9  23  41  62  99 131 172 235 280 342 416
#     4  10  20  46  68  99 137 188 228 292 350 419
#     4  10  24  43  71 104 142 184 237 299 351 426
#     4  11  25  42  68 100 135 183 229 282 351 415
#     4  11  25  48  68 111 140 184 239 291 365 417
#     4  11  25  45  73 101 144 184 237 294 348 430
#     4  10  22  43  67  98 134 184 231 289 350 418
#
# _framework density 25.306493
#
# number of rings (size 3 to 8) (size 9 to 14) (size 15 to 20)
#    0.000    1.714    1.429    0.857    6.000    4.000 
#   15.429    0.000    0.000    0.000    0.000    0.000 
#    0.000    0.000    0.000    0.000    0.000    0.000 
#
# Total GULP energy -78176.371702 kJ/mol
# GULP energy per Si atom -5584.026550 kJ/mol
# Density = 2.524889 g / cm^3
# Si number density = 25.306493 Si / 1000 Ang^3
#
#
#
# Elastic Constant Matrix: (Units=GPa)
#
#
# Indices 1 2 3 4 5 6 
#
# 1 181.4507 43.3743 60.6551 -34.2618 23.7974 -18.2486
# 2 43.3743 105.2424 53.3904 -32.6534 1.2595 -6.0010
# 3 60.6551 53.3904 176.2293 -34.4156 -21.4000 -9.7652
# 4 -34.2618 -32.6534 -34.4156 52.0862 -17.2986 1.5132
# 5 23.7974 1.2595 -21.4000 -17.2986 58.8184 -9.4622
# 6 -18.2486 -6.0010 -9.7652 1.5132 -9.4622 27.4066
#
#
#
# Elastic Compliance Matrix: (Units=1/GPa)
#
#
# Indices 1 2 3 4 5 6 
#
# 1 0.007484 -0.001317 -0.001996 0.001788 -0.002727 0.002944
# 2 -0.001317 0.013154 -0.001938 0.006634 0.001746 0.001549
# 3 -0.001996 -0.001938 0.008921 0.005326 0.006187 0.003267
# 4 0.001788 0.006634 0.005326 0.031667 0.011472 0.006753
# 5 -0.002727 0.001746 0.006187 0.011472 0.025109 0.008807
# 6 0.002944 0.001549 0.003267 0.006753 0.008807 0.042619
#
#
# Mechanical properties :
#
#
# Convention : Reuss Voigt Hill
#
# Bulk Modulus (GPa) = 52.47404 86.41800 69.44602
# Shear Modulus (GPa) = 34.29142 48.02907 41.16025
#
# Velocity S-wave (km/s) = 3.68509 4.36121 4.03733
# Velocity P-wave (km/s) = 6.23594 7.71900 7.01676
#
# Compressibility (1/GPa) = 0.01905704
#
# Stress axis : x y z
#
# Youngs Moduli (GPa) = 133.61222 76.02389 112.09333
#
# Poissons Ratio (x) = 0.10012 0.22373
# Poissons Ratio (y) = 0.17595 0.21727
# Poissons Ratio (z) = 0.26668 0.14736
#
# Static dielectric constant tensor:
#      x y z
#    x 2.070840 -0.041740 -0.001910 
#    y -0.041740 2.292880 0.271400 
#    z -0.001910 0.271400 2.206630 
# 
# From -- ./inp_files/410409.got.cif
#   From: 2010.05.17/outbox.cif.g08.bks.cpg/sg2_206_cif.got.tgz:410409.got - 2010.06.03 11:33:40.
