data_PCOD9112618
_publ_section_title
;
Structure prediction by ZEFSAII (Michael W. Deem and Ramdas Pophale) SiO2 
 PCOD9112618
Probable space group: P 2
;
_chemical_formula_sum "Si O2"
_cell_formula_units_Z 16
_cell_length_a 9.575700
_cell_length_b 7.289050
_cell_length_c 10.049622
_cell_angle_alpha 90.000000
_cell_angle_beta 66.999130
_cell_angle_gamma 90.000000
_cell_volume 645.675743
_symmetry_space_group_name_H-M "P 2"
_symmetry_group_IT_number 3
_symmetry_cell_setting 'monoclinic'
loop_
_space_group_symop_operation_xyz
x,y,z
-x,y,-z
loop_
_atom_site_type_symbol
_atom_site_label
_atom_site_fract_x
_atom_site_fract_y
_atom_site_fract_z
Si Si1 0.940644 0.353800 0.273203
Si Si2 0.507653 0.668954 0.630168
Si Si3 0.948798 0.724772 0.654229
Si Si4 0.854543 0.832148 0.970334
Si Si5 0.487335 0.900696 0.877701
Si Si6 0.708429 0.234982 0.861254
Si Si7 0.753648 0.413395 0.576974
Si Si8 0.258397 0.449385 0.889803
O O1 0.853307 0.291630 0.440293
O O2 0.848341 0.334394 0.170710
O O3 0.946070 0.576065 0.303785
O O4 0.105874 0.259061 0.202965
O O5 0.500000 0.787538 0.500000
O O6 0.559293 0.807380 0.724140
O O7 0.628716 0.518293 0.539825
O O8 0.375485 0.557382 0.752343
O O9 0.845473 0.573365 0.618611
O O10 0.000000 0.831091 0.500000
O O11 0.883551 0.843182 0.800266
O O12 0.694734 0.922118 0.078518
O O13 0.834122 0.614970 0.006594
O O14 0.000000 0.897500 0.000000
O O15 0.500000 0.762633 0.000000
O O16 0.392701 0.053525 0.119066
O O17 0.673401 0.321595 0.731111
O O18 0.669121 0.334637 0.015671
#
# Coordination Sequence:
#
# PCOD9112618 Si02
#       8
#     2   2   2   2   2   2   2   2
#     4  10  18  37  67 112 141 176 246 313 361 418
#     4  11  24  43  70 109 142 189 245 313 375 432
#     4   9  17  29  60 104 140 168 225 317 366 405
#     4  11  19  39  69 103 144 185 249 312 355 429
#     4  11  28  45  65 102 157 202 240 281 382 464
#     4  11  23  41  68 104 153 194 232 301 372 452
#     4  10  20  37  70 107 141 180 251 305 360 426
#     4  11  20  36  72 113 140 182 251 319 365 407
#
# _framework density 24.780239000000002
#
# number of rings (size 3 to 8) (size 9 to 14) (size 15 to 20)
#    0.000    1.500    5.000    2.250    3.500    0.000 
#    0.000    3.125    0.000   19.500    0.000    0.000 
#    0.000    0.000    0.000    0.000    0.000    0.000 
#
# Total GULP energy -89075.364144 kJ/mol
# GULP energy per Si atom -5567.210259 kJ/mol
# Density = 2.472384 g / cm^3
# Si number density = 24.780239 Si / 1000 Ang^3
#
#
#
# Elastic Constant Matrix: (Units=GPa)
#
#
# Indices 1 2 3 4 5 6 
#
# 1 109.4395 45.0051 52.6224 0.0000 -1.9287 0.0000
# 2 45.0051 67.4427 40.5088 0.0000 5.1089 0.0000
# 3 52.6224 40.5088 219.5918 0.0000 15.1627 0.0000
# 4 0.0000 0.0000 0.0000 -0.7862 0.0000 -3.9669
# 5 -1.9287 5.1089 15.1627 0.0000 45.0445 0.0000
# 6 0.0000 0.0000 0.0000 -3.9669 0.0000 17.6299
#
#
#
# Elastic Compliance Matrix: (Units=1/GPa)
#
#
# Indices 1 2 3 4 5 6 
#
# 1 0.013340 -0.007933 -0.001879 0.000000 0.002103 0.000000
# 2 -0.007933 0.021426 -0.001905 0.000000 -0.002129 0.000000
# 3 -0.001879 -0.001905 0.005473 0.000000 -0.001707 0.000000
# 4 0.000000 0.000000 0.000000 -0.595664 0.000000 -0.134031
# 5 0.002103 -0.002129 -0.001707 0.000000 0.023106 0.000000
# 6 0.000000 0.000000 0.000000 -0.134031 0.000000 0.026563
#
#
# Mechanical properties :
#
#
# Convention : Reuss Voigt Hill
#
# Bulk Modulus (GPa) = 59.49724 74.74962 67.12343
# Shear Modulus (GPa) = -10.48834 29.60016 9.55591
#
# Velocity S-wave (km/s) = -2.05955 3.45991 1.96587
# Velocity P-wave (km/s) = 4.29027 6.79646 5.68323
#
# Compressibility (1/GPa) = 0.01680750
#
# Stress axis : x y z
#
# Youngs Moduli (GPa) = 74.96182 46.67156 182.70557
#
# Poissons Ratio (x) = 0.37024 0.34323
# Poissons Ratio (y) = 0.59467 0.34798
# Poissons Ratio (z) = 0.14082 0.08889
#
# Static dielectric constant tensor:
#      x y z
#    x 2.081680 0.000000 -0.013280 
#    y 0.000000 2.123700 0.000000 
#    z -0.013280 0.000000 2.701870 
# 
# From -- ./inp_files/7434.got.cif
#   From: 2010.05.17/outbox.cif.g08.bks.cpg/sg3_4_cif.got.tgz:7434.got - 2010.06.03 18:33:08.
