data_PCOD9112311
_publ_section_title
;
Structure prediction by ZEFSAII (Michael W. Deem and Ramdas Pophale) SiO2 
 PCOD9112311
Probable space group: P -1
;
_chemical_formula_sum "Si O2"
_cell_formula_units_Z 15
_cell_length_a 8.186902
_cell_length_b 13.981386
_cell_length_c 11.862651
_cell_angle_alpha 129.460599
_cell_angle_beta 105.218651
_cell_angle_gamma 113.747745
_cell_volume 652.085109
_symmetry_space_group_name_H-M "P -1"
_symmetry_group_IT_number 2
_symmetry_cell_setting 'triclinic'
loop_
_space_group_symop_operation_xyz
x,y,z
-x,-y,-z
loop_
_atom_site_type_symbol
_atom_site_label
_atom_site_fract_x
_atom_site_fract_y
_atom_site_fract_z
Si Si1 0.647692 0.487898 0.672442
Si Si2 0.651344 0.913611 0.664815
Si Si3 0.000000 0.000000 0.000000
Si Si4 0.096107 0.250591 0.882932
Si Si5 0.871400 0.251129 0.493924
Si Si6 0.839658 0.641345 0.595894
Si Si7 0.228486 0.079571 0.685384
Si Si8 0.815819 0.469342 0.033141
O O1 0.489033 0.289979 0.552968
O O2 0.774101 0.519702 0.600583
O O3 0.442182 0.481831 0.602277
O O4 0.856171 0.652523 0.919961
O O5 0.427983 0.873409 0.646377
O O6 0.787362 0.052162 0.685406
O O7 0.847443 0.977868 0.846609
O O8 0.048229 0.167080 0.190530
O O9 0.230627 0.191964 0.861747
O O10 0.202083 0.399565 0.918214
O O11 0.983567 0.316580 0.437416
O O12 0.040645 0.430718 0.745458
O O13 0.866976 0.105125 0.423483
O O14 0.528696 0.247351 0.822431
O O15 0.000000 0.000000 0.500000
O O16 0.000000 0.500000 0.000000
#
# Coordination Sequence:
#
# PCOD9112311 Si02
#       8
#     2   2   1   2   2   2   2   2
#     4  10  22  42  70 100 134 188 240 283 360 418
#     4  11  25  43  73 104 140 192 230 304 353 431
#     4  10  20  46  68 100 136 182 240 274 364 418
#     4  12  24  44  74 100 144 187 247 282 359 429
#     4  12  27  46  68 107 149 183 242 297 366 415
#     4  10  22  42  69 101 138 185 232 297 347 433
#     4  12  27  45  73 107 141 193 245 298 350 430
#     4  12  28  47  72 105 148 192 240 299 362 423
#
# _framework density 23.003132000000001
#
# number of rings (size 3 to 8) (size 9 to 14) (size 15 to 20)
#    0.000    0.800    2.667    4.400    5.600    2.133 
#    2.400    0.000    0.000    0.000    0.000    0.000 
#    0.000    0.000    0.000    0.000    0.000    0.000 
#
# Total GULP energy -83612.058453 kJ/mol
# GULP energy per Si atom -5574.137230 kJ/mol
# Density = 2.295078 g / cm^3
# Si number density = 23.003132 Si / 1000 Ang^3
#
#
#
# Elastic Constant Matrix: (Units=GPa)
#
#
# Indices 1 2 3 4 5 6 
#
# 1 61.6163 2.7448 6.7613 -6.4581 5.1107 21.5999
# 2 2.7448 41.7999 27.0252 7.2326 5.5932 16.9277
# 3 6.7613 27.0252 88.2612 9.9781 -13.7273 9.3872
# 4 -6.4581 7.2326 9.9781 16.6146 5.3966 2.4764
# 5 5.1107 5.5932 -13.7273 5.3966 28.2426 3.6631
# 6 21.5999 16.9277 9.3872 2.4764 3.6631 48.7944
#
#
#
# Elastic Compliance Matrix: (Units=1/GPa)
#
#
# Indices 1 2 3 4 5 6 
#
# 1 0.022548 0.004865 -0.005039 0.014134 -0.008799 -0.010756
# 2 0.004865 0.038749 -0.012829 -0.001254 -0.012982 -0.012090
# 3 -0.005039 -0.012829 0.019186 -0.013133 0.014959 0.002534
# 4 0.014134 -0.001254 -0.013133 0.082680 -0.023750 -0.005708
# 5 -0.008799 -0.012982 0.014959 -0.023750 0.051004 0.002897
# 6 -0.010756 -0.012090 0.002534 -0.005708 0.002897 0.029035
#
#
# Mechanical properties :
#
#
# Convention : Reuss Voigt Hill
#
# Bulk Modulus (GPa) = 18.35668 29.41557 23.88613
# Shear Modulus (GPa) = 17.39951 29.07339 23.23645
#
# Velocity S-wave (km/s) = 2.75325 3.55898 3.18172
# Velocity P-wave (km/s) = 4.25495 5.45012 4.88919
#
# Compressibility (1/GPa) = 0.05447608
#
# Stress axis : x y z
#
# Youngs Moduli (GPa) = 44.35079 25.80745 52.12164
#
# Poissons Ratio (x) = -0.12556 0.26265
# Poissons Ratio (y) = -0.21578 0.66866
# Poissons Ratio (z) = 0.22349 0.33108
#
# Static dielectric constant tensor:
#      x y z
#    x 1.881870 0.007010 -0.010170 
#    y 0.007010 1.899530 0.013880 
#    z -0.010170 0.013880 1.857190 
# 
# From -- ./inp_files/397790.got.cif
#   From: 2010.05.17/outbox.cif.g08.bks.cpg/sg2_199_cif.got.tgz:397790.got - 2010.06.03 11:33:40.
