data_PCOD9112876
_publ_section_title
;
Structure prediction by ZEFSAII (Michael W. Deem and Ramdas Pophale) SiO2 
 PCOD9112876
Probable space group: P 2
;
_chemical_formula_sum "Si O2"
_cell_formula_units_Z 12
_cell_length_a 10.618416
_cell_length_b 4.924778
_cell_length_c 16.701138
_cell_angle_alpha 90.000000
_cell_angle_beta 138.628436
_cell_angle_gamma 90.000000
_cell_volume 577.237009
_symmetry_space_group_name_H-M "P 2"
_symmetry_group_IT_number 3
_symmetry_cell_setting 'monoclinic'
loop_
_space_group_symop_operation_xyz
x,y,z
-x,y,-z
loop_
_atom_site_type_symbol
_atom_site_label
_atom_site_fract_x
_atom_site_fract_y
_atom_site_fract_z
Si Si1 0.841311 0.941240 0.076504
Si Si2 0.555139 0.286813 0.721926
Si Si3 0.305445 0.590874 0.855003
Si Si4 0.574534 0.754677 0.624925
Si Si5 0.933375 0.475050 0.858615
Si Si6 0.413969 0.081283 0.820413
O O1 0.834413 0.755471 0.153324
O O2 0.917979 0.714505 0.050415
O O3 0.667971 0.781067 0.209610
O O4 0.968818 0.210243 0.132271
O O5 0.468613 0.543361 0.633739
O O6 0.776457 0.367258 0.848091
O O7 0.442520 0.194153 0.745661
O O8 0.571409 0.043305 0.666423
O O9 0.289601 0.286055 0.815482
O O10 0.628602 0.048629 0.957672
O O11 0.500000 0.586814 0.000000
O O12 0.500000 0.765088 0.500000
O O13 0.786453 0.627691 0.728519
#
# Coordination Sequence:
#
# PCOD9112876 Si02
#       6
#     2   2   2   2   2   2
#     4  11  20  35  54  77 118 147 182 222 256 318
#     4  10  21  36  53  85 111 136 191 215 286 339
#     4  10  20  34  52  74 105 155 198 210 249 302
#     4  10  20  38  57  79 111 136 182 233 280 341
#     4  10  20  36  51  85 108 138 186 214 283 335
#     4  11  21  35  52  78 115 150 180 224 253 317
#
# _framework density 20.788688
#
# number of rings (size 3 to 8) (size 9 to 14) (size 15 to 20)
#    1.000    0.667    1.667    6.000    0.000    0.667 
#    3.000    0.000    0.000    0.000    0.000   17.500 
#    0.000    0.000    0.000    0.000    0.000    0.000 
#
# Total GULP energy -66842.486488 kJ/mol
# GULP energy per Si atom -5570.207207 kJ/mol
# Density = 2.074137 g / cm^3
# Si number density = 20.788688 Si / 1000 Ang^3
#
#
#
# Elastic Constant Matrix: (Units=GPa)
#
#
# Indices 1 2 3 4 5 6 
#
# 1 53.5378 10.0621 15.4405 0.0000 -16.5120 0.0000
# 2 10.0621 137.7618 17.7233 0.0000 -6.9014 0.0000
# 3 15.4405 17.7233 28.2114 0.0000 -12.5487 0.0000
# 4 0.0000 0.0000 0.0000 14.5128 0.0000 -11.5856
# 5 -16.5120 -6.9014 -12.5487 0.0000 17.6086 0.0000
# 6 0.0000 0.0000 0.0000 -11.5856 0.0000 38.5089
#
#
#
# Elastic Compliance Matrix: (Units=1/GPa)
#
#
# Indices 1 2 3 4 5 6 
#
# 1 0.026779 -0.000243 -0.004943 0.000000 0.021493 0.000000
# 2 -0.000243 0.007904 -0.005207 0.000000 -0.000841 0.000000
# 3 -0.004943 -0.005207 0.056300 0.000000 0.033446 0.000000
# 4 0.000000 0.000000 0.000000 0.090685 0.000000 0.027283
# 5 0.021493 -0.000841 0.033446 0.000000 0.100450 0.000000
# 6 0.000000 0.000000 0.000000 0.027283 0.000000 0.034176
#
#
# Mechanical properties :
#
#
# Convention : Reuss Voigt Hill
#
# Bulk Modulus (GPa) = 14.24560 33.99585 24.12073
# Shear Modulus (GPa) = 13.87041 25.87841 19.87441
#
# Velocity S-wave (km/s) = 2.58584 3.53204 3.09531
# Velocity P-wave (km/s) = 3.97277 5.74651 4.93990
#
# Compressibility (1/GPa) = 0.07019711
#
# Stress axis : x y z
#
# Youngs Moduli (GPa) = 37.34333 126.51186 17.76189
#
# Poissons Ratio (x) = 0.03077 0.08780
# Poissons Ratio (y) = 0.00908 0.09248
# Poissons Ratio (z) = 0.18460 0.65869
#
# Static dielectric constant tensor:
#      x y z
#    x 1.866400 0.000000 0.012780 
#    y 0.000000 1.761100 0.000000 
#    z 0.012780 0.000000 1.739760 
# 
# From -- ./inp_files/15191.got.cif
#   From: 2010.05.17/outbox.cif.g08.bks.cpg/sg3_8_cif.got.tgz:15191.got - 2010.06.03 18:33:08.
