data_PCOD9112076
_publ_section_title
;
Structure prediction by ZEFSAII (Michael W. Deem and Ramdas Pophale) SiO2 
 PCOD9112076
Probable space group: P -1
;
_chemical_formula_sum "Si O2"
_cell_formula_units_Z 16
_cell_length_a 9.285765
_cell_length_b 16.473100
_cell_length_c 18.905174
_cell_angle_alpha 150.040645
_cell_angle_beta 147.213380
_cell_angle_gamma 27.922044
_cell_volume 640.354761
_symmetry_space_group_name_H-M "P -1"
_symmetry_group_IT_number 2
_symmetry_cell_setting 'triclinic'
loop_
_space_group_symop_operation_xyz
x,y,z
-x,-y,-z
loop_
_atom_site_type_symbol
_atom_site_label
_atom_site_fract_x
_atom_site_fract_y
_atom_site_fract_z
Si Si1 0.093551 0.242189 0.586694
Si Si2 0.629834 0.387944 0.042522
Si Si3 0.793394 0.863217 0.609244
Si Si4 0.259564 0.292230 0.187858
Si Si5 0.760241 0.057229 0.337953
Si Si6 0.621298 0.091933 0.898557
Si Si7 0.451161 0.644006 0.305015
Si Si8 0.449017 0.717555 0.844726
O O1 0.077316 0.193985 0.461141
O O2 0.931952 0.473727 0.698856
O O3 0.891134 0.189034 0.512598
O O4 0.473426 0.087718 0.643871
O O5 0.560010 0.529111 0.187505
O O6 0.011268 0.241743 0.072416
O O7 0.500000 0.500000 0.000000
O O8 0.497400 0.261433 0.917042
O O9 0.678534 0.719921 0.471897
O O10 0.072884 0.833669 0.752762
O O11 0.567693 0.159317 0.263658
O O12 0.357858 0.271993 0.132352
O O13 0.503840 0.045885 0.270716
O O14 0.086925 0.840003 0.298494
O O15 0.472441 0.200959 0.993710
O O16 0.000000 0.000000 0.000000
O O17 0.467331 0.495011 0.256605
#
# Coordination Sequence:
#
# PCOD9112076 Si02
#       8
#     2   2   2   2   2   2   2   2
#     4  10  22  42  71 104 139 183 234 292 338 410
#     4  11  26  44  73  99 137 190 232 287 347 425
#     4  10  20  44  69 102 140 187 233 280 350 410
#     4  12  24  43  70 108 135 183 238 284 352 407
#     4  11  24  44  71  96 142 184 228 292 341 408
#     4  11  26  49  67 101 143 183 235 284 354 413
#     4  10  24  46  68 101 143 182 230 294 348 411
#     4  11  26  42  72 105 139 186 230 291 348 416
#
# _framework density 24.986149000000001
#
# number of rings (size 3 to 8) (size 9 to 14) (size 15 to 20)
#    0.000    1.250    3.750    0.750    3.500    3.500 
#    2.250    1.250    0.000    0.000    0.000    0.000 
#    0.000    0.000    0.000    0.000    0.000    0.000 
#
# Total GULP energy -89611.468030 kJ/mol
# GULP energy per Si atom -5600.716752 kJ/mol
# Density = 2.492928 g / cm^3
# Si number density = 24.986149 Si / 1000 Ang^3
#
#
#
# Elastic Constant Matrix: (Units=GPa)
#
#
# Indices 1 2 3 4 5 6 
#
# 1 136.1383 36.1655 44.9254 7.3350 15.0103 14.9909
# 2 36.1655 99.5782 15.9707 4.7684 8.5290 31.1248
# 3 44.9254 15.9707 89.4892 6.8782 7.6791 8.2194
# 4 7.3350 4.7684 6.8782 30.7365 10.4816 10.9708
# 5 15.0103 8.5290 7.6791 10.4816 46.6011 -5.4370
# 6 14.9909 31.1248 8.2194 10.9708 -5.4370 31.8790
#
#
#
# Elastic Compliance Matrix: (Units=1/GPa)
#
#
# Indices 1 2 3 4 5 6 
#
# 1 0.009730 -0.002017 -0.004159 0.000514 -0.002443 -0.002127
# 2 -0.002017 0.016913 -0.000267 0.006733 -0.006116 -0.018856
# 3 -0.004159 -0.000267 0.013557 -0.001477 -0.000615 -0.000876
# 4 0.000514 0.006733 -0.001477 0.045253 -0.014183 -0.024427
# 5 -0.002443 -0.006116 -0.000615 -0.014183 0.028645 0.017045
# 6 -0.002127 -0.018856 -0.000876 -0.024427 0.017045 0.062318
#
#
# Mechanical properties :
#
#
# Convention : Reuss Voigt Hill
#
# Bulk Modulus (GPa) = 36.61119 57.70320 47.15719
# Shear Modulus (GPa) = 25.20085 37.05291 31.12688
#
# Velocity S-wave (km/s) = 3.17928 3.85507 3.53337
# Velocity P-wave (km/s) = 5.30674 6.55436 5.96327
#
# Compressibility (1/GPa) = 0.02731405
#
# Stress axis : x y z
#
# Youngs Moduli (GPa) = 102.77778 59.12684 73.76358
#
# Poissons Ratio (x) = 0.11926 0.30678
# Poissons Ratio (y) = 0.20731 0.01966
# Poissons Ratio (z) = 0.42745 0.01576
#
# Static dielectric constant tensor:
#      x y z
#    x 2.011110 -0.029500 0.042620 
#    y -0.029500 1.989960 -0.027780 
#    z 0.042620 -0.027780 2.019460 
# 
# From -- ./inp_files/561392.got.cif
#   From: 2010.05.17/outbox.cif.g08.bks.cpg/sg2_281_cif.got.tgz:561392.got - 2010.06.03 11:33:40.
