data_PCOD9112296
_publ_section_title
;
Structure prediction by ZEFSAII (Michael W. Deem and Ramdas Pophale) SiO2 
 PCOD9112296
Probable space group: P -1
;
_chemical_formula_sum "Si O2"
_cell_formula_units_Z 14
_cell_length_a 18.685232
_cell_length_b 4.987765
_cell_length_c 4.899081
_cell_angle_alpha 86.222140
_cell_angle_beta 79.664274
_cell_angle_gamma 91.579159
_cell_volume 447.836688
_symmetry_space_group_name_H-M "P -1"
_symmetry_group_IT_number 2
_symmetry_cell_setting 'triclinic'
loop_
_space_group_symop_operation_xyz
x,y,z
-x,-y,-z
loop_
_atom_site_type_symbol
_atom_site_label
_atom_site_fract_x
_atom_site_fract_y
_atom_site_fract_z
Si Si1 0.552415 0.730277 0.167488
Si Si2 0.000000 0.500000 0.000000
Si Si3 0.883979 0.208679 0.384069
Si Si4 0.734831 0.115775 0.263784
Si Si5 0.702976 0.809130 0.816018
Si Si6 0.141899 0.342397 0.208050
Si Si7 0.587707 0.221528 0.503837
Si Si8 0.000000 0.000000 0.500000
O O1 0.555549 0.437743 0.312971
O O2 0.466124 0.786745 0.197610
O O3 0.578016 0.940304 0.370837
O O4 0.618398 0.727743 0.906714
O O5 0.089366 0.422721 0.998172
O O6 0.969547 0.232183 0.262865
O O7 0.821182 0.153551 0.215482
O O8 0.855685 0.432334 0.580795
O O9 0.995043 0.247088 0.726553
O O10 0.674050 0.290101 0.445137
O O11 0.724798 0.858925 0.489000
O O12 0.708872 0.082451 0.975739
O O13 0.772352 0.675920 0.917361
O O14 0.107092 0.065258 0.400778
#
# Coordination Sequence:
#
# PCOD9112296 Si02
#       8
#     2   1   2   2   2   2   2   1
#     4   9  20  42  72 107 147 192 242 297 359 430
#     4  10  24  38  66  98 126 182 232 296 358 428
#     4  11  25  42  68  98 136 180 237 290 359 426
#     4  11  26  45  72 105 144 189 237 298 363 429
#     4  11  26  45  72 105 144 189 237 298 363 429
#     4  11  25  42  68  98 136 180 237 290 359 426
#     4   9  20  42  72 107 147 192 242 297 359 430
#     4  10  20  46  62  94 136 174 234 292 354 424
#
# _framework density 31.261398
#
# number of rings (size 3 to 8) (size 9 to 14) (size 15 to 20)
#    0.000    1.714    1.429    1.714    6.000    5.143 
#    0.000    7.143    0.000   16.286    0.000    0.000 
#    0.000    0.000    0.000    0.000    0.000    0.000 
#
# Total GULP energy -78123.337126 kJ/mol
# GULP energy per Si atom -5580.238366 kJ/mol
# Density = 3.119025 g / cm^3
# Si number density = 31.261398 Si / 1000 Ang^3
#
#
#
# Elastic Constant Matrix: (Units=GPa)
#
#
# Indices 1 2 3 4 5 6 
#
# 1 232.7635 39.1333 63.8777 6.1231 -50.0687 -13.6017
# 2 39.1333 148.3002 48.6804 8.6886 -8.7611 13.9387
# 3 63.8777 48.6804 194.7986 0.7032 -20.5612 8.1362
# 4 6.1231 8.6886 0.7032 19.6589 10.9295 -17.2095
# 5 -50.0687 -8.7611 -20.5612 10.9295 71.5437 -1.0338
# 6 -13.6017 13.9387 8.1362 -17.2095 -1.0338 67.1870
#
#
#
# Elastic Compliance Matrix: (Units=1/GPa)
#
#
# Indices 1 2 3 4 5 6 
#
# 1 0.005773 -0.000757 -0.001299 -0.002978 0.004040 0.000783
# 2 -0.000757 0.008238 -0.001531 -0.006945 0.001050 -0.003440
# 3 -0.001299 -0.001531 0.006039 -0.000099 0.000644 -0.000692
# 4 -0.002978 -0.006945 -0.000099 0.082335 -0.015228 0.021705
# 5 0.004040 0.001050 0.000644 -0.015228 0.019401 -0.003080
# 6 0.000783 -0.003440 -0.000692 0.021705 -0.003080 0.021352
#
#
# Mechanical properties :
#
#
# Convention : Reuss Voigt Hill
#
# Bulk Modulus (GPa) = 77.66626 97.69390 87.68008
# Shear Modulus (GPa) = 32.34061 59.95598 46.14830
#
# Velocity S-wave (km/s) = 3.21989 4.38413 3.84631
# Velocity P-wave (km/s) = 6.22267 7.54625 6.91620
#
# Compressibility (1/GPa) = 0.01287560
#
# Stress axis : x y z
#
# Youngs Moduli (GPa) = 173.21038 121.39443 165.58062
#
# Poissons Ratio (x) = 0.09193 0.21515
# Poissons Ratio (y) = 0.13117 0.25345
# Poissons Ratio (z) = 0.22507 0.18582
#
# Static dielectric constant tensor:
#      x y z
#    x 2.904320 0.121830 -0.016840 
#    y 0.121830 2.877230 0.104250 
#    z -0.016840 0.104250 3.020220 
# 
# From -- ./inp_files/7884.got.cif
#   From: 2010.05.17/outbox.cif.g08.bks.cpg/sg2_4_cif.got.tgz:7884.got - 2010.06.03 11:33:40.
