data_PCOD9112326
_publ_section_title
;
Structure prediction by ZEFSAII (Michael W. Deem and Ramdas Pophale) SiO2 
 PCOD9112326
Probable space group: P -1
;
_chemical_formula_sum "Si O2"
_cell_formula_units_Z 16
_cell_length_a 20.757888
_cell_length_b 5.096098
_cell_length_c 7.822481
_cell_angle_alpha 118.488886
_cell_angle_beta 129.483628
_cell_angle_gamma 78.058906
_cell_volume 555.633785
_symmetry_space_group_name_H-M "P -1"
_symmetry_group_IT_number 2
_symmetry_cell_setting 'triclinic'
loop_
_space_group_symop_operation_xyz
x,y,z
-x,-y,-z
loop_
_atom_site_type_symbol
_atom_site_label
_atom_site_fract_x
_atom_site_fract_y
_atom_site_fract_z
Si Si1 0.923201 0.241143 0.820642
Si Si2 0.681432 0.624509 0.239652
Si Si3 0.794914 0.010191 0.292851
Si Si4 0.805951 0.220422 0.933155
Si Si5 0.084645 0.371106 0.555699
Si Si6 0.469790 0.143176 0.825711
Si Si7 0.299161 0.412915 0.371799
Si Si8 0.614144 0.019318 0.806330
O O1 0.852431 0.286575 0.570359
O O2 0.881330 0.258021 0.937961
O O3 0.940106 0.897634 0.705848
O O4 0.000000 0.500000 0.000000
O O5 0.628447 0.874788 0.302240
O O6 0.687359 0.442282 0.371651
O O7 0.634248 0.388872 0.947148
O O8 0.763492 0.800766 0.345645
O O9 0.704411 0.988232 0.042568
O O10 0.867883 0.822233 0.285828
O O11 0.734647 0.391116 0.774867
O O12 0.770123 0.874302 0.791862
O O13 0.841707 0.336709 0.216701
O O14 0.000000 0.500000 0.500000
O O15 0.500000 0.500000 0.000000
O O16 0.521133 0.984106 0.720272
O O17 0.500000 0.000000 0.000000
O O18 0.380766 0.250258 0.404598
#
# Coordination Sequence:
#
# PCOD9112326 Si02
#       8
#     2   2   2   2   2   2   2   2
#     4  10  24  46  68 101 142 189 246 304 377 436
#     4  11  23  43  72 103 147 192 247 299 370 442
#     4  10  20  46  70  96 138 198 242 299 370 449
#     4  12  26  48  72 107 140 196 244 311 370 444
#     4  10  24  46  68 101 142 189 246 304 377 436
#     4  10  22  39  72 105 149 193 238 301 365 433
#     4  12  26  42  76 106 146 188 252 298 366 444
#     4  11  23  43  72 103 147 192 247 299 370 442
#
# _framework density 28.795946000000001
#
# number of rings (size 3 to 8) (size 9 to 14) (size 15 to 20)
#    0.750    0.500    3.750    1.500    1.750    1.500 
#    6.750    0.000    0.000    4.500    0.000    0.000 
#    0.000    0.000    0.000    0.000    0.000    0.000 
#
# Total GULP energy -89209.419726 kJ/mol
# GULP energy per Si atom -5575.588733 kJ/mol
# Density = 2.873040 g / cm^3
# Si number density = 28.795946 Si / 1000 Ang^3
#
#
#
# Elastic Constant Matrix: (Units=GPa)
#
#
# Indices 1 2 3 4 5 6 
#
# 1 135.4066 29.5779 19.9687 20.1752 -4.9528 -50.7796
# 2 29.5779 112.8672 12.1837 3.5440 5.5666 -32.5533
# 3 19.9687 12.1837 100.8213 19.2392 -11.4161 -9.0290
# 4 20.1752 3.5440 19.2392 55.7024 0.3143 5.3529
# 5 -4.9528 5.5666 -11.4161 0.3143 52.3196 5.8240
# 6 -50.7796 -32.5533 -9.0290 5.3529 5.8240 63.6089
#
#
#
# Elastic Compliance Matrix: (Units=1/GPa)
#
#
# Indices 1 2 3 4 5 6 
#
# 1 0.011922 -0.000070 -0.000506 -0.005084 -0.000039 0.009841
# 2 -0.000070 0.010692 -0.000831 -0.000891 -0.001938 0.005551
# 3 -0.000506 -0.000831 0.011178 -0.003720 0.002407 0.000850
# 4 -0.005084 -0.000891 -0.003720 0.021795 -0.000569 -0.006825
# 5 -0.000039 -0.001938 0.002407 -0.000569 0.020120 -0.002476
# 6 0.009841 0.005551 0.000850 -0.006825 -0.002476 0.027340
#
#
# Mechanical properties :
#
#
# Convention : Reuss Voigt Hill
#
# Bulk Modulus (GPa) = 32.27902 52.50620 42.39261
# Shear Modulus (GPa) = 43.03472 53.48382 48.25927
#
# Velocity S-wave (km/s) = 3.87003 4.31436 4.09822
# Velocity P-wave (km/s) = 5.58600 6.56443 6.09488
#
# Compressibility (1/GPa) = 0.03097988
#
# Stress axis : x y z
#
# Youngs Moduli (GPa) = 83.88065 93.52376 89.46401
#
# Poissons Ratio (x) = 0.00651 0.04524
# Poissons Ratio (y) = 0.00584 0.07432
# Poissons Ratio (z) = 0.04242 0.07769
#
# Static dielectric constant tensor:
#      x y z
#    x 2.329150 -0.196160 -0.040700 
#    y -0.196160 3.053750 -0.079500 
#    z -0.040700 -0.079500 2.445410 
# 
# From -- ./inp_files/340689.got.cif
#   From: 2010.05.17/outbox.cif.g08.bks.cpg/sg2_171_cif.got.tgz:340689.got - 2010.06.03 11:33:40.
