data_PCOD9112921
_publ_section_title
;
Structure prediction by ZEFSAII (Michael W. Deem and Ramdas Pophale) SiO2 
 PCOD9112921
Probable space group: P 2
;
_chemical_formula_sum "Si O2"
_cell_formula_units_Z 15
_cell_length_a 11.381157
_cell_length_b 14.517338
_cell_length_c 11.787438
_cell_angle_alpha 90.000000
_cell_angle_beta 25.081414
_cell_angle_gamma 90.000000
_cell_volume 825.585440
_symmetry_space_group_name_H-M "P 2"
_symmetry_group_IT_number 3
_symmetry_cell_setting 'monoclinic'
loop_
_space_group_symop_operation_xyz
x,y,z
-x,y,-z
loop_
_atom_site_type_symbol
_atom_site_label
_atom_site_fract_x
_atom_site_fract_y
_atom_site_fract_z
Si Si1 0.690076 0.556140 0.723031
Si Si2 0.691450 0.758613 0.722442
Si Si3 0.961026 0.243645 0.707961
Si Si4 0.816386 0.173946 0.259133
Si Si5 0.442086 0.360704 0.185248
Si Si6 0.305417 0.946407 0.406184
Si Si7 0.916068 0.972932 0.952032
Si Si8 0.000000 0.083576 0.500000
O O1 0.676763 0.657104 0.678447
O O2 0.584057 0.465978 0.749591
O O3 0.000000 0.539108 0.500000
O O4 0.500000 0.564730 0.000000
O O5 0.627272 0.846418 0.702968
O O6 0.000000 0.769011 0.500000
O O7 0.500000 0.760982 0.000000
O O8 0.153626 0.216705 0.644129
O O9 0.156589 0.310984 0.464585
O O10 0.880865 0.154940 0.699966
O O11 0.697491 0.294902 0.993037
O O12 0.500000 0.167585 0.500000
O O13 0.952360 0.074019 0.155921
O O14 0.000000 0.220964 0.000000
O O15 0.500000 0.368207 0.000000
O O16 0.062743 0.933398 0.711332
O O17 0.587130 0.980161 0.220346
O O18 0.203516 0.016605 0.395245
O O19 0.000000 0.927910 0.000000
#
# Coordination Sequence:
#
# PCOD9112921 Si02
#       8
#     2   2   2   2   2   2   2   1
#     4   9  18  33  54  77 113 153 187 233 274 346
#     4  10  20  36  55  84 117 151 189 228 291 353
#     4  12  24  35  55  83 118 153 183 228 286 347
#     4  11  23  41  58  77 107 155 208 242 269 317
#     4  11  20  35  51  83 115 148 185 224 286 349
#     4  12  24  38  58  84 120 155 188 233 292 347
#     4  11  24  40  58  78 108 157 208 241 266 320
#     4  12  26  36  54  90 130 156 180 222 298 362
#
# _framework density 18.168925000000002
#
# number of rings (size 3 to 8) (size 9 to 14) (size 15 to 20)
#    0.000    1.067    3.333    5.200    1.867    1.067 
#    0.000    0.000    0.000    0.000    0.000    9.333 
#    0.000    0.000    0.000    0.000    0.000    0.000 
#
# Total GULP energy -83609.531344 kJ/mol
# GULP energy per Si atom -5573.968756 kJ/mol
# Density = 1.812757 g / cm^3
# Si number density = 18.168925 Si / 1000 Ang^3
#
#
#
# Elastic Constant Matrix: (Units=GPa)
#
#
# Indices 1 2 3 4 5 6 
#
# 1 88.0704 38.0215 19.7820 0.0000 -7.8076 0.0000
# 2 38.0215 115.2101 18.5106 0.0000 -4.0993 0.0000
# 3 19.7820 18.5106 102.4406 0.0000 -11.2723 0.0000
# 4 0.0000 0.0000 0.0000 19.9543 0.0000 -0.6154
# 5 -7.8076 -4.0993 -11.2723 0.0000 35.1409 0.0000
# 6 0.0000 0.0000 0.0000 -0.6154 0.0000 7.1002
#
#
#
# Elastic Compliance Matrix: (Units=1/GPa)
#
#
# Indices 1 2 3 4 5 6 
#
# 1 0.013716 -0.004186 -0.001670 0.000000 0.002024 0.000000
# 2 -0.004186 0.010227 -0.001048 0.000000 -0.000073 0.000000
# 3 -0.001670 -0.001048 0.010593 0.000000 0.002905 0.000000
# 4 0.000000 0.000000 0.000000 0.050249 0.000000 0.004355
# 5 0.002024 -0.000073 0.002905 0.000000 0.029830 0.000000
# 6 0.000000 0.000000 0.000000 0.004355 0.000000 0.141218
#
#
# Mechanical properties :
#
#
# Convention : Reuss Voigt Hill
#
# Bulk Modulus (GPa) = 48.24083 50.92767 49.58425
# Shear Modulus (GPa) = 18.07991 27.73287 22.90639
#
# Velocity S-wave (km/s) = 3.15794 3.91114 3.55455
# Velocity P-wave (km/s) = 6.31710 6.96326 6.64803
#
# Compressibility (1/GPa) = 0.02072933
#
# Stress axis : x y z
#
# Youngs Moduli (GPa) = 72.90600 97.77949 94.40096
#
# Poissons Ratio (x) = 0.40934 0.15761
# Poissons Ratio (y) = 0.30521 0.09890
# Poissons Ratio (z) = 0.12172 0.10244
#
# Static dielectric constant tensor:
#      x y z
#    x 1.680270 0.000000 0.023040 
#    y 0.000000 1.701740 0.000000 
#    z 0.023040 0.000000 1.666720 
# 
# From -- ./inp_files/11938.got.cif
#   From: 2010.05.17/outbox.cif.g08.bks.cpg/sg3_6_cif.got.tgz:11938.got - 2010.06.03 18:33:08.
