data_PCOD9112845
_publ_section_title
;
Structure prediction by ZEFSAII (Michael W. Deem and Ramdas Pophale) SiO2 
 PCOD9112845
Probable space group: P 2
;
_chemical_formula_sum "Si O2"
_cell_formula_units_Z 15
_cell_length_a 13.063297
_cell_length_b 8.264582
_cell_length_c 9.215247
_cell_angle_alpha 90.000000
_cell_angle_beta 45.685452
_cell_angle_gamma 90.000000
_cell_volume 711.868285
_symmetry_space_group_name_H-M "P 2"
_symmetry_group_IT_number 3
_symmetry_cell_setting 'monoclinic'
loop_
_space_group_symop_operation_xyz
x,y,z
-x,y,-z
loop_
_atom_site_type_symbol
_atom_site_label
_atom_site_fract_x
_atom_site_fract_y
_atom_site_fract_z
Si Si1 0.345564 0.990300 0.582261
Si Si2 0.741606 0.380720 0.839783
Si Si3 0.289435 0.662513 0.459299
Si Si4 0.102117 0.888780 0.028730
Si Si5 0.256656 0.309192 0.498627
Si Si6 0.037966 0.662949 0.316432
Si Si7 0.968130 0.173690 0.705093
Si Si8 0.500000 0.584196 0.000000
O O1 0.500000 0.996333 0.500000
O O2 0.325033 0.821039 0.515843
O O3 0.229782 0.980930 0.825336
O O4 0.318485 0.149084 0.511317
O O5 0.715091 0.316951 0.702743
O O6 0.874531 0.507255 0.713254
O O7 0.596588 0.475839 0.013484
O O8 0.805459 0.238735 0.873894
O O9 0.312932 0.481633 0.501867
O O10 0.119171 0.651658 0.597547
O O11 0.383470 0.672728 0.217210
O O12 0.140892 0.742344 0.095551
O O13 0.000000 0.833315 0.000000
O O14 0.019855 0.008367 0.219273
O O15 0.083678 0.289121 0.668869
O O16 0.000000 0.761258 0.500000
O O17 0.000000 0.162753 0.500000
#
# Coordination Sequence:
#
# PCOD9112845 Si02
#       8
#     2   2   2   2   2   2   2   1
#     4  12  29  48  64  98 150 195 232 280 366 433
#     4  10  21  39  70 103 131 173 232 292 355 414
#     4  11  23  44  71 100 142 183 231 294 351 417
#     4  12  25  41  63 103 141 180 243 285 337 435
#     4  10  20  44  72  94 138 178 232 294 342 412
#     4  12  20  41  72 101 134 181 237 294 344 411
#     4  10  19  40  70 103 132 180 235 299 351 399
#     4  10  22  38  66 106 140 162 232 290 356 420
#
# _framework density 21.071314000000001
#
# number of rings (size 3 to 8) (size 9 to 14) (size 15 to 20)
#    0.000    1.067    6.667    0.800    1.867    3.733 
#    2.400    4.667    0.000    0.000    0.000    0.000 
#    0.000    0.000    0.000    0.000    0.000    0.000 
#
# Total GULP energy -83549.295422 kJ/mol
# GULP energy per Si atom -5569.953028 kJ/mol
# Density = 2.102335 g / cm^3
# Si number density = 21.071314 Si / 1000 Ang^3
#
#
#
# Elastic Constant Matrix: (Units=GPa)
#
#
# Indices 1 2 3 4 5 6 
#
# 1 118.7146 66.1117 26.7797 0.0000 -2.8549 0.0000
# 2 66.1117 139.2714 36.3772 0.0000 21.8715 0.0000
# 3 26.7797 36.3772 72.7912 0.0000 6.1858 0.0000
# 4 0.0000 0.0000 0.0000 21.2879 0.0000 2.7748
# 5 -2.8549 21.8715 6.1858 0.0000 33.1192 0.0000
# 6 0.0000 0.0000 0.0000 2.7748 0.0000 17.6715
#
#
#
# Elastic Compliance Matrix: (Units=1/GPa)
#
#
# Indices 1 2 3 4 5 6 
#
# 1 0.012510 -0.006317 -0.001922 0.000000 0.005609 0.000000
# 2 -0.006317 0.012259 -0.003117 0.000000 -0.008058 0.000000
# 3 -0.001922 -0.003117 0.016098 0.000000 -0.001114 0.000000
# 4 0.000000 0.000000 0.000000 0.047957 0.000000 -0.007530
# 5 0.005609 -0.008058 -0.001114 0.000000 0.036207 0.000000
# 6 0.000000 0.000000 0.000000 -0.007530 0.000000 0.057771
#
#
# Mechanical properties :
#
#
# Convention : Reuss Voigt Hill
#
# Bulk Modulus (GPa) = 55.08766 65.47935 60.28351
# Shear Modulus (GPa) = 23.63336 27.84961 25.74149
#
# Velocity S-wave (km/s) = 3.35265 3.63944 3.49898
# Velocity P-wave (km/s) = 6.41772 6.98593 6.70785
#
# Compressibility (1/GPa) = 0.01815289
#
# Stress axis : x y z
#
# Youngs Moduli (GPa) = 79.93489 81.57440 62.12116
#
# Poissons Ratio (x) = 0.51534 0.11940
# Poissons Ratio (y) = 0.50498 0.19365
# Poissons Ratio (z) = 0.15364 0.25430
#
# Static dielectric constant tensor:
#      x y z
#    x 1.756870 0.000000 0.003710 
#    y 0.000000 1.853750 0.000000 
#    z 0.003710 0.000000 1.791230 
# 
# From -- ./inp_files/7408.got.cif
#   From: 2010.05.17/outbox.cif.g08.bks.cpg/sg3_4_cif.got.tgz:7408.got - 2010.06.03 18:33:08.
