data_PCOD9112501
_publ_section_title
;
Structure prediction by ZEFSAII (Michael W. Deem and Ramdas Pophale) SiO2 
 PCOD9112501
Probable space group: P 2
;
_chemical_formula_sum "Si O2"
_cell_formula_units_Z 16
_cell_length_a 7.073120
_cell_length_b 8.050656
_cell_length_c 12.131319
_cell_angle_alpha 90.000000
_cell_angle_beta 102.351361
_cell_angle_gamma 90.000000
_cell_volume 674.807770
_symmetry_space_group_name_H-M "P 2"
_symmetry_group_IT_number 3
_symmetry_cell_setting 'monoclinic'
loop_
_space_group_symop_operation_xyz
x,y,z
-x,y,-z
loop_
_atom_site_type_symbol
_atom_site_label
_atom_site_fract_x
_atom_site_fract_y
_atom_site_fract_z
Si Si1 0.259440 0.714400 0.780029
Si Si2 0.224851 0.386579 0.160878
Si Si3 0.301961 0.605105 0.535678
Si Si4 0.765796 0.214482 0.467355
Si Si5 0.775278 0.067577 0.702901
Si Si6 0.753109 0.394625 0.091250
Si Si7 0.814632 0.699063 0.705714
Si Si8 0.750312 0.076368 0.230679
O O1 0.281674 0.684919 0.652181
O O2 0.328688 0.554691 0.855445
O O3 0.030444 0.715936 0.778719
O O4 0.329963 0.898573 0.816288
O O5 0.284242 0.209960 0.219147
O O6 0.282661 0.540702 0.247272
O O7 0.988937 0.391099 0.131603
O O8 0.288184 0.401780 0.043024
O O9 0.500000 0.653187 0.500000
O O10 0.294350 0.406422 0.546601
O O11 0.156383 0.660795 0.420761
O O12 0.709653 0.129084 0.574518
O O13 0.698891 0.118732 0.350433
O O14 0.000000 0.216283 0.500000
O O15 0.012579 0.067720 0.736232
O O16 0.716342 0.876796 0.712604
O O17 0.692451 0.225770 0.143903
#
# Coordination Sequence:
#
# PCOD9112501 Si02
#       8
#     2   2   2   2   2   2   2   2
#     4  10  19  34  56  78 106 142 173 207 260 316
#     4   9  17  29  49  81 113 136 168 216 258 297
#     4  12  23  34  52  79 107 136 174 220 265 309
#     4  10  17  32  54  75 101 136 176 214 261 317
#     4   9  17  29  51  79 104 134 173 212 254 309
#     4   9  17  29  49  81 113 136 168 216 258 297
#     4  10  19  34  56  78 106 142 173 207 260 316
#     4   9  17  29  51  79 104 134 173 212 254 309
#
# _framework density 23.710457000000002
#
# number of rings (size 3 to 8) (size 9 to 14) (size 15 to 20)
#    0.000    2.250    2.500    1.875    0.000    3.000 
#    0.000    7.500    0.000    0.750    0.000    0.000 
#    0.000    0.000    0.000    0.000    0.000    0.000 
#
# Total GULP energy -89524.539740 kJ/mol
# GULP energy per Si atom -5595.283734 kJ/mol
# Density = 2.365649 g / cm^3
# Si number density = 23.710457 Si / 1000 Ang^3
#
#
#
# Elastic Constant Matrix: (Units=GPa)
#
#
# Indices 1 2 3 4 5 6 
#
# 1 69.0088 7.6736 8.7740 0.0000 -1.8165 0.0000
# 2 7.6736 258.3034 110.6456 0.0000 -11.2904 0.0000
# 3 8.7740 110.6456 162.9502 0.0000 -25.2244 0.0000
# 4 0.0000 0.0000 0.0000 -1.9511 0.0000 -1.6976
# 5 -1.8165 -11.2904 -25.2244 0.0000 28.8878 0.0000
# 6 0.0000 0.0000 0.0000 -1.6976 0.0000 2.6786
#
#
#
# Elastic Compliance Matrix: (Units=1/GPa)
#
#
# Indices 1 2 3 4 5 6 
#
# 1 0.014596 -0.000146 -0.000640 0.000000 0.000302 0.000000
# 2 -0.000146 0.005502 -0.003927 0.000000 -0.001288 0.000000
# 3 -0.000640 -0.003927 0.009937 0.000000 0.007102 0.000000
# 4 0.000000 0.000000 0.000000 -0.330368 0.000000 -0.209374
# 5 0.000302 -0.001288 0.007102 0.000000 0.040334 0.000000
# 6 0.000000 0.000000 0.000000 -0.209374 0.000000 0.240634
#
#
# Mechanical properties :
#
#
# Convention : Reuss Voigt Hill
#
# Bulk Modulus (GPa) = 48.52334 82.71652 65.61993
# Shear Modulus (GPa) = -1629.32533 30.13435 -799.59549
#
# Velocity S-wave (km/s) = -26.24248 3.56888 -18.38383
# Velocity P-wave (km/s) = 29.96188 7.20724 20.56417
#
# Compressibility (1/GPa) = 0.02060864
#
# Stress axis : x y z
#
# Youngs Moduli (GPa) = 68.50972 181.76104 100.63042
#
# Poissons Ratio (x) = 0.02660 0.06438
# Poissons Ratio (y) = 0.01003 0.39520
# Poissons Ratio (z) = 0.04383 0.71383
#
# Static dielectric constant tensor:
#      x y z
#    x 2.024090 0.000000 0.030030 
#    y 0.000000 1.855080 0.000000 
#    z 0.030030 0.000000 1.831580 
# 
# From -- ./inp_files/10563.got.cif
#   From: 2010.05.17/outbox.cif.g08.bks.cpg/sg3_6_cif.got.tgz:10563.got - 2010.06.03 18:33:08.
