data_PCOD9112071
_publ_section_title
;
Structure prediction by ZEFSAII (Michael W. Deem and Ramdas Pophale) SiO2 
 PCOD9112071
Probable space group: P -1
;
_chemical_formula_sum "Si O2"
_cell_formula_units_Z 14
_cell_length_a 12.249407
_cell_length_b 8.409555
_cell_length_c 17.649972
_cell_angle_alpha 131.174805
_cell_angle_beta 31.945185
_cell_angle_gamma 142.219398
_cell_volume 588.935758
_symmetry_space_group_name_H-M "P -1"
_symmetry_group_IT_number 2
_symmetry_cell_setting 'triclinic'
loop_
_space_group_symop_operation_xyz
x,y,z
-x,-y,-z
loop_
_atom_site_type_symbol
_atom_site_label
_atom_site_fract_x
_atom_site_fract_y
_atom_site_fract_z
Si Si1 0.646998 0.879626 0.345456
Si Si2 0.215966 0.027161 0.253114
Si Si3 0.400834 0.233154 0.043358
Si Si4 0.268088 0.754418 0.890490
Si Si5 0.120639 0.430062 0.472512
Si Si6 0.730968 0.583875 0.336215
Si Si7 0.899431 0.576088 0.779302
O O1 0.426329 0.631007 0.352293
O O2 0.737030 0.771371 0.325246
O O3 0.500000 0.000000 0.500000
O O4 0.876643 0.124230 0.241972
O O5 0.327976 0.105903 0.127620
O O6 0.463923 0.144682 0.195165
O O7 0.073570 0.156723 0.402801
O O8 0.979992 0.731954 0.287357
O O9 0.288577 0.399953 0.156884
O O10 0.701214 0.409034 0.909374
O O11 0.273058 0.007438 0.983470
O O12 0.293878 0.658967 0.764365
O O13 0.000000 0.500000 0.000000
O O14 0.000000 0.500000 0.500000
O O15 0.012345 0.455541 0.623511
O O16 0.500000 0.500000 0.500000
#
# Coordination Sequence:
#
# PCOD9112071 Si02
#       7
#     2   2   2   2   2   2   2
#     4  10  20  44  68  98 143 179 228 295 348 409
#     4  12  24  45  73  99 141 187 232 288 361 413
#     4  11  23  43  68 102 139 182 230 283 348 421
#     4  12  26  48  70  99 147 191 233 288 358 430
#     4  11  21  40  70 100 137 181 234 289 349 410
#     4  12  27  46  72 107 142 183 243 297 350 424
#     4  10  22  42  69  98 138 179 229 290 343 415
#
# _framework density 23.771692000000002
#
# number of rings (size 3 to 8) (size 9 to 14) (size 15 to 20)
#    0.000    0.857    5.714    1.286    2.000    2.857 
#    0.000    0.714    0.000    0.000    0.000    0.000 
#    0.000    0.000    0.000    0.000    0.000    0.000 
#
# Total GULP energy -78209.955412 kJ/mol
# GULP energy per Si atom -5586.425387 kJ/mol
# Density = 2.371759 g / cm^3
# Si number density = 23.771692 Si / 1000 Ang^3
#
#
#
# Elastic Constant Matrix: (Units=GPa)
#
#
# Indices 1 2 3 4 5 6 
#
# 1 78.7602 26.1744 31.2005 -2.7989 -18.4733 22.2509
# 2 26.1744 98.1077 52.4618 -7.2322 7.2443 27.5440
# 3 31.2005 52.4618 154.2081 -12.0431 5.4394 8.4343
# 4 -2.7989 -7.2322 -12.0431 67.1300 0.0101 -7.2444
# 5 -18.4733 7.2443 5.4394 0.0101 47.1051 -2.0168
# 6 22.2509 27.5440 8.4343 -7.2444 -2.0168 32.9590
#
#
#
# Elastic Compliance Matrix: (Units=1/GPa)
#
#
# Indices 1 2 3 4 5 6 
#
# 1 0.019191 -0.000833 -0.003340 -0.001097 0.007561 -0.011183
# 2 -0.000833 0.016599 -0.004734 -0.000430 -0.002862 -0.012367
# 3 -0.003340 -0.004734 0.008698 0.001364 -0.001407 0.004200
# 4 -0.001097 -0.000430 0.001364 0.015496 -0.000348 0.004135
# 5 0.007561 -0.002862 -0.001407 -0.000348 0.024758 -0.000914
# 6 -0.011183 -0.012367 0.004200 0.004135 -0.000914 0.048004
#
#
# Mechanical properties :
#
#
# Convention : Reuss Voigt Hill
#
# Bulk Modulus (GPa) = 37.49359 61.19438 49.34399
# Shear Modulus (GPa) = 31.35763 44.18811 37.77287
#
# Velocity S-wave (km/s) = 3.63590 4.31612 3.99053
# Velocity P-wave (km/s) = 5.78213 7.11596 6.48344
#
# Compressibility (1/GPa) = 0.02667123
#
# Stress axis : x y z
#
# Youngs Moduli (GPa) = 52.10836 60.24583 114.97330
#
# Poissons Ratio (x) = 0.05021 0.38401
# Poissons Ratio (y) = 0.04343 0.54434
# Poissons Ratio (z) = 0.17404 0.28523
#
# Static dielectric constant tensor:
#      x y z
#    x 1.941950 -0.064770 -0.038350 
#    y -0.064770 2.020460 0.019080 
#    z -0.038350 0.019080 1.904500 
# 
# From -- ./inp_files/566904.got.cif
#   From: 2010.05.17/outbox.cif.g08.bks.cpg/sg2_284_cif.got.tgz:566904.got - 2010.06.03 11:33:40.
