data_PCOD9112600
_publ_section_title
;
Structure prediction by ZEFSAII (Michael W. Deem and Ramdas Pophale) SiO2 
 PCOD9112600
Probable space group: P 2
;
_chemical_formula_sum "Si O2"
_cell_formula_units_Z 14
_cell_length_a 8.600777
_cell_length_b 8.743381
_cell_length_c 11.473010
_cell_angle_alpha 90.000000
_cell_angle_beta 43.681590
_cell_angle_gamma 90.000000
_cell_volume 595.871380
_symmetry_space_group_name_H-M "P 2"
_symmetry_group_IT_number 3
_symmetry_cell_setting 'monoclinic'
loop_
_space_group_symop_operation_xyz
x,y,z
-x,y,-z
loop_
_atom_site_type_symbol
_atom_site_label
_atom_site_fract_x
_atom_site_fract_y
_atom_site_fract_z
Si Si1 0.745707 0.875000 0.380327
Si Si2 0.782724 0.468507 0.541630
Si Si3 0.351874 0.975862 0.966923
Si Si4 0.568064 0.149151 0.635239
Si Si5 0.097305 0.129762 0.826536
Si Si6 0.043766 0.589201 0.782669
Si Si7 0.333083 0.638551 0.861159
O O1 0.500000 0.800288 0.500000
O O2 0.934609 0.750706 0.299841
O O3 0.704950 0.018331 0.488920
O O4 0.804546 0.956132 0.226559
O O5 0.711740 0.293664 0.592667
O O6 0.848348 0.478952 0.369559
O O7 0.580097 0.577883 0.695099
O O8 0.000000 0.505301 0.500000
O O9 0.318887 0.809120 0.923722
O O10 0.482595 0.073298 0.799778
O O11 0.500000 0.951538 0.000000
O O12 0.130496 0.081310 0.118705
O O13 0.343213 0.208419 0.685900
O O14 0.000000 0.189171 0.000000
O O15 0.192994 0.616537 0.817328
O O16 0.800767 0.545415 0.964674
#
# Coordination Sequence:
#
# PCOD9112600 Si02
#       7
#     2   2   2   2   2   2   2
#     4  10  18  35  72 103 132 179 238 319 365 417
#     4  12  29  50  69 104 163 206 249 309 381 457
#     4  11  23  43  73 111 147 185 255 320 385 439
#     4  10  24  45  66 103 147 200 251 298 381 452
#     4   9  18  37  66  97 134 179 238 306 356 430
#     4  11  23  46  76 108 148 191 262 320 369 451
#     4  11  25  47  77 114 144 199 259 311 382 450
#
# _framework density 23.495004000000002
#
# number of rings (size 3 to 8) (size 9 to 14) (size 15 to 20)
#    0.000    1.429    1.429    4.714    4.000    4.571 
#   15.429    0.714    0.000    0.000    0.000    0.000 
#    0.000    0.000    0.000    0.000    0.000    0.000 
#
# Total GULP energy -77944.449729 kJ/mol
# GULP energy per Si atom -5567.460695 kJ/mol
# Density = 2.344153 g / cm^3
# Si number density = 23.495004 Si / 1000 Ang^3
#
#
#
# Elastic Constant Matrix: (Units=GPa)
#
#
# Indices 1 2 3 4 5 6 
#
# 1 117.7156 13.3848 48.4395 0.0000 -5.5438 0.0000
# 2 13.3848 45.2433 34.9948 0.0000 3.7634 0.0000
# 3 48.4395 34.9948 188.2695 0.0000 -9.2031 0.0000
# 4 0.0000 0.0000 0.0000 1.7847 0.0000 -0.9684
# 5 -5.5438 3.7634 -9.2031 0.0000 29.3823 0.0000
# 6 0.0000 0.0000 0.0000 -0.9684 0.0000 26.5877
#
#
#
# Elastic Compliance Matrix: (Units=1/GPa)
#
#
# Indices 1 2 3 4 5 6 
#
# 1 0.009593 -0.001268 -0.002169 0.000000 0.001293 0.000000
# 2 -0.001268 0.026691 -0.004889 0.000000 -0.005189 0.000000
# 3 -0.002169 -0.004889 0.006895 0.000000 0.002376 0.000000
# 4 0.000000 0.000000 0.000000 0.571627 0.000000 0.020821
# 5 0.001293 -0.005189 0.002376 0.000000 0.035687 0.000000
# 6 0.000000 0.000000 0.000000 0.020821 0.000000 0.038370
#
#
# Mechanical properties :
#
#
# Convention : Reuss Voigt Hill
#
# Bulk Modulus (GPa) = 37.69768 60.54074 49.11921
# Shear Modulus (GPa) = 6.99932 28.51155 17.75544
#
# Velocity S-wave (km/s) = 1.72787 3.48733 2.75200
# Velocity P-wave (km/s) = 4.47890 6.48373 5.57222
#
# Compressibility (1/GPa) = 0.02652683
#
# Stress axis : x y z
#
# Youngs Moduli (GPa) = 104.24582 37.46632 145.04277
#
# Poissons Ratio (x) = 0.04749 0.31464
# Poissons Ratio (y) = 0.13214 0.70907
# Poissons Ratio (z) = 0.22614 0.18316
#
# Static dielectric constant tensor:
#      x y z
#    x 1.947040 0.000000 -0.029420 
#    y 0.000000 1.950110 0.000000 
#    z -0.029420 0.000000 2.018690 
# 
# From -- ./inp_files/10649.got.cif
#   From: 2010.05.17/outbox.cif.g08.bks.cpg/sg3_6_cif.got.tgz:10649.got - 2010.06.03 18:33:08.
