data_PCOD9112843
_publ_section_title
;
Structure prediction by ZEFSAII (Michael W. Deem and Ramdas Pophale) SiO2 
 PCOD9112843
Probable space group: P 2
;
_chemical_formula_sum "Si O2"
_cell_formula_units_Z 14
_cell_length_a 11.046955
_cell_length_b 8.702864
_cell_length_c 8.133949
_cell_angle_alpha 90.000000
_cell_angle_beta 134.688655
_cell_angle_gamma 90.000000
_cell_volume 555.953419
_symmetry_space_group_name_H-M "P 2"
_symmetry_group_IT_number 3
_symmetry_cell_setting 'monoclinic'
loop_
_space_group_symop_operation_xyz
x,y,z
-x,y,-z
loop_
_atom_site_type_symbol
_atom_site_label
_atom_site_fract_x
_atom_site_fract_y
_atom_site_fract_z
Si Si1 0.307446 0.490120 0.270040
Si Si2 0.179710 0.775899 0.000488
Si Si3 0.887333 0.921225 0.555498
Si Si4 0.317345 0.334689 0.911269
Si Si5 0.337482 0.079509 0.142727
Si Si6 0.723559 0.190444 0.573863
Si Si7 0.295063 0.644118 0.772615
O O1 0.500000 0.531069 0.500000
O O2 0.200969 0.644900 0.154914
O O3 0.315368 0.413718 0.093400
O O4 0.250171 0.368562 0.354413
O O5 0.335142 0.897058 0.138482
O O6 0.195749 0.691543 0.841401
O O7 0.008012 0.870831 0.820554
O O8 0.753935 0.779466 0.400862
O O9 0.000000 0.928640 0.500000
O O10 0.817409 0.089932 0.529100
O O11 0.258419 0.164294 0.908870
O O12 0.500000 0.308327 0.000000
O O13 0.242491 0.462631 0.714176
O O14 0.524850 0.151857 0.347218
O O15 0.236438 0.117421 0.210961
O O16 0.500000 0.643565 0.000000
#
# Coordination Sequence:
#
# PCOD9112843 Si02
#       7
#     2   2   2   2   2   2   2
#     4  10  19  40  67 104 138 176 240 295 347 407
#     4  10  22  36  64  99 140 180 223 291 354 427
#     4  10  22  40  64 102 145 182 234 282 359 426
#     4   9  18  34  62 100 137 164 220 290 344 405
#     4  10  20  37  63 102 128 176 235 296 344 405
#     4  10  20  39  67  97 136 180 237 291 344 420
#     4   9  18  37  64  96 130 179 229 287 339 412
#
# _framework density 25.181967
#
# number of rings (size 3 to 8) (size 9 to 14) (size 15 to 20)
#    0.000    2.286    2.857    0.857    2.000    3.429 
#    0.000    0.000    0.000   62.571    0.000    4.000 
#    4.286    0.000    0.000    0.000    0.000    0.000 
#
# Total GULP energy -78038.420646 kJ/mol
# GULP energy per Si atom -5574.172903 kJ/mol
# Density = 2.512465 g / cm^3
# Si number density = 25.181967 Si / 1000 Ang^3
#
#
#
# Elastic Constant Matrix: (Units=GPa)
#
#
# Indices 1 2 3 4 5 6 
#
# 1 89.8453 48.1534 36.9437 0.0000 -20.6262 0.0000
# 2 48.1534 194.7379 68.4803 0.0000 -6.6086 0.0000
# 3 36.9437 68.4803 84.2067 0.0000 -14.3162 0.0000
# 4 0.0000 0.0000 0.0000 65.1751 0.0000 -36.2037
# 5 -20.6262 -6.6086 -14.3162 0.0000 30.7638 0.0000
# 6 0.0000 0.0000 0.0000 -36.2037 0.0000 48.3369
#
#
#
# Elastic Compliance Matrix: (Units=1/GPa)
#
#
# Indices 1 2 3 4 5 6 
#
# 1 0.015802 -0.002363 -0.003579 0.000000 0.008421 0.000000
# 2 -0.002363 0.007592 -0.005570 0.000000 -0.002545 0.000000
# 3 -0.003579 -0.005570 0.018856 0.000000 0.005178 0.000000
# 4 0.000000 0.000000 0.000000 0.026275 0.000000 0.019680
# 5 0.008421 -0.002545 0.005178 0.000000 0.040015 0.000000
# 6 0.000000 0.000000 0.000000 0.019680 0.000000 0.035428
#
#
# Mechanical properties :
#
#
# Convention : Reuss Voigt Hill
#
# Bulk Modulus (GPa) = 52.01529 75.10498 63.56014
# Shear Modulus (GPa) = 28.83505 43.20267 36.01886
#
# Velocity S-wave (km/s) = 3.38756 4.14650 3.78609
# Velocity P-wave (km/s) = 6.00011 7.26734 6.66392
#
# Compressibility (1/GPa) = 0.01922512
#
# Stress axis : x y z
#
# Youngs Moduli (GPa) = 63.28398 131.72269 53.03348
#
# Poissons Ratio (x) = 0.31124 0.18982
# Poissons Ratio (y) = 0.14953 0.29540
# Poissons Ratio (z) = 0.22651 0.73369
#
# Static dielectric constant tensor:
#      x y z
#    x 1.968320 0.000000 -0.034080 
#    y 0.000000 2.114980 0.000000 
#    z -0.034080 0.000000 2.102650 
# 
# From -- ./inp_files/7566.got.cif
#   From: 2010.05.17/outbox.cif.g08.bks.cpg/sg3_4_cif.got.tgz:7566.got - 2010.06.03 18:33:08.
