data_PCOD9112420
_publ_section_title
;
Structure prediction by ZEFSAII (Michael W. Deem and Ramdas Pophale) SiO2 
 PCOD9112420
Probable space group: P -1
;
_chemical_formula_sum "Si O2"
_cell_formula_units_Z 14
_cell_length_a 16.547574
_cell_length_b 12.190996
_cell_length_c 15.320491
_cell_angle_alpha 35.995791
_cell_angle_beta 154.383868
_cell_angle_gamma 129.331887
_cell_volume 727.457961
_symmetry_space_group_name_H-M "P -1"
_symmetry_group_IT_number 2
_symmetry_cell_setting 'triclinic'
loop_
_space_group_symop_operation_xyz
x,y,z
-x,-y,-z
loop_
_atom_site_type_symbol
_atom_site_label
_atom_site_fract_x
_atom_site_fract_y
_atom_site_fract_z
Si Si1 0.876752 0.444285 0.034497
Si Si2 0.858200 0.832286 0.175615
Si Si3 0.275963 0.511028 0.788308
Si Si4 0.723869 0.185915 0.946473
Si Si5 0.282815 0.422314 0.390851
Si Si6 0.350255 0.330888 0.164935
Si Si7 0.773098 0.022682 0.784033
O O1 0.106828 0.421640 0.283080
O O2 0.861879 0.237284 0.119222
O O3 0.789633 0.592271 0.770326
O O4 0.739269 0.534350 0.925119
O O5 0.773025 0.653798 0.210705
O O6 0.097873 0.725285 0.461657
O O7 0.808521 0.971567 0.122236
O O8 0.762190 0.964344 0.912034
O O9 0.500000 0.500000 0.000000
O O10 0.261120 0.452061 0.912317
O O11 0.500353 0.251866 0.725607
O O12 0.700186 0.358474 0.737830
O O13 0.593557 0.237768 0.456292
O O14 0.281387 0.139872 0.221390
O O15 0.000000 0.000000 0.000000
#
# Coordination Sequence:
#
# PCOD9112420 Si02
#       7
#     2   2   2   2   2   2   2
#     4   9  17  30  49  77 110 137 164 211 273 317
#     4  10  21  36  57  78 105 140 189 216 259 330
#     4  10  22  41  55  73 105 152 182 221 266 313
#     4   9  17  31  50  79 103 138 173 213 253 323
#     4   8  17  29  49  80 110 141 163 204 277 318
#     4  10  21  35  52  82 110 135 181 224 266 321
#     4  10  21  32  54  83 106 136 174 230 274 308
#
# _framework density 19.245099
#
# number of rings (size 3 to 8) (size 9 to 14) (size 15 to 20)
#    0.857    1.714    0.000    1.714    2.000    1.143 
#    0.000    0.714    0.000    1.714    0.000    0.000 
#    0.000    0.000    0.000    0.000    0.000    0.000 
#
# Total GULP energy -78005.278985 kJ/mol
# GULP energy per Si atom -5571.805642 kJ/mol
# Density = 1.920130 g / cm^3
# Si number density = 19.245099 Si / 1000 Ang^3
#
#
#
# Elastic Constant Matrix: (Units=GPa)
#
#
# Indices 1 2 3 4 5 6 
#
# 1 38.0468 26.3983 7.3176 -7.1806 18.4232 -11.5049
# 2 26.3983 76.3149 39.7653 -4.0283 33.6141 -12.2607
# 3 7.3176 39.7653 73.5893 6.9005 20.0368 -1.4573
# 4 -7.1806 -4.0283 6.9005 30.0992 4.3398 17.2561
# 5 18.4232 33.6141 20.0368 4.3398 34.3152 5.3940
# 6 -11.5049 -12.2607 -1.4573 17.2561 5.3940 22.8660
#
#
#
# Elastic Compliance Matrix: (Units=1/GPa)
#
#
# Indices 1 2 3 4 5 6 
#
# 1 0.056699 0.004072 0.005976 -0.008332 -0.044386 0.047850
# 2 0.004072 0.041166 -0.009699 -0.007746 -0.042040 0.039266
# 3 0.005976 -0.009699 0.020582 -0.007110 -0.005744 0.005839
# 4 -0.008332 -0.007746 -0.007110 0.064713 0.017746 -0.061821
# 5 -0.044386 -0.042040 -0.005744 0.017746 0.108503 -0.084228
# 6 0.047850 0.039266 0.005839 -0.061821 -0.084228 0.155759
#
#
# Mechanical properties :
#
#
# Convention : Reuss Voigt Hill
#
# Bulk Modulus (GPa) = 8.39322 37.21260 22.80291
# Shear Modulus (GPa) = 10.27879 25.08737 17.68308
#
# Velocity S-wave (km/s) = 2.31357 3.61442 3.03452
# Velocity P-wave (km/s) = 3.39227 6.06604 4.91448
#
# Compressibility (1/GPa) = 0.11914382
#
# Stress axis : x y z
#
# Youngs Moduli (GPa) = 17.63714 24.29188 48.58589
#
# Poissons Ratio (x) = -0.09891 -0.29035
# Poissons Ratio (y) = -0.07181 0.47124
# Poissons Ratio (z) = -0.10540 0.23561
#
# Static dielectric constant tensor:
#      x y z
#    x 1.666060 0.019410 -0.014280 
#    y 0.019410 1.689680 0.015070 
#    z -0.014280 0.015070 1.674560 
# 
# From -- ./inp_files/532359.got.cif
#   From: 2010.05.17/outbox.cif.g08.bks.cpg/sg2_267_cif.got.tgz:532359.got - 2010.06.03 11:33:40.
