data_PCOD9112246
_publ_section_title
;
Structure prediction by ZEFSAII (Michael W. Deem and Ramdas Pophale) SiO2 
 PCOD9112246
Probable space group: P -1
;
_chemical_formula_sum "Si O2"
_cell_formula_units_Z 16
_cell_length_a 12.472571
_cell_length_b 11.479151
_cell_length_c 19.372792
_cell_angle_alpha 48.003630
_cell_angle_beta 26.337850
_cell_angle_gamma 65.376138
_cell_volume 760.825299
_symmetry_space_group_name_H-M "P -1"
_symmetry_group_IT_number 2
_symmetry_cell_setting 'triclinic'
loop_
_space_group_symop_operation_xyz
x,y,z
-x,-y,-z
loop_
_atom_site_type_symbol
_atom_site_label
_atom_site_fract_x
_atom_site_fract_y
_atom_site_fract_z
Si Si1 0.704340 0.646660 0.008082
Si Si2 0.777104 0.711412 0.103100
Si Si3 0.066691 0.399130 0.442081
Si Si4 0.185576 0.575132 0.709873
Si Si5 0.655558 0.981081 0.666526
Si Si6 0.799674 0.983715 0.728319
Si Si7 0.174156 0.611539 0.554175
Si Si8 0.761245 0.979561 0.198489
O O1 0.961285 0.628923 0.839944
O O2 0.730177 0.675407 0.063659
O O3 0.394158 0.461400 0.241065
O O4 0.720083 0.821917 0.892814
O O5 0.818344 0.562519 0.177653
O O6 0.492938 0.687381 0.310754
O O7 0.064751 0.912068 0.876453
O O8 0.842107 0.172511 0.660086
O O9 0.000000 0.500000 0.500000
O O10 0.037446 0.470901 0.355888
O O11 0.115523 0.494112 0.704115
O O12 0.508346 0.764297 0.444436
O O13 0.819298 0.206315 0.495700
O O14 0.590866 0.906617 0.811969
O O15 0.884034 0.947440 0.512989
O O16 0.396881 0.931752 0.783762
O O17 0.000000 0.000000 0.000000
#
# Coordination Sequence:
#
# PCOD9112246 Si02
#       8
#     2   2   2   2   2   2   2   2
#     4  12  26  45  66 101 137 181 222 276 345 399
#     4  12  25  42  67  96 141 182 218 281 334 393
#     4  11  25  45  68 100 137 174 219 277 345 406
#     4  11  25  44  66 100 135 171 237 276 323 404
#     4   9  19  42  68 100 127 168 226 282 321 395
#     4  10  22  44  71  93 137 173 221 287 329 394
#     4  10  20  45  68  96 138 166 230 281 319 406
#     4  11  22  41  70  97 131 175 223 274 335 391
#
# _framework density 21.029793000000002
#
# number of rings (size 3 to 8) (size 9 to 14) (size 15 to 20)
#    0.000    1.250    6.250    0.750    1.750    3.500 
#    0.000    0.000    0.000    0.000    0.000    0.000 
#    0.000    0.000    0.000    0.000    0.000    0.000 
#
# Total GULP energy -89412.347451 kJ/mol
# GULP energy per Si atom -5588.271716 kJ/mol
# Density = 2.098193 g / cm^3
# Si number density = 21.029793 Si / 1000 Ang^3
#
#
#
# Elastic Constant Matrix: (Units=GPa)
#
#
# Indices 1 2 3 4 5 6 
#
# 1 149.8158 8.2215 1.1374 -7.4032 15.5684 21.5529
# 2 8.2215 60.0110 3.6347 9.5027 9.1757 7.7662
# 3 1.1374 3.6347 36.0245 0.9690 4.3621 11.8950
# 4 -7.4032 9.5027 0.9690 23.9048 -2.1997 0.8725
# 5 15.5684 9.1757 4.3621 -2.1997 39.3521 -1.5280
# 6 21.5529 7.7662 11.8950 0.8725 -1.5280 35.4300
#
#
#
# Elastic Compliance Matrix: (Units=1/GPa)
#
#
# Indices 1 2 3 4 5 6 
#
# 1 0.007960 -0.000349 0.001989 0.002419 -0.003372 -0.005639
# 2 -0.000349 0.019273 0.000246 -0.008089 -0.004995 -0.004112
# 3 0.001989 0.000246 0.032362 -0.000800 -0.004955 -0.012323
# 4 0.002419 -0.008089 -0.000800 0.046174 0.003583 -0.000412
# 5 -0.003372 -0.004995 -0.004955 0.003583 0.028892 0.005967
# 6 -0.005639 -0.004112 -0.012323 -0.000412 0.005967 0.036961
#
#
# Mechanical properties :
#
#
# Convention : Reuss Voigt Hill
#
# Bulk Modulus (GPa) = 15.78081 30.20427 22.99254
# Shear Modulus (GPa) = 26.45916 35.26126 30.86021
#
# Velocity S-wave (km/s) = 3.55092 4.09923 3.83489
# Velocity P-wave (km/s) = 4.93279 6.06619 5.52861
#
# Compressibility (1/GPa) = 0.06336811
#
# Stress axis : x y z
#
# Youngs Moduli (GPa) = 125.62802 51.88559 30.90090
#
# Poissons Ratio (x) = 0.01809 -0.06146
# Poissons Ratio (y) = 0.04380 -0.00762
# Poissons Ratio (z) = -0.24986 -0.01279
#
# Static dielectric constant tensor:
#      x y z
#    x 1.780820 -0.016100 0.004230 
#    y -0.016100 1.767610 -0.015230 
#    z 0.004230 -0.015230 1.755180 
# 
# From -- ./inp_files/532202.got.cif
#   From: 2010.05.17/outbox.cif.g08.bks.cpg/sg2_267_cif.got.tgz:532202.got - 2010.06.03 11:33:40.
