data_PCOD9112256
_publ_section_title
;
Structure prediction by ZEFSAII (Michael W. Deem and Ramdas Pophale) SiO2 
 PCOD9112256
Probable space group: P -1
;
_chemical_formula_sum "Si O2"
_cell_formula_units_Z 14
_cell_length_a 10.275729
_cell_length_b 14.697489
_cell_length_c 14.401283
_cell_angle_alpha 150.630082
_cell_angle_beta 132.278528
_cell_angle_gamma 63.275919
_cell_volume 731.210424
_symmetry_space_group_name_H-M "P -1"
_symmetry_group_IT_number 2
_symmetry_cell_setting 'triclinic'
loop_
_space_group_symop_operation_xyz
x,y,z
-x,-y,-z
loop_
_atom_site_type_symbol
_atom_site_label
_atom_site_fract_x
_atom_site_fract_y
_atom_site_fract_z
Si Si1 0.361308 0.125287 0.395347
Si Si2 0.457226 0.443455 0.198073
Si Si3 0.290869 0.371422 0.249012
Si Si4 0.063620 0.924697 0.803388
Si Si5 0.257604 0.751383 0.897804
Si Si6 0.621088 0.438680 0.926969
Si Si7 0.021583 0.464494 0.690144
O O1 0.423479 0.316440 0.525713
O O2 0.142751 0.071981 0.270256
O O3 0.496997 0.218420 0.631329
O O4 0.377716 0.933886 0.185085
O O5 0.312179 0.371646 0.148303
O O6 0.606164 0.334319 0.168194
O O7 0.360175 0.424481 0.033495
O O8 0.500000 0.500000 0.500000
O O9 0.151492 0.476553 0.310638
O O10 0.207766 0.145464 0.045069
O O11 0.141017 0.837570 0.849995
O O12 0.039152 0.769025 0.569448
O O13 0.118453 0.579266 0.744175
O O14 0.817770 0.463662 0.089993
O O15 0.500000 0.500000 0.000000
#
# Coordination Sequence:
#
# PCOD9112256 Si02
#       7
#     2   2   2   2   2   2   2
#     4  10  22  40  70  99 128 166 227 269 321 392
#     4  10  24  44  65  96 135 171 214 279 322 380
#     4  12  28  45  64  99 142 173 214 276 338 388
#     4  12  24  40  69 101 132 168 229 269 325 403
#     4  12  22  38  71 100 123 179 222 269 329 382
#     4  10  20  45  70  97 132 165 229 277 309 395
#     4  12  24  42  71  97 133 178 215 273 337 378
#
# _framework density 19.146336000000002
#
# number of rings (size 3 to 8) (size 9 to 14) (size 15 to 20)
#    0.857    0.000    5.714    2.571    2.000    4.571 
#    2.571    0.714    0.000    0.000    0.000    0.000 
#    0.000    0.000    0.000    0.000    0.000    0.000 
#
# Total GULP energy -78204.776267 kJ/mol
# GULP energy per Si atom -5586.055448 kJ/mol
# Density = 1.910276 g / cm^3
# Si number density = 19.146336 Si / 1000 Ang^3
#
#
#
# Elastic Constant Matrix: (Units=GPa)
#
#
# Indices 1 2 3 4 5 6 
#
# 1 48.1637 1.5695 1.9669 11.4136 -3.3551 -5.4840
# 2 1.5695 60.9344 25.8390 -1.2257 17.0698 11.8092
# 3 1.9669 25.8390 108.1395 0.0652 0.7029 -9.1527
# 4 11.4136 -1.2257 0.0652 27.3291 -3.8634 -10.1595
# 5 -3.3551 17.0698 0.7029 -3.8634 26.4579 -1.9087
# 6 -5.4840 11.8092 -9.1527 -10.1595 -1.9087 31.5213
#
#
#
# Elastic Compliance Matrix: (Units=1/GPa)
#
#
# Indices 1 2 3 4 5 6 
#
# 1 0.023352 -0.002368 0.000339 -0.008431 0.003432 0.002539
# 2 -0.002368 0.029079 -0.008224 -0.007089 -0.021123 -0.017258
# 3 0.000339 -0.008224 0.011843 0.003301 0.006094 0.008012
# 4 -0.008431 -0.007089 0.003301 0.048306 0.011800 0.018431
# 5 0.003432 -0.021123 0.006094 0.011800 0.054675 0.017394
# 6 0.002539 -0.017258 0.008012 0.018431 0.017394 0.047952
#
#
# Mechanical properties :
#
#
# Convention : Reuss Voigt Hill
#
# Bulk Modulus (GPa) = 22.84872 30.66535 26.75703
# Shear Modulus (GPa) = 19.97590 29.58581 24.78085
#
# Velocity S-wave (km/s) = 3.23356 3.93523 3.60152
# Velocity P-wave (km/s) = 5.08929 6.05798 5.59464
#
# Compressibility (1/GPa) = 0.04376614
#
# Stress axis : x y z
#
# Youngs Moduli (GPa) = 42.82309 34.38953 84.44008
#
# Poissons Ratio (x) = 0.08144 -0.02861
# Poissons Ratio (y) = 0.10142 0.69444
# Poissons Ratio (z) = -0.01451 0.28282
#
# Static dielectric constant tensor:
#      x y z
#    x 1.646450 0.022940 -0.026970 
#    y 0.022940 1.680400 -0.012390 
#    z -0.026970 -0.012390 1.670980 
# 
# From -- ./inp_files/319235.got.cif
#   From: 2010.05.17/outbox.cif.g08.bks.cpg/sg2_160_cif.got.tgz:319235.got - 2010.06.03 11:33:40.
