data_PCOD9112926
_publ_section_title
;
Structure prediction by ZEFSAII (Michael W. Deem and Ramdas Pophale) SiO2 
 PCOD9112926
Probable space group: P 2
;
_chemical_formula_sum "Si O2"
_cell_formula_units_Z 16
_cell_length_a 7.707018
_cell_length_b 18.523574
_cell_length_c 8.598340
_cell_angle_alpha 90.000000
_cell_angle_beta 143.355289
_cell_angle_gamma 90.000000
_cell_volume 732.642023
_symmetry_space_group_name_H-M "P 2"
_symmetry_group_IT_number 3
_symmetry_cell_setting 'monoclinic'
loop_
_space_group_symop_operation_xyz
x,y,z
-x,y,-z
loop_
_atom_site_type_symbol
_atom_site_label
_atom_site_fract_x
_atom_site_fract_y
_atom_site_fract_z
Si Si1 0.674336 0.129660 0.959864
Si Si2 0.333182 0.295572 0.048588
Si Si3 0.817099 0.769760 0.211720
Si Si4 0.830115 0.889437 0.717857
Si Si5 0.170786 0.382277 0.456386
Si Si6 0.184319 0.547780 0.472858
Si Si7 0.226683 0.632595 0.036165
Si Si8 0.829519 0.040736 0.542174
O O1 0.719377 0.212561 0.946006
O O2 0.475380 0.080258 0.707010
O O3 0.500000 0.131525 0.000000
O O4 0.977015 0.091148 0.209161
O O5 0.551543 0.332228 0.324720
O O6 0.500000 0.294783 0.000000
O O7 0.052004 0.345519 0.822855
O O8 0.000000 0.754672 0.500000
O O9 0.004698 0.825325 0.248662
O O10 0.500000 0.805381 0.000000
O O11 0.747447 0.696344 0.069484
O O12 0.500000 0.864692 0.500000
O O13 0.812125 0.961838 0.602541
O O14 0.000000 0.904722 0.000000
O O15 0.265412 0.464793 0.500967
O O16 0.000000 0.382615 0.500000
O O17 0.465463 0.600467 0.684470
O O18 0.000000 0.553031 0.500000
O O19 0.956382 0.569543 0.177023
O O20 0.000000 0.661682 0.000000
O O21 0.000000 0.035485 0.500000
#
# Coordination Sequence:
#
# PCOD9112926 Si02
#       8
#     2   2   2   2   2   2   2   2
#     4   9  17  29  51  82 119 156 198 253 309 361
#     4   9  15  26  45  78 118 152 190 250 316 357
#     4  12  26  46  71  96 124 162 205 256 311 372
#     4  12  26  44  66  95 129 165 205 256 311 372
#     4   9  17  28  48  79 116 153 195 250 308 359
#     4  11  22  39  62  90 124 164 209 256 307 369
#     4  12  25  42  63  92 126 162 203 252 308 369
#     4  10  20  36  57  86 120 160 205 251 304 365
#
# _framework density 21.838768000000002
#
# number of rings (size 3 to 8) (size 9 to 14) (size 15 to 20)
#    0.000    1.500    0.000    6.375    0.000    7.500 
#    0.000    0.000    0.000    0.000    0.000   30.625 
#    0.000    0.000    0.000    0.000    0.000    0.000 
#
# Total GULP energy -89498.313670 kJ/mol
# GULP energy per Si atom -5593.644604 kJ/mol
# Density = 2.178906 g / cm^3
# Si number density = 21.838768 Si / 1000 Ang^3
#
#
#
# Elastic Constant Matrix: (Units=GPa)
#
#
# Indices 1 2 3 4 5 6 
#
# 1 69.2117 28.0416 31.9289 0.0000 17.4010 0.0000
# 2 28.0416 137.6547 36.8317 0.0000 13.2144 0.0000
# 3 31.9289 36.8317 135.7316 0.0000 23.3074 0.0000
# 4 0.0000 0.0000 0.0000 13.9834 0.0000 0.9343
# 5 17.4010 13.2144 23.3074 0.0000 28.2663 0.0000
# 6 0.0000 0.0000 0.0000 0.9343 0.0000 11.2822
#
#
#
# Elastic Compliance Matrix: (Units=1/GPa)
#
#
# Indices 1 2 3 4 5 6 
#
# 1 0.018583 -0.002364 -0.002278 0.000000 -0.008457 0.000000
# 2 -0.002364 0.008256 -0.001481 0.000000 -0.001183 0.000000
# 3 -0.002278 -0.001481 0.009256 0.000000 -0.005538 0.000000
# 4 0.000000 0.000000 0.000000 0.071911 0.000000 -0.005955
# 5 -0.008457 -0.001183 -0.005538 0.000000 0.045703 0.000000
# 6 0.000000 0.000000 0.000000 -0.005955 0.000000 0.089129
#
#
# Mechanical properties :
#
#
# Convention : Reuss Voigt Hill
#
# Bulk Modulus (GPa) = 41.93010 59.57804 50.75407
# Shear Modulus (GPa) = 19.00893 27.09275 23.05084
#
# Velocity S-wave (km/s) = 2.95349 3.52601 3.25237
# Velocity P-wave (km/s) = 5.55629 6.62700 6.11512
#
# Compressibility (1/GPa) = 0.02384922
#
# Stress axis : x y z
#
# Youngs Moduli (GPa) = 53.81187 121.12375 108.03704
#
# Poissons Ratio (x) = 0.28638 0.24608
# Poissons Ratio (y) = 0.12723 0.16000
# Poissons Ratio (z) = 0.12257 0.17939
#
# Static dielectric constant tensor:
#      x y z
#    x 1.878590 0.000000 -0.011860 
#    y 0.000000 1.746600 0.000000 
#    z -0.011860 0.000000 1.930160 
# 
# From -- ./inp_files/6264.got.cif
#   From: 2010.05.17/outbox.cif.g08.bks.cpg/sg3_4_cif.got.tgz:6264.got - 2010.06.03 18:33:08.
