data_PCOD9112298
_publ_section_title
;
Structure prediction by ZEFSAII (Michael W. Deem and Ramdas Pophale) SiO2 
 PCOD9112298
Probable space group: P -1
;
_chemical_formula_sum "Si O2"
_cell_formula_units_Z 13
_cell_length_a 15.769171
_cell_length_b 9.643197
_cell_length_c 16.045674
_cell_angle_alpha 133.766924
_cell_angle_beta 18.266133
_cell_angle_gamma 132.177881
_cell_volume 551.140722
_symmetry_space_group_name_H-M "P -1"
_symmetry_group_IT_number 2
_symmetry_cell_setting 'triclinic'
loop_
_space_group_symop_operation_xyz
x,y,z
-x,-y,-z
loop_
_atom_site_type_symbol
_atom_site_label
_atom_site_fract_x
_atom_site_fract_y
_atom_site_fract_z
Si Si1 0.022258 0.888023 0.067011
Si Si2 0.820548 0.081851 0.489773
Si Si3 0.000000 0.500000 0.000000
Si Si4 0.638547 0.694937 0.913600
Si Si5 0.651504 0.836968 0.242073
Si Si6 0.067535 0.288403 0.675734
Si Si7 0.496968 0.594033 0.818023
O O1 0.149789 0.715868 0.925213
O O2 0.870855 0.787444 0.087120
O O3 0.813468 0.976940 0.363232
O O4 0.203699 0.061120 0.929443
O O5 0.536391 0.141314 0.814474
O O6 0.943130 0.933326 0.378351
O O7 0.044481 0.259490 0.345418
O O8 0.905765 0.588629 0.213481
O O9 0.500000 0.500000 0.000000
O O10 0.597219 0.682981 0.848315
O O11 0.493321 0.638275 0.283654
O O12 0.500000 0.000000 0.500000
O O13 0.322762 0.332878 0.397037
O O14 0.805593 0.348207 0.894816
#
# Coordination Sequence:
#
# PCOD9112298 Si02
#       7
#     2   2   1   2   2   2   2
#     4  10  23  42  69  97 139 178 232 282 351 411
#     4  11  26  46  70 101 136 185 228 288 342 408
#     4  10  20  46  64 104 142 176 226 278 350 410
#     4  12  27  47  70 100 139 184 234 286 341 411
#     4  11  24  41  68 101 136 182 227 290 348 415
#     4  11  25  45  71 104 137 184 224 288 349 413
#     4  12  26  45  72 102 138 181 233 284 346 409
#
# _framework density 23.587440999999998
#
# number of rings (size 3 to 8) (size 9 to 14) (size 15 to 20)
#    0.000    0.923    1.538    4.154    6.462    4.308 
#    2.769    0.000    0.000    0.000    0.000    0.000 
#    0.000    0.000    0.000    0.000    0.000    0.000 
#
# Total GULP energy -72519.109900 kJ/mol
# GULP energy per Si atom -5578.393069 kJ/mol
# Density = 2.353376 g / cm^3
# Si number density = 23.587441 Si / 1000 Ang^3
#
#
#
# Elastic Constant Matrix: (Units=GPa)
#
#
# Indices 1 2 3 4 5 6 
#
# 1 73.1360 18.4659 -2.8998 12.3676 33.5689 21.8292
# 2 18.4659 96.9708 11.1318 -9.1620 18.5247 -14.2133
# 3 -2.8998 11.1318 34.7280 2.1908 5.3987 0.6945
# 4 12.3676 -9.1620 2.1908 27.5378 -7.5466 -2.8857
# 5 33.5689 18.5247 5.3987 -7.5466 37.5159 -5.5444
# 6 21.8292 -14.2133 0.6945 -2.8857 -5.5444 33.7532
#
#
#
# Elastic Compliance Matrix: (Units=1/GPa)
#
#
# Indices 1 2 3 4 5 6 
#
# 1 -0.124308 0.032645 -0.054230 0.125006 0.147293 0.130138
# 2 0.032645 0.004076 0.010490 -0.028937 -0.042858 -0.029125
# 3 -0.054230 0.010490 0.007381 0.049327 0.060101 0.053427
# 4 0.125006 -0.028937 0.049327 -0.084798 -0.140094 -0.124307
# 5 0.147293 -0.042858 0.060101 -0.140094 -0.142978 -0.150006
# 6 0.130138 -0.029125 0.053427 -0.124307 -0.150006 -0.103169
#
#
# Mechanical properties :
#
#
# Convention : Reuss Voigt Hill
#
# Bulk Modulus (GPa) = -7.40510 28.69229 10.64359
# Shear Modulus (GPa) = -10.71538 31.63717 10.46089
#
# Velocity S-wave (km/s) = -2.13370 3.66631 2.10821
# Velocity P-wave (km/s) = 3.03587 5.48754 3.23238
#
# Compressibility (1/GPa) = -0.13504199
#
# Stress axis : x y z
#
# Youngs Moduli (GPa) = -8.04455 245.33695 135.47965
#
# Poissons Ratio (x) = -8.00892 7.34706
# Poissons Ratio (y) = 0.26261 -1.42114
# Poissons Ratio (z) = -0.43626 -2.57351
#
# Static dielectric constant tensor:
#      x y z
#    x 1.887440 -0.000270 -0.057870 
#    y -0.000270 1.875380 0.021520 
#    z -0.057870 0.021520 1.865980 
# 
# From -- ./inp_files/19487.got.cif
#   From: 2010.05.17/outbox.cif.g08.bks.cpg/sg2_10_cif.got.tgz:19487.got - 2010.06.03 11:33:40.
