data_PCOD9112175
_publ_section_title
;
Structure prediction by ZEFSAII (Michael W. Deem and Ramdas Pophale) SiO2 
 PCOD9112175
Probable space group: P -1
;
_chemical_formula_sum "Si O2"
_cell_formula_units_Z 12
_cell_length_a 12.382035
_cell_length_b 11.734714
_cell_length_c 8.891023
_cell_angle_alpha 117.115046
_cell_angle_beta 77.939590
_cell_angle_gamma 47.310074
_cell_volume 516.330443
_symmetry_space_group_name_H-M "P -1"
_symmetry_group_IT_number 2
_symmetry_cell_setting 'triclinic'
loop_
_space_group_symop_operation_xyz
x,y,z
-x,-y,-z
loop_
_atom_site_type_symbol
_atom_site_label
_atom_site_fract_x
_atom_site_fract_y
_atom_site_fract_z
Si Si1 0.435573 0.919393 0.495885
Si Si2 0.164056 0.706888 0.989271
Si Si3 0.159857 0.140250 0.010452
Si Si4 0.156840 0.653294 0.284536
Si Si5 0.307679 0.835719 0.059119
Si Si6 0.007251 0.437859 0.787406
O O1 0.640135 0.605773 0.235982
O O2 0.500000 0.000000 0.500000
O O3 0.336565 0.000928 0.741615
O O4 0.238788 0.107967 0.535868
O O5 0.060873 0.814458 0.253463
O O6 0.282438 0.719630 0.925077
O O7 0.982470 0.835947 0.998333
O O8 0.989895 0.441762 0.247604
O O9 0.290348 0.964583 0.016844
O O10 0.188357 0.465829 0.142289
O O11 0.424806 0.432260 0.107470
O O12 0.945857 0.891846 0.611633
O O13 0.000000 0.500000 0.000000
#
# Coordination Sequence:
#
# PCOD9112175 Si02
#       6
#     2   2   2   2   2   2
#     4  11  21  40  78 107 132 184 260 300 339 414
#     4  12  24  47  75 101 143 201 246 286 346 452
#     4  11  25  45  72 109 142 188 247 300 355 427
#     4  12  26  48  71 106 147 194 239 297 360 434
#     4  12  31  45  70 111 158 187 229 300 381 418
#     4  10  20  44  73 103 129 184 250 293 345 419
#
# _framework density 23.240929000000001
#
# number of rings (size 3 to 8) (size 9 to 14) (size 15 to 20)
#    0.000    0.667    5.000    3.500    4.667    2.000 
#    0.000    0.000    0.000    0.000    0.000    0.000 
#    0.000    0.000    0.000    0.000    0.000    0.000 
#
# Total GULP energy -66944.465681 kJ/mol
# GULP energy per Si atom -5578.705473 kJ/mol
# Density = 2.318803 g / cm^3
# Si number density = 23.240929 Si / 1000 Ang^3
#
#
#
# Elastic Constant Matrix: (Units=GPa)
#
#
# Indices 1 2 3 4 5 6 
#
# 1 135.7299 11.1981 11.1593 11.0408 -3.5151 15.6813
# 2 11.1981 64.8967 -2.8566 8.7843 -0.2494 6.7856
# 3 11.1593 -2.8566 82.5386 15.5130 -8.0213 -0.6444
# 4 11.0408 8.7843 15.5130 15.5580 3.1461 -4.7212
# 5 -3.5151 -0.2494 -8.0213 3.1461 28.7800 8.2305
# 6 15.6813 6.7856 -0.6444 -4.7212 8.2305 36.9201
#
#
#
# Elastic Compliance Matrix: (Units=1/GPa)
#
#
# Indices 1 2 3 4 5 6 
#
# 1 0.008914 0.000619 0.001189 -0.010629 0.004364 -0.006211
# 2 0.000619 0.018899 0.004676 -0.019178 0.005753 -0.007390
# 3 0.001189 0.004676 0.017720 -0.025064 0.009701 -0.006423
# 4 -0.010629 -0.019178 -0.025064 0.122949 -0.030505 0.030125
# 5 0.004364 0.005753 0.009701 -0.030505 0.046214 -0.016945
# 6 -0.006211 -0.007390 -0.006423 0.030125 -0.016945 0.038599
#
#
# Mechanical properties :
#
#
# Convention : Reuss Voigt Hill
#
# Bulk Modulus (GPa) = 17.09328 35.79631 26.44480
# Shear Modulus (GPa) = 19.24370 33.82925 26.53647
#
# Velocity S-wave (km/s) = 2.88064 3.81936 3.38272
# Velocity P-wave (km/s) = 4.29359 5.90641 5.16336
#
# Compressibility (1/GPa) = 0.05850252
#
# Stress axis : x y z
#
# Youngs Moduli (GPa) = 112.18485 52.91326 56.43336
#
# Poissons Ratio (x) = -0.03276 -0.06713
# Poissons Ratio (y) = -0.06946 -0.26390
# Poissons Ratio (z) = -0.13344 -0.24744
#
# Static dielectric constant tensor:
#      x y z
#    x 2.014250 -0.064950 -0.023570 
#    y -0.064950 1.844010 0.067310 
#    z -0.023570 0.067310 2.141160 
# 
# From -- ./inp_files/45508.got.cif
#   From: 2010.05.17/outbox.cif.g08.bks.cpg/sg2_23_cif.got.tgz:45508.got - 2010.06.03 11:33:40.
