data_PCOD9112805
_publ_section_title
;
Structure prediction by ZEFSAII (Michael W. Deem and Ramdas Pophale) SiO2 
 PCOD9112805
Probable space group: P 2
;
_chemical_formula_sum "Si O2"
_cell_formula_units_Z 11
_cell_length_a 12.116025
_cell_length_b 8.222437
_cell_length_c 8.815154
_cell_angle_alpha 90.000000
_cell_angle_beta 40.465532
_cell_angle_gamma 90.000000
_cell_volume 569.939752
_symmetry_space_group_name_H-M "P 2"
_symmetry_group_IT_number 3
_symmetry_cell_setting 'monoclinic'
loop_
_space_group_symop_operation_xyz
x,y,z
-x,y,-z
loop_
_atom_site_type_symbol
_atom_site_label
_atom_site_fract_x
_atom_site_fract_y
_atom_site_fract_z
Si Si1 0.500000 0.152740 0.500000
Si Si2 0.958740 0.343329 0.722692
Si Si3 0.661066 0.334504 0.613877
Si Si4 0.845518 0.692329 0.781323
Si Si5 0.746868 0.017027 0.012936
Si Si6 0.500000 0.594569 0.000000
Si Si7 0.500000 0.089219 0.000000
O O1 0.572539 0.266120 0.557233
O O2 0.646792 0.041776 0.273933
O O3 0.860169 0.514362 0.843535
O O4 0.000000 0.331525 0.500000
O O5 0.139553 0.361353 0.616546
O O6 0.858377 0.180861 0.873985
O O7 0.563272 0.485316 0.791918
O O8 0.638539 0.198697 0.768055
O O9 0.667995 0.687787 0.875876
O O10 0.000000 0.705649 0.500000
O O11 0.847415 0.848622 0.888572
O O12 0.604757 0.011435 0.027747
#
# Coordination Sequence:
#
# PCOD9112805 Si02
#       7
#     1   2   2   2   2   1   1
#     4  10  24  40  60  90 132 180 210 248 322 396
#     4  11  19  38  66  97 127 155 212 280 315 365
#     4  10  19  37  64  93 125 168 209 256 320 379
#     4  11  22  36  64 103 124 158 213 274 319 361
#     4  11  22  39  61  92 129 168 211 260 317 382
#     4  11  19  40  68  97 129 160 217 275 312 373
#     4   9  17  32  60  87 117 164 209 253 306 363
#
# _framework density 19.300287000000001
#
# number of rings (size 3 to 8) (size 9 to 14) (size 15 to 20)
#    0.000    1.455    5.455    3.273    0.000    0.727 
#    0.000    3.636    0.000    4.364    0.000    0.000 
#    0.000    0.000    0.000    0.000    0.000    0.000 
#
# Total GULP energy -61334.191882 kJ/mol
# GULP energy per Si atom -5575.835626 kJ/mol
# Density = 1.925636 g / cm^3
# Si number density = 19.300287 Si / 1000 Ang^3
#
#
#
# Elastic Constant Matrix: (Units=GPa)
#
#
# Indices 1 2 3 4 5 6 
#
# 1 61.3423 17.3613 29.0763 0.0000 -10.3875 0.0000
# 2 17.3613 147.0353 72.9374 0.0000 -3.2837 0.0000
# 3 29.0763 72.9374 107.1112 0.0000 -9.2277 0.0000
# 4 0.0000 0.0000 0.0000 -36.2770 0.0000 42.0325
# 5 -10.3875 -3.2837 -9.2277 0.0000 39.5950 0.0000
# 6 0.0000 0.0000 0.0000 42.0325 0.0000 -26.6108
#
#
#
# Elastic Compliance Matrix: (Units=1/GPa)
#
#
# Indices 1 2 3 4 5 6 
#
# 1 0.019300 0.000363 -0.005151 0.000000 0.003893 0.000000
# 2 0.000363 0.010302 -0.007176 0.000000 -0.000723 0.000000
# 3 -0.005151 -0.007176 0.015770 0.000000 0.001729 0.000000
# 4 0.000000 0.000000 0.000000 0.033207 0.000000 0.052451
# 5 0.003893 -0.000723 0.001729 0.000000 0.026620 0.000000
# 6 0.000000 0.000000 0.000000 0.052451 0.000000 0.045269
#
#
# Mechanical properties :
#
#
# Convention : Reuss Voigt Hill
#
# Bulk Modulus (GPa) = 46.63296 61.58209 54.10753
# Shear Modulus (GPa) = 27.54186 8.41569 17.97877
#
# Velocity S-wave (km/s) = 3.78169 2.09042 3.05541
# Velocity P-wave (km/s) = 6.57894 6.14842 6.36732
#
# Compressibility (1/GPa) = 0.02144406
#
# Stress axis : x y z
#
# Youngs Moduli (GPa) = 51.81341 97.07213 63.41268
#
# Poissons Ratio (x) = -0.03527 0.32665
# Poissons Ratio (y) = -0.01883 0.45504
# Poissons Ratio (z) = 0.26690 0.69657
#
# Static dielectric constant tensor:
#      x y z
#    x 1.875400 0.000000 0.238540 
#    y 0.000000 1.727030 0.000000 
#    z 0.238540 0.000000 2.070150 
# 
# From -- ./inp_files/6828.got.cif
#   From: 2010.05.17/outbox.cif.g08.bks.cpg/sg3_4_cif.got.tgz:6828.got - 2010.06.03 18:33:08.
