data_PCOD9112768
_publ_section_title
;
Structure prediction by ZEFSAII (Michael W. Deem and Ramdas Pophale) SiO2 
 PCOD9112768
Probable space group: P 2
;
_chemical_formula_sum "Si O2"
_cell_formula_units_Z 14
_cell_length_a 23.721037
_cell_length_b 7.773552
_cell_length_c 5.414503
_cell_angle_alpha 90.000000
_cell_angle_beta 136.594574
_cell_angle_gamma 90.000000
_cell_volume 686.068248
_symmetry_space_group_name_H-M "P 2"
_symmetry_group_IT_number 3
_symmetry_cell_setting 'monoclinic'
loop_
_space_group_symop_operation_xyz
x,y,z
-x,y,-z
loop_
_atom_site_type_symbol
_atom_site_label
_atom_site_fract_x
_atom_site_fract_y
_atom_site_fract_z
Si Si1 0.177347 0.372130 0.843600
Si Si2 0.404526 0.545591 0.207195
Si Si3 0.260833 0.825023 0.734181
Si Si4 0.003313 0.294733 0.760626
Si Si5 0.594620 0.324414 0.289850
Si Si6 0.735492 0.042478 0.754026
Si Si7 0.828529 0.506211 0.674992
O O1 0.212869 0.401348 0.683618
O O2 0.080299 0.405052 0.504799
O O3 0.190826 0.178242 0.974089
O O4 0.209862 0.485977 0.173870
O O5 0.500000 0.604111 0.500000
O O6 0.393387 0.450412 0.435983
O O7 0.340071 0.700083 0.976524
O O8 0.393465 0.419474 0.935650
O O9 0.182047 0.700445 0.446812
O O10 0.261775 0.951420 0.502412
O O11 0.261735 0.917022 0.001956
O O12 0.000000 0.190067 0.500000
O O13 0.082212 0.418466 0.012378
O O14 0.000000 0.188964 0.000000
O O15 0.655721 0.164838 0.509216
O O16 0.500000 0.266843 0.000000
#
# Coordination Sequence:
#
# PCOD9112768 Si02
#       7
#     2   2   2   2   2   2   2
#     4  10  19  36  60  80 105 145 194 229 267 333
#     4  10  21  39  61  83 110 150 198 235 266 324
#     4  12  24  36  55  86 121 149 179 231 293 338
#     4   8  16  30  56  80  96 130 186 232 264 312
#     4  10  21  39  61  83 110 150 198 235 266 324
#     4  12  24  36  55  86 121 149 179 231 293 338
#     4  10  19  36  60  80 105 145 194 229 267 333
#
# _framework density 20.406137000000001
#
# number of rings (size 3 to 8) (size 9 to 14) (size 15 to 20)
#    0.000    1.714    0.000    5.143    0.000    1.143 
#    0.000    0.000    0.000   46.286    0.000    0.000 
#    0.000    0.000    0.000    0.000    0.000    0.000 
#
# Total GULP energy -78009.631046 kJ/mol
# GULP energy per Si atom -5572.116503 kJ/mol
# Density = 2.035969 g / cm^3
# Si number density = 20.406137 Si / 1000 Ang^3
#
#
#
# Elastic Constant Matrix: (Units=GPa)
#
#
# Indices 1 2 3 4 5 6 
#
# 1 67.2880 10.2044 51.2705 0.0000 -26.2158 0.0000
# 2 10.2044 61.1230 26.8143 0.0000 -1.7086 0.0000
# 3 51.2705 26.8143 116.4420 0.0000 -20.1867 0.0000
# 4 0.0000 0.0000 0.0000 22.5020 0.0000 -19.9546
# 5 -26.2158 -1.7086 -20.1867 0.0000 65.6535 0.0000
# 6 0.0000 0.0000 0.0000 -19.9546 0.0000 25.4904
#
#
#
# Elastic Compliance Matrix: (Units=1/GPa)
#
#
# Indices 1 2 3 4 5 6 
#
# 1 0.025081 0.000358 -0.009917 0.000000 0.006975 0.000000
# 2 0.000358 0.018250 -0.004493 0.000000 -0.000763 0.000000
# 3 -0.009917 -0.004493 0.014030 0.000000 0.000237 0.000000
# 4 0.000000 0.000000 0.000000 0.145327 0.000000 0.113766
# 5 0.006975 -0.000763 0.000237 0.000000 0.018070 0.000000
# 6 0.000000 0.000000 0.000000 0.113766 0.000000 0.128289
#
#
# Mechanical properties :
#
#
# Convention : Reuss Voigt Hill
#
# Bulk Modulus (GPa) = 34.17783 46.82570 40.50177
# Shear Modulus (GPa) = 12.92315 33.16675 23.04495
#
# Velocity S-wave (km/s) = 2.51927 4.03591 3.36417
# Velocity P-wave (km/s) = 5.02468 6.68692 5.91449
#
# Compressibility (1/GPa) = 0.02925874
#
# Stress axis : x y z
#
# Youngs Moduli (GPa) = 39.87131 54.79378 71.27583
#
# Poissons Ratio (x) = -0.01962 0.70681
# Poissons Ratio (y) = -0.01428 0.32022
# Poissons Ratio (z) = 0.39538 0.24617
#
# Static dielectric constant tensor:
#      x y z
#    x 1.833650 0.000000 -0.013610 
#    y 0.000000 1.684570 0.000000 
#    z -0.013610 0.000000 1.792020 
# 
# From -- ./inp_files/3422.got.cif
#   From: 2010.05.17/outbox.cif.g08.bks.cpg/sg3_2_cif.got.tgz:3422.got - 2010.06.03 18:33:08.
