data_PCOD9112338
_publ_section_title
;
Structure prediction by ZEFSAII (Michael W. Deem and Ramdas Pophale) SiO2 
 PCOD9112338
Probable space group: P -1
;
_chemical_formula_sum "Si O2"
_cell_formula_units_Z 15
_cell_length_a 9.412160
_cell_length_b 9.672470
_cell_length_c 12.128234
_cell_angle_alpha 103.290482
_cell_angle_beta 74.045266
_cell_angle_gamma 138.756870
_cell_volume 699.401973
_symmetry_space_group_name_H-M "P -1"
_symmetry_group_IT_number 2
_symmetry_cell_setting 'triclinic'
loop_
_space_group_symop_operation_xyz
x,y,z
-x,-y,-z
loop_
_atom_site_type_symbol
_atom_site_label
_atom_site_fract_x
_atom_site_fract_y
_atom_site_fract_z
Si Si1 0.512592 0.990290 0.865821
Si Si2 0.272568 0.336334 0.952680
Si Si3 0.448801 0.616830 0.761357
Si Si4 0.242237 0.546991 0.569598
Si Si5 0.500000 0.000000 0.500000
Si Si6 0.132523 0.919763 0.846183
Si Si7 0.223039 0.682844 0.299041
Si Si8 0.178444 0.349188 0.321254
O O1 0.506253 0.820797 0.807361
O O2 0.310222 0.929298 0.842032
O O3 0.725296 0.216690 0.812122
O O4 0.500000 0.000000 0.000000
O O5 0.295359 0.451447 0.861891
O O6 0.223958 0.141516 0.888373
O O7 0.500000 0.500000 0.000000
O O8 0.077906 0.243190 0.059223
O O9 0.340540 0.531437 0.648541
O O10 0.664851 0.673482 0.729053
O O11 0.167841 0.391946 0.457400
O O12 0.028085 0.478118 0.644006
O O13 0.408573 0.781804 0.530770
O O14 0.633763 0.129074 0.609535
O O15 0.052316 0.844646 0.723601
O O16 0.277834 0.555621 0.274080
#
# Coordination Sequence:
#
# PCOD9112338 Si02
#       8
#     2   2   2   2   1   2   2   2
#     4  12  28  44  71 108 147 190 245 308 362 429
#     4  11  24  48  74 101 145 194 242 303 361 441
#     4  12  25  46  70 109 151 184 249 310 364 426
#     4  11  25  46  76 108 146 193 243 307 371 431
#     4  10  20  46  72  98 140 190 240 294 358 438
#     4  11  26  46  74 103 140 201 245 291 375 439
#     4  11  25  46  74 102 144 194 250 290 368 442
#     4  11  24  45  76 103 143 188 245 297 371 441
#
# _framework density 21.446894
#
# number of rings (size 3 to 8) (size 9 to 14) (size 15 to 20)
#    0.000    0.800    2.667    4.400    7.467    0.533 
#    0.000    1.333    0.000    0.000    0.000    0.000 
#    0.000    0.000    0.000    0.000    0.000    0.000 
#
# Total GULP energy -83746.947384 kJ/mol
# GULP energy per Si atom -5583.129826 kJ/mol
# Density = 2.139808 g / cm^3
# Si number density = 21.446894 Si / 1000 Ang^3
#
#
#
# Elastic Constant Matrix: (Units=GPa)
#
#
# Indices 1 2 3 4 5 6 
#
# 1 116.6778 30.4005 17.9808 12.2919 -2.3417 -20.5958
# 2 30.4005 79.4831 34.9379 13.4488 5.3921 -13.3232
# 3 17.9808 34.9379 86.8914 14.6706 32.3155 -17.8072
# 4 12.2919 13.4488 14.6706 47.3715 -1.4213 7.7759
# 5 -2.3417 5.3921 32.3155 -1.4213 40.3614 2.8595
# 6 -20.5958 -13.3232 -17.8072 7.7759 2.8595 29.6224
#
#
#
# Elastic Compliance Matrix: (Units=1/GPa)
#
#
# Indices 1 2 3 4 5 6 
#
# 1 0.010932 -0.002730 0.001659 -0.004007 -0.001074 0.008525
# 2 -0.002730 0.017042 -0.006171 -0.002564 0.002238 0.002513
# 3 0.001659 -0.006171 0.029045 -0.011898 -0.024262 0.021303
# 4 -0.004007 -0.002564 -0.011898 0.030242 0.012132 -0.020201
# 5 -0.001074 0.002238 -0.024262 0.012132 0.045821 -0.021933
# 6 0.008525 0.002513 0.021303 -0.020201 -0.021933 0.061042
#
#
# Mechanical properties :
#
#
# Convention : Reuss Voigt Hill
#
# Bulk Modulus (GPa) = 23.51180 49.96561 36.73870
# Shear Modulus (GPa) = 22.44299 36.78663 29.61481
#
# Velocity S-wave (km/s) = 3.23839 4.14604 3.72000
# Velocity P-wave (km/s) = 4.99695 6.80202 5.96812
#
# Compressibility (1/GPa) = 0.04253184
#
# Stress axis : x y z
#
# Youngs Moduli (GPa) = 91.47610 58.67958 34.42992
#
# Poissons Ratio (x) = 0.16022 -0.05711
# Poissons Ratio (y) = 0.24977 0.21248
# Poissons Ratio (z) = -0.15175 0.36214
#
# Static dielectric constant tensor:
#      x y z
#    x 1.790640 0.041330 -0.032580 
#    y 0.041330 1.691520 0.036380 
#    z -0.032580 0.036380 1.777010 
# 
# From -- ./inp_files/288444.got.cif
#   From: 2010.05.17/outbox.cif.g08.bks.cpg/sg2_145_cif.got.tgz:288444.got - 2010.06.03 11:33:40.
