data_PCOD9112415
_publ_section_title
;
Structure prediction by ZEFSAII (Michael W. Deem and Ramdas Pophale) SiO2 
 PCOD9112415
Probable space group: P -1
;
_chemical_formula_sum "Si O2"
_cell_formula_units_Z 14
_cell_length_a 11.813272
_cell_length_b 5.308369
_cell_length_c 19.589010
_cell_angle_alpha 79.596917
_cell_angle_beta 38.472496
_cell_angle_gamma 90.842538
_cell_volume 726.817545
_symmetry_space_group_name_H-M "P -1"
_symmetry_group_IT_number 2
_symmetry_cell_setting 'triclinic'
loop_
_space_group_symop_operation_xyz
x,y,z
-x,-y,-z
loop_
_atom_site_type_symbol
_atom_site_label
_atom_site_fract_x
_atom_site_fract_y
_atom_site_fract_z
Si Si1 0.706862 0.816790 0.123739
Si Si2 0.653295 0.404992 0.293664
Si Si3 0.824523 0.585490 0.344347
Si Si4 0.336444 0.002906 0.522332
Si Si5 0.571323 0.703100 0.051914
Si Si6 0.091332 0.766260 0.903865
Si Si7 0.743978 0.318127 0.903628
O O1 0.677995 0.604233 0.208826
O O2 0.730741 0.083775 0.142093
O O3 0.560997 0.715241 0.137874
O O4 0.912581 0.889649 0.984135
O O5 0.692559 0.554315 0.340212
O O6 0.456235 0.186377 0.398109
O O7 0.825260 0.267499 0.207148
O O8 0.760996 0.305067 0.428304
O O9 0.797730 0.831349 0.389109
O O10 0.036630 0.622126 0.217774
O O11 0.500000 0.000000 0.500000
O O12 0.690381 0.499399 0.980163
O O13 0.669067 0.006061 0.969907
O O14 0.373667 0.624377 0.109292
O O15 0.000000 0.500000 0.000000
#
# Coordination Sequence:
#
# PCOD9112415 Si02
#       7
#     2   2   2   2   2   2   2
#     4  10  21  32  53  80 113 143 176 225 274 337
#     4  10  21  32  53  78 110 143 176 222 281 323
#     4  11  22  36  58  80 111 145 186 230 270 326
#     4  10  22  37  54  81 111 145 187 228 271 326
#     4  10  22  38  58  84 113 143 188 221 274 334
#     4   9  20  32  47  82 110 146 174 215 275 341
#     4  10  22  39  59  82 110 150 182 229 272 322
#
# _framework density 19.262053999999999
#
# number of rings (size 3 to 8) (size 9 to 14) (size 15 to 20)
#    0.000    2.000    0.000    3.429   16.000    0.000 
#    0.000    0.000    0.000    1.714    0.000    0.000 
#    0.000    0.000    0.000    0.000    0.000    0.000 
#
# Total GULP energy -78022.326717 kJ/mol
# GULP energy per Si atom -5573.023337 kJ/mol
# Density = 1.921821 g / cm^3
# Si number density = 19.262054 Si / 1000 Ang^3
#
#
#
# Elastic Constant Matrix: (Units=GPa)
#
#
# Indices 1 2 3 4 5 6 
#
# 1 56.2825 9.2665 16.5437 -7.4748 7.0220 8.9529
# 2 9.2665 94.4085 20.6031 -0.6206 -0.5744 -0.2041
# 3 16.5437 20.6031 69.7233 -6.8595 4.6607 -8.4745
# 4 -7.4748 -0.6206 -6.8595 30.5147 -1.9450 -1.6017
# 5 7.0220 -0.5744 4.6607 -1.9450 23.3159 6.9847
# 6 8.9529 -0.2041 -8.4745 -1.6017 6.9847 16.8204
#
#
#
# Elastic Compliance Matrix: (Units=1/GPa)
#
#
# Indices 1 2 3 4 5 6 
#
# 1 0.022714 -0.000813 -0.006564 0.003243 -0.000862 -0.014740
# 2 -0.000813 0.011470 -0.003650 -0.000780 0.001820 -0.002097
# 3 -0.006564 -0.003650 0.019749 0.003194 -0.006738 0.016501
# 4 0.003243 -0.000780 0.003194 0.034447 0.000336 0.003014
# 5 -0.000862 0.001820 -0.006738 0.000336 0.051886 -0.024427
# 6 -0.014740 -0.002097 0.016501 0.003014 -0.024427 0.086016
#
#
# Mechanical properties :
#
#
# Convention : Reuss Voigt Hill
#
# Bulk Modulus (GPa) = 31.36856 34.80454 33.08655
# Shear Modulus (GPa) = 19.30786 25.73026 22.51906
#
# Velocity S-wave (km/s) = 3.16947 3.65883 3.42290
# Velocity P-wave (km/s) = 5.45111 5.99646 5.73027
#
# Compressibility (1/GPa) = 0.03187905
#
# Stress axis : x y z
#
# Youngs Moduli (GPa) = 44.02618 87.18416 50.63619
#
# Poissons Ratio (x) = 0.07085 0.33238
# Poissons Ratio (y) = 0.03578 0.18482
# Poissons Ratio (z) = 0.28899 0.31821
#
# Static dielectric constant tensor:
#      x y z
#    x 1.718030 -0.015910 0.007330 
#    y -0.015910 1.786180 0.025340 
#    z 0.007330 0.025340 1.699470 
# 
# From -- ./inp_files/563608.got.cif
#   From: 2010.05.17/outbox.cif.g08.bks.cpg/sg2_282_cif.got.tgz:563608.got - 2010.06.03 11:33:40.
