data_PCOD9112331
_publ_section_title
;
Structure prediction by ZEFSAII (Michael W. Deem and Ramdas Pophale) SiO2 
 PCOD9112331
Probable space group: P -1
;
_chemical_formula_sum "Si O2"
_cell_formula_units_Z 14
_cell_length_a 11.516580
_cell_length_b 11.818410
_cell_length_c 4.990632
_cell_angle_alpha 71.799580
_cell_angle_beta 101.899171
_cell_angle_gamma 132.173011
_cell_volume 478.224252
_symmetry_space_group_name_H-M "P -1"
_symmetry_group_IT_number 2
_symmetry_cell_setting 'triclinic'
loop_
_space_group_symop_operation_xyz
x,y,z
-x,-y,-z
loop_
_atom_site_type_symbol
_atom_site_label
_atom_site_fract_x
_atom_site_fract_y
_atom_site_fract_z
Si Si1 0.991529 0.777929 0.374312
Si Si2 0.757167 0.494189 0.828152
Si Si3 0.741016 0.784003 0.033606
Si Si4 0.500000 0.500000 0.500000
Si Si5 0.295079 0.082869 0.578683
Si Si6 0.830875 0.286702 0.791322
Si Si7 0.500000 0.000000 0.000000
Si Si8 0.599539 0.236506 0.335315
O O1 0.887861 0.672451 0.659439
O O2 0.902872 0.821064 0.131877
O O3 0.018549 0.686930 0.246605
O O4 0.154479 0.928008 0.467716
O O5 0.608594 0.448544 0.631115
O O6 0.833196 0.417005 0.834673
O O7 0.674568 0.406629 0.134425
O O8 0.609557 0.613186 0.217857
O O9 0.744177 0.895762 0.162416
O O10 0.693694 0.789232 0.704603
O O11 0.469515 0.139588 0.584944
O O12 0.746278 0.260660 0.491521
O O13 0.699460 0.124501 0.998887
O O14 0.487789 0.888808 0.846454
#
# Coordination Sequence:
#
# PCOD9112331 Si02
#       8
#     2   2   2   1   2   2   1   2
#     4  11  25  45  67 100 144 189 229 292 364 420
#     4  10  23  45  64 102 137 185 235 297 350 427
#     4  11  26  47  72 109 141 189 239 299 351 424
#     4  10  20  46  72 100 142 180 244 282 360 408
#     4  12  25  47  74 105 144 183 246 297 350 424
#     4  11  23  43  68 102 137 184 237 292 355 431
#     4  10  22  40  66 102 134 182 232 292 356 418
#     4  11  23  40  71 100 136 180 241 297 351 420
#
# _framework density 29.274965000000002
#
# number of rings (size 3 to 8) (size 9 to 14) (size 15 to 20)
#    0.000    1.143    2.857    2.571    2.000    1.143 
#   18.000    0.000    0.000    0.000    0.000    0.000 
#    0.000    0.000    0.000    0.000    0.000    0.000 
#
# Total GULP energy -78074.427181 kJ/mol
# GULP energy per Si atom -5576.744799 kJ/mol
# Density = 2.920833 g / cm^3
# Si number density = 29.274965 Si / 1000 Ang^3
#
#
#
# Elastic Constant Matrix: (Units=GPa)
#
#
# Indices 1 2 3 4 5 6 
#
# 1 171.7438 23.5732 11.2568 22.1118 3.8054 -17.9157
# 2 23.5732 60.6028 8.7593 -23.1674 -20.5479 7.6817
# 3 11.2568 8.7593 122.4911 3.6151 -23.1238 9.1312
# 4 22.1118 -23.1674 3.6151 60.4167 7.2383 -13.4768
# 5 3.8054 -20.5479 -23.1238 7.2383 45.8285 7.5862
# 6 -17.9157 7.6817 9.1312 -13.4768 7.5862 40.0821
#
#
#
# Elastic Compliance Matrix: (Units=1/GPa)
#
#
# Indices 1 2 3 4 5 6 
#
# 1 0.007818 -0.006293 -0.001318 -0.003655 -0.004318 0.004589
# 2 -0.006293 0.028008 0.001447 0.009573 0.013600 -0.007866
# 3 -0.001318 0.001447 0.009868 -0.001455 0.006776 -0.004886
# 4 -0.003655 0.009573 -0.001455 0.022732 -0.000490 0.004599
# 5 -0.004318 0.013600 0.006776 -0.000490 0.033868 -0.012655
# 6 0.004589 -0.007866 -0.004886 0.004599 -0.012655 0.033562
#
#
# Mechanical properties :
#
#
# Convention : Reuss Voigt Hill
#
# Bulk Modulus (GPa) = 29.97220 49.11294 39.54257
# Shear Modulus (GPa) = 31.38623 50.01536 40.70080
#
# Velocity S-wave (km/s) = 3.27787 4.13785 3.73271
# Velocity P-wave (km/s) = 4.95846 6.29618 5.66693
#
# Compressibility (1/GPa) = 0.03336425
#
# Stress axis : x y z
#
# Youngs Moduli (GPa) = 127.91374 35.70468 101.33968
#
# Poissons Ratio (x) = 0.22470 0.13355
# Poissons Ratio (y) = 0.80502 -0.14662
# Poissons Ratio (z) = 0.16857 -0.05166
#
# Static dielectric constant tensor:
#      x y z
#    x 2.226140 -0.114420 0.045430 
#    y -0.114420 2.299970 -0.103810 
#    z 0.045430 -0.103810 2.243000 
# 
# From -- ./inp_files/68410.got.cif
#   From: 2010.05.17/outbox.cif.g08.bks.cpg/sg2_35_cif.got.tgz:68410.got - 2010.06.03 11:33:40.
