data_PCOD9112568
_publ_section_title
;
Structure prediction by ZEFSAII (Michael W. Deem and Ramdas Pophale) SiO2 
 PCOD9112568
Probable space group: P 2
;
_chemical_formula_sum "Si O2"
_cell_formula_units_Z 16
_cell_length_a 8.968200
_cell_length_b 12.240407
_cell_length_c 9.306993
_cell_angle_alpha 90.000000
_cell_angle_beta 56.167887
_cell_angle_gamma 90.000000
_cell_volume 848.673006
_symmetry_space_group_name_H-M "P 2"
_symmetry_group_IT_number 3
_symmetry_cell_setting 'monoclinic'
loop_
_space_group_symop_operation_xyz
x,y,z
-x,y,-z
loop_
_atom_site_type_symbol
_atom_site_label
_atom_site_fract_x
_atom_site_fract_y
_atom_site_fract_z
Si Si1 0.025947 0.094830 0.151687
Si Si2 0.596197 0.858039 0.718968
Si Si3 0.846622 0.624794 0.977037
Si Si4 0.694324 0.235789 0.822897
Si Si5 0.469219 0.623025 0.350682
Si Si6 0.781292 0.862934 0.930324
Si Si7 0.690749 0.487816 0.811616
Si Si8 0.803593 0.070802 0.528114
O O1 0.168019 0.177860 0.143282
O O2 0.847797 0.103847 0.342700
O O3 0.099737 0.971110 0.130855
O O4 0.000000 0.116861 0.000000
O O5 0.604070 0.746716 0.624912
O O6 0.698435 0.843906 0.816483
O O7 0.689750 0.960607 0.595333
O O8 0.389125 0.879904 0.872757
O O9 0.659202 0.622039 0.164576
O O10 0.880293 0.751672 0.920182
O O11 0.822240 0.556129 0.844373
O O12 0.000000 0.582617 0.000000
O O13 0.742763 0.361565 0.769494
O O14 0.705665 0.163926 0.672621
O O15 0.500000 0.230358 0.000000
O O16 0.500000 0.593550 0.500000
O O17 0.342026 0.544652 0.324282
O O18 0.500000 0.490524 0.000000
O O19 0.000000 0.054334 0.500000
#
# Coordination Sequence:
#
# PCOD9112568 Si02
#       8
#     2   2   2   2   2   2   2   2
#     4  11  23  37  56  85 119 147 183 244 291 333
#     4  10  18  33  59  84 112 153 192 229 277 348
#     4  10  20  36  58  87 117 151 189 230 284 346
#     4  10  20  39  62  81 105 154 200 231 279 350
#     4  10  21  38  57  86 118 148 190 238 279 336
#     4  10  18  33  58  84 115 155 189 223 284 350
#     4   9  19  38  62  81 109 155 195 230 286 340
#     4  10  20  35  56  83 114 146 186 235 282 338
#
# _framework density 18.852962000000002
#
# number of rings (size 3 to 8) (size 9 to 14) (size 15 to 20)
#    0.000    2.000    3.750    1.125    0.000    3.500 
#    0.000   10.000    0.000    0.000    0.000    0.000 
#    0.000    0.000    0.000    0.000    0.000    0.000 
#
# Total GULP energy -89317.958751 kJ/mol
# GULP energy per Si atom -5582.372422 kJ/mol
# Density = 1.881005 g / cm^3
# Si number density = 18.852962 Si / 1000 Ang^3
#
#
#
# Elastic Constant Matrix: (Units=GPa)
#
#
# Indices 1 2 3 4 5 6 
#
# 1 69.6558 58.8265 36.3795 0.0000 24.7310 0.0000
# 2 58.8265 154.4869 57.3701 0.0000 15.1475 0.0000
# 3 36.3795 57.3701 102.6341 0.0000 29.9712 0.0000
# 4 0.0000 0.0000 0.0000 4.3419 0.0000 6.5954
# 5 24.7310 15.1475 29.9712 0.0000 31.5912 0.0000
# 6 0.0000 0.0000 0.0000 6.5954 0.0000 -3.8777
#
#
#
# Elastic Compliance Matrix: (Units=1/GPa)
#
#
# Indices 1 2 3 4 5 6 
#
# 1 0.028328 -0.009145 0.000368 0.000000 -0.018141 0.000000
# 2 -0.009145 0.011128 -0.004857 0.000000 0.006431 0.000000
# 3 0.000368 -0.004857 0.016228 0.000000 -0.013355 0.000000
# 4 0.000000 0.000000 0.000000 0.064269 0.000000 0.109312
# 5 -0.018141 0.006431 -0.013355 0.000000 0.055442 0.000000
# 6 0.000000 0.000000 0.000000 0.109312 0.000000 -0.071962
#
#
# Mechanical properties :
#
#
# Convention : Reuss Voigt Hill
#
# Bulk Modulus (GPa) = 35.19077 70.21433 52.70255
# Shear Modulus (GPa) = 35.67012 18.02445 26.84729
#
# Velocity S-wave (km/s) = 4.35445 3.09537 3.77773
# Velocity P-wave (km/s) = 6.63235 7.07807 6.85883
#
# Compressibility (1/GPa) = 0.02841654
#
# Stress axis : x y z
#
# Youngs Moduli (GPa) = 35.30075 89.85990 61.62308
#
# Poissons Ratio (x) = 0.82176 -0.02269
# Poissons Ratio (y) = 0.32282 0.29931
# Poissons Ratio (z) = -0.01300 0.43645
#
# Static dielectric constant tensor:
#      x y z
#    x 1.657650 0.000000 -0.002140 
#    y 0.000000 1.635830 0.000000 
#    z -0.002140 0.000000 1.661880 
# 
# From -- ./inp_files/5864.got.cif
#   From: 2010.05.17/outbox.cif.g08.bks.cpg/sg3_3_cif.got.tgz:5864.got - 2010.06.03 18:33:08.
