data_PCOD9112738
_publ_section_title
;
Structure prediction by ZEFSAII (Michael W. Deem and Ramdas Pophale) SiO2 
 PCOD9112738
Probable space group: P 2
;
_chemical_formula_sum "Si O2"
_cell_formula_units_Z 14
_cell_length_a 10.418737
_cell_length_b 5.071701
_cell_length_c 13.918430
_cell_angle_alpha 90.000000
_cell_angle_beta 125.149675
_cell_angle_gamma 90.000000
_cell_volume 601.349394
_symmetry_space_group_name_H-M "P 2"
_symmetry_group_IT_number 3
_symmetry_cell_setting 'monoclinic'
loop_
_space_group_symop_operation_xyz
x,y,z
-x,y,-z
loop_
_atom_site_type_symbol
_atom_site_label
_atom_site_fract_x
_atom_site_fract_y
_atom_site_fract_z
Si Si1 0.854446 0.114200 0.561928
Si Si2 0.482563 0.127864 0.600920
Si Si3 0.186760 0.496381 0.068367
Si Si4 0.834812 0.984253 0.056684
Si Si5 0.711349 0.424523 0.342804
Si Si6 0.186526 0.132061 0.238215
Si Si7 0.194014 0.927155 0.731382
O O1 0.684636 0.972121 0.473535
O O2 0.842470 0.350129 0.480177
O O3 0.853461 0.216878 0.670602
O O4 0.009832 0.942268 0.622249
O O5 0.500000 0.239417 0.500000
O O6 0.443159 0.349209 0.663285
O O7 0.646595 0.981117 0.689112
O O8 0.226705 0.378200 0.188559
O O9 0.238028 0.773924 0.048025
O O10 0.000000 0.514113 0.000000
O O11 0.218362 0.271558 0.001634
O O12 0.796105 0.908294 0.149362
O O13 0.972748 0.992203 0.865909
O O14 0.733700 0.202913 0.270954
O O15 0.726414 0.697666 0.295438
#
# Coordination Sequence:
#
# PCOD9112738 Si02
#       7
#     2   2   2   2   2   2   2
#     4   8  19  35  61  95 125 161 205 251 301 380
#     4   8  17  39  64  93 131 161 207 245 315 384
#     4  10  19  35  58  90 118 153 205 257 311 358
#     4  10  21  36  60  90 118 156 210 259 301 360
#     4  10  22  37  62  90 128 160 206 247 301 374
#     4   9  17  36  67  88 132 159 198 260 324 365
#     4  11  21  39  59  86 125 166 204 256 304 346
#
# _framework density 23.280972999999999
#
# number of rings (size 3 to 8) (size 9 to 14) (size 15 to 20)
#    0.857    1.714    0.000    2.571    0.000    2.286 
#    0.000    9.286    0.000    5.143    0.000    0.000 
#    0.000    0.000    0.000    0.000    0.000    0.000 
#
# Total GULP energy -78002.053077 kJ/mol
# GULP energy per Si atom -5571.575220 kJ/mol
# Density = 2.322798 g / cm^3
# Si number density = 23.280973 Si / 1000 Ang^3
#
#
#
# Elastic Constant Matrix: (Units=GPa)
#
#
# Indices 1 2 3 4 5 6 
#
# 1 95.6337 11.8186 19.5992 0.0000 -18.8940 0.0000
# 2 11.8186 77.5752 31.4157 0.0000 -18.0759 0.0000
# 3 19.5992 31.4157 83.7670 0.0000 -45.1886 0.0000
# 4 0.0000 0.0000 0.0000 13.5802 0.0000 -2.4400
# 5 -18.8940 -18.0759 -45.1886 0.0000 39.4001 0.0000
# 6 0.0000 0.0000 0.0000 -2.4400 0.0000 9.5941
#
#
#
# Elastic Compliance Matrix: (Units=1/GPa)
#
#
# Indices 1 2 3 4 5 6 
#
# 1 0.011599 -0.000678 0.000979 0.000000 0.006374 0.000000
# 2 -0.000678 0.015258 -0.005148 0.000000 0.000770 0.000000
# 3 0.000979 -0.005148 0.033095 0.000000 0.036065 0.000000
# 4 0.000000 0.000000 0.000000 0.077162 0.000000 0.019624
# 5 0.006374 0.000770 0.036065 0.000000 0.070154 0.000000
# 6 0.000000 0.000000 0.000000 0.019624 0.000000 0.109222
#
#
# Mechanical properties :
#
#
# Convention : Reuss Voigt Hill
#
# Bulk Modulus (GPa) = 19.89772 42.51588 31.20680
# Shear Modulus (GPa) = 14.57990 25.45770 20.01880
#
# Velocity S-wave (km/s) = 2.50523 3.31040 2.93555
# Velocity P-wave (km/s) = 4.11504 5.73702 4.99234
#
# Compressibility (1/GPa) = 0.05025701
#
# Stress axis : x y z
#
# Youngs Moduli (GPa) = 86.21419 65.53752 30.21623
#
# Poissons Ratio (x) = 0.04446 -0.02958
# Poissons Ratio (y) = 0.05849 0.15556
# Poissons Ratio (z) = -0.08440 0.33739
#
# Static dielectric constant tensor:
#      x y z
#    x 1.906140 0.000000 0.048510 
#    y 0.000000 1.869250 0.000000 
#    z 0.048510 0.000000 1.970330 
# 
# From -- ./inp_files/11326.got.cif
#   From: 2010.05.17/outbox.cif.g08.bks.cpg/sg3_6_cif.got.tgz:11326.got - 2010.06.03 18:33:08.
