data_PCOD9112461
_publ_section_title
;
Structure prediction by ZEFSAII (Michael W. Deem and Ramdas Pophale) SiO2 
 PCOD9112461
Probable space group: P 2
;
_chemical_formula_sum "Si O2"
_cell_formula_units_Z 13
_cell_length_a 10.671294
_cell_length_b 5.566122
_cell_length_c 8.522294
_cell_angle_alpha 90.000000
_cell_angle_beta 68.297341
_cell_angle_gamma 90.000000
_cell_volume 470.322745
_symmetry_space_group_name_H-M "P 2"
_symmetry_group_IT_number 3
_symmetry_cell_setting 'monoclinic'
loop_
_space_group_symop_operation_xyz
x,y,z
-x,y,-z
loop_
_atom_site_type_symbol
_atom_site_label
_atom_site_fract_x
_atom_site_fract_y
_atom_site_fract_z
Si Si1 0.534694 0.791890 0.298270
Si Si2 0.000000 0.251888 0.000000
Si Si3 0.911787 0.727649 0.698988
Si Si4 0.230815 0.326495 0.653803
Si Si5 0.787275 0.207474 0.846384
Si Si6 0.805635 0.811176 0.332971
Si Si7 0.453168 0.293575 0.823393
O O1 0.500000 0.784630 0.500000
O O2 0.701762 0.800655 0.231832
O O3 0.487667 0.560827 0.221247
O O4 0.481245 0.037594 0.246830
O O5 0.124355 0.151614 0.040020
O O6 0.904968 0.360452 0.181460
O O7 0.844892 0.465808 0.758843
O O8 0.000000 0.720334 0.500000
O O9 0.033971 0.797888 0.764835
O O10 0.813280 0.958600 0.743035
O O11 0.237332 0.570907 0.554077
O O12 0.355958 0.312279 0.712355
O O13 0.219067 0.070338 0.580385
O O14 0.637584 0.260156 0.979484
#
# Coordination Sequence:
#
# PCOD9112461 Si02
#       7
#     2   1   2   2   2   2   2
#     4  10  19  33  52  77 107 133 164 216 277 322
#     4  10  16  28  48  72  98 132 162 196 270 302
#     4  12  23  36  51  75 110 152 184 209 247 311
#     4   9  17  26  44  67  99 125 161 195 246 310
#     4  11  22  34  53  78 108 145 174 219 264 314
#     4  10  18  33  44  71  99 134 170 201 248 311
#     4   9  19  32  48  78 103 134 166 210 264 328
#
# _framework density 27.640595999999999
#
# number of rings (size 3 to 8) (size 9 to 14) (size 15 to 20)
#    0.000    1.846    3.077    1.846    0.000    4.923 
#    0.000    0.000    0.000    0.000    0.000    6.462 
#    0.000    0.000    0.000    0.000    0.000    0.000 
#
# Total GULP energy -72438.711282 kJ/mol
# GULP energy per Si atom -5572.208560 kJ/mol
# Density = 2.757769 g / cm^3
# Si number density = 27.640596 Si / 1000 Ang^3
#
#
#
# Elastic Constant Matrix: (Units=GPa)
#
#
# Indices 1 2 3 4 5 6 
#
# 1 100.4217 17.0855 18.1961 0.0000 -18.2273 0.0000
# 2 17.0855 370.1419 85.4245 0.0000 -21.4460 0.0000
# 3 18.1961 85.4245 139.0333 0.0000 -29.8509 0.0000
# 4 0.0000 0.0000 0.0000 -20.2514 0.0000 9.6396
# 5 -18.2273 -21.4460 -29.8509 0.0000 44.6507 0.0000
# 6 0.0000 0.0000 0.0000 9.6396 0.0000 -9.8852
#
#
#
# Elastic Compliance Matrix: (Units=1/GPa)
#
#
# Indices 1 2 3 4 5 6 
#
# 1 0.010798 -0.000161 -0.000449 0.000000 0.004031 0.000000
# 2 -0.000161 0.003153 -0.001874 0.000000 0.000196 0.000000
# 3 -0.000449 -0.001874 0.009539 0.000000 0.005294 0.000000
# 4 0.000000 0.000000 0.000000 -0.092154 0.000000 -0.089865
# 5 0.004031 0.000196 0.005294 0.000000 0.027675 0.000000
# 6 0.000000 0.000000 0.000000 -0.089865 0.000000 -0.188794
#
#
# Mechanical properties :
#
#
# Convention : Reuss Voigt Hill
#
# Bulk Modulus (GPa) = 53.98887 94.55656 74.27272
# Shear Modulus (GPa) = -22.86862 35.49555 6.31346
#
# Velocity S-wave (km/s) = -2.87950 3.58744 1.51297
# Velocity P-wave (km/s) = 2.91882 7.17239 5.47552
#
# Compressibility (1/GPa) = 0.01852234
#
# Stress axis : x y z
#
# Youngs Moduli (GPa) = 92.60676 317.16075 104.82817
#
# Poissons Ratio (x) = 0.05117 0.04704
# Poissons Ratio (y) = 0.01494 0.19646
# Poissons Ratio (z) = 0.04155 0.59440
#
# Static dielectric constant tensor:
#      x y z
#    x 2.381070 0.000000 0.071150 
#    y 0.000000 2.258920 0.000000 
#    z 0.071150 0.000000 2.125980 
# 
# From -- ./inp_files/8038.got.cif
#   From: 2010.05.17/outbox.cif.g08.bks.cpg/sg3_5_cif.got.tgz:8038.got - 2010.06.03 18:33:08.
