data_PCOD9112439
_publ_section_title
;
Structure prediction by ZEFSAII (Michael W. Deem and Ramdas Pophale) SiO2 
 PCOD9112439
Probable space group: P -1
;
_chemical_formula_sum "Si O2"
_cell_formula_units_Z 16
_cell_length_a 7.779967
_cell_length_b 18.302242
_cell_length_c 8.558432
_cell_angle_alpha 140.896080
_cell_angle_beta 99.656253
_cell_angle_gamma 73.901775
_cell_volume 736.226979
_symmetry_space_group_name_H-M "P -1"
_symmetry_group_IT_number 2
_symmetry_cell_setting 'triclinic'
loop_
_space_group_symop_operation_xyz
x,y,z
-x,-y,-z
loop_
_atom_site_type_symbol
_atom_site_label
_atom_site_fract_x
_atom_site_fract_y
_atom_site_fract_z
Si Si1 0.786450 0.646366 0.780601
Si Si2 0.092860 0.044910 0.942689
Si Si3 0.062294 0.591896 0.442284
Si Si4 0.188248 0.874524 0.243879
Si Si5 0.205434 0.233992 0.490428
Si Si6 0.565024 0.121758 0.241535
Si Si7 0.844124 0.861560 0.333438
Si Si8 0.609786 0.286022 0.235388
O O1 0.859750 0.549390 0.764836
O O2 0.592918 0.634327 0.669685
O O3 0.931529 0.625222 0.628641
O O4 0.767679 0.777048 0.065424
O O5 0.952388 0.090082 0.862703
O O6 0.251252 0.933672 0.733400
O O7 0.161687 0.153890 0.206770
O O8 0.000000 0.000000 0.000000
O O9 0.232584 0.651485 0.583879
O O10 0.936309 0.641931 0.358387
O O11 0.057022 0.840442 0.295369
O O12 0.242337 0.999407 0.484704
O O13 0.340522 0.769531 0.021751
O O14 0.417584 0.219390 0.473474
O O15 0.181357 0.174251 0.552106
O O16 0.604736 0.180704 0.183296
O O17 0.500000 0.000000 0.000000
#
# Coordination Sequence:
#
# PCOD9112439 Si02
#       8
#     2   2   2   2   2   2   2   2
#     4  11  25  44  65  94 128 168 216 271 315 374
#     4  11  17  35  60  89 125 163 213 251 301 378
#     4  11  23  44  72  90 119 172 228 267 306 364
#     4  11  22  39  64  96 128 175 202 254 325 390
#     4  11  20  39  61  93 124 167 209 259 314 373
#     4  10  21  32  60  99 125 157 208 265 306 374
#     4  11  24  41  58  95 138 167 199 255 338 386
#     4  12  21  42  69  97 123 163 224 266 306 374
#
# _framework density 21.732427000000001
#
# number of rings (size 3 to 8) (size 9 to 14) (size 15 to 20)
#    0.000    1.000    6.250    1.125    1.750    1.000 
#    4.500    0.000    0.000    1.500    0.000    0.000 
#    0.000    0.000    0.000    0.000    0.000    0.000 
#
# Total GULP energy -89357.672533 kJ/mol
# GULP energy per Si atom -5584.854533 kJ/mol
# Density = 2.168296 g / cm^3
# Si number density = 21.732427 Si / 1000 Ang^3
#
#
#
# Elastic Constant Matrix: (Units=GPa)
#
#
# Indices 1 2 3 4 5 6 
#
# 1 116.4935 27.5623 5.2458 -1.3915 -9.5063 3.5045
# 2 27.5623 70.5582 -13.3498 0.4703 -11.4856 4.5049
# 3 5.2458 -13.3498 24.6233 -7.5695 0.7600 6.1304
# 4 -1.3915 0.4703 -7.5695 24.7247 1.9859 -2.1186
# 5 -9.5063 -11.4856 0.7600 1.9859 16.6832 -0.0473
# 6 3.5045 4.5049 6.1304 -2.1186 -0.0473 40.2837
#
#
#
# Elastic Compliance Matrix: (Units=1/GPa)
#
#
# Indices 1 2 3 4 5 6 
#
# 1 0.010083 -0.004409 -0.005059 -0.001116 0.003074 0.000331
# 2 -0.004409 0.020365 0.013288 0.002255 0.010624 -0.003785
# 3 -0.005059 0.013288 0.055820 0.015658 0.001834 -0.008715
# 4 -0.001116 0.002255 0.015658 0.045540 -0.005218 -0.000149
# 5 0.003074 0.010624 0.001834 -0.005218 0.069538 -0.001927
# 6 0.000331 -0.003785 -0.008715 -0.000149 -0.001927 0.026535
#
#
# Mechanical properties :
#
#
# Convention : Reuss Voigt Hill
#
# Bulk Modulus (GPa) = 10.64861 27.84349 19.24605
# Shear Modulus (GPa) = 19.87733 29.15277 24.51505
#
# Velocity S-wave (km/s) = 3.02758 3.66654 3.36227
# Velocity P-wave (km/s) = 4.13910 5.54657 4.89370
#
# Compressibility (1/GPa) = 0.09390897
#
# Stress axis : x y z
#
# Youngs Moduli (GPa) = 99.17959 49.10355 17.91461
#
# Poissons Ratio (x) = 0.21650 0.09062
# Poissons Ratio (y) = 0.43728 -0.23805
# Poissons Ratio (z) = 0.50172 -0.65249
#
# Static dielectric constant tensor:
#      x y z
#    x 1.878950 -0.031650 -0.015770 
#    y -0.031650 1.798680 0.022470 
#    z -0.015770 0.022470 1.853180 
# 
# From -- ./inp_files/218941.got.cif
#   From: 2010.05.17/outbox.cif.g08.bks.cpg/sg2_110_cif.got.tgz:218941.got - 2010.06.03 11:33:40.
