data_PCOD9112842
_publ_section_title
;
Structure prediction by ZEFSAII (Michael W. Deem and Ramdas Pophale) SiO2 
 PCOD9112842
Probable space group: P 2
;
_chemical_formula_sum "Si O2"
_cell_formula_units_Z 13
_cell_length_a 9.439827
_cell_length_b 6.394115
_cell_length_c 15.388628
_cell_angle_alpha 90.000000
_cell_angle_beta 46.237028
_cell_angle_gamma 90.000000
_cell_volume 670.820464
_symmetry_space_group_name_H-M "P 2"
_symmetry_group_IT_number 3
_symmetry_cell_setting 'monoclinic'
loop_
_space_group_symop_operation_xyz
x,y,z
-x,y,-z
loop_
_atom_site_type_symbol
_atom_site_label
_atom_site_fract_x
_atom_site_fract_y
_atom_site_fract_z
Si Si1 0.000000 0.864491 0.500000
Si Si2 0.051355 0.550396 0.337453
Si Si3 0.021589 0.473992 0.091578
Si Si4 0.748271 0.201378 0.500585
Si Si5 0.699138 0.196465 0.311907
Si Si6 0.005904 0.855412 0.792895
Si Si7 0.727030 0.236050 0.883957
O O1 0.882770 0.713843 0.616739
O O2 0.858758 0.012073 0.501998
O O3 0.206862 0.396591 0.221907
O O4 0.886568 0.403319 0.450754
O O5 0.955741 0.694208 0.302199
O O6 0.823830 0.388216 0.221306
O O7 0.071200 0.709173 0.097804
O O8 0.188200 0.334684 0.063912
O O9 0.000000 0.446451 0.000000
O O10 0.722976 0.188039 0.406656
O O11 0.522953 0.212219 0.625655
O O12 0.811566 0.980814 0.244093
O O13 0.849027 0.021699 0.822665
O O14 0.500000 0.203892 0.000000
#
# Coordination Sequence:
#
# PCOD9112842 Si02
#       7
#     1   2   2   2   2   2   2
#     4  12  24  40  66  94 132 164 210 260 310 380
#     4  11  21  42  64  90 131 165 205 260 314 372
#     4  10  22  43  65  93 125 163 212 265 313 369
#     4  11  22  42  65  95 128 167 207 258 314 371
#     4  10  21  42  67  92 126 166 208 257 316 373
#     4  10  19  40  66  92 122 166 210 254 316 372
#     4  10  22  43  67  88 126 169 213 260 316 369
#
# _framework density 19.379254
#
# number of rings (size 3 to 8) (size 9 to 14) (size 15 to 20)
#    0.000    1.538    6.154    0.462    0.000    6.154 
#   11.077    0.000    0.000    0.000    0.000    0.000 
#    0.000    0.000    0.000    0.000    0.000    0.000 
#
# Total GULP energy -72403.591905 kJ/mol
# GULP energy per Si atom -5569.507070 kJ/mol
# Density = 1.933515 g / cm^3
# Si number density = 19.379254 Si / 1000 Ang^3
#
#
#
# Elastic Constant Matrix: (Units=GPa)
#
#
# Indices 1 2 3 4 5 6 
#
# 1 80.9539 43.5027 59.1345 0.0000 -6.7104 0.0000
# 2 43.5027 124.2312 51.1786 0.0000 -4.5307 0.0000
# 3 59.1345 51.1786 79.7918 0.0000 -8.7925 0.0000
# 4 0.0000 0.0000 0.0000 -6.9761 0.0000 -1.2505
# 5 -6.7104 -4.5307 -8.7925 0.0000 43.6439 0.0000
# 6 0.0000 0.0000 0.0000 -1.2505 0.0000 3.6681
#
#
#
# Elastic Compliance Matrix: (Units=1/GPa)
#
#
# Indices 1 2 3 4 5 6 
#
# 1 0.027183 -0.001660 -0.019063 0.000000 0.000167 0.000000
# 2 -0.001660 0.011045 -0.005887 0.000000 -0.000295 0.000000
# 3 -0.019063 -0.005887 0.030728 0.000000 0.002648 0.000000
# 4 0.000000 0.000000 0.000000 -0.135092 0.000000 -0.046055
# 5 0.000167 -0.000295 0.002648 0.000000 0.023441 0.000000
# 6 0.000000 0.000000 0.000000 -0.046055 0.000000 0.256923
#
#
# Mechanical properties :
#
#
# Convention : Reuss Voigt Hill
#
# Bulk Modulus (GPa) = 63.54210 65.84539 64.69375
# Shear Modulus (GPa) = 18.33559 16.81125 17.57342
#
# Velocity S-wave (km/s) = 3.07928 2.94851 3.01461
# Velocity P-wave (km/s) = 6.74556 6.75593 6.75075
#
# Compressibility (1/GPa) = 0.01573760
#
# Stress axis : x y z
#
# Youngs Moduli (GPa) = 36.78717 90.53811 32.54354
#
# Poissons Ratio (x) = 0.15026 0.62038
# Poissons Ratio (y) = 0.06105 0.19158
# Poissons Ratio (z) = 0.70127 0.53298
#
# Static dielectric constant tensor:
#      x y z
#    x 1.690650 0.000000 0.008640 
#    y 0.000000 1.719940 0.000000 
#    z 0.008640 0.000000 1.737900 
# 
# From -- ./inp_files/8090.got.cif
#   From: 2010.05.17/outbox.cif.g08.bks.cpg/sg3_5_cif.got.tgz:8090.got - 2010.06.03 18:33:08.
