data_PCOD9112646
_publ_section_title
;
Structure prediction by ZEFSAII (Michael W. Deem and Ramdas Pophale) SiO2 
 PCOD9112646
Probable space group: P 2
;
_chemical_formula_sum "Si O2"
_cell_formula_units_Z 15
_cell_length_a 13.670304
_cell_length_b 7.570744
_cell_length_c 5.629843
_cell_angle_alpha 90.000000
_cell_angle_beta 73.908398
_cell_angle_gamma 90.000000
_cell_volume 559.828440
_symmetry_space_group_name_H-M "P 2"
_symmetry_group_IT_number 3
_symmetry_cell_setting 'monoclinic'
loop_
_space_group_symop_operation_xyz
x,y,z
-x,y,-z
loop_
_atom_site_type_symbol
_atom_site_label
_atom_site_fract_x
_atom_site_fract_y
_atom_site_fract_z
Si Si1 0.847358 0.511080 0.680831
Si Si2 0.149260 0.454812 0.812421
Si Si3 0.659914 0.772610 0.836092
Si Si4 0.379895 0.948265 0.616502
Si Si5 0.383064 0.353623 0.689928
Si Si6 0.114272 0.036926 0.901014
Si Si7 0.500000 0.512100 0.000000
Si Si8 0.874820 0.096856 0.601003
O O1 0.896380 0.542874 0.391637
O O2 0.752200 0.638994 0.755606
O O3 0.830425 0.296484 0.660251
O O4 0.888662 0.535448 0.916805
O O5 0.275489 0.455822 0.709739
O O6 0.116542 0.250081 0.861694
O O7 0.659704 0.912070 0.624412
O O8 0.645212 0.837789 0.122142
O O9 0.565462 0.650069 0.807487
O O10 0.500000 0.940898 0.500000
O O11 0.352807 0.151333 0.685385
O O12 0.500000 0.379326 0.500000
O O13 0.414402 0.395774 0.936534
O O14 0.151367 0.986082 0.616544
O O15 0.158113 0.002849 0.132136
O O16 0.000000 0.972796 0.000000
O O17 0.000000 0.117820 0.500000
#
# Coordination Sequence:
#
# PCOD9112646 Si02
#       8
#     2   2   2   2   2   2   1   2
#     4  10  19  31  52  79 106 133 180 227 266 316
#     4  10  19  33  51  79 108 136 178 229 267 317
#     4  12  23  39  58  81 106 145 183 229 274 326
#     4  11  25  41  55  74 112 147 182 220 280 331
#     4  11  26  38  57  81 110 150 184 232 276 332
#     4   8  14  25  44  70 103 135 164 209 274 322
#     4  12  24  36  64  80 108 138 196 230 280 312
#     4   8  14  25  42  69 104 135 160 207 274 323
#
# _framework density 26.79392
#
# number of rings (size 3 to 8) (size 9 to 14) (size 15 to 20)
#    0.000    1.867    2.667    1.600    5.600    0.000 
#    0.000    0.000    0.000    0.000    0.000    1.867 
#    0.000    0.000    0.000    0.000    0.000    0.000 
#
# Total GULP energy -83574.930021 kJ/mol
# GULP energy per Si atom -5571.662001 kJ/mol
# Density = 2.673294 g / cm^3
# Si number density = 26.793920 Si / 1000 Ang^3
#
#
#
# Elastic Constant Matrix: (Units=GPa)
#
#
# Indices 1 2 3 4 5 6 
#
# 1 20.8004 -25.0900 46.9942 0.0000 -43.9891 0.0000
# 2 -25.0900 42.5220 31.0409 0.0000 -16.5669 0.0000
# 3 46.9942 31.0409 253.5042 0.0000 32.8981 0.0000
# 4 0.0000 0.0000 0.0000 46.5161 0.0000 29.8771
# 5 -43.9891 -16.5669 32.8981 0.0000 57.6124 0.0000
# 6 0.0000 0.0000 0.0000 29.8771 0.0000 18.7532
#
#
#
# Elastic Compliance Matrix: (Units=1/GPa)
#
#
# Indices 1 2 3 4 5 6 
#
# 1 -0.008563 -0.013965 0.005040 0.000000 -0.013432 0.000000
# 2 -0.013965 0.009724 0.002613 0.000000 -0.009358 0.000000
# 3 0.005040 0.002613 0.002261 0.000000 0.003309 0.000000
# 4 0.000000 0.000000 0.000000 -0.923189 0.000000 1.470797
# 5 -0.013432 -0.009358 0.003309 0.000000 0.002521 0.000000
# 6 0.000000 0.000000 0.000000 1.470797 0.000000 -2.289906
#
#
# Mechanical properties :
#
#
# Convention : Reuss Voigt Hill
#
# Bulk Modulus (GPa) = -108.67513 46.96856 -30.85329
# Shear Modulus (GPa) = -1.56368 42.16844 20.30238
#
# Velocity S-wave (km/s) = -0.76476 3.97143 2.75566
# Velocity P-wave (km/s) = 6.43642 6.21267 1.18959
#
# Compressibility (1/GPa) = -0.00920174
#
# Stress axis : x y z
#
# Youngs Moduli (GPa) = -116.78592 102.83982 442.27625
#
# Poissons Ratio (x) = 1.43616 -2.22926
# Poissons Ratio (y) = -1.63092 -1.15551
# Poissons Ratio (z) = 0.58865 -0.26868
#
# Static dielectric constant tensor:
#      x y z
#    x 2.240450 0.000000 0.098750 
#    y 0.000000 2.026320 0.000000 
#    z 0.098750 0.000000 2.256230 
# 
# From -- ./inp_files/3165.got.cif
#   From: 2010.05.17/outbox.cif.g08.bks.cpg/sg3_2_cif.got.tgz:3165.got - 2010.06.03 18:33:08.
