data_PCOD9112471
_publ_section_title
;
Structure prediction by ZEFSAII (Michael W. Deem and Ramdas Pophale) SiO2 
 PCOD9112471
Probable space group: P 2
;
_chemical_formula_sum "Si O2"
_cell_formula_units_Z 8
_cell_length_a 10.795412
_cell_length_b 5.435162
_cell_length_c 9.704635
_cell_angle_alpha 90.000000
_cell_angle_beta 29.817608
_cell_angle_gamma 90.000000
_cell_volume 283.137581
_symmetry_space_group_name_H-M "P 2"
_symmetry_group_IT_number 3
_symmetry_cell_setting 'monoclinic'
loop_
_space_group_symop_operation_xyz
x,y,z
-x,y,-z
loop_
_atom_site_type_symbol
_atom_site_label
_atom_site_fract_x
_atom_site_fract_y
_atom_site_fract_z
Si Si1 0.717888 0.691970 0.070462
Si Si2 0.210063 0.509069 0.453787
Si Si3 0.760707 0.055827 0.278713
Si Si4 0.343884 0.999683 0.304498
O O1 0.461641 0.534683 0.305367
O O2 0.756248 0.813983 0.183636
O O3 0.630730 0.934505 0.063800
O O4 0.951974 0.544316 0.783976
O O5 0.259794 0.257290 0.326006
O O6 0.243466 0.754033 0.331338
O O7 0.500000 0.179843 0.500000
O O8 0.776638 0.004436 0.424790
O O9 0.000000 0.203680 0.000000
#
# Coordination Sequence:
#
# PCOD9112471 Si02
#       4
#     2   2   2   2
#     4   9  19  32  38  53  57  73  76  94  95 115
#     4  10  20  30  44  46  64  66  84  84 106 104
#     4  10  16  31  35  49  55  69  73  89  95 109
#     4   9  21  31  39  52  58  72  77  93  96 114
#
# _framework density 28.254812999999999
#
# number of rings (size 3 to 8) (size 9 to 14) (size 15 to 20)
#    1.500    1.000    2.500    0.000    3.500    0.000 
#   18.000    0.000    0.000    0.000    0.000    0.000 
#    0.000    0.000    0.000    0.000    0.000    0.000 
#
# Total GULP energy -44636.508740 kJ/mol
# GULP energy per Si atom -5579.563593 kJ/mol
# Density = 2.819050 g / cm^3
# Si number density = 28.254813 Si / 1000 Ang^3
#
#
#
# Elastic Constant Matrix: (Units=GPa)
#
#
# Indices 1 2 3 4 5 6 
#
# 1 99.3837 26.2556 56.7480 0.0000 4.6644 0.0000
# 2 26.2556 204.4560 28.8004 0.0000 -2.5861 0.0000
# 3 56.7480 28.8004 243.0388 0.0000 -15.3729 0.0000
# 4 0.0000 0.0000 0.0000 5.6503 0.0000 -14.8181
# 5 4.6644 -2.5861 -15.3729 0.0000 60.9334 0.0000
# 6 0.0000 0.0000 0.0000 -14.8181 0.0000 -54.6398
#
#
#
# Elastic Compliance Matrix: (Units=1/GPa)
#
#
# Indices 1 2 3 4 5 6 
#
# 1 0.012037 -0.001176 -0.002777 0.000000 -0.001672 0.000000
# 2 -0.001176 0.005089 -0.000314 0.000000 0.000227 0.000000
# 3 -0.002777 -0.000314 0.004891 0.000000 0.001433 0.000000
# 4 0.000000 0.000000 0.000000 0.103425 0.000000 -0.028048
# 5 -0.001672 0.000227 0.001433 0.000000 0.016911 0.000000
# 6 0.000000 0.000000 0.000000 -0.028048 0.000000 -0.010695
#
#
# Mechanical properties :
#
#
# Convention : Reuss Voigt Hill
#
# Bulk Modulus (GPa) = 74.16732 85.60961 79.88847
# Shear Modulus (GPa) = 34.55789 31.39374 32.97582
#
# Velocity S-wave (km/s) = 3.50105 3.33692 3.41997
# Velocity P-wave (km/s) = 6.53066 6.72396 6.62802
#
# Compressibility (1/GPa) = 0.01348303
#
# Stress axis : x y z
#
# Youngs Moduli (GPa) = 83.07923 196.49703 204.46351
#
# Poissons Ratio (x) = 0.23102 0.56778
# Poissons Ratio (y) = 0.09768 0.06424
# Poissons Ratio (z) = 0.23070 0.06174
#
# Static dielectric constant tensor:
#      x y z
#    x 2.146800 0.000000 -0.023660 
#    y 0.000000 2.312850 0.000000 
#    z -0.023660 0.000000 2.272880 
# 
# From -- ./inp_files/13872.got.cif
#   From: 2010.05.17/outbox.cif.g08.bks.cpg/sg3_7_cif.got.tgz:13872.got - 2010.06.03 18:33:08.
