data_PCOD9112391
_publ_section_title
;
Structure prediction by ZEFSAII (Michael W. Deem and Ramdas Pophale) SiO2 
 PCOD9112391
Probable space group: P -1
;
_chemical_formula_sum "Si O2"
_cell_formula_units_Z 16
_cell_length_a 13.962083
_cell_length_b 8.141528
_cell_length_c 11.644695
_cell_angle_alpha 54.253100
_cell_angle_beta 43.320467
_cell_angle_gamma 73.668966
_cell_volume 712.043821
_symmetry_space_group_name_H-M "P -1"
_symmetry_group_IT_number 2
_symmetry_cell_setting 'triclinic'
loop_
_space_group_symop_operation_xyz
x,y,z
-x,-y,-z
loop_
_atom_site_type_symbol
_atom_site_label
_atom_site_fract_x
_atom_site_fract_y
_atom_site_fract_z
Si Si1 0.929195 0.749461 0.651616
Si Si2 0.552413 0.745983 0.819601
Si Si3 0.162504 0.721916 0.297474
Si Si4 0.227967 0.319753 0.522297
Si Si5 0.502072 0.496597 0.363506
Si Si6 0.074715 0.697706 0.123936
Si Si7 0.352219 0.144320 0.071544
Si Si8 0.371630 0.817547 0.736270
O O1 0.962984 0.552881 0.772899
O O2 0.763016 0.733035 0.828470
O O3 0.998659 0.710986 0.485848
O O4 0.000000 0.000000 0.500000
O O5 0.700732 0.790050 0.596482
O O6 0.567827 0.876457 0.870546
O O7 0.433028 0.787061 0.821029
O O8 0.500000 0.500000 0.000000
O O9 0.215848 0.536559 0.385387
O O10 0.151006 0.713655 0.175412
O O11 0.261941 0.934129 0.177066
O O12 0.349341 0.372281 0.493810
O O13 0.071693 0.232805 0.753754
O O14 0.500000 0.500000 0.500000
O O15 0.620838 0.379512 0.267073
O O16 0.546545 0.715622 0.168212
O O17 0.206174 0.829638 0.877906
O O18 0.500000 0.000000 0.500000
#
# Coordination Sequence:
#
# PCOD9112391 Si02
#       8
#     2   2   2   2   2   2   2   2
#     4   9  17  33  58  92 125 159 203 258 318 369
#     4  11  19  40  65  92 127 168 216 265 317 379
#     4  10  21  31  61 101 128 154 201 270 327 372
#     4  10  21  39  64  93 122 167 208 265 325 375
#     4  11  25  43  61  86 129 169 215 267 316 383
#     4  11  20  39  63  92 131 164 210 269 320 383
#     4  11  20  36  63  91 126 167 212 261 320 375
#     4  11  25  42  66  91 126 175 215 261 329 384
#
# _framework density 22.470527000000001
#
# number of rings (size 3 to 8) (size 9 to 14) (size 15 to 20)
#    0.000    1.500    3.750    3.750    1.750    1.500 
#    0.000    3.125    8.250    0.000    0.000    0.000 
#    0.000    0.000    0.000    0.000    0.000    0.000 
#
# Total GULP energy -89235.625373 kJ/mol
# GULP energy per Si atom -5577.226586 kJ/mol
# Density = 2.241938 g / cm^3
# Si number density = 22.470527 Si / 1000 Ang^3
#
#
#
# Elastic Constant Matrix: (Units=GPa)
#
#
# Indices 1 2 3 4 5 6 
#
# 1 94.9591 30.9546 46.4901 19.9191 5.3140 18.9699
# 2 30.9546 73.4717 34.8850 2.5070 -5.8234 7.6714
# 3 46.4901 34.8850 175.5865 18.0697 -23.6501 -0.4610
# 4 19.9191 2.5070 18.0697 36.1538 -5.8237 -12.9792
# 5 5.3140 -5.8234 -23.6501 -5.8237 33.5558 14.0204
# 6 18.9699 7.6714 -0.4610 -12.9792 14.0204 41.6641
#
#
#
# Elastic Compliance Matrix: (Units=1/GPa)
#
#
# Indices 1 2 3 4 5 6 
#
# 1 0.018697 -0.005191 -0.003190 -0.012650 -0.004057 -0.010168
# 2 -0.005191 0.016949 -0.001822 0.002762 0.003403 -0.001062
# 3 -0.003190 -0.001822 0.007788 -0.001248 0.005633 -0.000410
# 4 -0.012650 0.002762 -0.001248 0.041658 0.001422 0.017736
# 5 -0.004057 0.003403 0.005633 0.001422 0.040179 -0.011794
# 6 -0.010168 -0.001062 -0.000410 0.017736 -0.011794 0.038316
#
#
# Mechanical properties :
#
#
# Convention : Reuss Voigt Hill
#
# Bulk Modulus (GPa) = 43.42555 63.18630 53.30592
# Shear Modulus (GPa) = 26.08682 37.72058 31.90370
#
# Velocity S-wave (km/s) = 3.41095 4.10160 3.77211
# Velocity P-wave (km/s) = 5.90595 7.11418 6.53803
#
# Compressibility (1/GPa) = 0.02302792
#
# Stress axis : x y z
#
# Youngs Moduli (GPa) = 53.48552 59.00091 128.40378
#
# Poissons Ratio (x) = 0.30625 0.40966
# Poissons Ratio (y) = 0.27762 0.23392
# Poissons Ratio (z) = 0.17064 0.10748
#
# Static dielectric constant tensor:
#      x y z
#    x 1.820950 -0.038880 -0.037480 
#    y -0.038880 1.876250 -0.008440 
#    z -0.037480 -0.008440 1.894720 
# 
# From -- ./inp_files/446914.got.cif
#   From: 2010.05.17/outbox.cif.g08.bks.cpg/sg2_224_cif.got.tgz:446914.got - 2010.06.03 11:33:40.
