data_PCOD9112068
_publ_section_title
;
Structure prediction by ZEFSAII (Michael W. Deem and Ramdas Pophale) SiO2 
 PCOD9112068
Probable space group: P -1
;
_chemical_formula_sum "Si O2"
_cell_formula_units_Z 16
_cell_length_a 7.998889
_cell_length_b 22.252741
_cell_length_c 9.055078
_cell_angle_alpha 132.440070
_cell_angle_beta 115.683729
_cell_angle_gamma 38.248677
_cell_volume 719.737548
_symmetry_space_group_name_H-M "P -1"
_symmetry_group_IT_number 2
_symmetry_cell_setting 'triclinic'
loop_
_space_group_symop_operation_xyz
x,y,z
-x,-y,-z
loop_
_atom_site_type_symbol
_atom_site_label
_atom_site_fract_x
_atom_site_fract_y
_atom_site_fract_z
Si Si1 0.309205 0.486177 0.963958
Si Si2 0.702513 0.377654 0.176777
Si Si3 0.265909 0.137278 0.842217
Si Si4 0.780432 0.017592 0.031734
Si Si5 0.719170 0.059409 0.419713
Si Si6 0.159259 0.744708 0.666567
Si Si7 0.296880 0.429643 0.556704
Si Si8 0.817855 0.750601 0.309246
O O1 0.445639 0.420700 0.063955
O O2 0.002668 0.618836 0.093650
O O3 0.500000 0.500000 0.000000
O O4 0.312966 0.419931 0.724378
O O5 0.737559 0.340503 0.296463
O O6 0.678795 0.482429 0.328034
O O7 0.972125 0.260493 0.997751
O O8 0.275789 0.162302 0.718289
O O9 0.301625 0.029446 0.696453
O O10 0.502847 0.101967 0.971294
O O11 0.727427 0.064253 0.254531
O O12 0.926887 0.881450 0.864657
O O13 0.000000 0.000000 0.000000
O O14 0.451458 0.188084 0.602232
O O15 0.000000 0.000000 0.500000
O O16 0.431907 0.698491 0.624936
O O17 0.017461 0.736340 0.471773
O O18 0.000000 0.500000 0.500000
#
# Coordination Sequence:
#
# PCOD9112068 Si02
#       8
#     2   2   2   2   2   2   2   2
#     4  10  20  44  68  98 132 175 227 276 338 416
#     4  11  22  44  71  95 138 182 229 282 342 416
#     4  12  23  45  73  96 142 184 224 292 353 407
#     4  12  28  47  69 103 141 182 237 292 346 417
#     4  12  27  46  68 107 138 181 241 286 350 422
#     4  12  24  44  72  98 135 185 234 281 352 414
#     4  11  24  42  69 104 137 176 235 285 347 410
#     4  12  23  43  76  98 134 186 231 281 351 413
#
# _framework density 22.230324
#
# number of rings (size 3 to 8) (size 9 to 14) (size 15 to 20)
#    0.000    0.500    7.500    2.625    3.500    1.000 
#    0.000    0.625    0.000    0.000    0.000    0.000 
#    0.000    0.000    0.000    0.000    0.000    0.000 
#
# Total GULP energy -89586.848025 kJ/mol
# GULP energy per Si atom -5599.178002 kJ/mol
# Density = 2.217973 g / cm^3
# Si number density = 22.230324 Si / 1000 Ang^3
#
#
#
# Elastic Constant Matrix: (Units=GPa)
#
#
# Indices 1 2 3 4 5 6 
#
# 1 68.5942 43.2013 40.2364 -20.1197 -24.8553 -12.5547
# 2 43.2013 128.0135 34.7912 -36.5092 -16.5628 -6.7767
# 3 40.2364 34.7912 87.8088 -22.4103 -36.5199 -2.6959
# 4 -20.1197 -36.5092 -22.4103 67.3129 -6.9818 -8.5326
# 5 -24.8553 -16.5628 -36.5199 -6.9818 38.6585 -0.0323
# 6 -12.5547 -6.7767 -2.6959 -8.5326 -0.0323 48.2535
#
#
#
# Elastic Compliance Matrix: (Units=1/GPa)
#
#
# Indices 1 2 3 4 5 6 
#
# 1 0.027944 -0.004103 -0.002649 0.007821 0.015126 0.007939
# 2 -0.004103 0.011208 0.000345 0.005520 0.003488 0.001504
# 3 -0.002649 0.000345 0.025451 0.010745 0.024431 0.002698
# 4 0.007821 0.005520 0.010745 0.027136 0.022451 0.008224
# 5 0.015126 0.003488 0.024431 0.022451 0.064229 0.009803
# 6 0.007939 0.001504 0.002698 0.008224 0.009803 0.024612
#
#
# Mechanical properties :
#
#
# Convention : Reuss Voigt Hill
#
# Bulk Modulus (GPa) = 19.30881 57.87490 38.59186
# Shear Modulus (GPa) = 23.73534 41.92417 32.82975
#
# Velocity S-wave (km/s) = 3.27111 4.34741 3.84709
# Velocity P-wave (km/s) = 4.79287 7.16175 6.09353
#
# Compressibility (1/GPa) = 0.05178982
#
# Stress axis : x y z
#
# Youngs Moduli (GPa) = 35.78588 89.22469 39.29065
#
# Poissons Ratio (x) = 0.36607 0.10407
# Poissons Ratio (y) = 0.14682 -0.01355
# Poissons Ratio (z) = 0.09478 -0.03077
#
# Static dielectric constant tensor:
#      x y z
#    x 1.850090 -0.002710 0.007840 
#    y -0.002710 1.845370 0.015410 
#    z 0.007840 0.015410 1.844240 
# 
# From -- ./inp_files/226536.got.cif
#   From: 2010.05.17/outbox.cif.g08.bks.cpg/sg2_114_cif.got.tgz:226536.got - 2010.06.03 11:33:40.
