data_PCOD9112127
_publ_section_title
;
Structure prediction by ZEFSAII (Michael W. Deem and Ramdas Pophale) SiO2 
 PCOD9112127
Probable space group: P -1
;
_chemical_formula_sum "Si O2"
_cell_formula_units_Z 16
_cell_length_a 10.711387
_cell_length_b 7.827011
_cell_length_c 15.330927
_cell_angle_alpha 38.666314
_cell_angle_beta 121.437953
_cell_angle_gamma 106.810983
_cell_volume 668.156320
_symmetry_space_group_name_H-M "P -1"
_symmetry_group_IT_number 2
_symmetry_cell_setting 'triclinic'
loop_
_space_group_symop_operation_xyz
x,y,z
-x,-y,-z
loop_
_atom_site_type_symbol
_atom_site_label
_atom_site_fract_x
_atom_site_fract_y
_atom_site_fract_z
Si Si1 0.152518 0.384941 0.153647
Si Si2 0.180773 0.775160 0.472924
Si Si3 0.589134 0.355422 0.933055
Si Si4 0.072656 0.218924 0.493908
Si Si5 0.586891 0.185717 0.671594
Si Si6 0.401058 0.205930 0.760418
Si Si7 0.894394 0.284834 0.812114
Si Si8 0.628139 0.128702 0.327236
O O1 0.280779 0.488904 0.106110
O O2 0.149992 0.516956 0.197710
O O3 0.171157 0.051230 0.302134
O O4 0.000000 0.500000 0.000000
O O5 0.272564 0.483271 0.582448
O O6 0.279128 0.826262 0.571852
O O7 0.018202 0.757536 0.458251
O O8 0.503330 0.295872 0.838189
O O9 0.459393 0.563903 0.857683
O O10 0.657177 0.056947 0.119423
O O11 0.044361 0.517029 0.314182
O O12 0.249166 0.068510 0.611311
O O13 0.000000 0.000000 0.500000
O O14 0.500000 0.500000 0.500000
O O15 0.519448 0.092667 0.773245
O O16 0.756248 0.190925 0.751862
O O17 0.507102 0.022310 0.637566
O O18 0.000000 0.000000 0.000000
#
# Coordination Sequence:
#
# PCOD9112127 Si02
#       8
#     2   2   2   2   2   2   2   2
#     4  12  26  45  66  99 138 182 232 275 348 417
#     4  10  23  45  74  97 136 184 226 287 341 415
#     4  10  24  45  67 101 135 176 226 280 344 403
#     4  10  20  44  70  98 134 180 232 272 353 403
#     4  12  24  43  70 103 137 174 238 282 339 409
#     4  10  24  44  72  98 137 176 222 286 347 400
#     4  12  27  44  69 101 144 184 226 294 346 408
#     4  10  22  41  73  99 132 178 230 282 337 412
#
# _framework density 23.946491000000002
#
# number of rings (size 3 to 8) (size 9 to 14) (size 15 to 20)
#    0.000    1.250    5.000    0.000    5.250    4.500 
#    0.000    1.250    0.000    0.000    0.000    0.000 
#    0.000    0.000    0.000    0.000    0.000    0.000 
#
# Total GULP energy -89438.302370 kJ/mol
# GULP energy per Si atom -5589.893898 kJ/mol
# Density = 2.389199 g / cm^3
# Si number density = 23.946491 Si / 1000 Ang^3
#
#
#
# Elastic Constant Matrix: (Units=GPa)
#
#
# Indices 1 2 3 4 5 6 
#
# 1 119.3904 50.1010 71.5716 -17.5620 -7.9992 25.3627
# 2 50.1010 106.8536 36.5335 -4.4704 14.0166 20.6578
# 3 71.5716 36.5335 181.5333 -24.4233 12.4489 31.2141
# 4 -17.5620 -4.4704 -24.4233 41.3109 1.0115 -4.8176
# 5 -7.9992 14.0166 12.4489 1.0115 34.7181 -6.3866
# 6 25.3627 20.6578 31.2141 -4.8176 -6.3866 46.2898
#
#
#
# Elastic Compliance Matrix: (Units=1/GPa)
#
#
# Indices 1 2 3 4 5 6 
#
# 1 0.014692 -0.005956 -0.004549 0.002612 0.007149 -0.001066
# 2 -0.005956 0.013793 0.000799 -0.000910 -0.008054 -0.004637
# 3 -0.004549 0.000799 0.008596 0.002887 -0.005290 -0.004090
# 4 0.002612 -0.000910 0.002887 0.026913 -0.000904 -0.000296
# 5 0.007149 -0.008054 -0.005290 -0.000904 0.037147 0.008275
# 6 -0.001066 -0.004637 -0.004090 -0.000296 0.008275 0.028125
#
#
# Mechanical properties :
#
#
# Convention : Reuss Voigt Hill
#
# Bulk Modulus (GPa) = 56.59497 80.46549 68.53023
# Shear Modulus (GPa) = 32.34843 41.10183 36.72513
#
# Velocity S-wave (km/s) = 3.67940 4.14744 3.92041
# Velocity P-wave (km/s) = 6.46033 7.52398 7.01235
#
# Compressibility (1/GPa) = 0.01766942
#
# Stress axis : x y z
#
# Youngs Moduli (GPa) = 68.06402 72.50297 116.33673
#
# Poissons Ratio (x) = 0.43180 0.52926
# Poissons Ratio (y) = 0.40536 -0.09301
# Poissons Ratio (z) = 0.30965 -0.05797
#
# Static dielectric constant tensor:
#      x y z
#    x 1.982500 -0.024780 -0.002250 
#    y -0.024780 1.334520 0.086560 
#    z -0.002250 0.086560 1.867970 
# 
# From -- ./inp_files/566378.got.cif
#   From: 2010.05.17/outbox.cif.g08.bks.cpg/sg2_284_cif.got.tgz:566378.got - 2010.06.03 11:33:40.
