data_PCOD9112466
_publ_section_title
;
Structure prediction by ZEFSAII (Michael W. Deem and Ramdas Pophale) SiO2 
 PCOD9112466
Probable space group: P 2
;
_chemical_formula_sum "Si O2"
_cell_formula_units_Z 12
_cell_length_a 5.525633
_cell_length_b 13.850377
_cell_length_c 6.620629
_cell_angle_alpha 90.000000
_cell_angle_beta 78.153326
_cell_angle_gamma 90.000000
_cell_volume 495.898374
_symmetry_space_group_name_H-M "P 2"
_symmetry_group_IT_number 3
_symmetry_cell_setting 'monoclinic'
loop_
_space_group_symop_operation_xyz
x,y,z
-x,y,-z
loop_
_atom_site_type_symbol
_atom_site_label
_atom_site_fract_x
_atom_site_fract_y
_atom_site_fract_z
Si Si1 0.203751 0.300360 0.756355
Si Si2 0.716103 0.374430 0.713959
Si Si3 0.808233 0.998586 0.745250
Si Si4 0.297691 0.075661 0.782146
Si Si5 0.217523 0.790911 0.132375
Si Si6 0.783174 0.575431 0.867052
O O1 0.425767 0.364138 0.809310
O O2 0.244520 0.324644 0.509908
O O3 0.259206 0.189872 0.796116
O O4 0.912019 0.321989 0.827117
O O5 0.791066 0.486490 0.711612
O O6 0.579915 0.053394 0.685952
O O7 0.087662 0.032916 0.674396
O O8 0.795750 0.883684 0.722697
O O9 0.754082 0.025158 0.992529
O O10 0.179043 0.683342 0.225258
O O11 0.500000 0.793237 0.000000
O O12 0.000000 0.802972 0.000000
O O13 0.500000 0.574316 0.000000
O O14 0.000000 0.561512 0.000000
#
# Coordination Sequence:
#
# PCOD9112466 Si02
#       6
#     2   2   2   2   2   2
#     4  10  21  37  58  73 106 154 194 221 266 321
#     4  10  21  40  54  77 106 151 189 231 265 325
#     4  10  17  30  48  78 120 132 170 224 271 327
#     4  10  18  30  48  79 104 148 175 218 263 323
#     4  10  16  30  51  75 113 146 165 214 283 334
#     4  10  21  35  55  84 113 141 179 232 282 322
#
# _framework density 24.198505999999998
#
# number of rings (size 3 to 8) (size 9 to 14) (size 15 to 20)
#    0.000    2.000    3.333    2.000    0.000    0.000 
#   18.000    0.000    0.000    0.000    0.000   28.000 
#    0.000    0.000    0.000    0.000    0.000    0.000 
#
# Total GULP energy -67048.027693 kJ/mol
# GULP energy per Si atom -5587.335641 kJ/mol
# Density = 2.414343 g / cm^3
# Si number density = 24.198506 Si / 1000 Ang^3
#
#
#
# Elastic Constant Matrix: (Units=GPa)
#
#
# Indices 1 2 3 4 5 6 
#
# 1 263.3140 44.5075 36.0967 0.0000 -2.7718 0.0000
# 2 44.5075 212.3812 -3.6731 0.0000 -0.2249 0.0000
# 3 36.0967 -3.6731 50.7247 0.0000 -5.0540 0.0000
# 4 0.0000 0.0000 0.0000 -669.9963 0.0000 -370.4447
# 5 -2.7718 -0.2249 -5.0540 0.0000 54.6952 0.0000
# 6 0.0000 0.0000 0.0000 -370.4447 0.0000 -159.7152
#
#
#
# Elastic Compliance Matrix: (Units=1/GPa)
#
#
# Indices 1 2 3 4 5 6 
#
# 1 0.004403 -0.000978 -0.003212 0.000000 -0.000078 0.000000
# 2 -0.000978 0.004932 0.001060 0.000000 0.000069 0.000000
# 3 -0.003212 0.001060 0.022266 0.000000 0.001899 0.000000
# 4 0.000000 0.000000 0.000000 0.005285 0.000000 -0.012258
# 5 -0.000078 0.000069 0.001899 0.000000 0.018455 0.000000
# 6 0.000000 0.000000 0.000000 -0.012258 0.000000 0.022170
#
#
# Mechanical properties :
#
#
# Convention : Reuss Voigt Hill
#
# Bulk Modulus (GPa) = 39.46205 75.58689 57.52447
# Shear Modulus (GPa) = 54.22031 -125.03736 -35.40852
#
# Velocity S-wave (km/s) = 4.73868 -7.19609 -3.82940
# Velocity P-wave (km/s) = 6.80318 6.14337 2.06667
#
# Compressibility (1/GPa) = 0.02534080
#
# Stress axis : x y z
#
# Youngs Moduli (GPa) = 227.14206 202.76059 44.91232
#
# Poissons Ratio (x) = 0.19835 0.14424
# Poissons Ratio (y) = 0.22220 -0.04761
# Poissons Ratio (z) = 0.72947 -0.21495
#
# Static dielectric constant tensor:
#      x y z
#    x 2.373630 0.000000 -0.596900 
#    y 0.000000 1.848110 0.000000 
#    z -0.596900 0.000000 2.715130 
# 
# From -- ./inp_files/4287.got.cif
#   From: 2010.05.17/outbox.cif.g08.bks.cpg/sg3_3_cif.got.tgz:4287.got - 2010.06.03 18:33:08.
