data_PCOD9112070
_publ_section_title
;
Structure prediction by ZEFSAII (Michael W. Deem and Ramdas Pophale) SiO2 
 PCOD9112070
Probable space group: P -1
;
_chemical_formula_sum "Si O2"
_cell_formula_units_Z 15
_cell_length_a 12.763580
_cell_length_b 7.614209
_cell_length_c 8.970677
_cell_angle_alpha 98.944150
_cell_angle_beta 70.741911
_cell_angle_gamma 135.414873
_cell_volume 573.573498
_symmetry_space_group_name_H-M "P -1"
_symmetry_group_IT_number 2
_symmetry_cell_setting 'triclinic'
loop_
_space_group_symop_operation_xyz
x,y,z
-x,-y,-z
loop_
_atom_site_type_symbol
_atom_site_label
_atom_site_fract_x
_atom_site_fract_y
_atom_site_fract_z
Si Si1 0.551178 0.754466 0.455314
Si Si2 0.943482 0.698234 0.453970
Si Si3 0.765483 0.172408 0.610054
Si Si4 0.106757 0.335513 0.876688
Si Si5 0.667333 0.276860 0.946836
Si Si6 0.680428 0.563087 0.720862
Si Si7 0.500000 0.500000 0.000000
Si Si8 0.210735 0.055099 0.875960
O O1 0.500000 0.500000 0.500000
O O2 0.414352 0.649703 0.389871
O O3 0.712431 0.933841 0.308171
O O4 0.594773 0.931637 0.593548
O O5 0.856728 0.413858 0.493652
O O6 0.913933 0.693892 0.293686
O O7 0.858607 0.740678 0.612174
O O8 0.124892 0.874912 0.431551
O O9 0.762232 0.269359 0.782018
O O10 0.154069 0.189844 0.882438
O O11 0.245051 0.606104 0.923140
O O12 0.943999 0.207514 0.015583
O O13 0.648060 0.447728 0.890808
O O14 0.500000 0.000000 0.000000
O O15 0.587210 0.635674 0.807961
O O16 0.647652 0.774036 0.051572
#
# Coordination Sequence:
#
# PCOD9112070 Si02
#       8
#     2   2   2   2   2   2   1   2
#     4  11  25  42  69 100 136 177 233 285 349 413
#     4  10  24  44  71  98 137 181 229 286 343 418
#     4  10  26  46  68  99 136 182 231 287 345 413
#     4  11  24  45  68 104 137 184 231 285 352 410
#     4  11  26  42  72  99 140 182 235 287 347 415
#     4  10  23  42  69 100 135 177 222 290 337 411
#     4  10  20  44  68  98 138 178 222 278 354 394
#     4  10  24  41  70  99 144 175 228 290 344 418
#
# _framework density 26.151838000000001
#
# number of rings (size 3 to 8) (size 9 to 14) (size 15 to 20)
#    0.000    1.600    1.333    0.800   11.200    5.867 
#    0.000    2.000    0.000    0.000    0.000    0.000 
#    0.000    0.000    0.000    0.000    0.000    0.000 
#
# Total GULP energy -83805.786920 kJ/mol
# GULP energy per Si atom -5587.052461 kJ/mol
# Density = 2.609232 g / cm^3
# Si number density = 26.151838 Si / 1000 Ang^3
#
#
#
# Elastic Constant Matrix: (Units=GPa)
#
#
# Indices 1 2 3 4 5 6 
#
# 1 82.8411 19.5665 31.6743 1.8655 3.9143 19.6429
# 2 19.5665 80.5007 35.3605 6.4622 9.5256 12.5315
# 3 31.6743 35.3605 129.8850 -3.6307 4.0474 25.7513
# 4 1.8655 6.4622 -3.6307 47.1117 17.7847 0.3895
# 5 3.9143 9.5256 4.0474 17.7847 45.5983 -0.9869
# 6 19.6429 12.5315 25.7513 0.3895 -0.9869 46.4266
#
#
#
# Elastic Compliance Matrix: (Units=1/GPa)
#
#
# Indices 1 2 3 4 5 6 
#
# 1 0.014396 -0.001774 -0.002130 -0.000191 -0.000698 -0.004444
# 2 -0.001774 0.014901 -0.003305 -0.001404 -0.002152 -0.001473
# 3 -0.002130 -0.003305 0.009927 0.001603 -0.000714 -0.003742
# 4 -0.000191 -0.001404 0.001603 0.025213 -0.009685 -0.000847
# 5 -0.000698 -0.002152 -0.000714 -0.009685 0.026322 0.001913
# 6 -0.004444 -0.001473 -0.003742 -0.000847 0.001913 0.025940
#
#
# Mechanical properties :
#
#
# Convention : Reuss Voigt Hill
#
# Bulk Modulus (GPa) = 40.31050 51.82549 46.06799
# Shear Modulus (GPa) = 35.87176 41.60236 38.73706
#
# Velocity S-wave (km/s) = 3.70763 3.99281 3.85286
# Velocity P-wave (km/s) = 5.81173 6.41225 6.11936
#
# Compressibility (1/GPa) = 0.02480743
#
# Stress axis : x y z
#
# Youngs Moduli (GPa) = 69.46531 67.10752 100.73386
#
# Poissons Ratio (x) = 0.11902 0.21459
# Poissons Ratio (y) = 0.12320 0.33288
# Poissons Ratio (z) = 0.14798 0.22176
#
# Static dielectric constant tensor:
#      x y z
#    x 1.207240 0.124490 0.338490 
#    y 0.124490 2.020750 -0.117160 
#    z 0.338490 -0.117160 1.960140 
# 
# From -- ./inp_files/205597.got.cif
#   From: 2010.05.17/outbox.cif.g08.bks.cpg/sg2_103_cif.got.tgz:205597.got - 2010.06.03 11:33:40.
