data_PCOD9112220
_publ_section_title
;
Structure prediction by ZEFSAII (Michael W. Deem and Ramdas Pophale) SiO2 
 PCOD9112220
Probable space group: P -1
;
_chemical_formula_sum "Si O2"
_cell_formula_units_Z 16
_cell_length_a 12.133951
_cell_length_b 15.080824
_cell_length_c 8.637140
_cell_angle_alpha 102.653378
_cell_angle_beta 50.511679
_cell_angle_gamma 138.279495
_cell_volume 704.089482
_symmetry_space_group_name_H-M "P -1"
_symmetry_group_IT_number 2
_symmetry_cell_setting 'triclinic'
loop_
_space_group_symop_operation_xyz
x,y,z
-x,-y,-z
loop_
_atom_site_type_symbol
_atom_site_label
_atom_site_fract_x
_atom_site_fract_y
_atom_site_fract_z
Si Si1 0.071782 0.432097 0.886845
Si Si2 0.311779 0.711089 0.262506
Si Si3 0.798849 0.937784 0.436766
Si Si4 0.773958 0.178197 0.837570
Si Si5 0.760902 0.716912 0.887715
Si Si6 0.445782 0.671118 0.400970
Si Si7 0.325016 0.526797 0.016352
Si Si8 0.192955 0.998143 0.217934
O O1 0.254783 0.516948 0.611744
O O2 0.213191 0.468797 0.923915
O O3 0.833159 0.257543 0.976634
O O4 0.000000 0.500000 0.000000
O O5 0.177678 0.726949 0.309328
O O6 0.302450 0.674524 0.433127
O O7 0.255874 0.588728 0.174969
O O8 0.591305 0.882491 0.051132
O O9 0.984158 0.954051 0.324724
O O10 0.616575 0.809016 0.423495
O O11 0.689800 0.909756 0.688848
O O12 0.970797 0.106279 0.286868
O O13 0.914102 0.155643 0.711020
O O14 0.500000 0.000000 0.000000
O O15 0.603916 0.689068 0.150658
O O16 0.761436 0.609552 0.873533
O O17 0.614084 0.667891 0.843392
#
# Coordination Sequence:
#
# PCOD9112220 Si02
#       8
#     2   2   2   2   2   2   2   2
#     4  12  26  45  69  94 130 175 223 274 322 393
#     4  10  20  45  63  92 136 172 216 275 319 385
#     4  11  22  40  67  97 136 172 213 270 325 392
#     4  10  24  43  71  93 128 173 226 267 326 386
#     4  10  23  41  65  99 135 172 208 272 328 392
#     4  11  25  39  67  97 131 172 224 267 331 382
#     4  10  21  41  67  93 135 168 218 262 333 385
#     4  10  22  39  68  95 127 175 214 265 330 381
#
# _framework density 22.724384000000001
#
# number of rings (size 3 to 8) (size 9 to 14) (size 15 to 20)
#    0.000    1.500    3.750    1.125    5.250    5.000 
#    2.250    0.625    0.000    0.000    0.000    0.000 
#    0.000    0.000    0.000    0.000    0.000    0.000 
#
# Total GULP energy -89394.357012 kJ/mol
# GULP energy per Si atom -5587.147313 kJ/mol
# Density = 2.267266 g / cm^3
# Si number density = 22.724384 Si / 1000 Ang^3
#
#
#
# Elastic Constant Matrix: (Units=GPa)
#
#
# Indices 1 2 3 4 5 6 
#
# 1 130.6535 58.2701 11.4840 0.4690 31.1469 1.3485
# 2 58.2701 135.7965 2.7863 -1.6505 10.7521 8.3035
# 3 11.4840 2.7863 38.1245 -7.6434 7.0584 8.5119
# 4 0.4690 -1.6505 -7.6434 26.7815 5.1712 4.0976
# 5 31.1469 10.7521 7.0584 5.1712 23.4273 4.7466
# 6 1.3485 8.3035 8.5119 4.0976 4.7466 57.1332
#
#
#
# Elastic Compliance Matrix: (Units=1/GPa)
#
#
# Indices 1 2 3 4 5 6 
#
# 1 0.013761 -0.004634 -0.000603 0.002295 -0.016832 0.001672
# 2 -0.004634 0.009301 0.000907 0.000816 0.001759 -0.001582
# 3 -0.000603 0.000907 0.031839 0.011991 -0.010878 -0.004817
# 4 0.002295 0.000816 0.011991 0.044460 -0.016080 -0.003812
# 5 -0.016832 0.001759 -0.010878 -0.016080 0.071699 -0.003041
# 6 0.001672 -0.001582 -0.004817 -0.003812 -0.003041 0.018937
#
#
# Mechanical properties :
#
#
# Convention : Reuss Voigt Hill
#
# Bulk Modulus (GPa) = 21.62616 49.96171 35.79394
# Shear Modulus (GPa) = 23.35687 36.93733 30.14710
#
# Velocity S-wave (km/s) = 3.20946 4.03606 3.64626
# Velocity P-wave (km/s) = 4.82406 6.61463 5.78900
#
# Compressibility (1/GPa) = 0.04624029
#
# Stress axis : x y z
#
# Youngs Moduli (GPa) = 72.67084 107.51380 31.40839
#
# Poissons Ratio (x) = 0.49821 0.01895
# Poissons Ratio (y) = 0.33675 -0.02849
# Poissons Ratio (z) = 0.04384 -0.09753
#
# Static dielectric constant tensor:
#      x y z
#    x 1.849940 -0.019780 -0.033500 
#    y -0.019780 1.864250 0.005810 
#    z -0.033500 0.005810 1.908570 
# 
# From -- ./inp_files/273313.got.cif
#   From: 2010.05.17/outbox.cif.g08.bks.cpg/sg2_137_cif.got.tgz:273313.got - 2010.06.03 11:33:40.
