data_PCOD9112724
_publ_section_title
;
Structure prediction by ZEFSAII (Michael W. Deem and Ramdas Pophale) SiO2 
 PCOD9112724
Probable space group: P 2
;
_chemical_formula_sum "Si O2"
_cell_formula_units_Z 16
_cell_length_a 7.115687
_cell_length_b 17.631818
_cell_length_c 7.612772
_cell_angle_alpha 90.000000
_cell_angle_beta 40.987040
_cell_angle_gamma 90.000000
_cell_volume 626.450324
_symmetry_space_group_name_H-M "P 2"
_symmetry_group_IT_number 3
_symmetry_cell_setting 'monoclinic'
loop_
_space_group_symop_operation_xyz
x,y,z
-x,y,-z
loop_
_atom_site_type_symbol
_atom_site_label
_atom_site_fract_x
_atom_site_fract_y
_atom_site_fract_z
Si Si1 0.775507 0.797820 0.827269
Si Si2 0.159838 0.117235 0.078268
Si Si3 0.658847 0.026863 0.576931
Si Si4 0.159961 0.289134 0.077865
Si Si5 0.312845 0.854271 0.456342
Si Si6 0.120785 0.640385 0.086451
Si Si7 0.658574 0.380293 0.576940
Si Si8 0.714308 0.554899 0.590314
O O1 0.000000 0.818248 0.500000
O O2 0.998854 0.850147 0.776335
O O3 0.476849 0.808342 0.165433
O O4 0.841842 0.708432 0.804167
O O5 0.160173 0.203437 0.145477
O O6 0.972342 0.060136 0.324618
O O7 0.472389 0.083979 0.824080
O O8 0.000000 0.120262 0.000000
O O9 0.500000 0.026258 0.500000
O O10 0.653586 0.940028 0.637939
O O11 0.973014 0.347549 0.322270
O O12 0.472440 0.322561 0.822132
O O13 0.000000 0.287144 0.000000
O O14 0.500000 0.835821 0.500000
O O15 0.427286 0.599412 0.845599
O O16 0.000000 0.681419 0.000000
O O17 0.856185 0.581679 0.307118
O O18 0.500000 0.383921 0.500000
O O19 0.656389 0.466002 0.645841
O O20 0.000000 0.571598 0.500000
#
# Coordination Sequence:
#
# PCOD9112724 Si02
#       8
#     2   2   2   2   2   2   2   2
#     4  11  27  45  68 102 135 181 230 296 348 435
#     4   9  16  29  52  89 134 167 219 281 335 393
#     4   9  18  33  56  90 127 174 222 275 338 408
#     4   9  17  29  53  92 129 169 217 282 333 389
#     4  10  25  45  70 100 139 186 236 292 358 420
#     4  12  28  48  75 101 139 180 232 292 359 424
#     4  10  19  34  59  90 129 171 224 272 335 399
#     4  12  26  47  69 103 137 184 229 285 345 423
#
# _framework density 25.540731999999998
#
# number of rings (size 3 to 8) (size 9 to 14) (size 15 to 20)
#    0.000    1.750    0.000    3.750    8.750    4.000 
#    0.000    0.000    0.000    0.000   19.500    0.000 
#    0.000    0.000    0.000    0.000    0.000    0.000 
#
# Total GULP energy -89384.046971 kJ/mol
# GULP energy per Si atom -5586.502936 kJ/mol
# Density = 2.548260 g / cm^3
# Si number density = 25.540732 Si / 1000 Ang^3
#
#
#
# Elastic Constant Matrix: (Units=GPa)
#
#
# Indices 1 2 3 4 5 6 
#
# 1 77.6527 8.7107 24.4316 0.0000 9.7335 0.0000
# 2 8.7107 170.4143 42.7954 0.0000 2.1740 0.0000
# 3 24.4316 42.7954 139.9547 0.0000 -30.3444 0.0000
# 4 0.0000 0.0000 0.0000 45.2128 0.0000 -3.6562
# 5 9.7335 2.1740 -30.3444 0.0000 51.4588 0.0000
# 6 0.0000 0.0000 0.0000 -3.6562 0.0000 19.4186
#
#
#
# Elastic Compliance Matrix: (Units=1/GPa)
#
#
# Indices 1 2 3 4 5 6 
#
# 1 0.014639 0.000246 -0.003707 0.000000 -0.004966 0.000000
# 2 0.000246 0.006481 -0.002401 0.000000 -0.001736 0.000000
# 3 -0.003707 -0.002401 0.009976 0.000000 0.006685 0.000000
# 4 0.000000 0.000000 0.000000 0.022460 0.000000 0.004229
# 5 -0.004966 -0.001736 0.006685 0.000000 0.024388 0.000000
# 6 0.000000 0.000000 0.000000 0.004229 0.000000 0.052293
#
#
# Mechanical properties :
#
#
# Convention : Reuss Voigt Hill
#
# Bulk Modulus (GPa) = 51.62327 59.98854 55.80591
# Shear Modulus (GPa) = 33.68859 44.02364 38.85611
#
# Velocity S-wave (km/s) = 3.63576 4.15621 3.90467
# Velocity P-wave (km/s) = 6.15476 6.82426 6.49814
#
# Compressibility (1/GPa) = 0.01937111
#
# Stress axis : x y z
#
# Youngs Moduli (GPa) = 68.31011 154.30713 100.24011
#
# Poissons Ratio (x) = -0.03797 0.37163
# Poissons Ratio (y) = -0.01681 0.24068
# Poissons Ratio (z) = 0.25325 0.37050
#
# Static dielectric constant tensor:
#      x y z
#    x 1.989220 0.000000 0.232050 
#    y 0.000000 1.863190 0.000000 
#    z 0.232050 0.000000 2.068830 
# 
# From -- ./inp_files/6187.got.cif
#   From: 2010.05.17/outbox.cif.g08.bks.cpg/sg3_4_cif.got.tgz:6187.got - 2010.06.03 18:33:08.
