data_PCOD9112993
_publ_section_title
;
Structure prediction by ZEFSAII (Michael W. Deem and Ramdas Pophale) SiO2 
 PCOD9112993
Probable space group: P 2
;
_chemical_formula_sum "Si O2"
_cell_formula_units_Z 16
_cell_length_a 9.088756
_cell_length_b 8.458690
_cell_length_c 18.803894
_cell_angle_alpha 90.000000
_cell_angle_beta 31.192952
_cell_angle_gamma 90.000000
_cell_volume 748.720161
_symmetry_space_group_name_H-M "P 2"
_symmetry_group_IT_number 3
_symmetry_cell_setting 'monoclinic'
loop_
_space_group_symop_operation_xyz
x,y,z
-x,y,-z
loop_
_atom_site_type_symbol
_atom_site_label
_atom_site_fract_x
_atom_site_fract_y
_atom_site_fract_z
Si Si1 0.280042 0.345920 0.395516
Si Si2 0.829515 0.737372 0.717454
Si Si3 0.327446 0.575232 0.843993
Si Si4 0.781248 0.457703 0.429924
Si Si5 0.822321 0.882791 0.145331
Si Si6 0.727699 0.249790 0.843526
Si Si7 0.632859 0.074505 0.740784
Si Si8 0.162307 0.928408 0.147159
O O1 0.545061 0.424775 0.247284
O O2 0.311126 0.342157 0.467038
O O3 0.210482 0.199635 0.372532
O O4 0.000000 0.453267 0.500000
O O5 0.538593 0.638688 0.819587
O O6 0.879307 0.790938 0.778353
O O7 0.093702 0.623628 0.592481
O O8 0.786953 0.908428 0.696371
O O9 0.343149 0.718288 0.780609
O O10 0.000000 0.544260 0.000000
O O11 0.500000 0.482690 0.500000
O O12 0.050858 0.381032 0.275963
O O13 0.015554 0.902779 0.133062
O O14 0.625177 0.026112 0.203982
O O15 0.000000 0.858272 0.000000
O O16 0.569105 0.168147 0.840802
O O17 0.918422 0.102886 0.792344
O O18 0.500000 0.295228 0.000000
O O19 0.500000 0.937557 0.000000
#
# Coordination Sequence:
#
# PCOD9112993 Si02
#       8
#     2   2   2   2   2   2   2   2
#     4  12  24  48  69  99 142 186 227 295 350 423
#     4  10  22  45  67  99 139 185 232 296 351 426
#     4  10  21  42  70 102 136 177 237 291 349 418
#     4  12  28  48  67 102 151 188 232 288 359 432
#     4  10  20  37  63 101 134 176 242 298 344 412
#     4  10  21  44  70  99 139 185 233 291 358 418
#     4  10  22  43  71 100 132 184 242 296 350 410
#     4  10  20  37  63  97 141 184 229 296 354 410
#
# _framework density 21.369800000000001
#
# number of rings (size 3 to 8) (size 9 to 14) (size 15 to 20)
#    0.000    1.500    2.500    3.750    3.500    1.000 
#    9.000    2.500    0.000    0.000    0.000    0.000 
#    0.000    0.000    0.000    0.000    0.000    0.000 
#
# Total GULP energy -89084.779978 kJ/mol
# GULP energy per Si atom -5567.798749 kJ/mol
# Density = 2.132116 g / cm^3
# Si number density = 21.369800 Si / 1000 Ang^3
#
#
#
# Elastic Constant Matrix: (Units=GPa)
#
#
# Indices 1 2 3 4 5 6 
#
# 1 188.4220 39.9767 53.1070 0.0000 -3.2773 0.0000
# 2 39.9767 63.0075 40.8401 0.0000 7.6926 0.0000
# 3 53.1070 40.8401 93.0905 0.0000 11.9912 0.0000
# 4 0.0000 0.0000 0.0000 16.3040 0.0000 -0.3752
# 5 -3.2773 7.6926 11.9912 0.0000 35.7659 0.0000
# 6 0.0000 0.0000 0.0000 -0.3752 0.0000 11.3781
#
#
#
# Elastic Compliance Matrix: (Units=1/GPa)
#
#
# Indices 1 2 3 4 5 6 
#
# 1 0.006739 -0.002610 -0.002980 0.000000 0.002178 0.000000
# 2 -0.002610 0.023274 -0.008409 0.000000 -0.002426 0.000000
# 3 -0.002980 -0.008409 0.016653 0.000000 -0.004048 0.000000
# 4 0.000000 0.000000 0.000000 0.061381 0.000000 0.002024
# 5 0.002178 -0.002426 -0.004048 0.000000 0.030038 0.000000
# 6 0.000000 0.000000 0.000000 0.002024 0.000000 0.087955
#
#
# Mechanical properties :
#
#
# Convention : Reuss Voigt Hill
#
# Bulk Modulus (GPa) = 53.56933 68.04085 60.80509
# Shear Modulus (GPa) = 19.21156 26.72936 22.97046
#
# Velocity S-wave (km/s) = 3.00159 3.54050 3.28213
# Velocity P-wave (km/s) = 6.09385 6.97298 6.54818
#
# Compressibility (1/GPa) = 0.01866740
#
# Stress axis : x y z
#
# Youngs Moduli (GPa) = 148.39545 42.96669 60.04996
#
# Poissons Ratio (x) = 0.11214 0.17894
# Poissons Ratio (y) = 0.38731 0.50497
# Poissons Ratio (z) = 0.44220 0.36131
#
# Static dielectric constant tensor:
#      x y z
#    x 1.776320 0.000000 0.043250 
#    y 0.000000 1.967040 0.000000 
#    z 0.043250 0.000000 1.820200 
# 
# From -- ./inp_files/15037.got.cif
#   From: 2010.05.17/outbox.cif.g08.bks.cpg/sg3_8_cif.got.tgz:15037.got - 2010.06.03 18:33:08.
