data_PCOD9112458
_publ_section_title
;
Structure prediction by ZEFSAII (Michael W. Deem and Ramdas Pophale) SiO2 
 PCOD9112458
Probable space group: P 2
;
_chemical_formula_sum "Si O2"
_cell_formula_units_Z 12
_cell_length_a 23.874602
_cell_length_b 5.567073
_cell_length_c 11.231377
_cell_angle_alpha 90.000000
_cell_angle_beta 17.786888
_cell_angle_gamma 90.000000
_cell_volume 456.010827
_symmetry_space_group_name_H-M "P 2"
_symmetry_group_IT_number 3
_symmetry_cell_setting 'monoclinic'
loop_
_space_group_symop_operation_xyz
x,y,z
-x,y,-z
loop_
_atom_site_type_symbol
_atom_site_label
_atom_site_fract_x
_atom_site_fract_y
_atom_site_fract_z
Si Si1 0.423382 0.462060 0.377828
Si Si2 0.956699 0.462060 0.949403
Si Si3 0.528546 0.962060 0.802207
Si Si4 0.282682 0.462060 0.924814
Si Si5 0.928753 0.962060 0.902260
Si Si6 0.272804 0.962060 0.948623
O O1 0.266362 0.462060 0.597162
O O2 0.528970 0.713970 0.148536
O O3 0.292901 0.462060 0.760245
O O4 0.528970 0.210150 0.148536
O O5 0.019689 0.709051 0.756169
O O6 0.019689 0.215069 0.756169
O O7 0.000000 0.462060 0.000000
O O8 0.746920 0.962060 0.350044
O O9 0.500000 0.962060 0.000000
O O10 0.500000 0.462060 0.500000
O O11 0.210419 0.707388 0.124748
O O12 0.210419 0.216732 0.124748
O O13 0.828576 0.962060 0.974990
O O14 0.500000 0.962060 0.500000
#
# Coordination Sequence:
#
# PCOD9112458 Si02
#       6
#     2   2   2   2   2   2
#     4  10  17  30  40  58  86 106 137 168 196 238
#     4  10  18  27  41  56  77 113 142 164 198 232
#     4  10  18  27  41  56  77 113 142 164 198 232
#     4  10  16  25  41  58  79 111 132 152 206 252
#     4  10  17  30  40  58  86 106 137 168 196 238
#     4  10  16  25  41  58  79 111 132 152 206 252
#
# _framework density 26.315162999999998
#
# number of rings (size 3 to 8) (size 9 to 14) (size 15 to 20)
#    0.000    2.000    6.667    1.000    0.000    0.000 
#    0.000    0.000    0.000    0.000    0.000    0.000 
#    0.000    0.000    0.000  144.000    0.000    0.000 
#
# Total GULP energy -66816.303223 kJ/mol
# GULP energy per Si atom -5568.025269 kJ/mol
# Density = 2.625527 g / cm^3
# Si number density = 26.315163 Si / 1000 Ang^3
#
#
#
# Elastic Constant Matrix: (Units=GPa)
#
#
# Indices 1 2 3 4 5 6 
#
# 1 147.9626 46.2399 34.8006 0.0000 -9.9893 0.0000
# 2 46.2399 382.0727 4.5030 0.0000 7.7799 0.0000
# 3 34.8006 4.5030 76.9220 0.0000 2.5068 0.0000
# 4 0.0000 0.0000 0.0000 -40.8653 0.0000 -22.6742
# 5 -9.9893 7.7799 2.5068 0.0000 46.5737 0.0000
# 6 0.0000 0.0000 0.0000 -22.6742 0.0000 7.1859
#
#
#
# Elastic Compliance Matrix: (Units=1/GPa)
#
#
# Indices 1 2 3 4 5 6 
#
# 1 0.008065 -0.000975 -0.003660 0.000000 0.002090 0.000000
# 2 -0.000975 0.002746 0.000303 0.000000 -0.000684 0.000000
# 3 -0.003660 0.000303 0.014691 0.000000 -0.001626 0.000000
# 4 0.000000 0.000000 0.000000 -0.008896 0.000000 -0.028070
# 5 0.002090 -0.000684 -0.001626 0.000000 0.022121 0.000000
# 6 0.000000 0.000000 0.000000 -0.028070 0.000000 0.050590
#
#
# Mechanical properties :
#
#
# Convention : Reuss Voigt Hill
#
# Bulk Modulus (GPa) = 59.39198 86.44937 72.92068
# Shear Modulus (GPa) = 48.26492 37.33978 42.80235
#
# Velocity S-wave (km/s) = 4.28730 3.77098 4.03740
# Velocity P-wave (km/s) = 6.86487 7.20300 7.03596
#
# Compressibility (1/GPa) = 0.01683729
#
# Stress axis : x y z
#
# Youngs Moduli (GPa) = 123.98966 364.20276 68.06795
#
# Poissons Ratio (x) = 0.35528 0.24912
# Poissons Ratio (y) = 0.12095 -0.02062
# Poissons Ratio (z) = 0.45378 -0.11031
#
# Static dielectric constant tensor:
#      x y z
#    x 1.822510 0.000000 -0.059220 
#    y 0.000000 2.412690 0.000000 
#    z -0.059220 0.000000 1.980800 
# 
# From -- ./inp_files/11061.got.cif
#   From: 2010.05.17/outbox.cif.g08.bks.cpg/sg3_6_cif.got.tgz:11061.got - 2010.06.03 18:33:08.
