data_PCOD9112104
_publ_section_title
;
Structure prediction by ZEFSAII (Michael W. Deem and Ramdas Pophale) SiO2 
 PCOD9112104
Probable space group: P -1
;
_chemical_formula_sum "Si O2"
_cell_formula_units_Z 14
_cell_length_a 14.357051
_cell_length_b 5.115536
_cell_length_c 14.121199
_cell_angle_alpha 102.047548
_cell_angle_beta 29.949782
_cell_angle_gamma 94.371598
_cell_volume 494.604322
_symmetry_space_group_name_H-M "P -1"
_symmetry_group_IT_number 2
_symmetry_cell_setting 'triclinic'
loop_
_space_group_symop_operation_xyz
x,y,z
-x,-y,-z
loop_
_atom_site_type_symbol
_atom_site_label
_atom_site_fract_x
_atom_site_fract_y
_atom_site_fract_z
Si Si1 0.783272 0.439051 0.090582
Si Si2 0.500000 0.500000 0.000000
Si Si3 0.398393 0.652299 0.920625
Si Si4 0.878282 0.430477 0.306063
Si Si5 0.000000 0.000000 0.000000
Si Si6 0.758511 0.895463 0.677537
Si Si7 0.034473 0.096223 0.318696
Si Si8 0.376270 0.267907 0.585149
O O1 0.589504 0.477104 0.204074
O O2 0.794310 0.663386 0.179700
O O3 0.928396 0.480103 0.886035
O O4 0.845043 0.158893 0.069630
O O5 0.370012 0.457475 0.016472
O O6 0.648478 0.202468 0.824361
O O7 0.593852 0.725433 0.794583
O O8 0.225088 0.915854 0.089262
O O9 0.717463 0.690060 0.431615
O O10 0.906407 0.304490 0.375172
O O11 0.877267 0.190297 0.211299
O O12 0.894806 0.910716 0.470454
O O13 0.887745 0.786450 0.645911
O O14 0.500000 0.500000 0.500000
O O15 0.500000 0.000000 0.500000
#
# Coordination Sequence:
#
# PCOD9112104 Si02
#       8
#     2   1   2   2   1   2   2   2
#     4  11  26  44  77 106 151 210 257 327 398 489
#     4  10  22  42  70 104 152 200 252 320 392 460
#     4  11  24  45  74 111 151 203 260 321 404 471
#     4  11  25  45  78 105 151 203 270 319 404 490
#     4  10  20  44  70 106 140 198 264 314 396 466
#     4  10  24  47  74 109 162 197 269 327 393 486
#     4  10  22  48  75 110 150 210 259 331 403 468
#     4  11  28  50  77 116 163 206 265 341 405 483
#
# _framework density 28.305456
#
# number of rings (size 3 to 8) (size 9 to 14) (size 15 to 20)
#    0.000    1.429    1.429    3.429   12.000    1.143 
#    7.714    5.714    0.000    0.000    0.000    0.000 
#    0.000    0.000    0.000    0.000    0.000    0.000 
#
# Total GULP energy -78007.440161 kJ/mol
# GULP energy per Si atom -5571.960012 kJ/mol
# Density = 2.824103 g / cm^3
# Si number density = 28.305456 Si / 1000 Ang^3
#
#
#
# Elastic Constant Matrix: (Units=GPa)
#
#
# Indices 1 2 3 4 5 6 
#
# 1 230.1598 44.7792 -2.7440 17.8583 -2.0511 -52.2243
# 2 44.7792 113.1105 8.9326 19.7034 4.7041 -31.4123
# 3 -2.7440 8.9326 79.3906 4.6467 4.1463 -7.5687
# 4 17.8583 19.7034 4.6467 51.9396 -15.7375 -8.1540
# 5 -2.0511 4.7041 4.1463 -15.7375 34.4694 -3.2956
# 6 -52.2243 -31.4123 -7.5687 -8.1540 -3.2956 69.9296
#
#
#
# Elastic Compliance Matrix: (Units=1/GPa)
#
#
# Indices 1 2 3 4 5 6 
#
# 1 0.005443 -0.001082 0.000683 -0.000859 0.000338 0.003568
# 2 -0.001082 0.011146 -0.000550 -0.004196 -0.003100 0.003504
# 3 0.000683 -0.000550 0.013014 -0.001591 -0.002043 0.001389
# 4 -0.000859 -0.004196 -0.001591 0.025125 0.012261 0.000809
# 5 0.000338 -0.003100 -0.002043 0.012261 0.035465 0.001740
# 6 0.003568 0.003504 0.001389 0.000809 0.001740 0.018865
#
#
# Mechanical properties :
#
#
# Convention : Reuss Voigt Hill
#
# Bulk Modulus (GPa) = 36.09643 58.28850 47.19247
# Shear Modulus (GPa) = 41.60069 56.04727 48.82398
#
# Velocity S-wave (km/s) = 3.83783 4.45464 4.15769
# Velocity P-wave (km/s) = 5.69375 6.86264 6.30534
#
# Compressibility (1/GPa) = 0.02770357
#
# Stress axis : x y z
#
# Youngs Moduli (GPa) = 183.72794 89.72146 76.84180
#
# Poissons Ratio (x) = 0.09709 -0.05246
# Poissons Ratio (y) = 0.19881 0.04226
# Poissons Ratio (z) = -0.12543 0.04934
#
# Static dielectric constant tensor:
#      x y z
#    x 1.936760 0.924880 -0.541580 
#    y 0.924880 0.770300 1.306620 
#    z -0.541580 1.306620 1.273520 
# 
# From -- ./inp_files/525736.got.cif
#   From: 2010.05.17/outbox.cif.g08.bks.cpg/sg2_263_cif.got.tgz:525736.got - 2010.06.03 11:33:40.
