data_PCOD9112379
_publ_section_title
;
Structure prediction by ZEFSAII (Michael W. Deem and Ramdas Pophale) SiO2 
 PCOD9112379
Probable space group: P -1
;
_chemical_formula_sum "Si O2"
_cell_formula_units_Z 16
_cell_length_a 19.922598
_cell_length_b 9.151598
_cell_length_c 5.556642
_cell_angle_alpha 92.671643
_cell_angle_beta 69.644484
_cell_angle_gamma 132.848657
_cell_volume 669.262209
_symmetry_space_group_name_H-M "P -1"
_symmetry_group_IT_number 2
_symmetry_cell_setting 'triclinic'
loop_
_space_group_symop_operation_xyz
x,y,z
-x,-y,-z
loop_
_atom_site_type_symbol
_atom_site_label
_atom_site_fract_x
_atom_site_fract_y
_atom_site_fract_z
Si Si1 0.663939 0.767138 0.799279
Si Si2 0.912826 0.342585 0.903817
Si Si3 0.587737 0.282914 0.393770
Si Si4 0.912827 0.822009 0.916681
Si Si5 0.267586 0.224751 0.785727
Si Si6 0.512108 0.266167 0.984800
Si Si7 0.779119 0.369870 0.281240
Si Si8 0.934875 0.625370 0.505997
O O1 0.736149 0.850409 0.482930
O O2 0.593314 0.518636 0.884194
O O3 0.708704 0.841446 0.018040
O O4 0.594273 0.807147 0.844189
O O5 0.925600 0.477214 0.687190
O O6 0.957501 0.253246 0.750409
O O7 0.808862 0.249355 0.149437
O O8 0.000000 0.500000 0.000000
O O9 0.647346 0.524792 0.325507
O O10 0.517045 0.196881 0.711615
O O11 0.667932 0.270057 0.354397
O O12 0.539662 0.209038 0.180311
O O13 0.944767 0.797650 0.623812
O O14 0.830700 0.828726 0.021145
O O15 0.853459 0.594869 0.078670
O O16 0.000000 0.000000 0.000000
O O17 0.825749 0.456763 0.495270
#
# Coordination Sequence:
#
# PCOD9112379 Si02
#       8
#     2   2   2   2   2   2   2   2
#     4   9  16  28  41  56  79 112 153 186 222 266
#     4   8  15  29  45  66  81 110 154 183 230 278
#     4   9  17  24  40  62  88 113 144 181 225 271
#     4  10  21  31  42  63  89 123 163 198 227 259
#     4   9  18  28  42  56  80 117 156 191 221 261
#     4   9  16  25  39  60  83 111 144 185 222 269
#     4   9  18  28  45  64  90 121 155 187 226 275
#     4   9  17  29  47  60  85 117 154 190 228 271
#
# _framework density 23.906925000000001
#
# number of rings (size 3 to 8) (size 9 to 14) (size 15 to 20)
#    0.000    3.000    0.000    0.750   10.500    3.500 
#    0.000    0.000    0.000    0.000    0.000    0.000 
#    0.000    0.000    0.000    6.750    0.000   19.250 
#
# Total GULP energy -89153.575088 kJ/mol
# GULP energy per Si atom -5572.098443 kJ/mol
# Density = 2.385251 g / cm^3
# Si number density = 23.906925 Si / 1000 Ang^3
#
#
#
# Elastic Constant Matrix: (Units=GPa)
#
#
# Indices 1 2 3 4 5 6 
#
# 1 172.8679 21.8783 93.8128 19.2611 3.4684 27.8178
# 2 21.8783 58.0053 29.0315 6.4032 3.9512 -10.9238
# 3 93.8128 29.0315 162.0408 42.9369 -20.9715 -1.5588
# 4 19.2611 6.4032 42.9369 -2.6512 1.9996 23.0363
# 5 3.4684 3.9512 -20.9715 1.9996 50.4901 0.5633
# 6 27.8178 -10.9238 -1.5588 23.0363 0.5633 4.5357
#
#
#
# Elastic Compliance Matrix: (Units=1/GPa)
#
#
# Indices 1 2 3 4 5 6 
#
# 1 0.009156 -0.001903 -0.002141 -0.011225 -0.000876 -0.004352
# 2 -0.001903 0.021792 -0.006139 0.010636 -0.004642 0.008603
# 3 -0.002141 -0.006139 0.008265 0.002491 0.004095 -0.011978
# 4 -0.011225 0.010636 0.002491 0.009650 0.000075 0.046299
# 5 -0.000876 -0.004642 0.004095 0.000075 0.022011 -0.007513
# 6 -0.004352 0.008603 -0.011978 0.046299 -0.007513 0.029554
#
#
# Mechanical properties :
#
#
# Convention : Reuss Voigt Hill
#
# Bulk Modulus (GPa) = 53.05497 75.81769 64.43633
# Shear Modulus (GPa) = 39.34665 27.02102 33.18384
#
# Velocity S-wave (km/s) = 4.06128 3.36558 3.72969
# Velocity P-wave (km/s) = 6.65075 6.84729 6.74974
#
# Compressibility (1/GPa) = 0.01884837
#
# Stress axis : x y z
#
# Youngs Moduli (GPa) = 109.21752 45.88784 120.98989
#
# Poissons Ratio (x) = 0.08732 0.25901
# Poissons Ratio (y) = 0.20782 0.74275
# Poissons Ratio (z) = 0.23381 0.28170
#
# Static dielectric constant tensor:
#      x y z
#    x 1.816600 0.026270 -0.081600 
#    y 0.026270 1.936620 0.011800 
#    z -0.081600 0.011800 1.923280 
# 
# From -- ./inp_files/99463.got.cif
#   From: 2010.05.17/outbox.cif.g08.bks.cpg/sg2_50_cif.got.tgz:99463.got - 2010.06.03 11:33:40.
