data_PCOD9112629
_publ_section_title
;
Structure prediction by ZEFSAII (Michael W. Deem and Ramdas Pophale) SiO2 
 PCOD9112629
Probable space group: P 2
;
_chemical_formula_sum "Si O2"
_cell_formula_units_Z 12
_cell_length_a 19.374893
_cell_length_b 5.215229
_cell_length_c 9.973601
_cell_angle_alpha 90.000000
_cell_angle_beta 153.362128
_cell_angle_gamma 90.000000
_cell_volume 451.837089
_symmetry_space_group_name_H-M "P 2"
_symmetry_group_IT_number 3
_symmetry_cell_setting 'monoclinic'
loop_
_space_group_symop_operation_xyz
x,y,z
-x,y,-z
loop_
_atom_site_type_symbol
_atom_site_label
_atom_site_fract_x
_atom_site_fract_y
_atom_site_fract_z
Si Si1 0.637036 0.160960 0.552872
Si Si2 0.678427 0.417286 0.033485
Si Si3 0.749346 0.184620 0.448680
Si Si4 0.178054 0.670444 0.066331
Si Si5 0.000000 0.569762 0.000000
Si Si6 0.000000 0.251353 0.500000
Si Si7 0.871418 0.825878 0.460467
O O1 0.652174 0.139335 0.415261
O O2 0.744823 0.398198 0.779441
O O3 0.696575 0.900210 0.729737
O O4 0.468104 0.280637 0.283857
O O5 0.682936 0.317061 0.196462
O O6 0.825112 0.351449 0.197574
O O7 0.719489 0.721530 0.120626
O O8 0.886604 0.374741 0.726555
O O9 0.808243 0.914963 0.492958
O O10 0.101404 0.736730 0.076436
O O11 0.015577 0.630606 0.703242
O O12 0.968175 0.061493 0.570695
#
# Coordination Sequence:
#
# PCOD9112629 Si02
#       7
#     2   2   2   2   1   1   2
#     4  11  26  41  67 107 151 174 217 291 362 414
#     4  11  24  45  67 100 133 187 234 289 347 413
#     4  10  21  38  67 102 142 180 225 274 348 424
#     4  11  23  41  68 100 143 182 225 281 346 419
#     4  10  18  40  66 106 140 192 228 280 336 444
#     4  10  26  44  76  88 130 178 258 288 338 408
#     4  11  22  44  75  97 131 193 243 283 338 428
#
# _framework density 26.558242
#
# number of rings (size 3 to 8) (size 9 to 14) (size 15 to 20)
#    0.000    1.333    1.667    4.000    9.333    0.667 
#    0.000    0.833    0.000    0.000    0.000    0.000 
#    0.000    0.000    0.000    0.000    0.000    0.000 
#
# Total GULP energy -66874.484215 kJ/mol
# GULP energy per Si atom -5572.873685 kJ/mol
# Density = 2.649779 g / cm^3
# Si number density = 26.558242 Si / 1000 Ang^3
#
#
#
# Elastic Constant Matrix: (Units=GPa)
#
#
# Indices 1 2 3 4 5 6 
#
# 1 81.1438 -14.9873 31.9255 0.0000 26.7836 0.0000
# 2 -14.9873 63.1106 5.8184 0.0000 22.6508 0.0000
# 3 31.9255 5.8184 104.7846 0.0000 11.9011 0.0000
# 4 0.0000 0.0000 0.0000 -97.8500 0.0000 25.6387
# 5 26.7836 22.6508 11.9011 0.0000 35.8575 0.0000
# 6 0.0000 0.0000 0.0000 25.6387 0.0000 12.2045
#
#
#
# Elastic Compliance Matrix: (Units=1/GPa)
#
#
# Indices 1 2 3 4 5 6 
#
# 1 0.028163 0.018199 -0.006127 0.000000 -0.030499 0.000000
# 2 0.018199 0.032263 -0.003614 0.000000 -0.032775 0.000000
# 3 -0.006127 -0.003614 0.011256 0.000000 0.003124 0.000000
# 4 0.000000 0.000000 0.000000 -0.006591 0.000000 0.013847
# 5 -0.030499 -0.032775 0.003124 0.000000 0.070336 0.000000
# 6 0.000000 0.000000 0.000000 0.013847 0.000000 0.052848
#
#
# Mechanical properties :
#
#
# Convention : Reuss Voigt Hill
#
# Bulk Modulus (GPa) = 11.28694 32.72801 22.00747
# Shear Modulus (GPa) = 24.88919 5.12788 15.00853
#
# Velocity S-wave (km/s) = 3.06462 1.39104 2.37980
# Velocity P-wave (km/s) = 4.09654 3.86392 3.98193
#
# Compressibility (1/GPa) = 0.08859801
#
# Stress axis : x y z
#
# Youngs Moduli (GPa) = 35.50794 30.99503 88.84076
#
# Poissons Ratio (x) = -0.56408 0.54434
# Poissons Ratio (y) = -0.64621 0.32106
# Poissons Ratio (z) = 0.21756 0.11201
#
# Static dielectric constant tensor:
#      x y z
#    x 2.181100 0.000000 -0.148230 
#    y 0.000000 2.237840 0.000000 
#    z -0.148230 0.000000 2.229860 
# 
# From -- ./inp_files/7931.got.cif
#   From: 2010.05.17/outbox.cif.g08.bks.cpg/sg3_4_cif.got.tgz:7931.got - 2010.06.03 18:33:08.
