data_PCOD9112563
_publ_section_title
;
Structure prediction by ZEFSAII (Michael W. Deem and Ramdas Pophale) SiO2 
 PCOD9112563
Probable space group: P 2
;
_chemical_formula_sum "Si O2"
_cell_formula_units_Z 12
_cell_length_a 11.008972
_cell_length_b 5.518843
_cell_length_c 15.044471
_cell_angle_alpha 90.000000
_cell_angle_beta 29.737430
_cell_angle_gamma 90.000000
_cell_volume 453.394436
_symmetry_space_group_name_H-M "P 2"
_symmetry_group_IT_number 3
_symmetry_cell_setting 'monoclinic'
loop_
_space_group_symop_operation_xyz
x,y,z
-x,y,-z
loop_
_atom_site_type_symbol
_atom_site_label
_atom_site_fract_x
_atom_site_fract_y
_atom_site_fract_z
Si Si1 0.145760 0.300420 0.815601
Si Si2 0.994853 0.261765 0.609626
Si Si3 0.259269 0.762777 0.489399
Si Si4 0.776078 0.801024 0.278031
Si Si5 0.310201 0.306942 0.030427
Si Si6 0.364298 0.807250 0.907275
O O1 0.297845 0.545595 0.716587
O O2 0.303792 0.059936 0.708018
O O3 0.957336 0.305121 0.852165
O O4 0.000000 0.293924 0.000000
O O5 0.155590 0.493949 0.536906
O O6 0.000000 0.277125 0.500000
O O7 0.083649 0.990290 0.576106
O O8 0.753952 0.296996 0.824635
O O9 0.482590 0.797483 0.279502
O O10 0.275451 0.788349 0.585224
O O11 0.072480 0.806851 0.073807
O O12 0.416235 0.563904 0.930298
O O13 0.421713 0.056838 0.921904
#
# Coordination Sequence:
#
# PCOD9112563 Si02
#       6
#     2   2   2   2   2   2
#     4  10  18  32  61  87 110 154 194 226 290 348
#     4  12  23  40  62  86 118 154 195 241 290 343
#     4  12  21  40  63  87 111 164 192 233 296 345
#     4  10  19  37  58  82 121 150 189 240 285 332
#     4  10  19  40  56  82 123 150 186 250 284 330
#     4  10  20  35  64  83 113 156 195 231 290 347
#
# _framework density 26.467020999999999
#
# number of rings (size 3 to 8) (size 9 to 14) (size 15 to 20)
#    0.000    1.333    6.667    2.000    0.000    0.000 
#    0.000    5.000    0.000   24.000    0.000    0.000 
#    0.000    0.000    0.000    0.000    0.000    0.000 
#
# Total GULP energy -67266.944856 kJ/mol
# GULP energy per Si atom -5605.578738 kJ/mol
# Density = 2.640678 g / cm^3
# Si number density = 26.467021 Si / 1000 Ang^3
#
#
#
# Elastic Constant Matrix: (Units=GPa)
#
#
# Indices 1 2 3 4 5 6 
#
# 1 58.7257 35.1619 14.9219 0.0000 37.4216 0.0000
# 2 35.1619 190.0101 39.5340 0.0000 26.9513 0.0000
# 3 14.9219 39.5340 219.9413 0.0000 31.3934 0.0000
# 4 0.0000 0.0000 0.0000 58.2433 0.0000 8.9448
# 5 37.4216 26.9513 31.3934 0.0000 50.9767 0.0000
# 6 0.0000 0.0000 0.0000 8.9448 0.0000 37.0505
#
#
#
# Elastic Compliance Matrix: (Units=1/GPa)
#
#
# Indices 1 2 3 4 5 6 
#
# 1 0.034025 -0.003204 0.001744 0.000000 -0.024358 0.000000
# 2 -0.003204 0.006078 -0.000825 0.000000 -0.000353 0.000000
# 3 0.001744 -0.000825 0.005150 0.000000 -0.004016 0.000000
# 4 0.000000 0.000000 0.000000 0.017830 0.000000 -0.004305
# 5 -0.024358 -0.000353 -0.004016 0.000000 0.040157 0.000000
# 6 0.000000 0.000000 0.000000 -0.004305 0.000000 0.028029
#
#
# Mechanical properties :
#
#
# Convention : Reuss Voigt Hill
#
# Bulk Modulus (GPa) = 24.58048 71.99029 48.28538
# Shear Modulus (GPa) = 33.46720 54.52472 43.99596
#
# Velocity S-wave (km/s) = 3.55982 4.54376 4.08155
# Velocity P-wave (km/s) = 5.11896 7.40180 6.36359
#
# Compressibility (1/GPa) = 0.04068269
#
# Stress axis : x y z
#
# Youngs Moduli (GPa) = 29.39008 164.54101 194.18370
#
# Poissons Ratio (x) = 0.52726 -0.33870
# Poissons Ratio (y) = 0.09418 0.16013
# Poissons Ratio (z) = -0.05126 0.13569
#
# Static dielectric constant tensor:
#      x y z
#    x 2.225390 0.000000 -0.121140 
#    y 0.000000 2.067990 0.000000 
#    z -0.121140 0.000000 1.996520 
# 
# From -- ./inp_files/13830.got.cif
#   From: 2010.05.17/outbox.cif.g08.bks.cpg/sg3_7_cif.got.tgz:13830.got - 2010.06.03 18:33:08.
