data_PCOD9112762
_publ_section_title
;
Structure prediction by ZEFSAII (Michael W. Deem and Ramdas Pophale) SiO2 
 PCOD9112762
Probable space group: P 2
;
_chemical_formula_sum "Si O2"
_cell_formula_units_Z 14
_cell_length_a 9.298672
_cell_length_b 7.777219
_cell_length_c 13.082868
_cell_angle_alpha 90.000000
_cell_angle_beta 132.031182
_cell_angle_gamma 90.000000
_cell_volume 702.762765
_symmetry_space_group_name_H-M "P 2"
_symmetry_group_IT_number 3
_symmetry_cell_setting 'monoclinic'
loop_
_space_group_symop_operation_xyz
x,y,z
-x,y,-z
loop_
_atom_site_type_symbol
_atom_site_label
_atom_site_fract_x
_atom_site_fract_y
_atom_site_fract_z
Si Si1 0.838048 0.820570 0.504312
Si Si2 0.936154 0.725347 0.776983
Si Si3 0.561209 0.247434 0.643079
Si Si4 0.019549 0.346632 0.192269
Si Si5 0.856908 0.236907 0.521046
Si Si6 0.844842 0.023744 0.018960
Si Si7 0.590063 0.873796 0.735630
O O1 0.864589 0.733533 0.626668
O O2 0.619960 0.790740 0.362463
O O3 0.000000 0.766379 0.500000
O O4 0.857380 0.028074 0.527329
O O5 0.035258 0.543878 0.845334
O O6 0.754513 0.751754 0.767105
O O7 0.078377 0.884233 0.864477
O O8 0.500000 0.299829 0.500000
O O9 0.773198 0.319631 0.767382
O O10 0.365107 0.288843 0.610530
O O11 0.585821 0.040777 0.659284
O O12 0.071921 0.303855 0.335095
O O13 0.863773 0.211120 0.076765
O O14 0.000000 0.291804 0.500000
O O15 0.651199 0.956560 0.873106
O O16 0.000000 0.021243 0.000000
#
# Coordination Sequence:
#
# PCOD9112762 Si02
#       7
#     2   2   2   2   2   2   2
#     4  10  20  37  62  89 112 152 198 243 290 347
#     4  11  21  35  60  88 117 150 192 238 293 341
#     4   9  16  31  54  82 111 143 184 237 285 331
#     4  11  20  34  59  84 118 153 187 237 293 349
#     4   9  18  33  56  81 114 146 191 239 285 336
#     4  10  20  37  56  84 119 152 191 237 281 346
#     4  10  19  36  59  84 118 151 190 242 288 343
#
# _framework density 19.921372999999999
#
# number of rings (size 3 to 8) (size 9 to 14) (size 15 to 20)
#    0.000    2.000    4.286    2.143    0.000    5.714 
#    0.000    0.714    0.000    0.000   11.143    0.000 
#    0.000    0.000    0.000    0.000    0.000    0.000 
#
# Total GULP energy -78094.751574 kJ/mol
# GULP energy per Si atom -5578.196541 kJ/mol
# Density = 1.987603 g / cm^3
# Si number density = 19.921373 Si / 1000 Ang^3
#
#
#
# Elastic Constant Matrix: (Units=GPa)
#
#
# Indices 1 2 3 4 5 6 
#
# 1 73.3384 24.3359 24.8494 0.0000 -0.7637 0.0000
# 2 24.3359 90.2010 31.9979 0.0000 3.1517 0.0000
# 3 24.8494 31.9979 104.3062 0.0000 3.1350 0.0000
# 4 0.0000 0.0000 0.0000 5.8237 0.0000 1.7822
# 5 -0.7637 3.1517 3.1350 0.0000 10.0335 0.0000
# 6 0.0000 0.0000 0.0000 1.7822 0.0000 4.7557
#
#
#
# Elastic Compliance Matrix: (Units=1/GPa)
#
#
# Indices 1 2 3 4 5 6 
#
# 1 0.015735 -0.003357 -0.002813 0.000000 0.003131 0.000000
# 2 -0.003357 0.013231 -0.003156 0.000000 -0.003425 0.000000
# 3 -0.002813 -0.003156 0.011308 0.000000 -0.002756 0.000000
# 4 0.000000 0.000000 0.000000 0.193954 0.000000 -0.072685
# 5 0.003131 -0.003425 -0.002756 0.000000 0.101841 0.000000
# 6 0.000000 0.000000 0.000000 -0.072685 0.000000 0.237513
#
#
# Mechanical properties :
#
#
# Convention : Reuss Voigt Hill
#
# Bulk Modulus (GPa) = 46.24781 47.80132 47.02457
# Shear Modulus (GPa) = 8.34108 16.56675 12.45391
#
# Velocity S-wave (km/s) = 2.04844 2.88689 2.50302
# Velocity P-wave (km/s) = 5.37218 5.92952 5.65772
#
# Compressibility (1/GPa) = 0.02162264
#
# Stress axis : x y z
#
# Youngs Moduli (GPa) = 63.55241 75.57800 88.42982
#
# Poissons Ratio (x) = 0.25370 0.24875
# Poissons Ratio (y) = 0.21333 0.27911
# Poissons Ratio (z) = 0.17877 0.23855
#
# Static dielectric constant tensor:
#      x y z
#    x 1.706190 0.000000 0.010250 
#    y 0.000000 1.727350 0.000000 
#    z 0.010250 0.000000 1.727130 
# 
# From -- ./inp_files/9431.got.cif
#   From: 2010.05.17/outbox.cif.g08.bks.cpg/sg3_5_cif.got.tgz:9431.got - 2010.06.03 18:33:08.
