data_PCOD9112009
_publ_section_title
;
Structure prediction by ZEFSAII (Michael W. Deem and Ramdas Pophale) SiO2 
 PCOD9112009
Probable space group: P -1
;
_chemical_formula_sum "Si O2"
_cell_formula_units_Z 16
_cell_length_a 9.243903
_cell_length_b 5.175012
_cell_length_c 14.524322
_cell_angle_alpha 112.052020
_cell_angle_beta 82.467783
_cell_angle_gamma 90.090083
_cell_volume 637.559485
_symmetry_space_group_name_H-M "P -1"
_symmetry_group_IT_number 2
_symmetry_cell_setting 'triclinic'
loop_
_space_group_symop_operation_xyz
x,y,z
-x,-y,-z
loop_
_atom_site_type_symbol
_atom_site_label
_atom_site_fract_x
_atom_site_fract_y
_atom_site_fract_z
Si Si1 0.381627 0.734832 0.427750
Si Si2 0.526960 0.035256 0.201224
Si Si3 0.232391 0.262245 0.280055
Si Si4 0.109611 0.016238 0.410554
Si Si5 0.326690 0.542810 0.615155
Si Si6 0.088473 0.705280 0.959250
Si Si7 0.969141 0.505631 0.259394
Si Si8 0.408243 0.583019 0.927486
O O1 0.335790 0.513616 0.323920
O O2 0.270347 0.981527 0.437834
O O3 0.339568 0.631852 0.519482
O O4 0.557315 0.722117 0.411006
O O5 0.353355 0.011682 0.232419
O O6 0.606878 0.213235 0.295647
O O7 0.533703 0.202869 0.125438
O O8 0.602391 0.727372 0.154863
O O9 0.110666 0.286174 0.216536
O O10 0.125803 0.281147 0.380811
O O11 0.051631 0.787633 0.312732
O O12 0.000000 0.000000 0.500000
O O13 0.161974 0.510488 0.658017
O O14 0.105435 0.553683 0.838569
O O15 0.251272 0.720369 0.986051
O O16 0.000000 0.500000 0.000000
O O17 0.000000 0.000000 0.000000
O O18 0.500000 0.500000 0.000000
#
# Coordination Sequence:
#
# PCOD9112009 Si02
#       8
#     2   2   2   2   2   2   2   2
#     4   9  21  41  64  98 140 186 238 289 351 435
#     4  11  26  46  76 107 144 187 245 297 365 447
#     4  10  24  40  68  99 143 188 240 291 360 433
#     4  11  23  40  67 106 140 193 240 297 360 447
#     4  10  20  44  66  99 141 188 232 296 356 435
#     4  12  30  50  75 109 148 190 250 309 374 438
#     4  11  25  43  71  97 149 186 241 298 377 428
#     4  12  28  50  78 108 143 186 244 306 381 439
#
# _framework density 25.095697000000001
#
# number of rings (size 3 to 8) (size 9 to 14) (size 15 to 20)
#    0.000    1.250    1.250    2.625   10.500    3.000 
#    2.250    3.750    0.000    0.000    0.000    0.000 
#    0.000    0.000    0.000    0.000    0.000    0.000 
#
# Total GULP energy -89372.970265 kJ/mol
# GULP energy per Si atom -5585.810642 kJ/mol
# Density = 2.503858 g / cm^3
# Si number density = 25.095697 Si / 1000 Ang^3
#
#
#
# Elastic Constant Matrix: (Units=GPa)
#
#
# Indices 1 2 3 4 5 6 
#
# 1 177.3951 39.9065 34.3549 0.4412 -7.5769 -22.8041
# 2 39.9065 98.2176 24.1268 -8.7491 -13.0537 -10.4901
# 3 34.3549 24.1268 79.2636 -5.0958 -3.3515 -3.6687
# 4 0.4412 -8.7491 -5.0958 35.7287 3.1740 -2.2476
# 5 -7.5769 -13.0537 -3.3515 3.1740 48.5456 -3.9480
# 6 -22.8041 -10.4901 -3.6687 -2.2476 -3.9480 38.5534
#
#
#
# Elastic Compliance Matrix: (Units=1/GPa)
#
#
# Indices 1 2 3 4 5 6 
#
# 1 0.006981 -0.001865 -0.002313 -0.000724 0.000755 0.003436
# 2 -0.001865 0.012458 -0.002578 0.002604 0.002913 0.002491
# 3 -0.002313 -0.002578 0.014458 0.001438 -0.000201 -0.000631
# 4 -0.000724 0.002604 0.001438 0.029060 -0.001051 0.002004
# 5 0.000755 0.002913 -0.000201 -0.001051 0.021831 0.003394
# 6 0.003436 0.002491 -0.000631 0.002004 0.003394 0.029053
#
#
# Mechanical properties :
#
#
# Convention : Reuss Voigt Hill
#
# Bulk Modulus (GPa) = 49.05793 61.29473 55.17633
# Shear Modulus (GPa) = 37.27252 41.66475 39.46863
#
# Velocity S-wave (km/s) = 3.85803 4.07902 3.97006
# Velocity P-wave (km/s) = 6.27986 6.83095 6.56120
#
# Compressibility (1/GPa) = 0.02038407
#
# Stress axis : x y z
#
# Youngs Moduli (GPa) = 143.25592 80.27186 69.16517
#
# Poissons Ratio (x) = 0.14971 0.16001
# Poissons Ratio (y) = 0.26718 0.17829
# Poissons Ratio (z) = 0.33141 0.20692
#
# Static dielectric constant tensor:
#      x y z
#    x 1.984000 -0.017030 -0.027930 
#    y -0.017030 2.087410 0.042150 
#    z -0.027930 0.042150 2.067700 
# 
# From -- ./inp_files/56960.got.cif
#   From: 2010.05.17/outbox.cif.g08.bks.cpg/sg2_29_cif.got.tgz:56960.got - 2010.06.03 11:33:40.
