data_PCOD9112741
_publ_section_title
;
Structure prediction by ZEFSAII (Michael W. Deem and Ramdas Pophale) SiO2 
 PCOD9112741
Probable space group: P 2
;
_chemical_formula_sum "Si O2"
_cell_formula_units_Z 14
_cell_length_a 9.704729
_cell_length_b 15.401095
_cell_length_c 4.948477
_cell_angle_alpha 90.000000
_cell_angle_beta 58.725659
_cell_angle_gamma 90.000000
_cell_volume 632.143830
_symmetry_space_group_name_H-M "P 2"
_symmetry_group_IT_number 3
_symmetry_cell_setting 'monoclinic'
loop_
_space_group_symop_operation_xyz
x,y,z
-x,y,-z
loop_
_atom_site_type_symbol
_atom_site_label
_atom_site_fract_x
_atom_site_fract_y
_atom_site_fract_z
Si Si1 0.309900 0.493050 0.719320
Si Si2 0.195650 0.065871 0.785791
Si Si3 0.821600 0.793353 0.768473
Si Si4 0.195850 0.176048 0.290681
Si Si5 0.690701 0.606934 0.776357
Si Si6 0.889118 0.340515 0.357520
Si Si7 0.680530 0.874395 0.405393
O O1 0.500000 0.470929 0.500000
O O2 0.280305 0.575213 0.555588
O O3 0.203701 0.415890 0.706386
O O4 0.274714 0.526451 0.056396
O O5 0.272204 0.971575 0.730655
O O6 0.247009 0.102749 0.446176
O O7 0.000000 0.056828 0.000000
O O8 0.244542 0.139814 0.951691
O O9 0.786790 0.692869 0.747263
O O10 0.708434 0.852074 0.689910
O O11 0.000000 0.817681 0.500000
O O12 0.791807 0.812422 0.111011
O O13 0.231102 0.270596 0.379795
O O14 0.000000 0.177848 0.500000
O O15 0.500000 0.626241 0.000000
O O16 0.000000 0.369661 0.500000
O O17 0.000000 0.300147 0.000000
O O18 0.500000 0.855761 0.500000
#
# Coordination Sequence:
#
# PCOD9112741 Si02
#       7
#     2   2   2   2   2   2   2
#     4  10  22  39  60  86 121 163 202 246 307 372
#     4  10  19  35  59  84 114 154 201 247 296 357
#     4  12  25  42  65  94 124 160 210 259 306 366
#     4   9  18  33  56  84 114 151 195 247 302 354
#     4  10  21  39  61  86 120 162 204 249 309 370
#     4  11  21  36  60  90 120 155 205 256 306 363
#     4  12  25  42  64  92 128 165 203 252 315 376
#
# _framework density 22.146857000000001
#
# number of rings (size 3 to 8) (size 9 to 14) (size 15 to 20)
#    0.000    1.429    0.000    7.286    0.000    4.000 
#    0.000    0.714    0.000    5.143    0.000    0.000 
#    0.000    0.000    0.000    0.000    0.000    0.000 
#
# Total GULP energy -78233.920224 kJ/mol
# GULP energy per Si atom -5588.137159 kJ/mol
# Density = 2.209645 g / cm^3
# Si number density = 22.146857 Si / 1000 Ang^3
#
#
#
# Elastic Constant Matrix: (Units=GPa)
#
#
# Indices 1 2 3 4 5 6 
#
# 1 63.5994 15.8633 10.7100 0.0000 15.1868 0.0000
# 2 15.8633 61.8456 -10.7385 0.0000 -8.5225 0.0000
# 3 10.7100 -10.7385 50.4214 0.0000 16.7757 0.0000
# 4 0.0000 0.0000 0.0000 34.3451 0.0000 -2.8052
# 5 15.1868 -8.5225 16.7757 0.0000 25.5568 0.0000
# 6 0.0000 0.0000 0.0000 -2.8052 0.0000 54.2160
#
#
#
# Elastic Compliance Matrix: (Units=1/GPa)
#
#
# Indices 1 2 3 4 5 6 
#
# 1 0.021284 -0.007671 -0.001402 0.000000 -0.014286 0.000000
# 2 -0.007671 0.019908 0.002743 0.000000 0.009397 0.000000
# 3 -0.001402 0.002743 0.025759 0.000000 -0.015161 0.000000
# 4 0.000000 0.000000 0.000000 0.029240 0.000000 0.001513
# 5 -0.014286 0.009397 -0.015161 0.000000 0.060703 0.000000
# 6 0.000000 0.000000 0.000000 0.001513 0.000000 0.018523
#
#
# Mechanical properties :
#
#
# Convention : Reuss Voigt Hill
#
# Bulk Modulus (GPa) = 18.41925 23.05956 20.73941
# Shear Modulus (GPa) = 24.25126 33.49235 28.87181
#
# Velocity S-wave (km/s) = 3.31270 3.89303 3.61453
# Velocity P-wave (km/s) = 4.79238 5.53555 5.17731
#
# Compressibility (1/GPa) = 0.05429101
#
# Stress axis : x y z
#
# Youngs Moduli (GPa) = 46.98303 50.23051 38.82155
#
# Poissons Ratio (x) = 0.38534 0.05442
# Poissons Ratio (y) = 0.36043 -0.10648
# Poissons Ratio (z) = 0.06585 -0.13778
#
# Static dielectric constant tensor:
#      x y z
#    x 1.824940 0.000000 -0.009300 
#    y 0.000000 1.815370 0.000000 
#    z -0.009300 0.000000 1.786100 
# 
# From -- ./inp_files/1395.got.cif
#   From: 2010.05.17/outbox.cif.g08.bks.cpg/sg3_1_cif.got.tgz:1395.got - 2010.06.03 18:33:08.
