data_PCOD9112250
_publ_section_title
;
Structure prediction by ZEFSAII (Michael W. Deem and Ramdas Pophale) SiO2 
 PCOD9112250
Probable space group: P -1
;
_chemical_formula_sum "Si O2"
_cell_formula_units_Z 15
_cell_length_a 14.174666
_cell_length_b 6.277636
_cell_length_c 9.043061
_cell_angle_alpha 113.138746
_cell_angle_beta 73.481371
_cell_angle_gamma 127.378408
_cell_volume 586.842073
_symmetry_space_group_name_H-M "P -1"
_symmetry_group_IT_number 2
_symmetry_cell_setting 'triclinic'
loop_
_space_group_symop_operation_xyz
x,y,z
-x,-y,-z
loop_
_atom_site_type_symbol
_atom_site_label
_atom_site_fract_x
_atom_site_fract_y
_atom_site_fract_z
Si Si1 0.190086 0.132846 0.455005
Si Si2 0.750309 0.630367 0.816227
Si Si3 0.093603 0.781061 0.944965
Si Si4 0.500000 0.500000 0.000000
Si Si5 0.623812 0.916698 0.474855
Si Si6 0.513228 0.310404 0.238124
Si Si7 0.729690 0.347912 0.285377
Si Si8 0.065356 0.531707 0.326502
O O1 0.267056 0.308196 0.327888
O O2 0.259239 0.068607 0.525555
O O3 0.171301 0.346461 0.608842
O O4 0.094728 0.833435 0.347110
O O5 0.813398 0.460499 0.727800
O O6 0.627020 0.521558 0.923607
O O7 0.853814 0.921293 0.924796
O O8 0.208249 0.777509 0.858742
O O9 0.027084 0.726203 0.804606
O O10 0.000000 0.500000 0.000000
O O11 0.464029 0.264481 0.083494
O O12 0.538605 0.614965 0.352189
O O13 0.565834 0.903859 0.654390
O O14 0.655184 0.149323 0.403810
O O15 0.640519 0.358901 0.218354
O O16 0.000000 0.500000 0.500000
#
# Coordination Sequence:
#
# PCOD9112250 Si02
#       8
#     2   2   2   1   2   2   2   2
#     4  11  23  46  76 113 148 200 266 320 385 459
#     4  12  27  50  77 114 160 204 255 325 402 470
#     4  12  27  49  74 113 155 203 255 329 404 465
#     4  12  26  48  76 118 164 202 250 322 408 478
#     4  10  20  45  69 110 148 202 268 310 381 460
#     4  10  23  42  75 106 154 207 257 318 378 476
#     4  11  25  45  77 110 156 205 262 323 389 470
#     4  12  28  50  82 112 148 207 270 330 381 469
#
# _framework density 25.560538999999999
#
# number of rings (size 3 to 8) (size 9 to 14) (size 15 to 20)
#    0.000    0.800    2.667    4.000    3.733    2.133 
#    7.200    3.333    0.000    0.000    0.000    0.000 
#    0.000    0.000    0.000    0.000    0.000    0.000 
#
# Total GULP energy -83630.853870 kJ/mol
# GULP energy per Si atom -5575.390258 kJ/mol
# Density = 2.550236 g / cm^3
# Si number density = 25.560539 Si / 1000 Ang^3
#
#
#
# Elastic Constant Matrix: (Units=GPa)
#
#
# Indices 1 2 3 4 5 6 
#
# 1 142.1617 35.8844 39.8741 -8.4705 -12.1324 -6.7300
# 2 35.8844 92.4849 55.8438 16.8197 -9.3474 -1.3939
# 3 39.8741 55.8438 78.6586 8.7167 -11.6131 -1.6764
# 4 -8.4705 16.8197 8.7167 51.5051 2.2729 3.4213
# 5 -12.1324 -9.3474 -11.6131 2.2729 41.8401 -6.9414
# 6 -6.7300 -1.3939 -1.6764 3.4213 -6.9414 31.9966
#
#
#
# Elastic Compliance Matrix: (Units=1/GPa)
#
#
# Indices 1 2 3 4 5 6 
#
# 1 0.008705 -0.001688 -0.003236 0.002360 0.001393 0.001638
# 2 -0.001688 0.020145 -0.012788 -0.004763 0.000810 0.000538
# 3 -0.003236 -0.012788 0.023957 -0.000592 0.003008 0.000733
# 4 0.002360 -0.004763 -0.000592 0.021722 -0.002144 -0.002530
# 5 0.001393 0.000810 0.003008 -0.002144 0.026509 0.006466
# 6 0.001638 0.000538 0.000733 -0.002530 0.006466 0.033333
#
#
# Mechanical properties :
#
#
# Convention : Reuss Voigt Hill
#
# Bulk Modulus (GPa) = 57.51903 64.05665 60.78784
# Shear Modulus (GPa) = 28.47571 37.18189 32.82880
#
# Velocity S-wave (km/s) = 3.34136 3.81814 3.58768
# Velocity P-wave (km/s) = 6.11867 6.67478 6.40277
#
# Compressibility (1/GPa) = 0.01738555
#
# Stress axis : x y z
#
# Youngs Moduli (GPa) = 114.87994 49.64021 41.74075
#
# Poissons Ratio (x) = 0.08377 0.13506
# Poissons Ratio (y) = 0.19386 0.53376
# Poissons Ratio (z) = 0.37171 0.63478
#
# Static dielectric constant tensor:
#      x y z
#    x 2.008110 0.038440 0.029380 
#    y 0.038440 2.046970 0.069560 
#    z 0.029380 0.069560 2.215480 
# 
# From -- ./inp_files/289141.got.cif
#   From: 2010.05.17/outbox.cif.g08.bks.cpg/sg2_145_cif.got.tgz:289141.got - 2010.06.03 11:33:40.
