data_PCOD9112721
_publ_section_title
;
Structure prediction by ZEFSAII (Michael W. Deem and Ramdas Pophale) SiO2 
 PCOD9112721
Probable space group: P 2
;
_chemical_formula_sum "Si O2"
_cell_formula_units_Z 14
_cell_length_a 13.537447
_cell_length_b 5.446651
_cell_length_c 23.953807
_cell_angle_alpha 90.000000
_cell_angle_beta 160.998406
_cell_angle_gamma 90.000000
_cell_volume 575.066236
_symmetry_space_group_name_H-M "P 2"
_symmetry_group_IT_number 3
_symmetry_cell_setting 'monoclinic'
loop_
_space_group_symop_operation_xyz
x,y,z
-x,y,-z
loop_
_atom_site_type_symbol
_atom_site_label
_atom_site_fract_x
_atom_site_fract_y
_atom_site_fract_z
Si Si1 0.113895 0.152210 0.997228
Si Si2 0.873649 0.653898 0.870148
Si Si3 0.261069 0.400690 0.684259
Si Si4 0.308215 0.776038 0.515452
Si Si5 0.410879 0.754466 0.848972
Si Si6 0.307241 0.270325 0.452437
Si Si7 0.675910 0.256907 0.162637
O O1 0.466590 0.222556 0.187864
O O2 0.000000 0.128231 0.000000
O O3 0.952410 0.392258 0.885035
O O4 0.024319 0.893038 0.922393
O O5 0.516044 0.708623 0.679372
O O6 0.000000 0.631371 0.000000
O O7 0.409722 0.658227 0.784184
O O8 0.000000 0.423600 0.500000
O O9 0.148223 0.289948 0.683230
O O10 0.397899 0.041662 0.540332
O O11 0.951305 0.780495 0.334387
O O12 0.367365 0.546298 0.506185
O O13 0.520832 0.013004 0.932036
O O14 0.509061 0.512304 0.935921
O O15 0.500000 0.236419 0.500000
O O16 0.935528 0.246655 0.254688
#
# Coordination Sequence:
#
# PCOD9112721 Si02
#       7
#     2   2   2   2   2   2   2
#     4  10  23  36  50  78 111 156 205 231 275 339
#     4  10  22  36  55  75 116 162 194 231 277 346
#     4  10  22  34  55  79 113 153 194 242 293 336
#     4  10  19  35  56  83 119 148 191 237 291 349
#     4   8  18  31  50  74 106 141 182 226 283 321
#     4  10  19  34  59  89 116 145 186 252 307 343
#     4   8  18  32  47  77 110 137 175 224 285 343
#
# _framework density 24.345020999999999
#
# number of rings (size 3 to 8) (size 9 to 14) (size 15 to 20)
#    0.857    1.714    0.000    1.286    6.000    5.143 
#    0.000    0.000    0.000    0.000    0.000    6.000 
#    0.000    0.000    0.000    0.000    0.000    0.000 
#
# Total GULP energy -78012.555215 kJ/mol
# GULP energy per Si atom -5572.325373 kJ/mol
# Density = 2.428961 g / cm^3
# Si number density = 24.345021 Si / 1000 Ang^3
#
#
#
# Elastic Constant Matrix: (Units=GPa)
#
#
# Indices 1 2 3 4 5 6 
#
# 1 72.5929 1.2305 7.3183 0.0000 12.5383 0.0000
# 2 1.2305 223.3608 12.3203 0.0000 1.9429 0.0000
# 3 7.3183 12.3203 42.4464 0.0000 -6.7970 0.0000
# 4 0.0000 0.0000 0.0000 21.6288 0.0000 3.3460
# 5 12.5383 1.9429 -6.7970 0.0000 25.3314 0.0000
# 6 0.0000 0.0000 0.0000 3.3460 0.0000 22.3270
#
#
#
# Elastic Compliance Matrix: (Units=1/GPa)
#
#
# Indices 1 2 3 4 5 6 
#
# 1 0.015740 0.000223 -0.004210 0.000000 -0.008937 0.000000
# 2 0.000223 0.004566 -0.001502 0.000000 -0.000864 0.000000
# 3 -0.004210 -0.001502 0.026199 0.000000 0.009229 0.000000
# 4 0.000000 0.000000 0.000000 0.047332 0.000000 -0.007093
# 5 -0.008937 -0.000864 0.009229 0.000000 0.046443 0.000000
# 6 0.000000 0.000000 0.000000 -0.007093 0.000000 0.045852
#
#
# Mechanical properties :
#
#
# Convention : Reuss Voigt Hill
#
# Bulk Modulus (GPa) = 28.14725 42.23756 35.19241
# Shear Modulus (GPa) = 23.92901 35.02616 29.47759
#
# Velocity S-wave (km/s) = 3.13854 3.79719 3.48347
# Velocity P-wave (km/s) = 4.97201 6.05079 5.53773
#
# Compressibility (1/GPa) = 0.03552745
#
# Stress axis : x y z
#
# Youngs Moduli (GPa) = 63.53350 219.00034 38.16977
#
# Poissons Ratio (x) = -0.04889 0.16068
# Poissons Ratio (y) = -0.01418 0.05734
# Poissons Ratio (z) = 0.26746 0.32898
#
# Static dielectric constant tensor:
#      x y z
#    x 1.932650 0.000000 0.030610 
#    y 0.000000 2.119150 0.000000 
#    z 0.030610 0.000000 1.948720 
# 
# From -- ./inp_files/16540.got.cif
#   From: 2010.05.17/outbox.cif.g08.bks.cpg/sg3_9_cif.got.tgz:16540.got - 2010.06.03 18:33:08.
