data_PCOD9112023
_publ_section_title
;
Structure prediction by ZEFSAII (Michael W. Deem and Ramdas Pophale) SiO2 
 PCOD9112023
Probable space group: P -1
;
_chemical_formula_sum "Si O2"
_cell_formula_units_Z 16
_cell_length_a 8.866482
_cell_length_b 13.556257
_cell_length_c 20.537236
_cell_angle_alpha 20.346118
_cell_angle_beta 62.145952
_cell_angle_gamma 61.964905
_cell_volume 754.727283
_symmetry_space_group_name_H-M "P -1"
_symmetry_group_IT_number 2
_symmetry_cell_setting 'triclinic'
loop_
_space_group_symop_operation_xyz
x,y,z
-x,-y,-z
loop_
_atom_site_type_symbol
_atom_site_label
_atom_site_fract_x
_atom_site_fract_y
_atom_site_fract_z
Si Si1 0.681041 0.818641 0.090457
Si Si2 0.710499 0.975427 0.400137
Si Si3 0.981947 0.942869 0.174861
Si Si4 0.623118 0.415154 0.466453
Si Si5 0.524237 0.886735 0.741284
Si Si6 0.352481 0.614520 0.055783
Si Si7 0.052679 0.708268 0.447627
Si Si8 0.572252 0.412784 0.256181
O O1 0.673619 0.680482 0.249150
O O2 0.675964 0.578970 0.183779
O O3 0.500000 0.000000 0.000000
O O4 0.847150 0.985688 0.942029
O O5 0.661290 0.112972 0.255452
O O6 0.549601 0.797921 0.555059
O O7 0.883445 0.777030 0.481834
O O8 0.703706 0.219151 0.304046
O O9 0.034585 0.895967 0.269418
O O10 0.927360 0.629336 0.363095
O O11 0.824611 0.182396 0.041632
O O12 0.500000 0.500000 0.500000
O O13 0.548693 0.206763 0.558461
O O14 0.786268 0.237494 0.575506
O O15 0.653260 0.700353 0.781508
O O16 0.500773 0.734309 0.908562
O O17 0.434229 0.589442 0.126791
#
# Coordination Sequence:
#
# PCOD9112023 Si02
#       8
#     2   2   2   2   2   2   2   2
#     4  12  27  44  64  98 132 168 217 272 318 385
#     4  10  20  44  67  94 130 175 214 254 324 382
#     4  11  25  44  66  95 133 169 217 268 321 379
#     4  12  27  44  67  94 130 173 216 264 329 386
#     4  10  21  43  67  95 131 170 217 261 313 385
#     4  10  22  40  70  99 128 170 215 263 314 381
#     4  11  25  43  66  94 131 176 212 266 323 385
#     4  10  23  40  69  96 131 171 211 265 317 381
#
# _framework density 21.19971
#
# number of rings (size 3 to 8) (size 9 to 14) (size 15 to 20)
#    0.000    1.250    2.500    2.250    8.750    1.500 
#    0.000    2.500    0.000    0.000    0.000    0.000 
#    0.000    0.000    0.000    0.000    0.000    0.000 
#
# Total GULP energy -89278.265211 kJ/mol
# GULP energy per Si atom -5579.891576 kJ/mol
# Density = 2.115146 g / cm^3
# Si number density = 21.199710 Si / 1000 Ang^3
#
#
#
# Elastic Constant Matrix: (Units=GPa)
#
#
# Indices 1 2 3 4 5 6 
#
# 1 52.0885 32.8169 5.8087 3.0821 22.7108 -3.4565
# 2 32.8169 79.7891 16.2581 -2.4131 13.4864 -3.1084
# 3 5.8087 16.2581 74.2354 16.2060 13.9494 -2.8486
# 4 3.0821 -2.4131 16.2060 35.3506 -2.1312 8.2298
# 5 22.7108 13.4864 13.9494 -2.1312 36.5706 -3.8369
# 6 -3.4565 -3.1084 -2.8486 8.2298 -3.8369 39.4425
#
#
#
# Elastic Compliance Matrix: (Units=1/GPa)
#
#
# Indices 1 2 3 4 5 6 
#
# 1 0.035970 -0.012719 0.005650 -0.008350 -0.020043 0.002350
# 2 -0.012719 0.018309 -0.004696 0.004869 0.003146 -0.000721
# 3 0.005650 -0.004696 0.018095 -0.010280 -0.008995 0.002702
# 4 -0.008350 0.004869 -0.010280 0.036408 0.008609 -0.007850
# 5 -0.020043 0.003146 -0.008995 0.008609 0.042583 0.000188
# 6 0.002350 -0.000721 0.002702 -0.007850 0.000188 0.027354
#
#
# Mechanical properties :
#
#
# Convention : Reuss Voigt Hill
#
# Bulk Modulus (GPa) = 20.47352 35.09785 27.78569
# Shear Modulus (GPa) = 22.88025 32.35469 27.61747
#
# Velocity S-wave (km/s) = 3.28879 3.91088 3.61325
# Velocity P-wave (km/s) = 4.90917 6.08154 5.52653
#
# Compressibility (1/GPa) = 0.04884357
#
# Stress axis : x y z
#
# Youngs Moduli (GPa) = 27.80107 54.61927 55.26360
#
# Poissons Ratio (x) = 0.69469 -0.31225
# Poissons Ratio (y) = 0.35360 0.25954
# Poissons Ratio (z) = -0.15708 0.25651
#
# Static dielectric constant tensor:
#      x y z
#    x 1.714540 0.012790 0.007640 
#    y 0.012790 1.814800 -0.013740 
#    z 0.007640 -0.013740 1.844940 
# 
# From -- ./inp_files/590173.got.cif
#   From: 2010.05.17/outbox.cif.g08.bks.cpg/sg2_296_cif.got.tgz:590173.got - 2010.06.03 11:33:40.
