data_PCOD9112487
_publ_section_title
;
Structure prediction by ZEFSAII (Michael W. Deem and Ramdas Pophale) SiO2 
 PCOD9112487
Probable space group: P 2
;
_chemical_formula_sum "Si O2"
_cell_formula_units_Z 10
_cell_length_a 9.754531
_cell_length_b 5.629538
_cell_length_c 7.170277
_cell_angle_alpha 90.000000
_cell_angle_beta 109.059535
_cell_angle_gamma 90.000000
_cell_volume 372.159835
_symmetry_space_group_name_H-M "P 2"
_symmetry_group_IT_number 3
_symmetry_cell_setting 'monoclinic'
loop_
_space_group_symop_operation_xyz
x,y,z
-x,y,-z
loop_
_atom_site_type_symbol
_atom_site_label
_atom_site_fract_x
_atom_site_fract_y
_atom_site_fract_z
Si Si1 0.342007 0.866890 0.060839
Si Si2 0.140583 0.318382 0.354556
Si Si3 0.692604 0.369569 0.961299
Si Si4 0.427762 0.156944 0.670118
Si Si5 0.910836 0.820080 0.770287
O O1 0.293536 0.624762 0.942769
O O2 0.254241 0.849531 0.221449
O O3 0.291382 0.111655 0.939651
O O4 0.508809 0.921244 0.194916
O O5 0.204167 0.349954 0.172181
O O6 0.269096 0.253447 0.553618
O O7 0.076149 0.582593 0.347466
O O8 0.049457 0.074370 0.302701
O O9 0.527120 0.358109 0.812450
O O10 0.500000 0.130488 0.500000
O O11 0.000000 0.791113 0.000000
#
# Coordination Sequence:
#
# PCOD9112487 Si02
#       5
#     2   2   2   2   2
#     4   8  14  20  26  34  36  43  46  58  60  66
#     4   9  16  21  28  32  37  44  50  58  60  65
#     4   7  13  18  26  34  39  37  45  54  68  65
#     4   8  13  19  28  35  37  37  47  60  67  61
#     4  10  17  23  25  30  40  49  51  49  56  70
#
# _framework density 26.870173999999999
#
# number of rings (size 3 to 8) (size 9 to 14) (size 15 to 20)
#    1.200    2.400    2.000    0.600    2.800    0.800 
#    0.000    0.000    0.000    0.000    0.000    0.000 
#    0.000    0.000    0.000    0.000    0.000    0.000 
#
# Total GULP energy -55679.185587 kJ/mol
# GULP energy per Si atom -5567.918559 kJ/mol
# Density = 2.680902 g / cm^3
# Si number density = 26.870174 Si / 1000 Ang^3
#
#
#
# Elastic Constant Matrix: (Units=GPa)
#
#
# Indices 1 2 3 4 5 6 
#
# 1 72.3078 28.0395 30.6364 0.0000 -2.7912 0.0000
# 2 28.0395 313.7692 44.7159 0.0000 4.1050 0.0000
# 3 30.6364 44.7159 116.6655 0.0000 16.4067 0.0000
# 4 0.0000 0.0000 0.0000 25.8311 0.0000 12.3372
# 5 -2.7912 4.1050 16.4067 0.0000 38.8501 0.0000
# 6 0.0000 0.0000 0.0000 12.3372 0.0000 -29.4813
#
#
#
# Elastic Compliance Matrix: (Units=1/GPa)
#
#
# Indices 1 2 3 4 5 6 
#
# 1 0.016120 -0.000863 -0.004336 0.000000 0.003080 0.000000
# 2 -0.000863 0.003419 -0.001089 0.000000 0.000037 0.000000
# 3 -0.004336 -0.001089 0.010796 0.000000 -0.004756 0.000000
# 4 0.000000 0.000000 0.000000 0.032264 0.000000 0.013502
# 5 0.003080 0.000037 -0.004756 0.000000 0.027966 0.000000
# 6 0.000000 0.000000 0.000000 0.013502 0.000000 -0.028270
#
#
# Mechanical properties :
#
#
# Convention : Reuss Voigt Hill
#
# Bulk Modulus (GPa) = 56.30523 78.83622 67.57072
# Shear Modulus (GPa) = 61.88803 33.66338 47.77570
#
# Velocity S-wave (km/s) = 4.80440 3.54335 4.22123
# Velocity P-wave (km/s) = 7.19558 6.79293 6.99715
#
# Compressibility (1/GPa) = 0.01776034
#
# Stress axis : x y z
#
# Youngs Moduli (GPa) = 62.03365 292.49337 92.62504
#
# Poissons Ratio (x) = 0.25242 0.40159
# Poissons Ratio (y) = 0.05353 0.10086
# Poissons Ratio (z) = 0.26895 0.31850
#
# Static dielectric constant tensor:
#      x y z
#    x 2.353250 0.000000 -0.088660 
#    y 0.000000 2.156880 0.000000 
#    z -0.088660 0.000000 2.011200 
# 
# From -- ./inp_files/11092.got.cif
#   From: 2010.05.17/outbox.cif.g08.bks.cpg/sg3_6_cif.got.tgz:11092.got - 2010.06.03 18:33:08.
