data_PCOD9112029
_publ_section_title
;
Structure prediction by ZEFSAII (Michael W. Deem and Ramdas Pophale) SiO2 
 PCOD9112029
Probable space group: P -1
;
_chemical_formula_sum "Si O2"
_cell_formula_units_Z 16
_cell_length_a 19.113907
_cell_length_b 9.088590
_cell_length_c 7.652610
_cell_angle_alpha 94.005649
_cell_angle_beta 43.160921
_cell_angle_gamma 72.286366
_cell_volume 774.554733
_symmetry_space_group_name_H-M "P -1"
_symmetry_group_IT_number 2
_symmetry_cell_setting 'triclinic'
loop_
_space_group_symop_operation_xyz
x,y,z
-x,-y,-z
loop_
_atom_site_type_symbol
_atom_site_label
_atom_site_fract_x
_atom_site_fract_y
_atom_site_fract_z
Si Si1 0.547693 0.802777 0.354784
Si Si2 0.791589 0.907212 0.568866
Si Si3 0.671701 0.194546 0.102232
Si Si4 0.615014 0.472999 0.682069
Si Si5 0.401116 0.190474 0.123740
Si Si6 0.199076 0.904339 0.761586
Si Si7 0.714859 0.458778 0.131848
Si Si8 0.029050 0.861620 0.278163
O O1 0.458849 0.756823 0.602653
O O2 0.678276 0.650859 0.165388
O O3 0.500000 0.000000 0.500000
O O4 0.544023 0.792982 0.154817
O O5 0.722869 0.803425 0.681781
O O6 0.920400 0.838158 0.418031
O O7 0.799119 0.959525 0.360240
O O8 0.709860 0.067943 0.858860
O O9 0.747009 0.107899 0.139941
O O10 0.686456 0.353790 0.032782
O O11 0.624770 0.640309 0.712806
O O12 0.724179 0.277040 0.498699
O O13 0.630309 0.463848 0.443506
O O14 0.500000 0.500000 0.000000
O O15 0.500000 0.000000 0.000000
O O16 0.070820 0.932233 0.046095
O O17 0.853826 0.326039 0.909917
O O18 0.000000 0.000000 0.500000
#
# Coordination Sequence:
#
# PCOD9112029 Si02
#       8
#     2   2   2   2   2   2   2   2
#     4  12  23  38  60  93 133 169 214 268 344 394
#     4  12  22  40  70  94 131 177 216 273 343 382
#     4  10  21  40  62 100 129 165 216 277 328 398
#     4  10  21  39  61  89 133 167 211 275 323 394
#     4  12  25  40  61  96 133 173 217 275 339 401
#     4  10  23  39  66  98 127 171 224 270 330 391
#     4  10  23  40  65  94 128 171 221 274 326 390
#     4  10  20  44  67  97 132 169 231 280 314 396
#
# _framework density 20.657029000000001
#
# number of rings (size 3 to 8) (size 9 to 14) (size 15 to 20)
#    0.000    1.500    3.750    4.500    3.500    0.000 
#    0.000    3.125    0.000    0.000    0.000    0.000 
#    0.000    0.000    0.000    0.000    0.000    0.000 
#
# Total GULP energy -89099.524602 kJ/mol
# GULP energy per Si atom -5568.720288 kJ/mol
# Density = 2.061001 g / cm^3
# Si number density = 20.657029 Si / 1000 Ang^3
#
#
#
# Elastic Constant Matrix: (Units=GPa)
#
#
# Indices 1 2 3 4 5 6 
#
# 1 61.6237 25.9456 25.0119 5.7706 -9.2712 7.5063
# 2 25.9456 81.8776 22.1161 14.9914 -9.3258 5.3342
# 3 25.0119 22.1161 111.3795 -9.0082 -5.1643 -1.1213
# 4 5.7706 14.9914 -9.0082 18.5502 6.3651 0.7669
# 5 -9.2712 -9.3258 -5.1643 6.3651 38.1340 -3.4059
# 6 7.5063 5.3342 -1.1213 0.7669 -3.4059 42.4610
#
#
#
# Elastic Compliance Matrix: (Units=1/GPa)
#
#
# Indices 1 2 3 4 5 6 
#
# 1 0.021274 -0.003405 -0.004523 -0.007563 0.004727 -0.002937
# 2 -0.003405 0.018397 -0.004060 -0.017797 0.006002 -0.001014
# 3 -0.004523 -0.004060 0.011601 0.011044 -0.002255 0.001236
# 4 -0.007563 -0.017797 0.011044 0.082264 -0.018346 0.000907
# 5 0.004727 0.006002 -0.002255 -0.018346 0.031707 0.001225
# 6 -0.002937 -0.001014 0.001236 0.000907 0.001225 0.024312
#
#
# Mechanical properties :
#
#
# Convention : Reuss Voigt Hill
#
# Bulk Modulus (GPa) = 36.63488 44.55867 40.59678
# Shear Modulus (GPa) = 22.45869 31.94951 27.20410
#
# Velocity S-wave (km/s) = 3.30088 3.93703 3.63291
# Velocity P-wave (km/s) = 5.68340 6.50265 6.10678
#
# Compressibility (1/GPa) = 0.02729639
#
# Stress axis : x y z
#
# Youngs Moduli (GPa) = 47.00500 54.35631 86.19658
#
# Poissons Ratio (x) = 0.18509 0.38991
# Poissons Ratio (y) = 0.16005 0.34993
# Poissons Ratio (z) = 0.21262 0.22067
#
# Static dielectric constant tensor:
#      x y z
#    x -3.471140 -0.671800 -2.150000 
#    y -0.671800 1.709140 -0.203630 
#    z -2.150000 -0.203630 0.928390 
# 
# From -- ./inp_files/342801.got.cif
#   From: 2010.05.17/outbox.cif.g08.bks.cpg/sg2_172_cif.got.tgz:342801.got - 2010.06.03 11:33:40.
