data_PCOD9112339
_publ_section_title
;
Structure prediction by ZEFSAII (Michael W. Deem and Ramdas Pophale) SiO2 
 PCOD9112339
Probable space group: P -1
;
_chemical_formula_sum "Si O2"
_cell_formula_units_Z 15
_cell_length_a 9.361789
_cell_length_b 17.647549
_cell_length_c 6.335315
_cell_angle_alpha 75.269352
_cell_angle_beta 129.733869
_cell_angle_gamma 123.471139
_cell_volume 663.506517
_symmetry_space_group_name_H-M "P -1"
_symmetry_group_IT_number 2
_symmetry_cell_setting 'triclinic'
loop_
_space_group_symop_operation_xyz
x,y,z
-x,-y,-z
loop_
_atom_site_type_symbol
_atom_site_label
_atom_site_fract_x
_atom_site_fract_y
_atom_site_fract_z
Si Si1 0.063471 0.337435 0.054025
Si Si2 0.484248 0.372129 0.653030
Si Si3 0.090319 0.962727 0.789295
Si Si4 0.474723 0.084181 0.344018
Si Si5 0.628033 0.797652 0.593228
Si Si6 0.835681 0.168252 0.281407
Si Si7 0.226396 0.280785 0.862513
Si Si8 0.000000 0.500000 0.000000
O O1 0.312423 0.381882 0.341329
O O2 0.917278 0.252317 0.135446
O O3 0.083139 0.304789 0.862946
O O4 0.981041 0.407212 0.940548
O O5 0.451776 0.273821 0.622140
O O6 0.392162 0.362338 0.808541
O O7 0.733596 0.447007 0.806386
O O8 0.227938 0.924221 0.836974
O O9 0.881278 0.872950 0.747494
O O10 0.000000 0.000000 0.500000
O O11 0.235672 0.037024 0.047740
O O12 0.491613 0.147841 0.509350
O O13 0.645005 0.145473 0.280349
O O14 0.500000 0.000000 0.500000
O O15 0.629163 0.744549 0.840662
O O16 0.050368 0.198791 0.606068
#
# Coordination Sequence:
#
# PCOD9112339 Si02
#       8
#     2   2   2   2   2   2   2   1
#     4  10  24  46  70  99 141 179 227 285 350 427
#     4  10  24  46  71  99 136 178 226 290 345 425
#     4  12  23  43  67  97 137 186 234 284 335 412
#     4  12  27  39  67 105 140 179 240 293 336 410
#     4  11  23  44  67  95 137 186 230 272 356 414
#     4  11  23  43  66  99 141 180 224 287 351 396
#     4  10  20  46  73  91 131 195 216 274 352 423
#     4  12  26  42  76 106 134 168 232 292 348 416
#
# _framework density 22.607164000000001
#
# number of rings (size 3 to 8) (size 9 to 14) (size 15 to 20)
#    0.000    1.067    4.000    3.600    3.733    0.533 
#    0.000    6.667    0.000    0.000    0.000    0.000 
#    0.000    0.000    0.000    0.000    0.000    0.000 
#
# Total GULP energy -83634.890575 kJ/mol
# GULP energy per Si atom -5575.659372 kJ/mol
# Density = 2.255571 g / cm^3
# Si number density = 22.607164 Si / 1000 Ang^3
#
#
#
# Elastic Constant Matrix: (Units=GPa)
#
#
# Indices 1 2 3 4 5 6 
#
# 1 130.8288 46.7558 9.7693 7.9355 -7.0591 -6.2307
# 2 46.7558 63.4676 17.5083 19.3394 -0.0857 -20.4947
# 3 9.7693 17.5083 62.8838 1.3745 -5.6098 11.4627
# 4 7.9355 19.3394 1.3745 9.5226 2.1542 23.3106
# 5 -7.0591 -0.0857 -5.6098 2.1542 30.5570 13.7797
# 6 -6.2307 -20.4947 11.4627 23.3106 13.7797 57.9878
#
#
#
# Elastic Compliance Matrix: (Units=1/GPa)
#
#
# Indices 1 2 3 4 5 6 
#
# 1 0.009660 -0.003531 -0.000739 -0.008066 0.001368 0.002853
# 2 -0.003531 0.001924 0.002408 0.035454 0.004075 -0.015396
# 3 -0.000739 0.002408 0.015210 -0.015968 0.002091 0.003687
# 4 -0.008066 0.035454 -0.015968 -0.043616 -0.018156 0.036668
# 5 0.001368 0.004075 0.002091 -0.018156 0.034605 0.000249
# 6 0.002853 -0.015396 0.003687 0.036668 0.000249 -0.003418
#
#
# Mechanical properties :
#
#
# Convention : Reuss Voigt Hill
#
# Bulk Modulus (GPa) = 43.34868 45.02743 44.18805
# Shear Modulus (GPa) = 193.95689 31.82327 112.89008
#
# Velocity S-wave (km/s) = 9.27258 3.75595 7.07417
# Velocity P-wave (km/s) = 11.56967 6.22657 9.29052
#
# Compressibility (1/GPa) = 0.02306876
#
# Stress axis : x y z
#
# Youngs Moduli (GPa) = 103.52285 519.77655 65.74490
#
# Poissons Ratio (x) = 1.83543 0.04861
# Poissons Ratio (y) = 0.36556 -0.15831
# Poissons Ratio (z) = 0.07654 -1.25159
#
# Static dielectric constant tensor:
#      x y z
#    x 1.528820 -0.510270 0.386910 
#    y -0.510270 1.021180 0.610050 
#    z 0.386910 0.610050 1.358540 
# 
# From -- ./inp_files/43916.got.cif
#   From: 2010.05.17/outbox.cif.g08.bks.cpg/sg2_22_cif.got.tgz:43916.got - 2010.06.03 11:33:40.
