data_PCOD9112168
_publ_section_title
;
Structure prediction by ZEFSAII (Michael W. Deem and Ramdas Pophale) SiO2 
 PCOD9112168
Probable space group: P -1
;
_chemical_formula_sum "Si O2"
_cell_formula_units_Z 14
_cell_length_a 9.140981
_cell_length_b 17.532483
_cell_length_c 9.634347
_cell_angle_alpha 141.123888
_cell_angle_beta 101.197280
_cell_angle_gamma 108.831945
_cell_volume 606.767001
_symmetry_space_group_name_H-M "P -1"
_symmetry_group_IT_number 2
_symmetry_cell_setting 'triclinic'
loop_
_space_group_symop_operation_xyz
x,y,z
-x,-y,-z
loop_
_atom_site_type_symbol
_atom_site_label
_atom_site_fract_x
_atom_site_fract_y
_atom_site_fract_z
Si Si1 0.898581 0.565482 0.892103
Si Si2 0.820164 0.697510 0.460380
Si Si3 0.726272 0.241880 0.521041
Si Si4 0.530675 0.723870 0.290954
Si Si5 0.557477 0.619440 0.548694
Si Si6 0.709878 0.981779 0.171695
Si Si7 0.717586 0.044095 0.582280
O O1 0.825460 0.378121 0.600813
O O2 0.672904 0.511736 0.777947
O O3 0.060239 0.658904 0.192899
O O4 0.059746 0.727827 0.035292
O O5 0.691416 0.722442 0.385168
O O6 0.775560 0.707063 0.624700
O O7 0.077007 0.862010 0.676256
O O8 0.683275 0.484714 0.112807
O O9 0.575582 0.251118 0.580737
O O10 0.576623 0.025416 0.184684
O O11 0.675340 0.901786 0.468465
O O12 0.500000 0.500000 0.500000
O O13 0.605311 0.786532 0.841470
O O14 0.750600 0.010110 0.385082
O O15 0.500000 0.000000 0.500000
#
# Coordination Sequence:
#
# PCOD9112168 Si02
#       7
#     2   2   2   2   2   2   2
#     4  10  21  40  70  95 130 176 218 278 328 390
#     4  11  25  42  69  99 132 183 224 271 337 400
#     4  10  20  44  72  98 127 168 236 283 322 388
#     4  11  21  40  72 101 132 167 231 288 326 386
#     4  12  27  47  63  99 148 179 218 269 344 414
#     4  11  25  43  69  99 136 184 219 275 338 402
#     4  11  22  40  71 103 131 167 229 286 333 380
#
# _framework density 23.073107
#
# number of rings (size 3 to 8) (size 9 to 14) (size 15 to 20)
#    0.000    1.143    4.286    3.857    6.000    1.143 
#    0.000    0.714    0.000    0.000    0.000    0.000 
#    0.000    0.000    0.000    0.000    0.000    0.000 
#
# Total GULP energy -78095.754794 kJ/mol
# GULP energy per Si atom -5578.268200 kJ/mol
# Density = 2.302059 g / cm^3
# Si number density = 23.073107 Si / 1000 Ang^3
#
#
#
# Elastic Constant Matrix: (Units=GPa)
#
#
# Indices 1 2 3 4 5 6 
#
# 1 70.7294 24.2421 20.1568 7.1174 -21.9880 5.2939
# 2 24.2421 157.3643 47.1378 48.1805 -14.2895 -9.1478
# 3 20.1568 47.1378 95.5684 42.4970 -42.6419 -6.7597
# 4 7.1174 48.1805 42.4970 47.7772 -12.6456 -9.4318
# 5 -21.9880 -14.2895 -42.6419 -12.6456 42.9718 5.9139
# 6 5.2939 -9.1478 -6.7597 -9.4318 5.9139 37.0112
#
#
#
# Elastic Compliance Matrix: (Units=1/GPa)
#
#
# Indices 1 2 3 4 5 6 
#
# 1 0.018307 -0.002779 0.002041 0.000307 0.011198 -0.004644
# 2 -0.002779 0.009644 -0.001166 -0.008675 -0.002018 0.000680
# 3 0.002041 -0.001166 0.031213 -0.020846 0.026096 -0.004361
# 4 0.000307 -0.008675 -0.020846 0.046860 -0.010677 0.007652
# 5 0.011198 -0.002018 0.026096 -0.010677 0.052240 -0.008403
# 6 -0.004644 0.000680 -0.004361 0.007652 -0.008403 0.030347
#
#
# Mechanical properties :
#
#
# Convention : Reuss Voigt Hill
#
# Bulk Modulus (GPa) = 18.06416 56.30395 37.18406
# Shear Modulus (GPa) = 23.71123 41.02705 32.36914
#
# Velocity S-wave (km/s) = 3.20919 4.22137 3.74959
# Velocity P-wave (km/s) = 4.64520 6.94372 5.90734
#
# Compressibility (1/GPa) = 0.05535822
#
# Stress axis : x y z
#
# Youngs Moduli (GPa) = 54.62387 103.69035 32.03756
#
# Poissons Ratio (x) = 0.28811 -0.06539
# Poissons Ratio (y) = 0.15177 0.03734
# Poissons Ratio (z) = -0.11149 0.12086
#
# Static dielectric constant tensor:
#      x y z
#    x 1.887600 0.020860 0.033440 
#    y 0.020860 1.918550 -0.034970 
#    z 0.033440 -0.034970 2.066530 
# 
# From -- ./inp_files/405105.got.cif
#   From: 2010.05.17/outbox.cif.g08.bks.cpg/sg2_203_cif.got.tgz:405105.got - 2010.06.03 11:33:40.
