data_PCOD9112433
_publ_section_title
;
Structure prediction by ZEFSAII (Michael W. Deem and Ramdas Pophale) SiO2 
 PCOD9112433
Probable space group: P -1
;
_chemical_formula_sum "Si O2"
_cell_formula_units_Z 16
_cell_length_a 15.653451
_cell_length_b 10.008103
_cell_length_c 8.999167
_cell_angle_alpha 104.725900
_cell_angle_beta 153.465247
_cell_angle_gamma 83.256312
_cell_volume 589.068228
_symmetry_space_group_name_H-M "P -1"
_symmetry_group_IT_number 2
_symmetry_cell_setting 'triclinic'
loop_
_space_group_symop_operation_xyz
x,y,z
-x,-y,-z
loop_
_atom_site_type_symbol
_atom_site_label
_atom_site_fract_x
_atom_site_fract_y
_atom_site_fract_z
Si Si1 0.427645 0.184014 0.705976
Si Si2 0.091856 0.995654 0.926844
Si Si3 0.368227 0.053297 0.090791
Si Si4 0.215692 0.749216 0.162507
Si Si5 0.324945 0.304133 0.887939
Si Si6 0.126360 0.422280 0.845329
Si Si7 0.935122 0.261252 0.761257
Si Si8 0.370671 0.407328 0.484353
O O1 0.235540 0.078776 0.303811
O O2 0.370036 0.262060 0.780543
O O3 0.493231 0.305715 0.717548
O O4 0.573594 0.082849 0.929443
O O5 0.205778 0.004809 0.951075
O O6 0.946352 0.098401 0.710769
O O7 0.057165 0.834320 0.883921
O O8 0.568497 0.148676 0.507761
O O9 0.304124 0.157902 0.905016
O O10 0.171464 0.590557 0.986334
O O11 0.211814 0.740934 0.334010
O O12 0.152252 0.371619 0.706193
O O13 0.515080 0.433733 0.259062
O O14 0.938685 0.339104 0.629107
O O15 0.308411 0.380911 0.208163
O O16 0.146336 0.356959 0.184449
#
# Coordination Sequence:
#
# PCOD9112433 Si02
#       8
#     2   2   2   2   2   2   2   2
#     4  10  21  33  54  82 112 140 176 220 273 318
#     4  10  21  37  58  81 109 137 184 227 259 316
#     4  11  21  37  56  85 106 137 186 228 257 317
#     4  11  20  32  59  86 103 140 180 227 266 309
#     4  12  20  34  54  84 113 142 170 227 275 310
#     4  10  21  32  57  79 112 134 185 217 266 313
#     4   9  19  36  55  83 106 137 182 225 265 312
#     4   9  20  35  52  80 108 141 177 219 264 319
#
# _framework density 27.161539000000001
#
# number of rings (size 3 to 8) (size 9 to 14) (size 15 to 20)
#    0.750    1.000    2.500    3.375    5.250    0.000 
#    0.000    0.000    0.000    6.000   19.500    0.000 
#    0.000    0.000    0.000    0.000    0.000    0.000 
#
# Total GULP energy -89536.571055 kJ/mol
# GULP energy per Si atom -5596.035691 kJ/mol
# Density = 2.709972 g / cm^3
# Si number density = 27.161539 Si / 1000 Ang^3
#
#
#
# Elastic Constant Matrix: (Units=GPa)
#
#
# Indices 1 2 3 4 5 6 
#
# 1 152.6912 67.9363 25.0625 19.1212 -16.8176 -23.8636
# 2 67.9363 177.8571 22.0399 22.7798 5.1420 -3.8970
# 3 25.0625 22.0399 52.8565 20.3716 -7.6700 -2.6120
# 4 19.1212 22.7798 20.3716 41.8993 -8.6477 -5.3213
# 5 -16.8176 5.1420 -7.6700 -8.6477 28.4363 8.1208
# 6 -23.8636 -3.8970 -2.6120 -5.3213 8.1208 42.0737
#
#
#
# Elastic Compliance Matrix: (Units=1/GPa)
#
#
# Indices 1 2 3 4 5 6 
#
# 1 0.009579 -0.003424 -0.002276 0.000050 0.004512 0.004110
# 2 -0.003424 0.007555 -0.001024 -0.003054 -0.004353 -0.000852
# 3 -0.002276 -0.001024 0.024613 -0.009983 0.002923 -0.001684
# 4 0.000050 -0.003054 -0.009983 0.032057 0.007122 0.001805
# 5 0.004512 -0.004353 0.002923 0.007122 0.043023 -0.005066
# 6 0.004110 -0.000852 -0.001684 0.001805 -0.005066 0.027122
#
#
# Mechanical properties :
#
#
# Convention : Reuss Voigt Hill
#
# Bulk Modulus (GPa) = 35.33337 68.16469 51.74903
# Shear Modulus (GPa) = 29.97066 40.37295 35.17180
#
# Velocity S-wave (km/s) = 3.32538 3.85957 3.60239
# Velocity P-wave (km/s) = 5.27078 6.70912 6.03296
#
# Compressibility (1/GPa) = 0.02830186
#
# Stress axis : x y z
#
# Youngs Moduli (GPa) = 104.39430 132.35525 40.62820
#
# Poissons Ratio (x) = 0.45314 0.09246
# Poissons Ratio (y) = 0.35741 0.04159
# Poissons Ratio (z) = 0.23757 0.13549
#
# Static dielectric constant tensor:
#      x y z
#    x 2.117780 0.026640 0.057470 
#    y 0.026640 2.104210 -0.053420 
#    z 0.057470 -0.053420 2.199000 
# 
# From -- ./inp_files/303774.got.cif
#   From: 2010.05.17/outbox.cif.g08.bks.cpg/sg2_152_cif.got.tgz:303774.got - 2010.06.03 11:33:40.
