data_PCOD9112235
_publ_section_title
;
Structure prediction by ZEFSAII (Michael W. Deem and Ramdas Pophale) SiO2 
 PCOD9112235
Probable space group: P -1
;
_chemical_formula_sum "Si O2"
_cell_formula_units_Z 16
_cell_length_a 5.134980
_cell_length_b 11.089252
_cell_length_c 11.774580
_cell_angle_alpha 86.468036
_cell_angle_beta 89.946135
_cell_angle_gamma 95.859174
_cell_volume 665.693703
_symmetry_space_group_name_H-M "P -1"
_symmetry_group_IT_number 2
_symmetry_cell_setting 'triclinic'
loop_
_space_group_symop_operation_xyz
x,y,z
-x,-y,-z
loop_
_atom_site_type_symbol
_atom_site_label
_atom_site_fract_x
_atom_site_fract_y
_atom_site_fract_z
Si Si1 0.628283 0.289261 0.950252
Si Si2 0.317397 0.105804 0.470199
Si Si3 0.723851 0.313674 0.526483
Si Si4 0.532350 0.593052 0.285969
Si Si5 0.970778 0.745882 0.683129
Si Si6 0.046670 0.176698 0.682044
Si Si7 0.566537 0.348057 0.198257
Si Si8 0.088243 0.126323 0.933948
O O1 0.591200 0.360894 0.062381
O O2 0.614770 0.367416 0.830299
O O3 0.385989 0.182557 0.951361
O O4 0.898055 0.228514 0.959519
O O5 0.492381 0.236399 0.464829
O O6 0.133677 0.126878 0.361762
O O7 0.141572 0.105191 0.580851
O O8 0.500000 0.000000 0.500000
O O9 0.638529 0.422694 0.596810
O O10 0.955978 0.319302 0.433392
O O11 0.780675 0.222728 0.635418
O O12 0.758625 0.700639 0.305977
O O13 0.656171 0.471759 0.258243
O O14 0.734212 0.681895 0.761657
O O15 0.236466 0.748886 0.756095
O O16 0.041635 0.106358 0.801670
O O17 0.000000 0.000000 0.000000
#
# Coordination Sequence:
#
# PCOD9112235 Si02
#       8
#     2   2   2   2   2   2   2   2
#     4  11  24  46  67 101 135 173 233 268 322 416
#     4  10  22  44  70  95 133 181 222 273 339 397
#     4  10  20  45  66  96 133 173 229 273 315 414
#     4  10  23  42  72  93 132 184 225 270 335 390
#     4  11  25  44  63 101 139 167 227 274 335 396
#     4   9  21  40  65 102 129 170 232 274 315 416
#     4  12  26  44  66 101 141 177 214 285 338 383
#     4  11  23  44  70  99 134 174 218 280 341 380
#
# _framework density 24.035077000000001
#
# number of rings (size 3 to 8) (size 9 to 14) (size 15 to 20)
#    0.000    1.500    2.500    1.500    1.750    4.000 
#    6.750    3.125    0.000    0.000    0.000    0.000 
#    0.000    0.000    0.000    0.000    0.000    0.000 
#
# Total GULP energy -89384.683762 kJ/mol
# GULP energy per Si atom -5586.542735 kJ/mol
# Density = 2.398037 g / cm^3
# Si number density = 24.035077 Si / 1000 Ang^3
#
#
#
# Elastic Constant Matrix: (Units=GPa)
#
#
# Indices 1 2 3 4 5 6 
#
# 1 81.0692 2.4873 19.0926 -5.7844 -2.4380 -5.5709
# 2 2.4873 57.2524 6.0084 -1.9701 -0.3559 -11.2342
# 3 19.0926 6.0084 82.5179 5.1947 -5.4566 -19.1874
# 4 -5.7844 -1.9701 5.1947 30.2823 -1.7214 -2.2177
# 5 -2.4380 -0.3559 -5.4566 -1.7214 34.5267 0.2580
# 6 -5.5709 -11.2342 -19.1874 -2.2177 0.2580 29.2827
#
#
#
# Elastic Compliance Matrix: (Units=1/GPa)
#
#
# Indices 1 2 3 4 5 6 
#
# 1 0.013355 0.000005 -0.003072 0.003169 0.000610 0.000765
# 2 0.000005 0.018991 0.000293 0.001759 0.000273 0.007609
# 3 -0.003072 0.000293 0.015260 -0.002388 0.002009 0.009329
# 4 0.003169 0.001759 -0.002388 0.034410 0.001563 0.002305
# 5 0.000610 0.000273 0.002009 0.001563 0.029394 0.001397
# 6 0.000765 0.007609 0.009329 0.002305 0.001397 0.043490
#
#
# Mechanical properties :
#
#
# Convention : Reuss Voigt Hill
#
# Bulk Modulus (GPa) = 23.77640 30.66847 27.22243
# Shear Modulus (GPa) = 28.65860 31.70174 30.18017
#
# Velocity S-wave (km/s) = 3.45681 3.63571 3.54739
# Velocity P-wave (km/s) = 5.08395 5.51472 5.30371
#
# Compressibility (1/GPa) = 0.04205851
#
# Stress axis : x y z
#
# Youngs Moduli (GPa) = 74.87593 52.65665 65.52925
#
# Poissons Ratio (x) = -0.00026 0.20130
# Poissons Ratio (y) = -0.00038 -0.01918
# Poissons Ratio (z) = 0.23001 -0.01542
#
# Static dielectric constant tensor:
#      x y z
#    x 2.005400 -0.052030 -0.003950 
#    y -0.052030 1.995670 0.003620 
#    z -0.003950 0.003620 1.948110 
# 
# From -- ./inp_files/123710.got.cif
#   From: 2010.05.17/outbox.cif.g08.bks.cpg/sg2_62_cif.got.tgz:123710.got - 2010.06.03 11:33:40.
