data_PCOD9112346
_publ_section_title
;
Structure prediction by ZEFSAII (Michael W. Deem and Ramdas Pophale) SiO2 
 PCOD9112346
Probable space group: P -1
;
_chemical_formula_sum "Si O2"
_cell_formula_units_Z 13
_cell_length_a 16.175776
_cell_length_b 8.347495
_cell_length_c 12.399375
_cell_angle_alpha 130.131094
_cell_angle_beta 23.908724
_cell_angle_gamma 128.013306
_cell_volume 516.877648
_symmetry_space_group_name_H-M "P -1"
_symmetry_group_IT_number 2
_symmetry_cell_setting 'triclinic'
loop_
_space_group_symop_operation_xyz
x,y,z
-x,-y,-z
loop_
_atom_site_type_symbol
_atom_site_label
_atom_site_fract_x
_atom_site_fract_y
_atom_site_fract_z
Si Si1 0.500000 0.500000 0.500000
Si Si2 0.613509 0.896038 0.418345
Si Si3 0.822965 0.128352 0.448784
Si Si4 0.778677 0.582209 0.924309
Si Si5 0.461808 0.318843 0.085052
Si Si6 0.215568 0.289321 0.570511
Si Si7 0.020872 0.251564 0.580810
O O1 0.495113 0.762861 0.597566
O O2 0.327976 0.450996 0.588429
O O3 0.500000 0.000000 0.500000
O O4 0.767056 0.072969 0.367880
O O5 0.723495 0.704287 0.150574
O O6 0.618991 0.198202 0.777819
O O7 0.015696 0.294152 0.308965
O O8 0.877701 0.912527 0.343121
O O9 0.837834 0.350574 0.784002
O O10 0.578431 0.544429 0.073512
O O11 0.386043 0.227511 0.252672
O O12 0.239968 0.325430 0.298102
O O13 0.045479 0.352464 0.715462
O O14 0.000000 0.000000 0.500000
#
# Coordination Sequence:
#
# PCOD9112346 Si02
#       7
#     1   2   2   2   2   2   2
#     4  10  20  46  78  98 140 208 238 298 382 436
#     4  11  26  48  74 107 151 198 252 311 370 444
#     4  11  24  43  73 109 143 198 245 301 387 435
#     4  12  25  46  72 107 154 189 246 314 365 451
#     4  10  23  45  74  98 152 187 241 317 363 442
#     4   9  21  43  70 103 144 189 247 299 369 441
#     4  10  24  42  75 108 143 190 244 308 368 437
#
# _framework density 25.151019999999999
#
# number of rings (size 3 to 8) (size 9 to 14) (size 15 to 20)
#    0.923    0.615    1.538    2.308    6.462    0.615 
#    8.308    1.538    0.000    0.000    0.000    0.000 
#    0.000    0.000    0.000    0.000    0.000    0.000 
#
# Total GULP energy -72379.109727 kJ/mol
# GULP energy per Si atom -5567.623825 kJ/mol
# Density = 2.509378 g / cm^3
# Si number density = 25.151020 Si / 1000 Ang^3
#
#
#
# Elastic Constant Matrix: (Units=GPa)
#
#
# Indices 1 2 3 4 5 6 
#
# 1 89.3852 37.8826 -1.4330 -11.3660 -13.7445 20.3449
# 2 37.8826 113.9791 22.0573 -9.9157 -20.7166 13.4263
# 3 -1.4330 22.0573 69.5111 -7.4831 -5.9800 15.8494
# 4 -11.3660 -9.9157 -7.4831 30.1625 10.0762 1.9329
# 5 -13.7445 -20.7166 -5.9800 10.0762 31.7347 4.8787
# 6 20.3449 13.4263 15.8494 1.9329 4.8787 42.4136
#
#
#
# Elastic Compliance Matrix: (Units=1/GPa)
#
#
# Indices 1 2 3 4 5 6 
#
# 1 0.016457 -0.003888 0.004666 0.004890 0.005337 -0.009243
# 2 -0.003888 0.011851 -0.003043 -0.000153 0.005743 -0.001403
# 3 0.004666 -0.003043 0.018220 0.004732 0.003299 -0.008679
# 4 0.004890 -0.000153 0.004732 0.039388 -0.008852 -0.004842
# 5 0.005337 0.005743 0.003299 -0.008852 0.042557 -0.010103
# 6 -0.009243 -0.001403 -0.008679 -0.004842 -0.010103 0.033081
#
#
# Mechanical properties :
#
#
# Convention : Reuss Voigt Hill
#
# Bulk Modulus (GPa) = 23.81130 43.32102 33.56616
# Shear Modulus (GPa) = 27.76503 35.15338 31.45920
#
# Velocity S-wave (km/s) = 3.32615 3.74263 3.54052
# Velocity P-wave (km/s) = 4.92331 5.99484 5.48530
#
# Compressibility (1/GPa) = 0.04199688
#
# Stress axis : x y z
#
# Youngs Moduli (GPa) = 60.76581 84.38449 54.88412
#
# Poissons Ratio (x) = 0.32812 -0.25611
# Poissons Ratio (y) = 0.23628 0.16702
# Poissons Ratio (z) = -0.28355 0.25680
#
# Static dielectric constant tensor:
#      x y z
#    x 2.185670 -0.192660 0.204810 
#    y -0.192660 2.179960 -0.235430 
#    z 0.204810 -0.235430 2.240280 
# 
# From -- ./inp_files/365561.got.cif
#   From: 2010.05.17/outbox.cif.g08.bks.cpg/sg2_183_cif.got.tgz:365561.got - 2010.06.03 11:33:40.
