data_PCOD9112765
_publ_section_title
;
Structure prediction by ZEFSAII (Michael W. Deem and Ramdas Pophale) SiO2 
 PCOD9112765
Probable space group: P 2
;
_chemical_formula_sum "Si O2"
_cell_formula_units_Z 12
_cell_length_a 13.012975
_cell_length_b 5.523532
_cell_length_c 23.882552
_cell_angle_alpha 90.000000
_cell_angle_beta 16.853069
_cell_angle_gamma 90.000000
_cell_volume 497.679710
_symmetry_space_group_name_H-M "P 2"
_symmetry_group_IT_number 3
_symmetry_cell_setting 'monoclinic'
loop_
_space_group_symop_operation_xyz
x,y,z
-x,y,-z
loop_
_atom_site_type_symbol
_atom_site_label
_atom_site_fract_x
_atom_site_fract_y
_atom_site_fract_z
Si Si1 0.551868 0.881060 0.039114
Si Si2 0.262445 0.881061 0.500202
Si Si3 0.519645 0.381059 0.910938
Si Si4 0.588711 0.881086 0.205471
Si Si5 0.657445 0.381093 0.715680
Si Si6 0.707703 0.381061 0.450797
O O1 0.712858 0.622822 0.968638
O O2 0.164959 0.881062 0.269688
O O3 0.712858 0.139297 0.968639
O O4 0.500000 0.881063 0.000000
O O5 0.379542 0.881065 0.374088
O O6 0.378785 0.631569 0.470740
O O7 0.378786 0.130552 0.470740
O O8 0.731232 0.381066 0.742417
O O9 0.849811 0.381059 0.783159
O O10 0.519022 0.634911 0.208064
O O11 0.518999 0.127278 0.208084
O O12 0.000000 0.881089 0.000000
O O13 0.000000 0.381118 0.500000
O O14 0.500000 0.381062 0.500000
#
# Coordination Sequence:
#
# PCOD9112765 Si02
#       6
#     2   2   2   2   2   2
#     4  10  19  36  59  86 123 164 209 272 325 378
#     4  10  21  40  61  88 124 167 216 267 324 398
#     4  10  21  37  59  94 126 161 215 271 326 394
#     4  12  26  46  69 102 141 181 225 281 347 414
#     4  12  23  43  74 103 134 181 229 285 344 404
#     4  10  20  38  62  89 124 170 215 268 329 390
#
# _framework density 24.111893999999999
#
# number of rings (size 3 to 8) (size 9 to 14) (size 15 to 20)
#    0.000    1.333    0.000    8.000    0.000    0.000 
#    0.000   20.000    0.000    0.000    0.000    0.000 
#    0.000    0.000    0.000    0.000    0.000    0.000 
#
# Total GULP energy -67063.704049 kJ/mol
# GULP energy per Si atom -5588.642004 kJ/mol
# Density = 2.405701 g / cm^3
# Si number density = 24.111894 Si / 1000 Ang^3
#
#
#
# Elastic Constant Matrix: (Units=GPa)
#
#
# Indices 1 2 3 4 5 6 
#
# 1 101.0004 71.6688 5.6143 0.0000 1.2307 0.0000
# 2 71.6688 300.1753 8.7489 0.0000 -1.8889 0.0000
# 3 5.6143 8.7489 53.2519 0.0000 -5.0334 0.0000
# 4 0.0000 0.0000 0.0000 47.0192 0.0000 17.8049
# 5 1.2307 -1.8889 -5.0334 0.0000 40.0589 0.0000
# 6 0.0000 0.0000 0.0000 17.8049 0.0000 57.2877
#
#
#
# Elastic Compliance Matrix: (Units=1/GPa)
#
#
# Indices 1 2 3 4 5 6 
#
# 1 0.011969 -0.002837 -0.000853 0.000000 -0.000609 0.000000
# 2 -0.002837 0.004020 -0.000339 0.000000 0.000234 0.000000
# 3 -0.000853 -0.000339 0.019153 0.000000 0.002417 0.000000
# 4 0.000000 0.000000 0.000000 0.024105 0.000000 -0.007492
# 5 -0.000609 0.000234 0.002417 0.000000 0.025297 0.000000
# 6 0.000000 0.000000 0.000000 -0.007492 0.000000 0.019784
#
#
# Mechanical properties :
#
#
# Convention : Reuss Voigt Hill
#
# Bulk Modulus (GPa) = 36.92343 69.61016 53.26679
# Shear Modulus (GPa) = 41.18174 53.43286 47.30730
#
# Velocity S-wave (km/s) = 4.13721 4.71259 4.43424
# Velocity P-wave (km/s) = 6.17808 7.65138 6.95386
#
# Compressibility (1/GPa) = 0.02708308
#
# Stress axis : x y z
#
# Youngs Moduli (GPa) = 83.55218 248.75696 52.21160
#
# Poissons Ratio (x) = 0.70561 0.04455
# Poissons Ratio (y) = 0.23700 0.01771
# Poissons Ratio (z) = 0.07130 0.08440
#
# Static dielectric constant tensor:
#      x y z
#    x 1.649470 0.000000 0.010710 
#    y 0.000000 1.978520 0.000000 
#    z 0.010710 0.000000 1.886380 
# 
# From -- ./inp_files/8360.got.cif
#   From: 2010.05.17/outbox.cif.g08.bks.cpg/sg3_5_cif.got.tgz:8360.got - 2010.06.03 18:33:08.
