data_PCOD9112376
_publ_section_title
;
Structure prediction by ZEFSAII (Michael W. Deem and Ramdas Pophale) SiO2 
 PCOD9112376
Probable space group: P -1
;
_chemical_formula_sum "Si O2"
_cell_formula_units_Z 14
_cell_length_a 5.306195
_cell_length_b 12.272983
_cell_length_c 11.195531
_cell_angle_alpha 63.853875
_cell_angle_beta 78.746470
_cell_angle_gamma 68.130292
_cell_volume 606.958260
_symmetry_space_group_name_H-M "P -1"
_symmetry_group_IT_number 2
_symmetry_cell_setting 'triclinic'
loop_
_space_group_symop_operation_xyz
x,y,z
-x,-y,-z
loop_
_atom_site_type_symbol
_atom_site_label
_atom_site_fract_x
_atom_site_fract_y
_atom_site_fract_z
Si Si1 0.351728 0.596502 0.735547
Si Si2 0.151348 0.998057 0.156177
Si Si3 0.101495 0.668100 0.503408
Si Si4 0.253541 0.121636 0.834793
Si Si5 0.274886 0.734748 0.913135
Si Si6 0.665247 0.616317 0.468907
Si Si7 0.237461 0.333334 0.914493
O O1 0.108676 0.692889 0.631102
O O2 0.412315 0.658921 0.819483
O O3 0.596743 0.569328 0.630164
O O4 0.267851 0.472461 0.831144
O O5 0.921319 0.122760 0.168801
O O6 0.447916 0.950425 0.210856
O O7 0.216152 0.046837 0.996728
O O8 0.001830 0.892621 0.206002
O O9 0.366485 0.687101 0.414805
O O10 0.184992 0.511023 0.557244
O O11 0.827262 0.712494 0.435787
O O12 0.255194 0.256903 0.825276
O O13 0.504325 0.736184 0.988623
O O14 0.056720 0.665517 0.010280
#
# Coordination Sequence:
#
# PCOD9112376 Si02
#       7
#     2   2   2   2   2   2   2
#     4  10  21  30  46  64 100 118 141 172 226 270
#     4   9  16  30  46  57  75 112 159 194 211 228
#     4   8  16  30  47  63  82 111 147 181 213 257
#     4   9  16  30  46  57  75 112 159 194 211 228
#     4  11  22  30  42  64  93 126 151 174 210 262
#     4   8  16  30  47  63  82 111 147 181 213 257
#     4  11  22  30  42  64  93 126 151 174 210 262
#
# _framework density 23.065837999999999
#
# number of rings (size 3 to 8) (size 9 to 14) (size 15 to 20)
#    0.857    1.714    0.000    5.143    4.000    0.000 
#    0.000    0.000    0.000    0.000    0.000    0.000 
#    0.000    9.143    0.000    0.000    0.000    0.000 
#
# Total GULP energy -77986.706182 kJ/mol
# GULP energy per Si atom -5570.479013 kJ/mol
# Density = 2.301334 g / cm^3
# Si number density = 23.065838 Si / 1000 Ang^3
#
#
#
# Elastic Constant Matrix: (Units=GPa)
#
#
# Indices 1 2 3 4 5 6 
#
# 1 124.1141 11.3466 0.0825 -2.8584 4.5676 15.4917
# 2 11.3466 73.8484 23.8763 5.0644 -1.0286 13.9288
# 3 0.0825 23.8763 35.5344 -0.3630 -5.3933 2.4801
# 4 -2.8584 5.0644 -0.3630 28.1225 9.4209 -4.7843
# 5 4.5676 -1.0286 -5.3933 9.4209 30.1160 -4.8626
# 6 15.4917 13.9288 2.4801 -4.7843 -4.8626 30.9520
#
#
#
# Elastic Compliance Matrix: (Units=1/GPa)
#
#
# Indices 1 2 3 4 5 6 
#
# 1 0.008772 -0.000807 0.000481 0.001089 -0.002300 -0.004259
# 2 -0.000807 0.019738 -0.012933 -0.004768 -0.001384 -0.008397
# 3 0.000481 -0.012933 0.037551 0.001365 0.006395 0.003786
# 4 0.001089 -0.004768 0.001365 0.041636 -0.012136 0.006021
# 5 -0.002300 -0.001384 0.006395 -0.012136 0.039347 0.005567
# 6 -0.004259 -0.008397 0.003786 0.006021 0.005567 0.039720
#
#
# Mechanical properties :
#
#
# Convention : Reuss Voigt Hill
#
# Bulk Modulus (GPa) = 25.28898 33.78974 29.53936
# Shear Modulus (GPa) = 22.07865 31.05088 26.56477
#
# Velocity S-wave (km/s) = 3.09722 3.67302 3.39734
# Velocity P-wave (km/s) = 4.87627 5.71569 5.31259
#
# Compressibility (1/GPa) = 0.03954291
#
# Stress axis : x y z
#
# Youngs Moduli (GPa) = 114.00109 50.66299 26.63041
#
# Poissons Ratio (x) = 0.04087 -0.01281
# Poissons Ratio (y) = 0.09196 0.34442
# Poissons Ratio (z) = -0.05483 0.65524
#
# Static dielectric constant tensor:
#      x y z
#    x 1.982140 0.007120 0.034280 
#    y 0.007120 1.867330 -0.052340 
#    z 0.034280 -0.052340 1.964700 
# 
# From -- ./inp_files/481063.got.cif
#   From: 2010.05.17/outbox.cif.g08.bks.cpg/sg2_241_cif.got.tgz:481063.got - 2010.06.03 11:33:40.
