data_PCOD9112504
_publ_section_title
;
Structure prediction by ZEFSAII (Michael W. Deem and Ramdas Pophale) SiO2 
 PCOD9112504
Probable space group: P 2
;
_chemical_formula_sum "Si O2"
_cell_formula_units_Z 16
_cell_length_a 11.327943
_cell_length_b 7.563011
_cell_length_c 9.514429
_cell_angle_alpha 90.000000
_cell_angle_beta 65.302487
_cell_angle_gamma 90.000000
_cell_volume 740.569851
_symmetry_space_group_name_H-M "P 2"
_symmetry_group_IT_number 3
_symmetry_cell_setting 'monoclinic'
loop_
_space_group_symop_operation_xyz
x,y,z
-x,y,-z
loop_
_atom_site_type_symbol
_atom_site_label
_atom_site_fract_x
_atom_site_fract_y
_atom_site_fract_z
Si Si1 0.697915 0.336770 0.144939
Si Si2 0.897438 0.086864 0.161086
Si Si3 0.445895 0.469386 0.203074
Si Si4 0.972127 0.384629 0.351459
Si Si5 0.217516 0.581379 0.121025
Si Si6 0.312990 0.512010 0.561862
Si Si7 0.364189 0.909222 0.639239
Si Si8 0.593737 0.841488 0.063986
O O1 0.809110 0.193781 0.092801
O O2 0.559547 0.324269 0.136426
O O3 0.665967 0.376554 0.322074
O O4 0.769450 0.506502 0.042612
O O5 0.962652 0.222634 0.242384
O O6 0.782893 0.986041 0.305060
O O7 0.000000 0.996099 0.000000
O O8 0.321630 0.473352 0.164724
O O9 0.396112 0.469489 0.385112
O O10 0.517464 0.657014 0.138329
O O11 0.835501 0.485818 0.409715
O O12 0.000000 0.329091 0.500000
O O13 0.080343 0.526984 0.250385
O O14 0.273009 0.779845 0.079177
O O15 0.348576 0.706339 0.598454
O O16 0.500000 0.975854 0.500000
O O17 0.386889 0.925352 0.794953
O O18 0.500000 0.936109 0.000000
#
# Coordination Sequence:
#
# PCOD9112504 Si02
#       8
#     2   2   2   2   2   2   2   2
#     4  10  19  36  61  88 116 153 200 257 303 358
#     4  11  26  43  61  84 129 172 209 252 305 371
#     4  10  17  32  61  96 119 144 192 259 315 353
#     4  11  23  41  63  90 122 163 205 255 313 371
#     4  10  18  34  62  93 123 149 196 253 314 363
#     4  11  20  34  64  92 119 154 200 258 307 360
#     4  12  23  42  62  92 127 167 212 254 304 371
#     4   9  19  35  61  92 126 150 188 256 313 358
#
# _framework density 21.604984000000002
#
# number of rings (size 3 to 8) (size 9 to 14) (size 15 to 20)
#    0.000    1.500    6.250    1.500    0.000    3.000 
#    0.000    3.125    0.000    0.000    0.000    0.000 
#    0.000    0.000    0.000    0.000    0.000    0.000 
#
# Total GULP energy -89070.442743 kJ/mol
# GULP energy per Si atom -5566.902671 kJ/mol
# Density = 2.155581 g / cm^3
# Si number density = 21.604984 Si / 1000 Ang^3
#
#
#
# Elastic Constant Matrix: (Units=GPa)
#
#
# Indices 1 2 3 4 5 6 
#
# 1 126.5625 10.8539 46.3379 0.0000 -9.1157 0.0000
# 2 10.8539 20.1187 11.9135 0.0000 -5.2644 0.0000
# 3 46.3379 11.9135 139.4034 0.0000 -11.2254 0.0000
# 4 0.0000 0.0000 0.0000 12.7990 0.0000 1.1682
# 5 -9.1157 -5.2644 -11.2254 0.0000 41.8530 0.0000
# 6 0.0000 0.0000 0.0000 1.1682 0.0000 19.6886
#
#
#
# Elastic Compliance Matrix: (Units=1/GPa)
#
#
# Indices 1 2 3 4 5 6 
#
# 1 0.009233 -0.003133 -0.002730 0.000000 0.000885 0.000000
# 2 -0.003133 0.054688 -0.003202 0.000000 0.005338 0.000000
# 3 -0.002730 -0.003202 0.008457 0.000000 0.001271 0.000000
# 4 0.000000 0.000000 0.000000 0.078557 0.000000 -0.004661
# 5 0.000885 0.005338 0.001271 0.000000 0.025098 0.000000
# 6 0.000000 0.000000 0.000000 -0.004661 0.000000 0.051067
#
#
# Mechanical properties :
#
#
# Convention : Reuss Voigt Hill
#
# Bulk Modulus (GPa) = 18.43414 47.14391 32.78903
# Shear Modulus (GPa) = 18.98871 29.33339 24.16105
#
# Velocity S-wave (km/s) = 2.96785 3.68871 3.34774
# Velocity P-wave (km/s) = 4.50500 6.32538 5.49115
#
# Compressibility (1/GPa) = 0.05424718
#
# Stress axis : x y z
#
# Youngs Moduli (GPa) = 108.30450 18.28542 118.24602
#
# Poissons Ratio (x) = 0.05729 0.32283
# Poissons Ratio (y) = 0.33933 0.37868
# Poissons Ratio (z) = 0.29569 0.05856
#
# Static dielectric constant tensor:
#      x y z
#    x 1.847440 0.000000 -0.021130 
#    y 0.000000 1.838730 0.000000 
#    z -0.021130 0.000000 1.810180 
# 
# From -- ./inp_files/7427.got.cif
#   From: 2010.05.17/outbox.cif.g08.bks.cpg/sg3_4_cif.got.tgz:7427.got - 2010.06.03 18:33:08.
