data_PCOD9112566
_publ_section_title
;
Structure prediction by ZEFSAII (Michael W. Deem and Ramdas Pophale) SiO2 
 PCOD9112566
Probable space group: P 2
;
_chemical_formula_sum "Si O2"
_cell_formula_units_Z 16
_cell_length_a 9.632695
_cell_length_b 9.592222
_cell_length_c 11.547373
_cell_angle_alpha 90.000000
_cell_angle_beta 120.178250
_cell_angle_gamma 90.000000
_cell_volume 922.354746
_symmetry_space_group_name_H-M "P 2"
_symmetry_group_IT_number 3
_symmetry_cell_setting 'monoclinic'
loop_
_space_group_symop_operation_xyz
x,y,z
-x,y,-z
loop_
_atom_site_type_symbol
_atom_site_label
_atom_site_fract_x
_atom_site_fract_y
_atom_site_fract_z
Si Si1 0.934380 0.196930 0.103841
Si Si2 0.526415 0.189553 0.328320
Si Si3 0.617176 0.015465 0.939560
Si Si4 0.612772 0.500576 0.281996
Si Si5 0.851393 0.503990 0.165376
Si Si6 0.621611 0.696217 0.940146
Si Si7 0.881962 0.486509 0.557459
Si Si8 0.768017 0.196493 0.616616
O O1 0.888424 0.354487 0.123535
O O2 0.072179 0.143572 0.251124
O O3 0.777701 0.100468 0.037532
O O4 0.000000 0.200779 0.000000
O O5 0.476005 0.091769 0.202651
O O6 0.559007 0.346283 0.296824
O O7 0.681611 0.134909 0.465595
O O8 0.374008 0.199168 0.349484
O O9 0.654066 0.855620 0.922285
O O10 0.500000 0.015514 0.000000
O O11 0.715991 0.483070 0.207671
O O12 0.468978 0.605197 0.194491
O O13 0.732309 0.558134 0.431547
O O14 0.006939 0.559317 0.300533
O O15 0.779466 0.613359 0.045584
O O16 0.500000 0.698843 0.000000
O O17 0.814899 0.350663 0.593182
O O18 0.000000 0.445071 0.500000
#
# Coordination Sequence:
#
# PCOD9112566 Si02
#       8
#     2   2   2   2   2   2   2   2
#     4  11  20  34  55  81 107 138 178 222 273 316
#     4  10  18  33  56  78 107 142 176 221 272 315
#     4  11  22  36  54  78 109 148 188 220 262 318
#     4   9  16  30  53  78 101 135 174 218 264 311
#     4   9  17  31  51  77 105 132 173 221 266 313
#     4   9  19  33  50  75 107 140 178 221 259 309
#     4   8  15  28  50  77 105 131 167 219 270 314
#     4   9  19  32  52  80 110 136 173 221 276 318
#
# _framework density 17.346903000000001
#
# number of rings (size 3 to 8) (size 9 to 14) (size 15 to 20)
#    0.000    2.500    1.250    1.500    0.000    2.000 
#    0.000    1.875    0.000    9.000    0.000    0.000 
#    0.000    0.000    0.000    0.000    0.000    0.000 
#
# Total GULP energy -89080.282274 kJ/mol
# GULP energy per Si atom -5567.517642 kJ/mol
# Density = 1.730742 g / cm^3
# Si number density = 17.346903 Si / 1000 Ang^3
#
#
#
# Elastic Constant Matrix: (Units=GPa)
#
#
# Indices 1 2 3 4 5 6 
#
# 1 42.5448 26.7174 49.7424 0.0000 12.1173 0.0000
# 2 26.7174 90.9945 78.7032 0.0000 17.9846 0.0000
# 3 49.7424 78.7032 187.1740 0.0000 33.4195 0.0000
# 4 0.0000 0.0000 0.0000 -9.1777 0.0000 3.7454
# 5 12.1173 17.9846 33.4195 0.0000 24.5019 0.0000
# 6 0.0000 0.0000 0.0000 3.7454 0.0000 -6.9540
#
#
#
# Elastic Compliance Matrix: (Units=1/GPa)
#
#
# Indices 1 2 3 4 5 6 
#
# 1 0.035333 -0.003167 -0.007077 0.000000 -0.005497 0.000000
# 2 -0.003167 0.017807 -0.006070 0.000000 -0.003225 0.000000
# 3 -0.007077 -0.006070 0.011045 0.000000 -0.007110 0.000000
# 4 0.000000 0.000000 0.000000 -0.139656 0.000000 -0.075219
# 5 -0.005497 -0.003225 -0.007110 0.000000 0.055596 0.000000
# 6 0.000000 0.000000 0.000000 -0.075219 0.000000 -0.184314
#
#
# Mechanical properties :
#
#
# Convention : Reuss Voigt Hill
#
# Bulk Modulus (GPa) = 31.68835 70.11549 50.90192
# Shear Modulus (GPa) = -31.04780 12.71071 -9.16854
#
# Velocity S-wave (km/s) = -4.23521 2.70985 -2.30150
# Velocity P-wave (km/s) = 2.36832 7.09213 4.72702
#
# Compressibility (1/GPa) = 0.03155734
#
# Stress axis : x y z
#
# Youngs Moduli (GPa) = 28.30212 56.15717 90.53772
#
# Poissons Ratio (x) = 0.17785 0.64072
# Poissons Ratio (y) = 0.08963 0.54957
# Poissons Ratio (z) = 0.20029 0.34088
#
# Static dielectric constant tensor:
#      x y z
#    x 1.588650 0.000000 0.018480 
#    y 0.000000 1.539870 0.000000 
#    z 0.018480 0.000000 1.642200 
# 
# From -- ./inp_files/10777.got.cif
#   From: 2010.05.17/outbox.cif.g08.bks.cpg/sg3_6_cif.got.tgz:10777.got - 2010.06.03 18:33:08.
