data_PCOD9112378
_publ_section_title
;
Structure prediction by ZEFSAII (Michael W. Deem and Ramdas Pophale) SiO2 
 PCOD9112378
Probable space group: P -1
;
_chemical_formula_sum "Si O2"
_cell_formula_units_Z 16
_cell_length_a 11.442493
_cell_length_b 14.487870
_cell_length_c 15.911394
_cell_angle_alpha 153.853713
_cell_angle_beta 121.263320
_cell_angle_gamma 48.526973
_cell_volume 847.828604
_symmetry_space_group_name_H-M "P -1"
_symmetry_group_IT_number 2
_symmetry_cell_setting 'triclinic'
loop_
_space_group_symop_operation_xyz
x,y,z
-x,-y,-z
loop_
_atom_site_type_symbol
_atom_site_label
_atom_site_fract_x
_atom_site_fract_y
_atom_site_fract_z
Si Si1 0.097792 0.937595 0.885283
Si Si2 0.655546 0.737157 0.333970
Si Si3 0.697487 0.956722 0.824444
Si Si4 0.145779 0.463718 0.597288
Si Si5 0.255457 0.761562 0.069877
Si Si6 0.083186 0.190554 0.482622
Si Si7 0.497853 0.138772 0.199096
Si Si8 0.246300 0.719479 0.583917
O O1 0.080752 0.739469 0.771234
O O2 0.197561 0.788333 0.719238
O O3 0.199021 0.021991 0.044908
O O4 0.923337 0.150433 0.962144
O O5 0.705601 0.628740 0.358950
O O6 0.648977 0.525079 0.109594
O O7 0.806128 0.755932 0.372846
O O8 0.500000 0.000000 0.500000
O O9 0.793342 0.709801 0.602934
O O10 0.552040 0.965371 0.826022
O O11 0.663188 0.161672 0.908952
O O12 0.038718 0.391500 0.555151
O O13 0.208365 0.934986 0.274884
O O14 0.923383 0.200259 0.458284
O O15 0.362964 0.428737 0.376347
O O16 0.658237 0.141694 0.283988
O O17 0.500000 0.000000 0.000000
#
# Coordination Sequence:
#
# PCOD9112378 Si02
#       8
#     2   2   2   2   2   2   2   2
#     4  11  19  30  52  76 109 132 168 204 243 323
#     4  10  21  36  51  75 107 132 166 213 264 311
#     4  11  19  31  49  72 106 138 168 204 242 303
#     4   9  20  32  49  79 102 135 163 201 267 300
#     4  10  21  30  51  82  99 136 169 200 259 312
#     4   8  20  34  51  74 102 132 170 208 252 302
#     4  11  22  31  45  71 109 150 172 198 242 294
#     4  10  21  33  46  72 107 142 173 200 245 303
#
# _framework density 18.871739000000002
#
# number of rings (size 3 to 8) (size 9 to 14) (size 15 to 20)
#    0.750    1.250    3.750    0.375    3.500    2.000 
#    0.000    0.000    0.000    0.000    0.000    1.750 
#    0.000    0.000    0.000    0.000    0.000    0.000 
#
# Total GULP energy -89134.753829 kJ/mol
# GULP energy per Si atom -5570.922114 kJ/mol
# Density = 1.882879 g / cm^3
# Si number density = 18.871739 Si / 1000 Ang^3
#
#
#
# Elastic Constant Matrix: (Units=GPa)
#
#
# Indices 1 2 3 4 5 6 
#
# 1 122.9624 8.7146 27.3879 -2.2287 20.2010 -26.4400
# 2 8.7146 23.6806 15.3544 3.6349 1.7857 -11.6735
# 3 27.3879 15.3544 118.2261 4.6147 9.2635 -10.9701
# 4 -2.2287 3.6349 4.6147 28.8502 -1.0114 0.7286
# 5 20.2010 1.7857 9.2635 -1.0114 22.0951 -8.2769
# 6 -26.4400 -11.6735 -10.9701 0.7286 -8.2769 19.1247
#
#
#
# Elastic Compliance Matrix: (Units=1/GPa)
#
#
# Indices 1 2 3 4 5 6 
#
# 1 0.012763 0.005690 -0.001643 -0.000090 -0.004637 0.018172
# 2 0.005690 0.070379 -0.006128 -0.008387 0.010905 0.052349
# 3 -0.001643 -0.006128 0.009740 -0.000969 -0.002717 -0.001563
# 4 -0.000090 -0.008387 -0.000969 0.036051 0.000154 -0.007106
# 5 -0.004637 0.010905 -0.002717 0.000154 0.058802 0.024131
# 6 0.018172 0.052349 -0.001563 -0.007106 0.024131 0.119182
#
#
# Mechanical properties :
#
#
# Convention : Reuss Voigt Hill
#
# Bulk Modulus (GPa) = 11.27139 40.86478 26.06809
# Shear Modulus (GPa) = 14.67769 28.24149 21.45959
#
# Velocity S-wave (km/s) = 2.79186 3.87265 3.37579
# Velocity P-wave (km/s) = 4.04700 6.45737 5.38868
#
# Compressibility (1/GPa) = 0.08872018
#
# Stress axis : x y z
#
# Youngs Moduli (GPa) = 78.35311 14.20880 102.66535
#
# Poissons Ratio (x) = -0.08084 0.16863
# Poissons Ratio (y) = -0.44581 0.62914
# Poissons Ratio (z) = 0.12870 0.08707
#
# Static dielectric constant tensor:
#      x y z
#    x 1.694200 -0.047790 0.023280 
#    y -0.047790 1.701970 -0.040150 
#    z 0.023280 -0.040150 1.717330 
# 
# From -- ./inp_files/595871.got.cif
#   From: 2010.05.17/outbox.cif.g08.bks.cpg/sg2_298_cif.got.tgz:595871.got - 2010.06.03 11:33:40.
