data_PCOD9112498
_publ_section_title
;
Structure prediction by ZEFSAII (Michael W. Deem and Ramdas Pophale) SiO2 
 PCOD9112498
Probable space group: P 2
;
_chemical_formula_sum "Si O2"
_cell_formula_units_Z 14
_cell_length_a 16.568007
_cell_length_b 5.407891
_cell_length_c 8.980751
_cell_angle_alpha 90.000000
_cell_angle_beta 43.948732
_cell_angle_gamma 90.000000
_cell_volume 558.443647
_symmetry_space_group_name_H-M "P 2"
_symmetry_group_IT_number 3
_symmetry_cell_setting 'monoclinic'
loop_
_space_group_symop_operation_xyz
x,y,z
-x,y,-z
loop_
_atom_site_type_symbol
_atom_site_label
_atom_site_fract_x
_atom_site_fract_y
_atom_site_fract_z
Si Si1 0.822762 0.088050 0.160114
Si Si2 0.372999 0.671483 0.246563
Si Si3 0.559638 0.168233 0.752688
Si Si4 0.210300 0.745525 0.033564
Si Si5 0.876236 0.718470 0.554901
Si Si6 0.660220 0.241119 0.157024
Si Si7 0.945215 0.214246 0.303549
O O1 0.920470 0.220646 0.926353
O O2 0.826632 0.808441 0.087462
O O3 0.696130 0.189805 0.281106
O O4 0.869325 0.134430 0.260949
O O5 0.379773 0.904218 0.347183
O O6 0.359544 0.406789 0.340576
O O7 0.500000 0.657043 0.000000
O O8 0.265412 0.011090 0.008841
O O9 0.463504 0.210846 0.754371
O O10 0.500000 0.151261 0.000000
O O11 0.264826 0.720673 0.283884
O O12 0.111746 0.683543 0.283728
O O13 0.298873 0.519550 0.923721
O O14 0.911613 0.477890 0.414037
O O15 0.923063 0.984847 0.442786
#
# Coordination Sequence:
#
# PCOD9112498 Si02
#       7
#     2   2   2   2   2   2   2
#     4   9  26  44  68  90 133 189 222 255 334 422
#     4  10  20  34  59  90 129 165 205 262 339 400
#     4  10  17  30  57  88 122 160 204 262 316 395
#     4  10  21  38  63  93 131 162 215 276 325 383
#     4  12  24  41  66 102 132 166 224 292 328 381
#     4  10  20  36  64  96 126 165 225 262 322 397
#     4  11  26  44  67  92 137 181 223 267 337 404
#
# _framework density 25.069675
#
# number of rings (size 3 to 8) (size 9 to 14) (size 15 to 20)
#    0.857    0.857    0.000    6.000    4.000    1.714 
#    0.000    0.000    0.000    5.143    0.000    0.000 
#    0.000    0.000    0.000    0.000    0.000    0.000 
#
# Total GULP energy -78211.084885 kJ/mol
# GULP energy per Si atom -5586.506063 kJ/mol
# Density = 2.501262 g / cm^3
# Si number density = 25.069675 Si / 1000 Ang^3
#
#
#
# Elastic Constant Matrix: (Units=GPa)
#
#
# Indices 1 2 3 4 5 6 
#
# 1 129.5173 3.4978 31.0497 0.0000 12.1941 0.0000
# 2 3.4978 136.1522 32.2214 0.0000 2.6629 0.0000
# 3 31.0497 32.2214 75.8813 0.0000 3.6756 0.0000
# 4 0.0000 0.0000 0.0000 27.1149 0.0000 -0.4947
# 5 12.1941 2.6629 3.6756 0.0000 31.6349 0.0000
# 6 0.0000 0.0000 0.0000 -0.4947 0.0000 38.2145
#
#
#
# Elastic Compliance Matrix: (Units=1/GPa)
#
#
# Indices 1 2 3 4 5 6 
#
# 1 0.008901 0.000731 -0.003805 0.000000 -0.003050 0.000000
# 2 0.000731 0.008228 -0.003767 0.000000 -0.000537 0.000000
# 3 -0.003805 -0.003767 0.016341 0.000000 -0.000115 0.000000
# 4 0.000000 0.000000 0.000000 0.036889 0.000000 0.000478
# 5 -0.003050 -0.000537 -0.000115 0.000000 0.032845 0.000000
# 6 0.000000 0.000000 0.000000 0.000478 0.000000 0.026174
#
#
# Mechanical properties :
#
#
# Convention : Reuss Voigt Hill
#
# Bulk Modulus (GPa) = 50.53558 52.78763 51.66160
# Shear Modulus (GPa) = 33.41037 37.71165 35.56101
#
# Velocity S-wave (km/s) = 3.65458 3.88270 3.77037
# Velocity P-wave (km/s) = 6.16520 6.41893 6.29334
#
# Compressibility (1/GPa) = 0.01978804
#
# Stress axis : x y z
#
# Youngs Moduli (GPa) = 112.35245 121.53696 61.19743
#
# Poissons Ratio (x) = -0.08890 0.23285
# Poissons Ratio (y) = -0.08218 0.23054
# Poissons Ratio (z) = 0.42748 0.45784
#
# Static dielectric constant tensor:
#      x y z
#    x 2.019120 0.000000 -0.041780 
#    y 0.000000 1.946390 0.000000 
#    z -0.041780 0.000000 2.184600 
# 
# From -- ./inp_files/8275.got.cif
#   From: 2010.05.17/outbox.cif.g08.bks.cpg/sg3_5_cif.got.tgz:8275.got - 2010.06.03 18:33:08.
