data_PCOD9112881
_publ_section_title
;
Structure prediction by ZEFSAII (Michael W. Deem and Ramdas Pophale) SiO2 
 PCOD9112881
Probable space group: P 2
;
_chemical_formula_sum "Si O2"
_cell_formula_units_Z 12
_cell_length_a 9.784995
_cell_length_b 11.897799
_cell_length_c 5.209750
_cell_angle_alpha 90.000000
_cell_angle_beta 114.496921
_cell_angle_gamma 90.000000
_cell_volume 551.921946
_symmetry_space_group_name_H-M "P 2"
_symmetry_group_IT_number 3
_symmetry_cell_setting 'monoclinic'
loop_
_space_group_symop_operation_xyz
x,y,z
-x,y,-z
loop_
_atom_site_type_symbol
_atom_site_label
_atom_site_fract_x
_atom_site_fract_y
_atom_site_fract_z
Si Si1 0.818085 0.985210 0.856115
Si Si2 0.099184 0.201840 0.329557
Si Si3 0.213038 0.442708 0.522652
Si Si4 0.717502 0.634270 0.047761
Si Si5 0.000000 0.579008 0.000000
Si Si6 0.183196 0.852601 0.635874
Si Si7 0.500000 0.547087 0.500000
O O1 0.768886 0.899602 0.600188
O O2 0.791034 0.108711 0.711809
O O3 0.773930 0.940241 0.101927
O O4 0.000000 0.984901 0.000000
O O5 0.180004 0.311493 0.505897
O O6 0.000000 0.157705 0.500000
O O7 0.000000 0.235773 0.000000
O O8 0.248383 0.511593 0.806971
O O9 0.360290 0.470765 0.471664
O O10 0.070658 0.501453 0.276044
O O11 0.860486 0.654347 0.974871
O O12 0.736712 0.733963 0.260372
O O13 0.563907 0.623826 0.776489
O O14 0.000000 0.839273 0.500000
#
# Coordination Sequence:
#
# PCOD9112881 Si02
#       7
#     2   2   2   2   1   2   1
#     4   9  19  34  54  91 130 161 200 248 321 377
#     4  11  21  37  62  97 132 166 203 265 323 386
#     4  11  22  39  60  91 125 165 213 259 326 379
#     4  11  23  38  60  90 125 166 211 262 322 380
#     4  10  20  34  56  94 120 150 204 250 318 376
#     4  10  20  34  59  90 128 162 200 258 316 378
#     4  10  26  42  58  86 120 178 214 262 320 384
#
# _framework density 21.742204000000001
#
# number of rings (size 3 to 8) (size 9 to 14) (size 15 to 20)
#    0.000    1.667    0.833    5.500   10.500    0.000 
#    0.000    0.000    0.000    1.000    0.000    0.000 
#    0.000    0.000    0.000    0.000    0.000    0.000 
#
# Total GULP energy -66981.156225 kJ/mol
# GULP energy per Si atom -5581.763019 kJ/mol
# Density = 2.169272 g / cm^3
# Si number density = 21.742204 Si / 1000 Ang^3
#
#
#
# Elastic Constant Matrix: (Units=GPa)
#
#
# Indices 1 2 3 4 5 6 
#
# 1 52.5580 10.8285 17.1622 0.0000 -4.1898 0.0000
# 2 10.8285 121.8029 56.2707 0.0000 10.3027 0.0000
# 3 17.1622 56.2707 142.3901 0.0000 -5.5273 0.0000
# 4 0.0000 0.0000 0.0000 -6.9274 0.0000 -20.1596
# 5 -4.1898 10.3027 -5.5273 0.0000 25.8888 0.0000
# 6 0.0000 0.0000 0.0000 -20.1596 0.0000 9.6207
#
#
#
# Elastic Compliance Matrix: (Units=1/GPa)
#
#
# Indices 1 2 3 4 5 6 
#
# 1 0.020141 -0.001241 -0.001806 0.000000 0.003368 0.000000
# 2 -0.001241 0.010773 -0.004318 0.000000 -0.005410 0.000000
# 3 -0.001806 -0.004318 0.009078 0.000000 0.003364 0.000000
# 4 0.000000 0.000000 0.000000 -0.020337 0.000000 -0.042616
# 5 0.003368 -0.005410 0.003364 0.000000 0.042043 0.000000
# 6 0.000000 0.000000 0.000000 -0.042616 0.000000 0.014644
#
#
# Mechanical properties :
#
#
# Convention : Reuss Voigt Hill
#
# Bulk Modulus (GPa) = 39.58692 53.91930 46.75311
# Shear Modulus (GPa) = 50.25638 21.21575 35.73606
#
# Velocity S-wave (km/s) = 4.81299 3.12715 4.05856
# Velocity P-wave (km/s) = 7.00952 6.15564 6.59641
#
# Compressibility (1/GPa) = 0.02526087
#
# Stress axis : x y z
#
# Youngs Moduli (GPa) = 49.65102 92.82888 110.16222
#
# Poissons Ratio (x) = 0.11519 0.19900
# Poissons Ratio (y) = 0.06161 0.47563
# Poissons Ratio (z) = 0.08969 0.40080
#
# Static dielectric constant tensor:
#      x y z
#    x 1.850010 0.000000 -0.067930 
#    y 0.000000 1.848940 0.000000 
#    z -0.067930 0.000000 1.826250 
# 
# From -- ./inp_files/2375.got.cif
#   From: 2010.05.17/outbox.cif.g08.bks.cpg/sg3_2_cif.got.tgz:2375.got - 2010.06.03 18:33:08.
