data_PCOD9112783
_publ_section_title
;
Structure prediction by ZEFSAII (Michael W. Deem and Ramdas Pophale) SiO2 
 PCOD9112783
Probable space group: P 2
;
_chemical_formula_sum "Si O2"
_cell_formula_units_Z 13
_cell_length_a 5.131858
_cell_length_b 12.931581
_cell_length_c 8.087338
_cell_angle_alpha 90.000000
_cell_angle_beta 87.382273
_cell_angle_gamma 90.000000
_cell_volume 536.140260
_symmetry_space_group_name_H-M "P 2"
_symmetry_group_IT_number 3
_symmetry_cell_setting 'monoclinic'
loop_
_space_group_symop_operation_xyz
x,y,z
-x,y,-z
loop_
_atom_site_type_symbol
_atom_site_label
_atom_site_fract_x
_atom_site_fract_y
_atom_site_fract_z
Si Si1 0.500000 0.870370 0.500000
Si Si2 0.000000 0.730944 0.500000
Si Si3 0.614346 0.019587 0.768173
Si Si4 0.910510 0.135763 0.189539
Si Si5 0.500000 0.847281 0.000000
Si Si6 0.327041 0.443262 0.819996
Si Si7 0.200080 0.662855 0.842813
Si Si8 0.166921 0.360299 0.194674
O O1 0.253738 0.801175 0.464684
O O2 0.452142 0.949275 0.648603
O O3 0.060668 0.673802 0.670244
O O4 0.890918 0.066588 0.707446
O O5 0.399328 0.111213 0.803987
O O6 0.680249 0.931794 0.903451
O O7 0.018096 0.251899 0.214165
O O8 0.000000 0.113792 0.000000
O O9 0.651252 0.769090 0.116615
O O10 0.392012 0.563981 0.831069
O O11 0.553401 0.376182 0.731179
O O12 0.050201 0.439246 0.737242
O O13 0.250514 0.393651 0.002919
O O14 0.000000 0.644264 0.000000
#
# Coordination Sequence:
#
# PCOD9112783 Si02
#       8
#     1   1   2   2   1   2   2   2
#     4  12  26  52  62  96 144 208 230 296 366 432
#     4  12  28  46  76 100 152 202 244 294 372 420
#     4  12  26  40  68  96 139 182 235 296 352 428
#     4  12  22  38  64 105 131 170 235 295 348 431
#     4  12  24  40  66  98 140 180 238 298 352 420
#     4  10  20  35  62  95 132 178 217 286 355 411
#     4  12  26  44  71 109 145 194 250 301 354 444
#     4  10  19  36  61  98 132 171 221 289 355 417
#
# _framework density 24.247388000000001
#
# number of rings (size 3 to 8) (size 9 to 14) (size 15 to 20)
#    0.000    0.615    6.154    3.692    4.308    0.000 
#    0.000    0.000    0.000    3.692    0.000    0.000 
#    0.000    0.000    0.000    0.000    0.000    0.000 
#
# Total GULP energy -72452.481991 kJ/mol
# GULP energy per Si atom -5573.267845 kJ/mol
# Density = 2.419220 g / cm^3
# Si number density = 24.247388 Si / 1000 Ang^3
#
#
#
# Elastic Constant Matrix: (Units=GPa)
#
#
# Indices 1 2 3 4 5 6 
#
# 1 153.2667 41.6669 7.0501 0.0000 18.5929 0.0000
# 2 41.6669 164.9788 25.0591 0.0000 11.4932 0.0000
# 3 7.0501 25.0591 69.6719 0.0000 15.4595 0.0000
# 4 0.0000 0.0000 0.0000 11.7195 0.0000 8.3461
# 5 18.5929 11.4932 15.4595 0.0000 22.8196 0.0000
# 6 0.0000 0.0000 0.0000 8.3461 0.0000 23.4231
#
#
#
# Elastic Compliance Matrix: (Units=1/GPa)
#
#
# Indices 1 2 3 4 5 6 
#
# 1 0.007684 -0.001691 0.001213 0.000000 -0.006231 0.000000
# 2 -0.001691 0.006859 -0.002160 0.000000 -0.000614 0.000000
# 3 0.001213 -0.002160 0.017636 0.000000 -0.011849 0.000000
# 4 0.000000 0.000000 0.000000 0.114343 0.000000 -0.040743
# 5 -0.006231 -0.000614 -0.011849 0.000000 0.057235 0.000000
# 6 0.000000 0.000000 0.000000 -0.040743 0.000000 0.057210
#
#
# Mechanical properties :
#
#
# Convention : Reuss Voigt Hill
#
# Bulk Modulus (GPa) = 37.16797 59.49663 48.33230
# Shear Modulus (GPa) = 18.16781 32.53518 25.35150
#
# Velocity S-wave (km/s) = 2.74025 3.66703 3.23698
# Velocity P-wave (km/s) = 5.03725 6.52075 5.82641
#
# Compressibility (1/GPa) = 0.02690489
#
# Stress axis : x y z
#
# Youngs Moduli (GPa) = 130.13383 145.78821 56.70176
#
# Poissons Ratio (x) = 0.24652 -0.06880
# Poissons Ratio (y) = 0.22005 0.12246
# Poissons Ratio (z) = -0.15789 0.31487
#
# Static dielectric constant tensor:
#      x y z
#    x 2.247760 0.000000 0.250920 
#    y 0.000000 1.962250 0.000000 
#    z 0.250920 0.000000 2.286730 
# 
# From -- ./inp_files/4369.got.cif
#   From: 2010.05.17/outbox.cif.g08.bks.cpg/sg3_3_cif.got.tgz:4369.got - 2010.06.03 18:33:08.
