data_PCOD9112212
_publ_section_title
;
Structure prediction by ZEFSAII (Michael W. Deem and Ramdas Pophale) SiO2 
 PCOD9112212
Probable space group: P -1
;
_chemical_formula_sum "Si O2"
_cell_formula_units_Z 13
_cell_length_a 10.761762
_cell_length_b 6.593851
_cell_length_c 9.313711
_cell_angle_alpha 98.648700
_cell_angle_beta 60.230563
_cell_angle_gamma 123.160458
_cell_volume 473.535012
_symmetry_space_group_name_H-M "P -1"
_symmetry_group_IT_number 2
_symmetry_cell_setting 'triclinic'
loop_
_space_group_symop_operation_xyz
x,y,z
-x,-y,-z
loop_
_atom_site_type_symbol
_atom_site_label
_atom_site_fract_x
_atom_site_fract_y
_atom_site_fract_z
Si Si1 0.085402 0.821142 0.584921
Si Si2 0.047286 0.936369 0.118043
Si Si3 0.500000 0.500000 0.500000
Si Si4 0.755663 0.339792 0.703941
Si Si5 0.623123 0.241029 0.049001
Si Si6 0.782890 0.386744 0.272145
Si Si7 0.587537 0.685658 0.162046
O O1 0.230322 0.880973 0.388784
O O2 0.157351 0.741308 0.667071
O O3 0.913032 0.599158 0.584367
O O4 0.028153 0.991944 0.698447
O O5 0.946359 0.644323 0.151895
O O6 0.319184 0.773728 0.826800
O O7 0.000000 0.000000 0.000000
O O8 0.646228 0.434751 0.426298
O O9 0.612726 0.690654 0.320055
O O10 0.782250 0.373278 0.862741
O O11 0.581104 0.315719 0.767627
O O12 0.253424 0.116567 0.007027
O O13 0.554495 0.419081 0.117383
O O14 0.500000 0.000000 0.000000
#
# Coordination Sequence:
#
# PCOD9112212 Si02
#       7
#     2   2   1   2   2   2   2
#     4  11  26  47  76 111 154 199 251 315 373 452
#     4  12  24  46  77 111 148 200 249 309 381 440
#     4  10  20  44  76 108 142 200 242 312 370 448
#     4  11  24  48  70 109 156 196 252 310 379 444
#     4  11  25  45  74 109 143 201 251 310 378 451
#     4  11  25  50  76 109 156 193 260 309 377 453
#     4  11  23  47  76 106 155 195 255 311 374 459
#
# _framework density 27.453092000000002
#
# number of rings (size 3 to 8) (size 9 to 14) (size 15 to 20)
#    0.000    0.923    6.154    0.462    0.000    7.385 
#    2.769    3.846    0.000    0.000    0.000    0.000 
#    0.000    0.000    0.000    0.000    0.000    0.000 
#
# Total GULP energy -72535.399958 kJ/mol
# GULP energy per Si atom -5579.646151 kJ/mol
# Density = 2.739061 g / cm^3
# Si number density = 27.453092 Si / 1000 Ang^3
#
#
#
# Elastic Constant Matrix: (Units=GPa)
#
#
# Indices 1 2 3 4 5 6 
#
# 1 155.3109 41.1689 53.9163 7.3514 -25.1272 8.8983
# 2 41.1689 116.7087 41.7621 14.9491 -16.7874 19.1504
# 3 53.9163 41.7621 160.0503 13.0409 -25.0095 1.4037
# 4 7.3514 14.9491 13.0409 35.0006 -11.6899 5.8109
# 5 -25.1272 -16.7874 -25.0095 -11.6899 52.9252 -8.9756
# 6 8.8983 19.1504 1.4037 5.8109 -8.9756 35.8548
#
#
#
# Elastic Compliance Matrix: (Units=1/GPa)
#
#
# Indices 1 2 3 4 5 6 
#
# 1 0.007950 -0.001798 -0.001887 0.000673 0.002384 -0.000451
# 2 -0.001798 0.011105 -0.001980 -0.002714 0.000304 -0.004892
# 3 -0.001887 -0.001980 0.007835 -0.001259 0.002237 0.001983
# 4 0.000673 -0.002714 -0.001259 0.032339 0.005580 -0.002512
# 5 0.002384 0.000304 0.002237 0.005580 0.023097 0.004036
# 6 -0.000451 -0.004892 0.001983 -0.002512 0.004036 0.031955
#
#
# Mechanical properties :
#
#
# Convention : Reuss Voigt Hill
#
# Bulk Modulus (GPa) = 64.27184 78.41828 71.34506
# Shear Modulus (GPa) = 38.22637 44.43761 41.33199
#
# Velocity S-wave (km/s) = 3.73557 4.02764 3.88435
# Velocity P-wave (km/s) = 6.48601 7.08912 6.79426
#
# Compressibility (1/GPa) = 0.01555891
#
# Stress axis : x y z
#
# Youngs Moduli (GPa) = 125.78119 90.04653 127.62851
#
# Poissons Ratio (x) = 0.16194 0.24087
# Poissons Ratio (y) = 0.22620 0.25276
# Poissons Ratio (z) = 0.23738 0.17833
#
# Static dielectric constant tensor:
#      x y z
#    x 2.535340 2.523260 -1.275950 
#    y 2.523260 18.891730 -8.646600 
#    z -1.275950 -8.646600 6.754400 
# 
# From -- ./inp_files/410983.got.cif
#   From: 2010.05.17/outbox.cif.g08.bks.cpg/sg2_206_cif.got.tgz:410983.got - 2010.06.03 11:33:40.
