data_PCOD9112719
_publ_section_title
;
Structure prediction by ZEFSAII (Michael W. Deem and Ramdas Pophale) SiO2 
 PCOD9112719
Probable space group: P 2
;
_chemical_formula_sum "Si O2"
_cell_formula_units_Z 16
_cell_length_a 9.530377
_cell_length_b 17.563045
_cell_length_c 5.307223
_cell_angle_alpha 90.000000
_cell_angle_beta 122.606087
_cell_angle_gamma 90.000000
_cell_volume 748.329888
_symmetry_space_group_name_H-M "P 2"
_symmetry_group_IT_number 3
_symmetry_cell_setting 'monoclinic'
loop_
_space_group_symop_operation_xyz
x,y,z
-x,y,-z
loop_
_atom_site_type_symbol
_atom_site_label
_atom_site_fract_x
_atom_site_fract_y
_atom_site_fract_z
Si Si1 0.604570 0.418400 0.854473
Si Si2 0.396925 0.236713 0.145508
Si Si3 0.816589 0.556362 0.932886
Si Si4 0.683179 0.629488 0.297374
Si Si5 0.116470 0.931603 0.362069
Si Si6 0.026720 0.251039 0.775600
Si Si7 0.387878 0.799898 0.644413
Si Si8 0.106113 0.093714 0.353254
O O1 0.500000 0.428193 0.500000
O O2 0.631950 0.327782 0.901755
O O3 0.761097 0.472687 0.970856
O O4 0.500000 0.440804 0.000000
O O5 0.500000 0.219614 0.500000
O O6 0.500000 0.211134 0.000000
O O7 0.205977 0.209637 0.957988
O O8 0.708247 0.583823 0.584111
O O9 0.797848 0.606848 0.169043
O O10 0.000000 0.557779 0.000000
O O11 0.696121 0.717870 0.386434
O O12 0.500000 0.618024 0.000000
O O13 0.250975 0.865224 0.485785
O O14 0.000000 0.924428 0.500000
O O15 0.210579 0.015333 0.453631
O O16 0.000000 0.926229 0.000000
O O17 0.000000 0.297657 0.500000
O O18 0.880446 0.186272 0.628981
O O19 0.000000 0.297450 0.000000
O O20 0.500000 0.795257 0.500000
O O21 0.500000 0.815580 0.000000
O O22 0.000000 0.082524 0.500000
O O23 0.000000 0.084376 0.000000
#
# Coordination Sequence:
#
# PCOD9112719 Si02
#       8
#     2   2   2   2   2   2   2   2
#     4  10  21  38  59  79 111 158 194 225 286 355
#     4  10  21  37  57  85 116 149 193 240 283 334
#     4  12  24  38  59  88 116 143 193 250 285 325
#     4  11  23  41  60  80 113 158 193 227 290 357
#     4  10  20  36  60  84 112 150 187 229 282 345
#     4  10  19  34  59  84 112 150 188 230 281 342
#     4  11  23  39  59  86 115 148 193 241 286 337
#     4   8  16  31  54  78 106 142 186 218 266 339
#
# _framework density 21.380948
#
# number of rings (size 3 to 8) (size 9 to 14) (size 15 to 20)
#    0.000    1.750    0.000    5.625    0.000    2.000 
#    0.000    1.250    0.000   40.500    0.000    0.000 
#    0.000    0.000    0.000    0.000    0.000    0.000 
#
# Total GULP energy -89090.825733 kJ/mol
# GULP energy per Si atom -5568.176608 kJ/mol
# Density = 2.133228 g / cm^3
# Si number density = 21.380948 Si / 1000 Ang^3
#
#
#
# Elastic Constant Matrix: (Units=GPa)
#
#
# Indices 1 2 3 4 5 6 
#
# 1 128.4928 19.5430 46.4943 0.0000 -34.7956 0.0000
# 2 19.5430 81.4668 9.5558 0.0000 -5.7772 0.0000
# 3 46.4943 9.5558 125.5229 0.0000 -42.0004 0.0000
# 4 0.0000 0.0000 0.0000 -32.6673 0.0000 22.3157
# 5 -34.7956 -5.7772 -42.0004 0.0000 46.7324 0.0000
# 6 0.0000 0.0000 0.0000 22.3157 0.0000 16.6869
#
#
#
# Elastic Compliance Matrix: (Units=1/GPa)
#
#
# Indices 1 2 3 4 5 6 
#
# 1 0.010273 -0.001848 -0.001690 0.000000 0.005902 0.000000
# 2 -0.001848 0.012749 -0.000313 0.000000 -0.000081 0.000000
# 3 -0.001690 -0.000313 0.011701 0.000000 0.009220 0.000000
# 4 0.000000 0.000000 0.000000 -0.015997 0.000000 0.021393
# 5 0.005902 -0.000081 0.009220 0.000000 0.034069 0.000000
# 6 0.000000 0.000000 0.000000 0.021393 0.000000 0.031317
#
#
# Mechanical properties :
#
#
# Convention : Reuss Voigt Hill
#
# Bulk Modulus (GPa) = 37.00668 54.07429 45.54049
# Shear Modulus (GPa) = 49.59250 23.47636 36.53443
#
# Velocity S-wave (km/s) = 4.82131 3.31721 4.13817
# Velocity P-wave (km/s) = 6.95264 6.32595 6.64669
#
# Compressibility (1/GPa) = 0.02702215
#
# Stress axis : x y z
#
# Youngs Moduli (GPa) = 97.34010 78.43650 85.46034
#
# Poissons Ratio (x) = 0.14493 0.14441
# Poissons Ratio (y) = 0.17985 0.02678
# Poissons Ratio (z) = 0.16448 0.02458
#
# Static dielectric constant tensor:
#      x y z
#    x 1.901110 0.000000 -0.070490 
#    y 0.000000 1.843770 0.000000 
#    z -0.070490 0.000000 1.868580 
# 
# From -- ./inp_files/1731.got.cif
#   From: 2010.05.17/outbox.cif.g08.bks.cpg/sg3_1_cif.got.tgz:1731.got - 2010.06.03 18:33:08.
