data_PCOD9112507
_publ_section_title
;
Structure prediction by ZEFSAII (Michael W. Deem and Ramdas Pophale) SiO2 
 PCOD9112507
Probable space group: P 2
;
_chemical_formula_sum "Si O2"
_cell_formula_units_Z 14
_cell_length_a 7.925000
_cell_length_b 7.269269
_cell_length_c 19.641375
_cell_angle_alpha 90.000000
_cell_angle_beta 33.981941
_cell_angle_gamma 90.000000
_cell_volume 632.441763
_symmetry_space_group_name_H-M "P 2"
_symmetry_group_IT_number 3
_symmetry_cell_setting 'monoclinic'
loop_
_space_group_symop_operation_xyz
x,y,z
-x,y,-z
loop_
_atom_site_type_symbol
_atom_site_label
_atom_site_fract_x
_atom_site_fract_y
_atom_site_fract_z
Si Si1 0.986471 0.259060 0.382540
Si Si2 0.210740 0.543773 0.193074
Si Si3 0.574372 0.161943 0.637626
Si Si4 0.050673 0.857003 0.322045
Si Si5 0.685592 0.736153 0.568905
Si Si6 0.688975 0.691717 0.118781
Si Si7 0.825214 0.463862 0.205493
O O1 0.068379 0.421496 0.302923
O O2 0.218785 0.232576 0.368347
O O3 0.679451 0.248125 0.529452
O O4 0.004642 0.071720 0.333627
O O5 0.058749 0.746152 0.249968
O O6 0.554126 0.578860 0.100002
O O7 0.129996 0.478732 0.146068
O O8 0.258969 0.250126 0.761865
O O9 0.602543 0.942983 0.621475
O O10 0.389835 0.809795 0.237648
O O11 0.794892 0.770529 0.455461
O O12 0.431832 0.586411 0.668674
O O13 0.000000 0.677009 0.500000
O O14 0.783064 0.548498 0.145325
O O15 0.000000 0.797857 0.000000
#
# Coordination Sequence:
#
# PCOD9112507 Si02
#       7
#     2   2   2   2   2   2   2
#     4  10  17  34  57  85 123 153 191 233 290 353
#     4  10  23  38  57  90 119 155 196 244 300 351
#     4  10  19  31  59  88 118 163 189 232 288 352
#     4   9  19  37  58  85 122 151 193 246 283 351
#     4  11  18  33  60  91 118 160 196 230 296 358
#     4  10  22  43  64  84 112 160 206 249 298 341
#     4  12  23  36  62  90 120 156 195 244 299 360
#
# _framework density 22.136427000000001
#
# number of rings (size 3 to 8) (size 9 to 14) (size 15 to 20)
#    0.857    0.857    5.714    0.857    2.000    4.000 
#    0.000    3.571    0.000    0.000    3.714    0.000 
#    0.000    0.000    0.000    0.000    0.000    0.000 
#
# Total GULP energy -77968.517574 kJ/mol
# GULP energy per Si atom -5569.179827 kJ/mol
# Density = 2.208604 g / cm^3
# Si number density = 22.136427 Si / 1000 Ang^3
#
#
#
# Elastic Constant Matrix: (Units=GPa)
#
#
# Indices 1 2 3 4 5 6 
#
# 1 83.2230 13.5841 6.9729 0.0000 -5.8681 0.0000
# 2 13.5841 64.5430 12.4042 0.0000 -0.2842 0.0000
# 3 6.9729 12.4042 41.9163 0.0000 -4.5119 0.0000
# 4 0.0000 0.0000 0.0000 4.2640 0.0000 0.7123
# 5 -5.8681 -0.2842 -4.5119 0.0000 18.2227 0.0000
# 6 0.0000 0.0000 0.0000 0.7123 0.0000 20.5895
#
#
#
# Elastic Compliance Matrix: (Units=1/GPa)
#
#
# Indices 1 2 3 4 5 6 
#
# 1 0.012773 -0.002484 -0.000977 0.000000 0.003833 0.000000
# 2 -0.002484 0.016928 -0.004781 0.000000 -0.001720 0.000000
# 3 -0.000977 -0.004781 0.026088 0.000000 0.006070 0.000000
# 4 0.000000 0.000000 0.000000 0.235885 0.000000 -0.008160
# 5 0.003833 -0.001720 0.006070 0.000000 0.057587 0.000000
# 6 0.000000 0.000000 0.000000 -0.008160 0.000000 0.048851
#
#
# Mechanical properties :
#
#
# Convention : Reuss Voigt Hill
#
# Bulk Modulus (GPa) = 25.44249 28.40054 26.92151
# Shear Modulus (GPa) = 11.69051 19.06332 15.37691
#
# Velocity S-wave (km/s) = 2.30056 2.93776 2.63847
# Velocity P-wave (km/s) = 4.30990 4.93608 4.63358
#
# Compressibility (1/GPa) = 0.03930434
#
# Stress axis : x y z
#
# Youngs Moduli (GPa) = 78.28749 59.07507 38.33182
#
# Poissons Ratio (x) = 0.14672 0.03746
# Poissons Ratio (y) = 0.19444 0.18328
# Poissons Ratio (z) = 0.07652 0.28246
#
# Static dielectric constant tensor:
#      x y z
#    x 1.889840 0.000000 -0.053210 
#    y 0.000000 1.793770 0.000000 
#    z -0.053210 0.000000 1.898950 
# 
# From -- ./inp_files/15769.got.cif
#   From: 2010.05.17/outbox.cif.g08.bks.cpg/sg3_8_cif.got.tgz:15769.got - 2010.06.03 18:33:08.
