data_PCOD9112725
_publ_section_title
;
Structure prediction by ZEFSAII (Michael W. Deem and Ramdas Pophale) SiO2 
 PCOD9112725
Probable space group: P 2
;
_chemical_formula_sum "Si O2"
_cell_formula_units_Z 14
_cell_length_a 23.226170
_cell_length_b 4.995010
_cell_length_c 9.699911
_cell_angle_alpha 90.000000
_cell_angle_beta 29.124348
_cell_angle_gamma 90.000000
_cell_volume 547.707882
_symmetry_space_group_name_H-M "P 2"
_symmetry_group_IT_number 3
_symmetry_cell_setting 'monoclinic'
loop_
_space_group_symop_operation_xyz
x,y,z
-x,y,-z
loop_
_atom_site_type_symbol
_atom_site_label
_atom_site_fract_x
_atom_site_fract_y
_atom_site_fract_z
Si Si1 0.940898 0.359700 0.976111
Si Si2 0.629190 0.848867 0.603985
Si Si3 0.540441 0.170260 0.551233
Si Si4 0.893418 0.859428 0.917251
Si Si5 0.685503 0.533016 0.936001
Si Si6 0.677355 0.356855 0.643562
Si Si7 0.768509 0.066075 0.923923
O O1 0.952879 0.580255 0.831933
O O2 0.804186 0.350054 0.306230
O O3 0.965877 0.075791 0.854338
O O4 0.000000 0.415719 0.000000
O O5 0.758999 0.841890 0.260915
O O6 0.600741 0.547642 0.704318
O O7 0.540974 0.982784 0.681150
O O8 0.635949 0.051403 0.719052
O O9 0.500000 0.011833 0.500000
O O10 0.446381 0.410597 0.755858
O O11 0.677530 0.212737 0.225085
O O12 0.870677 0.950659 0.808116
O O13 0.717656 0.813532 0.941445
O O14 0.779024 0.310215 0.796250
O O15 0.690784 0.503397 0.760429
#
# Coordination Sequence:
#
# PCOD9112725 Si02
#       7
#     2   2   2   2   2   2   2
#     4  10  19  34  60  88 112 140 181 231 274 332
#     4   9  19  35  54  75 107 142 178 226 272 327
#     4   9  21  35  53  77 102 137 188 230 260 304
#     4   9  18  34  57  83 108 141 183 225 276 328
#     4  11  22  36  56  79 109 148 187 232 273 322
#     4  10  21  37  55  80 111 146 179 217 286 336
#     4  10  21  37  57  79 109 148 188 228 273 323
#
# _framework density 25.561073
#
# number of rings (size 3 to 8) (size 9 to 14) (size 15 to 20)
#    0.000    2.286    0.000    2.143    0.000   14.857 
#    0.000    1.429    0.000    5.143    0.000    0.000 
#    0.000    0.000    0.000    0.000    0.000    0.000 
#
# Total GULP energy -78163.680011 kJ/mol
# GULP energy per Si atom -5583.120001 kJ/mol
# Density = 2.550289 g / cm^3
# Si number density = 25.561073 Si / 1000 Ang^3
#
#
#
# Elastic Constant Matrix: (Units=GPa)
#
#
# Indices 1 2 3 4 5 6 
#
# 1 104.0479 12.6091 -2.8909 0.0000 14.7311 0.0000
# 2 12.6091 122.6178 12.2028 0.0000 5.8297 0.0000
# 3 -2.8909 12.2028 54.1022 0.0000 -5.5948 0.0000
# 4 0.0000 0.0000 0.0000 7.0480 0.0000 8.7524
# 5 14.7311 5.8297 -5.5948 0.0000 30.8460 0.0000
# 6 0.0000 0.0000 0.0000 8.7524 0.0000 43.9403
#
#
#
# Elastic Compliance Matrix: (Units=1/GPa)
#
#
# Indices 1 2 3 4 5 6 
#
# 1 0.010397 -0.000869 0.000260 0.000000 -0.004754 0.000000
# 2 -0.000869 0.008533 -0.002135 0.000000 -0.001585 0.000000
# 3 0.000260 -0.002135 0.019371 0.000000 0.003793 0.000000
# 4 0.000000 0.000000 0.000000 0.188514 0.000000 -0.037550
# 5 -0.004754 -0.001585 0.003793 0.000000 0.035677 0.000000
# 6 0.000000 0.000000 0.000000 -0.037550 0.000000 0.030238
#
#
# Mechanical properties :
#
#
# Convention : Reuss Voigt Hill
#
# Bulk Modulus (GPa) = 30.47618 36.06777 33.27198
# Shear Modulus (GPa) = 16.17320 33.62332 24.89826
#
# Velocity S-wave (km/s) = 2.51814 3.63079 3.12439
# Velocity P-wave (km/s) = 4.51702 5.63187 5.10497
#
# Compressibility (1/GPa) = 0.03281251
#
# Stress axis : x y z
#
# Youngs Moduli (GPa) = 96.18615 117.19775 51.62308
#
# Poissons Ratio (x) = 0.10184 -0.01342
# Poissons Ratio (y) = 0.08358 0.11021
# Poissons Ratio (z) = -0.02500 0.25020
#
# Static dielectric constant tensor:
#      x y z
#    x 2.027650 0.000000 -0.025500 
#    y 0.000000 1.982370 0.000000 
#    z -0.025500 0.000000 2.133160 
# 
# From -- ./inp_files/8851.got.cif
#   From: 2010.05.17/outbox.cif.g08.bks.cpg/sg3_5_cif.got.tgz:8851.got - 2010.06.03 18:33:08.
