data_PCOD9112314
_publ_section_title
;
Structure prediction by ZEFSAII (Michael W. Deem and Ramdas Pophale) SiO2 
 PCOD9112314
Probable space group: P -1
;
_chemical_formula_sum "Si O2"
_cell_formula_units_Z 16
_cell_length_a 14.689340
_cell_length_b 8.924492
_cell_length_c 9.331195
_cell_angle_alpha 132.856161
_cell_angle_beta 126.765134
_cell_angle_gamma 46.886441
_cell_volume 633.862949
_symmetry_space_group_name_H-M "P -1"
_symmetry_group_IT_number 2
_symmetry_cell_setting 'triclinic'
loop_
_space_group_symop_operation_xyz
x,y,z
-x,-y,-z
loop_
_atom_site_type_symbol
_atom_site_label
_atom_site_fract_x
_atom_site_fract_y
_atom_site_fract_z
Si Si1 0.777203 0.589976 0.472573
Si Si2 0.936340 0.149927 0.677851
Si Si3 0.622308 0.039887 0.099930
Si Si4 0.572794 0.477738 0.747902
Si Si5 0.802502 0.285991 0.054246
Si Si6 0.313408 0.365275 0.297139
Si Si7 0.742715 0.985346 0.482089
Si Si8 0.942190 0.765061 0.888099
O O1 0.797926 0.360491 0.262811
O O2 0.664556 0.671870 0.537159
O O3 0.895859 0.586436 0.671364
O O4 0.756721 0.765943 0.438835
O O5 0.817574 0.396190 0.687300
O O6 0.869008 0.024362 0.625392
O O7 0.000000 0.000000 0.500000
O O8 0.028737 0.208293 0.902105
O O9 0.563165 0.314390 0.194169
O O10 0.713243 0.972102 0.278958
O O11 0.500000 0.000000 0.000000
O O12 0.687581 0.861243 0.916401
O O13 0.597129 0.576422 0.684623
O O14 0.621354 0.210260 0.581257
O O15 0.676564 0.449537 0.950552
O O16 0.924932 0.292706 0.103167
O O17 0.832764 0.020024 0.904809
#
# Coordination Sequence:
#
# PCOD9112314 Si02
#       8
#     2   2   2   2   2   2   2   2
#     4  12  24  38  66  97 134 176 213 272 334 391
#     4  11  24  43  66  98 136 176 216 275 324 394
#     4  10  22  42  70  94 126 174 224 279 325 386
#     4  10  20  46  68  91 128 175 223 274 325 394
#     4  11  21  42  63  94 131 174 218 269 320 401
#     4  10  23  42  58  99 133 161 224 274 320 387
#     4  11  22  42  69  96 131 175 223 260 342 394
#     4  11  22  40  64  92 136 172 222 259 333 392
#
# _framework density 25.242049999999999
#
# number of rings (size 3 to 8) (size 9 to 14) (size 15 to 20)
#    0.000    1.250    3.750    3.750    1.750    1.500 
#    0.000    6.250    0.000    0.000    0.000    0.000 
#    0.000    0.000    0.000    0.000    0.000    0.000 
#
# Total GULP energy -89543.152873 kJ/mol
# GULP energy per Si atom -5596.447055 kJ/mol
# Density = 2.518460 g / cm^3
# Si number density = 25.242050 Si / 1000 Ang^3
#
#
#
# Elastic Constant Matrix: (Units=GPa)
#
#
# Indices 1 2 3 4 5 6 
#
# 1 69.6715 25.1073 38.2253 -0.0140 -7.7337 -2.6028
# 2 25.1073 86.0401 16.0079 1.9236 -16.0901 -8.2302
# 3 38.2253 16.0079 167.3822 -8.3990 -36.8687 -15.8334
# 4 -0.0140 1.9236 -8.3990 44.5625 -14.4624 -3.7011
# 5 -7.7337 -16.0901 -36.8687 -14.4624 46.4558 6.8895
# 6 -2.6028 -8.2302 -15.8334 -3.7011 6.8895 26.5844
#
#
#
# Elastic Compliance Matrix: (Units=1/GPa)
#
#
# Indices 1 2 3 4 5 6 
#
# 1 0.018331 -0.005139 -0.004525 -0.001613 -0.002516 -0.002064
# 2 -0.005139 0.014127 0.001361 0.001592 0.005081 0.003586
# 3 -0.004525 0.001361 0.009222 0.004565 0.007854 0.004071
# 4 -0.001613 0.001592 0.004565 0.027400 0.011873 0.003791
# 5 -0.002516 0.005081 0.007854 0.011873 0.032926 -0.000875
# 6 -0.002064 0.003586 0.004071 0.003791 -0.000875 0.041703
#
#
# Mechanical properties :
#
#
# Convention : Reuss Voigt Hill
#
# Bulk Modulus (GPa) = 39.88411 53.53055 46.70733
# Shear Modulus (GPa) = 29.64317 39.77077 34.70697
#
# Velocity S-wave (km/s) = 3.43061 3.97366 3.71208
# Velocity P-wave (km/s) = 5.61489 6.50432 6.07591
#
# Compressibility (1/GPa) = 0.02507264
#
# Stress axis : x y z
#
# Youngs Moduli (GPa) = 54.55221 70.78885 108.43941
#
# Poissons Ratio (x) = 0.36379 0.49070
# Poissons Ratio (y) = 0.28035 -0.14757
# Poissons Ratio (z) = 0.24685 -0.09633
#
# Static dielectric constant tensor:
#      x y z
#    x 2.057260 -0.000330 0.026550 
#    y -0.000330 1.979890 -0.005930 
#    z 0.026550 -0.005930 2.064240 
# 
# From -- ./inp_files/328111.got.cif
#   From: 2010.05.17/outbox.cif.g08.bks.cpg/sg2_165_cif.got.tgz:328111.got - 2010.06.03 11:33:40.
