data_PCOD9112637
_publ_section_title
;
Structure prediction by ZEFSAII (Michael W. Deem and Ramdas Pophale) SiO2 
 PCOD9112637
Probable space group: P 2
;
_chemical_formula_sum "Si O2"
_cell_formula_units_Z 14
_cell_length_a 7.829559
_cell_length_b 17.143533
_cell_length_c 7.655656
_cell_angle_alpha 90.000000
_cell_angle_beta 140.440661
_cell_angle_gamma 90.000000
_cell_volume 654.448714
_symmetry_space_group_name_H-M "P 2"
_symmetry_group_IT_number 3
_symmetry_cell_setting 'monoclinic'
loop_
_space_group_symop_operation_xyz
x,y,z
-x,y,-z
loop_
_atom_site_type_symbol
_atom_site_label
_atom_site_fract_x
_atom_site_fract_y
_atom_site_fract_z
Si Si1 0.603607 0.640540 0.885271
Si Si2 0.691457 0.810879 0.818563
Si Si3 0.307524 0.979333 0.177921
Si Si4 0.459649 0.308885 0.680200
Si Si5 0.103693 0.550345 0.380383
Si Si6 0.309063 0.148463 0.179433
Si Si7 0.962022 0.377261 0.171947
O O1 0.615990 0.732036 0.856658
O O2 0.392374 0.590970 0.606428
O O3 0.500000 0.631518 0.000000
O O4 0.896684 0.603774 0.111850
O O5 0.500000 0.812752 0.500000
O O6 0.652452 0.895246 0.881153
O O7 0.000000 0.805647 0.000000
O O8 0.500000 0.979439 0.500000
O O9 0.339320 0.063759 0.112538
O O10 0.000000 0.979143 0.000000
O O11 0.500000 0.316950 0.500000
O O12 0.579889 0.225075 0.828281
O O13 0.142742 0.322989 0.438339
O O14 0.640844 0.370613 0.929251
O O15 0.000000 0.546854 0.500000
O O16 0.080545 0.463140 0.290852
O O17 0.500000 0.144448 0.500000
O O18 0.000000 0.158747 0.000000
O O19 0.000000 0.353116 0.000000
#
# Coordination Sequence:
#
# PCOD9112637 Si02
#       7
#     2   2   2   2   2   2   2
#     4  10  21  36  52  70  94 126 162 196 235 288
#     4  10  19  32  50  74 100 123 155 198 240 279
#     4   8  15  25  40  64  93 121 148 183 225 272
#     4   9  16  26  41  64  93 120 147 183 226 272
#     4  10  21  36  51  67  90 123 162 197 232 283
#     4   9  14  23  39  60  91 125 150 177 222 273
#     4  10  19  30  45  67  92 116 148 192 235 271
#
# _framework density 21.392049
#
# number of rings (size 3 to 8) (size 9 to 14) (size 15 to 20)
#    0.000    2.571    0.000    3.857    0.000    1.714 
#    0.000    0.000    0.000    0.000    0.000    2.000 
#    0.000    0.000    0.000    1.143    0.000    0.000 
#
# Total GULP energy -78007.976892 kJ/mol
# GULP energy per Si atom -5571.998349 kJ/mol
# Density = 2.134336 g / cm^3
# Si number density = 21.392049 Si / 1000 Ang^3
#
#
#
# Elastic Constant Matrix: (Units=GPa)
#
#
# Indices 1 2 3 4 5 6 
#
# 1 41.3009 -3.4433 22.8625 0.0000 -8.6968 0.0000
# 2 -3.4433 170.4210 59.6273 0.0000 -1.0803 0.0000
# 3 22.8625 59.6273 173.3416 0.0000 28.1387 0.0000
# 4 0.0000 0.0000 0.0000 -1.0386 0.0000 125.7099
# 5 -8.6968 -1.0803 28.1387 0.0000 -10.1334 0.0000
# 6 0.0000 0.0000 0.0000 125.7099 0.0000 -390.6431
#
#
#
# Elastic Compliance Matrix: (Units=1/GPa)
#
#
# Indices 1 2 3 4 5 6 
#
# 1 0.020523 0.000290 0.000040 0.000000 -0.017533 0.000000
# 2 0.000290 0.006342 -0.001427 0.000000 -0.004886 0.000000
# 3 0.000040 -0.001427 0.004298 0.000000 0.012053 0.000000
# 4 0.000000 0.000000 0.000000 0.025371 0.000000 0.008164
# 5 -0.017533 -0.004886 0.012053 0.000000 -0.049647 0.000000
# 6 0.000000 0.000000 0.000000 0.008164 0.000000 0.000067
#
#
# Mechanical properties :
#
#
# Convention : Reuss Voigt Hill
#
# Bulk Modulus (GPa) = 34.52081 60.35072 47.43576
# Shear Modulus (GPa) = 265.90448 -59.96188 102.97130
#
# Velocity S-wave (km/s) = 11.16111 -5.30008 6.94549
# Velocity P-wave (km/s) = 13.50060 3.03009 9.30282
#
# Compressibility (1/GPa) = 0.02896803
#
# Stress axis : x y z
#
# Youngs Moduli (GPa) = 48.72673 157.68315 232.67036
#
# Poissons Ratio (x) = -0.04566 -0.00926
# Poissons Ratio (y) = -0.01411 0.33192
# Poissons Ratio (z) = -0.00194 0.22495
#
# Static dielectric constant tensor:
#      x y z
#    x 1.913510 0.000000 0.010740 
#    y 0.000000 1.855420 0.000000 
#    z 0.010740 0.000000 1.783710 
# 
# From -- ./inp_files/6178.got.cif
#   From: 2010.05.17/outbox.cif.g08.bks.cpg/sg3_4_cif.got.tgz:6178.got - 2010.06.03 18:33:08.
