data_PCOD9112695
_publ_section_title
;
Structure prediction by ZEFSAII (Michael W. Deem and Ramdas Pophale) SiO2 
 PCOD9112695
Probable space group: P 2
;
_chemical_formula_sum "Si O2"
_cell_formula_units_Z 14
_cell_length_a 19.865866
_cell_length_b 5.268767
_cell_length_c 7.840960
_cell_angle_alpha 90.000000
_cell_angle_beta 39.968235
_cell_angle_gamma 90.000000
_cell_volume 527.188739
_symmetry_space_group_name_H-M "P 2"
_symmetry_group_IT_number 3
_symmetry_cell_setting 'monoclinic'
loop_
_space_group_symop_operation_xyz
x,y,z
-x,y,-z
loop_
_atom_site_type_symbol
_atom_site_label
_atom_site_fract_x
_atom_site_fract_y
_atom_site_fract_z
Si Si1 0.036730 0.931020 0.607228
Si Si2 0.738524 0.837210 0.926199
Si Si3 0.893512 0.327594 0.243705
Si Si4 0.550595 0.861738 0.066843
Si Si5 0.409317 0.505830 0.566214
Si Si6 0.183637 0.952224 0.882607
Si Si7 0.311501 0.537300 0.425560
O O1 0.000000 0.059703 0.500000
O O2 0.071790 0.121966 0.685993
O O3 0.144053 0.777984 0.367579
O O4 0.926110 0.801261 0.870199
O O5 0.678493 0.602878 0.132309
O O6 0.762994 0.013141 0.042067
O O7 0.655273 0.962188 0.957748
O O8 0.783695 0.444934 0.504803
O O9 0.856134 0.193111 0.142285
O O10 0.000000 0.480856 0.000000
O O11 0.599367 0.617401 0.876200
O O12 0.500000 0.002915 0.000000
O O13 0.469240 0.753367 0.364220
O O14 0.500000 0.369478 0.500000
O O15 0.359241 0.383363 0.493594
O O16 0.259133 0.782346 0.620542
#
# Coordination Sequence:
#
# PCOD9112695 Si02
#       7
#     2   2   2   2   2   2   2
#     4   9  18  34  54  78 113 144 172 222 272 316
#     4   9  16  31  56  78 102 144 179 210 270 325
#     4  10  21  35  53  79 113 146 179 221 266 321
#     4   9  17  30  52  79 107 138 177 227 271 308
#     4   8  16  32  54  78 105 137 177 227 271 307
#     4   9  19  35  55  81 112 141 176 223 267 319
#     4  10  19  33  58  81 104 146 184 214 270 332
#
# _framework density 26.555952999999999
#
# number of rings (size 3 to 8) (size 9 to 14) (size 15 to 20)
#    0.000    2.857    0.000    0.857    0.000    2.857 
#    0.000   12.857    0.000   63.429    0.000    0.000 
#    0.000    0.000    0.000    0.000    0.000    0.000 
#
# Total GULP energy -78073.941545 kJ/mol
# GULP energy per Si atom -5576.710110 kJ/mol
# Density = 2.649551 g / cm^3
# Si number density = 26.555953 Si / 1000 Ang^3
#
#
#
# Elastic Constant Matrix: (Units=GPa)
#
#
# Indices 1 2 3 4 5 6 
#
# 1 272.1000 29.3083 20.1593 0.0000 -13.4138 0.0000
# 2 29.3083 19.0307 8.1091 0.0000 -5.3188 0.0000
# 3 20.1593 8.1091 145.2338 0.0000 -41.8980 0.0000
# 4 0.0000 0.0000 0.0000 27.7383 0.0000 0.1158
# 5 -13.4138 -5.3188 -41.8980 0.0000 53.3582 0.0000
# 6 0.0000 0.0000 0.0000 0.1158 0.0000 22.7251
#
#
#
# Elastic Compliance Matrix: (Units=1/GPa)
#
#
# Indices 1 2 3 4 5 6 
#
# 1 0.004419 -0.006650 -0.000146 0.000000 0.000333 0.000000
# 2 -0.006650 0.064465 -0.001687 0.000000 0.003430 0.000000
# 3 -0.000146 -0.001687 0.008974 0.000000 0.006841 0.000000
# 4 0.000000 0.000000 0.000000 0.036052 0.000000 -0.000184
# 5 0.000333 0.003430 0.006841 0.000000 0.024539 0.000000
# 6 0.000000 0.000000 0.000000 -0.000184 0.000000 0.044005
#
#
# Mechanical properties :
#
#
# Convention : Reuss Voigt Hill
#
# Bulk Modulus (GPa) = 16.42246 61.27976 38.85111
# Shear Modulus (GPa) = 22.75674 46.01684 34.38679
#
# Velocity S-wave (km/s) = 2.93052 4.16724 3.60235
# Velocity P-wave (km/s) = 4.20097 6.80296 5.65369
#
# Compressibility (1/GPa) = 0.06089220
#
# Stress axis : x y z
#
# Youngs Moduli (GPa) = 226.31638 15.51234 111.43882
#
# Poissons Ratio (x) = 0.10315 0.01625
# Poissons Ratio (y) = 1.50490 0.18799
# Poissons Ratio (z) = 0.03301 0.02617
#
# Static dielectric constant tensor:
#      x y z
#    x 2.120290 0.000000 -0.010770 
#    y 0.000000 2.134470 0.000000 
#    z -0.010770 0.000000 2.156230 
# 
# From -- ./inp_files/9308.got.cif
#   From: 2010.05.17/outbox.cif.g08.bks.cpg/sg3_5_cif.got.tgz:9308.got - 2010.06.03 18:33:08.
