data_PCOD9112989
_publ_section_title
;
Structure prediction by ZEFSAII (Michael W. Deem and Ramdas Pophale) SiO2 
 PCOD9112989
Probable space group: P 2
;
_chemical_formula_sum "Si O2"
_cell_formula_units_Z 16
_cell_length_a 8.049231
_cell_length_b 18.392862
_cell_length_c 8.820078
_cell_angle_alpha 90.000000
_cell_angle_beta 146.138771
_cell_angle_gamma 90.000000
_cell_volume 727.569093
_symmetry_space_group_name_H-M "P 2"
_symmetry_group_IT_number 3
_symmetry_cell_setting 'monoclinic'
loop_
_space_group_symop_operation_xyz
x,y,z
-x,y,-z
loop_
_atom_site_type_symbol
_atom_site_label
_atom_site_fract_x
_atom_site_fract_y
_atom_site_fract_z
Si Si1 0.205159 0.021420 0.887400
Si Si2 0.659560 0.247163 0.279727
Si Si3 0.791246 0.395121 0.486590
Si Si4 0.111551 0.869814 0.410384
Si Si5 0.386280 0.788833 0.088953
Si Si6 0.411047 0.102891 0.603996
Si Si7 0.340189 0.642442 0.217465
Si Si8 0.210931 0.491612 0.015551
O O1 0.936558 0.078198 0.646451
O O2 0.500000 0.020414 0.000000
O O3 0.363741 0.041235 0.164741
O O4 0.025483 0.945921 0.745977
O O5 0.670979 0.312426 0.412400
O O6 0.525709 0.173685 0.245711
O O7 0.000000 0.229748 0.500000
O O8 0.500000 0.269264 0.000000
O O9 0.500538 0.443105 0.250219
O O10 0.000000 0.386077 0.500000
O O11 0.001751 0.444126 0.749700
O O12 0.457491 0.852772 0.695078
O O13 0.000000 0.863325 0.500000
O O14 0.959848 0.808099 0.192519
O O15 0.463979 0.713428 0.228199
O O16 0.500000 0.787805 0.000000
O O17 0.500000 0.118952 0.500000
O O18 0.500000 0.624380 0.500000
O O19 0.330053 0.574316 0.092494
O O20 0.000000 0.659645 0.000000
O O21 0.000000 0.498687 0.000000
#
# Coordination Sequence:
#
# PCOD9112989 Si02
#       8
#     2   2   2   2   2   2   2   2
#     4  12  23  42  69  92 124 174 219 258 319 393
#     4  11  23  43  67  92 126 171 214 257 317 391
#     4  11  23  41  65  96 127 158 210 270 314 366
#     4  10  20  37  62  91 120 155 207 260 310 372
#     4  10  21  38  62  91 120 155 205 263 312 363
#     4  12  26  42  63  97 133 164 212 273 320 370
#     4  11  23  42  62  88 127 170 212 255 312 389
#     4  11  23  41  64  91 128 171 210 252 314 388
#
# _framework density 21.991036999999999
#
# number of rings (size 3 to 8) (size 9 to 14) (size 15 to 20)
#    0.000    1.000    0.000    9.750    0.000    2.000 
#    0.000    7.500    0.000    0.000    0.000    0.000 
#    0.000    0.000    0.000    0.000    0.000    0.000 
#
# Total GULP energy -89208.475986 kJ/mol
# GULP energy per Si atom -5575.529749 kJ/mol
# Density = 2.194098 g / cm^3
# Si number density = 21.991037 Si / 1000 Ang^3
#
#
#
# Elastic Constant Matrix: (Units=GPa)
#
#
# Indices 1 2 3 4 5 6 
#
# 1 23.9383 21.0778 13.1386 0.0000 5.4268 0.0000
# 2 21.0778 144.6029 53.0355 0.0000 -5.5332 0.0000
# 3 13.1386 53.0355 168.9657 0.0000 7.9488 0.0000
# 4 0.0000 0.0000 0.0000 41.8697 0.0000 17.6411
# 5 5.4268 -5.5332 7.9488 0.0000 35.6637 0.0000
# 6 0.0000 0.0000 0.0000 17.6411 0.0000 175.3034
#
#
#
# Elastic Compliance Matrix: (Units=1/GPa)
#
#
# Indices 1 2 3 4 5 6 
#
# 1 0.050816 -0.007271 -0.001266 0.000000 -0.008578 0.000000
# 2 -0.007271 0.008969 -0.002392 0.000000 0.003031 0.000000
# 3 -0.001266 -0.002392 0.006848 0.000000 -0.001705 0.000000
# 4 0.000000 0.000000 0.000000 0.024941 0.000000 -0.002510
# 5 -0.008578 0.003031 -0.001705 0.000000 0.030195 0.000000
# 6 0.000000 0.000000 0.000000 -0.002510 0.000000 0.005957
#
#
# Mechanical properties :
#
#
# Convention : Reuss Voigt Hill
#
# Bulk Modulus (GPa) = 22.33427 56.89007 39.61217
# Shear Modulus (GPa) = 30.39359 67.25104 48.82231
#
# Velocity S-wave (km/s) = 3.72168 5.53602 4.71691
# Velocity P-wave (km/s) = 5.35220 8.17246 6.90779
#
# Compressibility (1/GPa) = 0.04477424
#
# Stress axis : x y z
#
# Youngs Moduli (GPa) = 19.67899 111.49798 146.03044
#
# Poissons Ratio (x) = 0.81072 0.18481
# Poissons Ratio (y) = 0.14309 0.34935
# Poissons Ratio (z) = 0.02490 0.26674
#
# Static dielectric constant tensor:
#      x y z
#    x 1.798290 0.000000 -0.072570 
#    y 0.000000 1.951030 0.000000 
#    z -0.072570 0.000000 1.713200 
# 
# From -- ./inp_files/6314.got.cif
#   From: 2010.05.17/outbox.cif.g08.bks.cpg/sg3_4_cif.got.tgz:6314.got - 2010.06.03 18:33:08.
