data_PCOD9112863
_publ_section_title
;
Structure prediction by ZEFSAII (Michael W. Deem and Ramdas Pophale) SiO2 
 PCOD9112863
Probable space group: P 2
;
_chemical_formula_sum "Si O2"
_cell_formula_units_Z 15
_cell_length_a 11.390938
_cell_length_b 9.411017
_cell_length_c 12.849839
_cell_angle_alpha 90.000000
_cell_angle_beta 35.521709
_cell_angle_gamma 90.000000
_cell_volume 800.347088
_symmetry_space_group_name_H-M "P 2"
_symmetry_group_IT_number 3
_symmetry_cell_setting 'monoclinic'
loop_
_space_group_symop_operation_xyz
x,y,z
-x,y,-z
loop_
_atom_site_type_symbol
_atom_site_label
_atom_site_fract_x
_atom_site_fract_y
_atom_site_fract_z
Si Si1 0.617980 0.660580 0.614110
Si Si2 0.199350 0.100393 0.422912
Si Si3 0.609311 0.339939 0.573278
Si Si4 0.500000 0.819692 0.500000
Si Si5 0.171599 0.288745 0.796535
Si Si6 0.634667 0.848100 0.803581
Si Si7 0.993429 0.838709 0.321417
Si Si8 0.930059 0.964005 0.164981
O O1 0.585589 0.493805 0.642010
O O2 0.493083 0.724044 0.608051
O O3 0.580057 0.745759 0.747930
O O4 0.848565 0.703450 0.418586
O O5 0.290337 0.230213 0.419664
O O6 0.000000 0.138451 0.500000
O O7 0.356655 0.012685 0.238302
O O8 0.134208 0.976452 0.549973
O O9 0.387749 0.280948 0.700266
O O10 0.753700 0.357946 0.366671
O O11 0.702307 0.912645 0.352993
O O12 0.081306 0.134946 0.828886
O O13 0.000000 0.350645 0.000000
O O14 0.852734 0.815319 0.696153
O O15 0.500000 0.827717 0.000000
O O16 0.067601 0.890209 0.154663
O O17 0.000000 0.919025 0.000000
#
# Coordination Sequence:
#
# PCOD9112863 Si02
#       8
#     2   2   2   1   2   2   2   2
#     4  10  22  38  59  84 120 160 202 238 304 365
#     4   9  19  37  60  84 114 157 206 244 305 358
#     4  11  21  40  62  86 123 170 195 248 306 364
#     4  10  20  36  54  88 120 152 196 250 290 366
#     4  10  22  37  60  92 124 158 199 253 307 362
#     4  10  22  38  62  88 120 156 198 262 303 352
#     4   9  19  39  57  85 115 154 201 248 298 361
#     4  10  20  32  60  92 117 148 199 249 301 351
#
# _framework density 18.741869999999999
#
# number of rings (size 3 to 8) (size 9 to 14) (size 15 to 20)
#    0.000    2.133    1.333    2.800    5.600    2.133 
#    2.400    4.000    0.000    0.000    0.000    0.000 
#    0.000    0.000    0.000    0.000    0.000    0.000 
#
# Total GULP energy -83554.167807 kJ/mol
# GULP energy per Si atom -5570.277854 kJ/mol
# Density = 1.869921 g / cm^3
# Si number density = 18.741870 Si / 1000 Ang^3
#
#
#
# Elastic Constant Matrix: (Units=GPa)
#
#
# Indices 1 2 3 4 5 6 
#
# 1 104.1177 35.4495 28.1197 0.0000 23.4409 0.0000
# 2 35.4495 51.8243 9.8512 0.0000 9.3114 0.0000
# 3 28.1197 9.8512 101.2630 0.0000 22.5517 0.0000
# 4 0.0000 0.0000 0.0000 12.9898 0.0000 4.8714
# 5 23.4409 9.3114 22.5517 0.0000 30.9328 0.0000
# 6 0.0000 0.0000 0.0000 4.8714 0.0000 9.3462
#
#
#
# Elastic Compliance Matrix: (Units=1/GPa)
#
#
# Indices 1 2 3 4 5 6 
#
# 1 0.014515 -0.008308 -0.001587 0.000000 -0.007341 0.000000
# 2 -0.008308 0.025200 0.000170 0.000000 -0.001415 0.000000
# 3 -0.001587 0.000170 0.011990 0.000000 -0.007589 0.000000
# 4 0.000000 0.000000 0.000000 0.095687 0.000000 -0.049874
# 5 -0.007341 -0.001415 -0.007589 0.000000 0.043850 0.000000
# 6 0.000000 0.000000 0.000000 -0.049874 0.000000 0.132990
#
#
# Mechanical properties :
#
#
# Convention : Reuss Voigt Hill
#
# Bulk Modulus (GPa) = 31.00273 44.89397 37.94835
# Shear Modulus (GPa) = 14.10700 22.90607 18.50654
#
# Velocity S-wave (km/s) = 2.74651 3.49977 3.14577
# Velocity P-wave (km/s) = 5.16097 6.35115 5.78674
#
# Compressibility (1/GPa) = 0.03225523
#
# Stress axis : x y z
#
# Youngs Moduli (GPa) = 68.89640 39.68179 83.40473
#
# Poissons Ratio (x) = 0.32966 0.13240
# Poissons Ratio (y) = 0.57237 -0.01421
# Poissons Ratio (z) = 0.10937 -0.00676
#
# Static dielectric constant tensor:
#      x y z
#    x 1.650050 0.000000 0.033490 
#    y 0.000000 1.618630 0.000000 
#    z 0.033490 0.000000 1.696970 
# 
# From -- ./inp_files/11699.got.cif
#   From: 2010.05.17/outbox.cif.g08.bks.cpg/sg3_6_cif.got.tgz:11699.got - 2010.06.03 18:33:08.
