data_PCOD9112512
_publ_section_title
;
Structure prediction by ZEFSAII (Michael W. Deem and Ramdas Pophale) SiO2 
 PCOD9112512
Probable space group: P 2
;
_chemical_formula_sum "Si O2"
_cell_formula_units_Z 14
_cell_length_a 20.260442
_cell_length_b 8.727049
_cell_length_c 9.546716
_cell_angle_alpha 90.000000
_cell_angle_beta 25.024385
_cell_angle_gamma 90.000000
_cell_volume 714.027195
_symmetry_space_group_name_H-M "P 2"
_symmetry_group_IT_number 3
_symmetry_cell_setting 'monoclinic'
loop_
_space_group_symop_operation_xyz
x,y,z
-x,y,-z
loop_
_atom_site_type_symbol
_atom_site_label
_atom_site_fract_x
_atom_site_fract_y
_atom_site_fract_z
Si Si1 0.894619 0.010490 0.820784
Si Si2 0.718022 0.300136 0.183624
Si Si3 0.326877 0.610617 0.276816
Si Si4 0.334551 0.748243 0.795515
Si Si5 0.374570 0.440677 0.905061
Si Si6 0.175301 0.571578 0.862266
Si Si7 0.931666 0.823267 0.285510
O O1 0.000000 0.087225 0.500000
O O2 0.762558 0.126444 0.128493
O O3 0.007471 0.951307 0.726297
O O4 0.807549 0.865329 0.916056
O O5 0.548524 0.365627 0.559665
O O6 0.723126 0.327959 0.006643
O O7 0.836320 0.412421 0.035407
O O8 0.228044 0.555815 0.601245
O O9 0.246901 0.769543 0.379701
O O10 0.500000 0.638018 0.000000
O O11 0.333161 0.483764 0.142530
O O12 0.500000 0.830517 0.500000
O O13 0.350165 0.603550 0.870190
O O14 0.302374 0.674038 0.704183
O O15 0.017843 0.667608 0.169474
O O16 0.000000 0.857691 0.000000
#
# Coordination Sequence:
#
# PCOD9112512 Si02
#       7
#     2   2   2   2   2   2   2
#     4  11  24  37  57  87 123 159 197 235 293 355
#     4  10  20  37  54  83 123 157 189 236 299 346
#     4  11  18  32  63  94 112 141 199 259 280 340
#     4  10  17  35  61  85 111 154 193 242 291 344
#     4  10  19  35  60  89 114 144 204 249 284 335
#     4   9  18  35  58  86 115 153 192 239 299 339
#     4   9  21  39  59  87 120 151 194 245 296 348
#
# _framework density 19.607095999999999
#
# number of rings (size 3 to 8) (size 9 to 14) (size 15 to 20)
#    0.000    2.000    4.286    0.857    2.000    1.143 
#    0.000    5.000    0.000    0.000    7.429    0.000 
#    0.000    0.000    0.000    0.000    0.000    0.000 
#
# Total GULP energy -77977.274801 kJ/mol
# GULP energy per Si atom -5569.805343 kJ/mol
# Density = 1.956247 g / cm^3
# Si number density = 19.607096 Si / 1000 Ang^3
#
#
#
# Elastic Constant Matrix: (Units=GPa)
#
#
# Indices 1 2 3 4 5 6 
#
# 1 105.1697 28.8397 27.4542 0.0000 0.5276 0.0000
# 2 28.8397 64.9106 20.6552 0.0000 -0.6022 0.0000
# 3 27.4542 20.6552 42.1838 0.0000 2.1900 0.0000
# 4 0.0000 0.0000 0.0000 22.5829 0.0000 -9.6251
# 5 0.5276 -0.6022 2.1900 0.0000 25.8369 0.0000
# 6 0.0000 0.0000 0.0000 -9.6251 0.0000 16.5531
#
#
#
# Elastic Compliance Matrix: (Units=1/GPa)
#
#
# Indices 1 2 3 4 5 6 
#
# 1 0.012053 -0.003380 -0.006199 0.000000 0.000201 0.000000
# 2 -0.003380 0.019234 -0.007277 0.000000 0.001134 0.000000
# 3 -0.006199 -0.007277 0.031444 0.000000 -0.002708 0.000000
# 4 0.000000 0.000000 0.000000 0.058871 0.000000 0.034232
# 5 0.000201 0.001134 -0.002708 0.000000 0.038956 0.000000
# 6 0.000000 0.000000 0.000000 0.034232 0.000000 0.080316
#
#
# Mechanical properties :
#
#
# Convention : Reuss Voigt Hill
#
# Bulk Modulus (GPa) = 34.46170 40.68470 37.57320
# Shear Modulus (GPa) = 17.58957 22.01558 19.80257
#
# Velocity S-wave (km/s) = 2.99842 3.35451 3.18145
# Velocity P-wave (km/s) = 5.44074 5.98320 5.71841
#
# Compressibility (1/GPa) = 0.02901772
#
# Stress axis : x y z
#
# Youngs Moduli (GPa) = 82.96856 51.99195 31.80252
#
# Poissons Ratio (x) = 0.17576 0.19716
# Poissons Ratio (y) = 0.28047 0.23141
# Poissons Ratio (z) = 0.51435 0.37832
#
# Static dielectric constant tensor:
#      x y z
#    x 1.721760 0.000000 -0.024470 
#    y 0.000000 1.679320 0.000000 
#    z -0.024470 0.000000 1.746690 
# 
# From -- ./inp_files/9130.got.cif
#   From: 2010.05.17/outbox.cif.g08.bks.cpg/sg3_5_cif.got.tgz:9130.got - 2010.06.03 18:33:08.
