data_PCOD9112851
_publ_section_title
;
Structure prediction by ZEFSAII (Michael W. Deem and Ramdas Pophale) SiO2 
 PCOD9112851
Probable space group: P 2
;
_chemical_formula_sum "Si O2"
_cell_formula_units_Z 14
_cell_length_a 9.311586
_cell_length_b 15.794938
_cell_length_c 5.513451
_cell_angle_alpha 90.000000
_cell_angle_beta 50.859612
_cell_angle_gamma 90.000000
_cell_volume 628.932195
_symmetry_space_group_name_H-M "P 2"
_symmetry_group_IT_number 3
_symmetry_cell_setting 'monoclinic'
loop_
_space_group_symop_operation_xyz
x,y,z
-x,y,-z
loop_
_atom_site_type_symbol
_atom_site_label
_atom_site_fract_x
_atom_site_fract_y
_atom_site_fract_z
Si Si1 0.383350 0.615500 0.875887
Si Si2 0.330102 0.217411 0.318795
Si Si3 0.883770 0.053904 0.368105
Si Si4 0.713134 0.808425 0.033124
Si Si5 0.289535 0.877512 0.462685
Si Si6 0.000000 0.324365 0.500000
Si Si7 0.146093 0.465225 0.019075
Si Si8 0.500000 0.353993 0.500000
O O1 0.500000 0.598410 0.500000
O O2 0.295630 0.707730 0.931849
O O3 0.236397 0.540399 0.076605
O O4 0.500000 0.620571 0.000000
O O5 0.215883 0.143980 0.569269
O O6 0.179940 0.266204 0.315771
O O7 0.427410 0.290514 0.370917
O O8 0.500000 0.174435 0.000000
O O9 0.000000 0.057552 0.500000
O O10 0.737948 0.977362 0.542244
O O11 0.000000 0.037602 0.000000
O O12 0.502250 0.845657 0.246601
O O13 0.793020 0.849128 0.191444
O O14 0.794206 0.834039 0.687025
O O15 0.018900 0.390331 0.262327
O O16 0.326746 0.414118 0.739784
O O17 0.000000 0.510173 0.000000
#
# Coordination Sequence:
#
# PCOD9112851 Si02
#       8
#     2   2   2   2   2   1   2   1
#     4  12  24  44  74 109 147 190 254 308 375 440
#     4  12  28  46  76 106 145 204 253 308 382 452
#     4  12  29  48  70 109 157 194 245 320 374 439
#     4  10  19  41  73 103 134 188 239 306 350 443
#     4  10  20  40  70  98 137 186 235 285 374 424
#     4  12  26  50  68 104 156 190 252 314 378 444
#     4  12  28  45  72 105 151 196 249 318 377 450
#     4  12  26  46  74 104 140 202 258 294 384 462
#
# _framework density 22.259951999999998
#
# number of rings (size 3 to 8) (size 9 to 14) (size 15 to 20)
#    0.000    0.571    7.143    0.857   10.000    1.143 
#    0.000    2.143    0.000    0.000    0.000    0.000 
#    0.000    0.000    0.000    0.000    0.000    0.000 
#
# Total GULP energy -78122.545979 kJ/mol
# GULP energy per Si atom -5580.181856 kJ/mol
# Density = 2.220929 g / cm^3
# Si number density = 22.259952 Si / 1000 Ang^3
#
#
#
# Elastic Constant Matrix: (Units=GPa)
#
#
# Indices 1 2 3 4 5 6 
#
# 1 100.7996 20.1917 40.3605 0.0000 7.6629 0.0000
# 2 20.1917 128.4782 11.1214 0.0000 -7.2571 0.0000
# 3 40.3605 11.1214 53.4581 0.0000 15.7218 0.0000
# 4 0.0000 0.0000 0.0000 239.6909 0.0000 -44.8663
# 5 7.6629 -7.2571 15.7218 0.0000 45.9084 0.0000
# 6 0.0000 0.0000 0.0000 -44.8663 0.0000 28.3228
#
#
#
# Elastic Compliance Matrix: (Units=1/GPa)
#
#
# Indices 1 2 3 4 5 6 
#
# 1 0.014499 -0.001259 -0.011025 0.000000 0.001156 0.000000
# 2 -0.001259 0.008208 -0.001335 0.000000 0.001965 0.000000
# 3 -0.011025 -0.001335 0.029833 0.000000 -0.008587 0.000000
# 4 0.000000 0.000000 0.000000 0.005931 0.000000 0.009395
# 5 0.001156 0.001965 -0.008587 0.000000 0.024841 0.000000
# 6 0.000000 0.000000 0.000000 0.009395 0.000000 0.050189
#
#
# Mechanical properties :
#
#
# Convention : Reuss Voigt Hill
#
# Bulk Modulus (GPa) = 39.52155 47.34255 43.43205
# Shear Modulus (GPa) = 29.55539 76.85525 53.20532
#
# Velocity S-wave (km/s) = 3.64777 5.88228 4.89425
# Velocity P-wave (km/s) = 5.96110 8.21274 7.17579
#
# Compressibility (1/GPa) = 0.02530265
#
# Stress axis : x y z
#
# Youngs Moduli (GPa) = 68.96796 121.83515 33.51945
#
# Poissons Ratio (x) = 0.15340 0.36956
# Poissons Ratio (y) = 0.08683 0.04474
# Poissons Ratio (z) = 0.76038 0.16262
#
# Static dielectric constant tensor:
#      x y z
#    x 1.762090 0.000000 -0.050310 
#    y 0.000000 1.749270 0.000000 
#    z -0.050310 0.000000 1.077360 
# 
# From -- ./inp_files/1536.got.cif
#   From: 2010.05.17/outbox.cif.g08.bks.cpg/sg3_1_cif.got.tgz:1536.got - 2010.06.03 18:33:08.
