data_PCOD9112313
_publ_section_title
;
Structure prediction by ZEFSAII (Michael W. Deem and Ramdas Pophale) SiO2 
 PCOD9112313
Probable space group: P -1
;
_chemical_formula_sum "Si O2"
_cell_formula_units_Z 16
_cell_length_a 8.129207
_cell_length_b 17.926446
_cell_length_c 11.987877
_cell_angle_alpha 31.314440
_cell_angle_beta 59.499292
_cell_angle_gamma 44.066073
_cell_volume 603.541287
_symmetry_space_group_name_H-M "P -1"
_symmetry_group_IT_number 2
_symmetry_cell_setting 'triclinic'
loop_
_space_group_symop_operation_xyz
x,y,z
-x,-y,-z
loop_
_atom_site_type_symbol
_atom_site_label
_atom_site_fract_x
_atom_site_fract_y
_atom_site_fract_z
Si Si1 0.248218 0.306621 0.710702
Si Si2 0.161517 0.138913 0.768841
Si Si3 0.898382 0.403008 0.340318
Si Si4 0.350297 0.717743 0.521211
Si Si5 0.353942 0.667487 0.962733
Si Si6 0.904468 0.703326 0.973854
Si Si7 0.668620 0.239576 0.900457
Si Si8 0.279922 0.925100 0.488966
O O1 0.273472 0.151598 0.825447
O O2 0.470171 0.311303 0.601381
O O3 0.000000 0.500000 0.500000
O O4 0.197155 0.292500 0.874018
O O5 0.113270 0.285735 0.507794
O O6 0.881411 0.224535 0.783613
O O7 0.302146 0.935444 0.931206
O O8 0.891462 0.249720 0.480820
O O9 0.605503 0.561946 0.271904
O O10 0.939637 0.541099 0.099492
O O11 0.332852 0.861736 0.423758
O O12 0.458218 0.541538 0.789590
O O13 0.431602 0.759282 0.737324
O O14 0.151889 0.670367 0.962780
O O15 0.264848 0.780335 0.965534
O O16 0.730329 0.899749 0.719614
O O17 0.000000 0.000000 0.500000
#
# Coordination Sequence:
#
# PCOD9112313 Si02
#       8
#     2   2   2   2   2   2   2   2
#     4  12  21  40  66  97 134 169 214 267 332 406
#     4  11  22  38  63  93 139 174 205 270 335 395
#     4  11  24  39  63  99 133 167 216 271 330 393
#     4  11  24  40  70  99 125 176 218 265 339 389
#     4  10  20  46  68  88 131 175 221 266 321 392
#     4  11  23  41  65  98 133 168 212 276 326 386
#     4  10  23  38  62  98 132 170 221 263 333 385
#     4  10  25  43  67  91 129 174 226 271 314 390
#
# _framework density 26.510197999999999
#
# number of rings (size 3 to 8) (size 9 to 14) (size 15 to 20)
#    0.000    1.250    3.750    1.500    7.000    0.500 
#    0.000    5.000    2.750    0.000    0.000    0.000 
#    0.000    0.000    0.000    0.000    0.000    0.000 
#
# Total GULP energy -89518.795704 kJ/mol
# GULP energy per Si atom -5594.924732 kJ/mol
# Density = 2.644986 g / cm^3
# Si number density = 26.510198 Si / 1000 Ang^3
#
#
#
# Elastic Constant Matrix: (Units=GPa)
#
#
# Indices 1 2 3 4 5 6 
#
# 1 86.2162 -3.0277 15.3498 -5.2016 -10.5568 0.7707
# 2 -3.0277 67.0009 15.8247 1.5786 -1.6588 10.2199
# 3 15.3498 15.8247 137.3007 5.7694 -7.8681 -5.2197
# 4 -5.2016 1.5786 5.7694 44.8013 1.9913 -8.6249
# 5 -10.5568 -1.6588 -7.8681 1.9913 37.8627 -13.0290
# 6 0.7707 10.2199 -5.2197 -8.6249 -13.0290 30.6499
#
#
#
# Elastic Compliance Matrix: (Units=1/GPa)
#
#
# Indices 1 2 3 4 5 6 
#
# 1 0.012376 0.000730 -0.001289 0.001650 0.003539 0.001195
# 2 0.000730 0.016590 -0.002316 -0.001500 -0.001948 -0.007194
# 3 -0.001289 -0.002316 0.007960 -0.000628 0.002236 0.002934
# 4 0.001650 -0.001500 -0.000628 0.024082 0.001699 0.007851
# 5 0.003539 -0.001948 0.002236 0.001699 0.033004 0.015449
# 6 0.001195 -0.007194 0.002934 0.007851 0.015449 0.044271
#
#
# Mechanical properties :
#
#
# Convention : Reuss Voigt Hill
#
# Bulk Modulus (GPa) = 32.07470 38.53459 35.30465
# Shear Modulus (GPa) = 32.37822 40.15419 36.26620
#
# Velocity S-wave (km/s) = 3.49857 3.89610 3.70267
# Velocity P-wave (km/s) = 5.33341 5.89972 5.62370
#
# Compressibility (1/GPa) = 0.03117722
#
# Stress axis : x y z
#
# Youngs Moduli (GPa) = 80.80106 60.27850 125.62269
#
# Poissons Ratio (x) = -0.04402 0.16191
# Poissons Ratio (y) = -0.05900 0.29091
# Poissons Ratio (z) = 0.10414 0.13959
#
# Static dielectric constant tensor:
#      x y z
#    x 2.127450 0.045960 0.027390 
#    y 0.045960 2.211470 0.003240 
#    z 0.027390 0.003240 2.104470 
# 
# From -- ./inp_files/318185.got.cif
#   From: 2010.05.17/outbox.cif.g08.bks.cpg/sg2_160_cif.got.tgz:318185.got - 2010.06.03 11:33:40.
