data_PCOD9112234
_publ_section_title
;
Structure prediction by ZEFSAII (Michael W. Deem and Ramdas Pophale) SiO2 
 PCOD9112234
Probable space group: P -1
;
_chemical_formula_sum "Si O2"
_cell_formula_units_Z 16
_cell_length_a 23.398830
_cell_length_b 7.196455
_cell_length_c 12.154270
_cell_angle_alpha 51.850991
_cell_angle_beta 26.280342
_cell_angle_gamma 56.203483
_cell_volume 712.607994
_symmetry_space_group_name_H-M "P -1"
_symmetry_group_IT_number 2
_symmetry_cell_setting 'triclinic'
loop_
_space_group_symop_operation_xyz
x,y,z
-x,-y,-z
loop_
_atom_site_type_symbol
_atom_site_label
_atom_site_fract_x
_atom_site_fract_y
_atom_site_fract_z
Si Si1 0.620278 0.897852 0.901281
Si Si2 0.078999 0.572673 0.231157
Si Si3 0.345167 0.607886 0.063790
Si Si4 0.477975 0.039887 0.295472
Si Si5 0.899624 0.606294 0.327080
Si Si6 0.289804 0.920320 0.839842
Si Si7 0.152255 0.396260 0.960050
Si Si8 0.231526 0.938475 0.608310
O O1 0.627683 0.619725 0.973308
O O2 0.741063 0.004506 0.588120
O O3 0.597815 0.945155 0.050911
O O4 0.500000 0.000000 0.000000
O O5 0.000000 0.500000 0.500000
O O6 0.970681 0.660837 0.300430
O O7 0.139352 0.363528 0.127263
O O8 0.188657 0.755642 0.009621
O O9 0.233353 0.529540 0.369623
O O10 0.478351 0.693762 0.855223
O O11 0.301326 0.814583 0.980883
O O12 0.426994 0.921925 0.538711
O O13 0.357364 0.005606 0.436421
O O14 0.869692 0.868439 0.239478
O O15 0.006508 0.434559 0.150920
O O16 0.233697 0.186592 0.844195
O O17 0.208335 0.660784 0.757562
#
# Coordination Sequence:
#
# PCOD9112234 Si02
#       8
#     2   2   2   2   2   2   2   2
#     4   9  23  42  64  89 126 173 216 263 315 373
#     4  10  21  42  67  90 131 170 209 263 323 374
#     4  11  24  42  64  98 131 166 221 263 314 394
#     4  11  24  42  66  95 131 173 212 267 325 375
#     4   9  21  42  67  93 129 167 211 271 315 381
#     4  12  24  42  66 100 129 171 214 265 325 383
#     4  10  23  41  67  94 136 163 213 273 316 381
#     4  10  20  45  66  94 131 170 216 266 323 379
#
# _framework density 22.452736000000002
#
# number of rings (size 3 to 8) (size 9 to 14) (size 15 to 20)
#    0.750    1.000    2.500    0.750    3.500    8.000 
#    4.500    1.250    0.000    0.000    0.000    0.000 
#    0.000    0.000    0.000    0.000    0.000    0.000 
#
# Total GULP energy -89140.323279 kJ/mol
# GULP energy per Si atom -5571.270205 kJ/mol
# Density = 2.240163 g / cm^3
# Si number density = 22.452736 Si / 1000 Ang^3
#
#
#
# Elastic Constant Matrix: (Units=GPa)
#
#
# Indices 1 2 3 4 5 6 
#
# 1 22.3411 -2.3781 14.1308 -4.8687 2.0332 0.2852
# 2 -2.3781 76.5047 15.7363 5.8087 21.4625 -7.9018
# 3 14.1308 15.7363 104.8603 -14.4194 9.5127 12.3994
# 4 -4.8687 5.8087 -14.4194 28.4823 6.3376 1.5643
# 5 2.0332 21.4625 9.5127 6.3376 24.7174 3.1488
# 6 0.2852 -7.9018 12.3994 1.5643 3.1488 32.9958
#
#
#
# Elastic Compliance Matrix: (Units=1/GPa)
#
#
# Indices 1 2 3 4 5 6 
#
# 1 0.051499 0.005201 -0.006590 0.006033 -0.008245 0.003778
# 2 0.005201 0.019442 -0.003178 -0.001382 -0.016683 0.007463
# 3 -0.006590 -0.003178 0.012745 0.006871 -0.002657 -0.005566
# 4 0.006033 -0.001382 0.006871 0.042881 -0.012450 -0.003810
# 5 -0.008245 -0.016683 -0.002657 -0.012450 0.060874 -0.008145
# 6 0.003778 0.007463 -0.005566 -0.003810 -0.008145 0.035111
#
#
# Mechanical properties :
#
#
# Convention : Reuss Voigt Hill
#
# Bulk Modulus (GPa) = 13.41297 28.74269 21.07783
# Shear Modulus (GPa) = 19.49043 28.98690 24.23867
#
# Velocity S-wave (km/s) = 2.94949 3.59697 3.28920
# Velocity P-wave (km/s) = 4.19359 5.48454 4.88192
#
# Compressibility (1/GPa) = 0.07455468
#
# Stress axis : x y z
#
# Youngs Moduli (GPa) = 19.41782 51.43386 78.46012
#
# Poissons Ratio (x) = -0.26752 0.51702
# Poissons Ratio (y) = -0.10100 0.24932
# Poissons Ratio (z) = 0.12796 0.16344
#
# Static dielectric constant tensor:
#      x y z
#    x 1.875480 0.006280 0.031520 
#    y 0.006280 1.814900 0.052070 
#    z 0.031520 0.052070 1.915400 
# 
# From -- ./inp_files/473365.got.cif
#   From: 2010.05.17/outbox.cif.g08.bks.cpg/sg2_237_cif.got.tgz:473365.got - 2010.06.03 11:33:40.
