data_PCOD9112548
_publ_section_title
;
Structure prediction by ZEFSAII (Michael W. Deem and Ramdas Pophale) SiO2 
 PCOD9112548
Probable space group: P 2
;
_chemical_formula_sum "Si O2"
_cell_formula_units_Z 13
_cell_length_a 17.093616
_cell_length_b 5.183831
_cell_length_c 13.030722
_cell_angle_alpha 90.000000
_cell_angle_beta 36.754576
_cell_angle_gamma 90.000000
_cell_volume 690.933998
_symmetry_space_group_name_H-M "P 2"
_symmetry_group_IT_number 3
_symmetry_cell_setting 'monoclinic'
loop_
_space_group_symop_operation_xyz
x,y,z
-x,y,-z
loop_
_atom_site_type_symbol
_atom_site_label
_atom_site_fract_x
_atom_site_fract_y
_atom_site_fract_z
Si Si1 0.535682 0.422990 0.788926
Si Si2 0.764535 0.563217 0.405908
Si Si3 0.099626 0.053160 0.802333
Si Si4 0.000000 0.617063 0.500000
Si Si5 0.761582 0.249339 0.695441
Si Si6 0.412910 0.923157 0.988139
Si Si7 0.923992 0.878542 0.385166
O O1 0.622036 0.503452 0.600124
O O2 0.637242 0.401658 0.778952
O O3 0.426986 0.640402 0.925618
O O4 0.476089 0.137364 0.846738
O O5 0.826523 0.323454 0.282181
O O6 0.792202 0.824418 0.313470
O O7 0.851484 0.626725 0.416063
O O8 0.023681 0.011108 0.773161
O O9 0.000000 0.034249 0.000000
O O10 0.873415 0.439486 0.616927
O O11 0.012853 0.792066 0.385236
O O12 0.816467 0.069111 0.546511
O O13 0.717896 0.053673 0.831223
O O14 0.500000 0.914687 0.000000
#
# Coordination Sequence:
#
# PCOD9112548 Si02
#       7
#     2   2   2   1   2   2   2
#     4  11  18  34  50  73 103 144 184 226 271 323
#     4  10  18  32  53  74 106 139 183 217 287 327
#     4  10  19  33  52  76 107 145 182 232 278 336
#     4  12  22  34  56  74 124 164 198 210 268 350
#     4  11  21  35  48  80 109 159 194 223 275 325
#     4  10  21  28  52  69 102 142 187 225 265 319
#     4  10  21  33  53  74 113 155 188 222 269 333
#
# _framework density 18.815113
#
# number of rings (size 3 to 8) (size 9 to 14) (size 15 to 20)
#    0.923    0.615    3.077    5.077    2.154    0.000 
#    0.000    0.000    0.000    0.000    0.000    0.000 
#    0.000    1.231    2.462    0.154    0.000    0.000 
#
# Total GULP energy -72437.922852 kJ/mol
# GULP energy per Si atom -5572.147912 kJ/mol
# Density = 1.877229 g / cm^3
# Si number density = 18.815113 Si / 1000 Ang^3
#
#
#
# Elastic Constant Matrix: (Units=GPa)
#
#
# Indices 1 2 3 4 5 6 
#
# 1 27.2405 7.3581 21.4270 0.0000 2.0020 0.0000
# 2 7.3581 120.1453 34.7129 0.0000 6.3682 0.0000
# 3 21.4270 34.7129 109.9639 0.0000 28.3362 0.0000
# 4 0.0000 0.0000 0.0000 24.4719 0.0000 -0.5800
# 5 2.0020 6.3682 28.3362 0.0000 21.3919 0.0000
# 6 0.0000 0.0000 0.0000 -0.5800 0.0000 14.8645
#
#
#
# Elastic Compliance Matrix: (Units=1/GPa)
#
#
# Indices 1 2 3 4 5 6 
#
# 1 0.045073 0.000021 -0.011691 0.000000 0.011262 0.000000
# 2 0.000021 0.009198 -0.003342 0.000000 0.001687 0.000000
# 3 -0.011691 -0.003342 0.018050 0.000000 -0.021820 0.000000
# 4 0.000000 0.000000 0.000000 0.040901 0.000000 0.001596
# 5 0.011262 0.001687 -0.021820 0.000000 0.074094 0.000000
# 6 0.000000 0.000000 0.000000 0.001596 0.000000 0.067337
#
#
# Mechanical properties :
#
#
# Convention : Reuss Voigt Hill
#
# Bulk Modulus (GPa) = 23.64361 42.70507 33.17434
# Shear Modulus (GPa) = 16.73485 25.06911 20.90198
#
# Velocity S-wave (km/s) = 2.98558 3.65415 3.33665
# Velocity P-wave (km/s) = 4.94757 6.36791 5.70214
#
# Compressibility (1/GPa) = 0.04229473
#
# Stress axis : x y z
#
# Youngs Moduli (GPa) = 22.18616 108.71587 55.40189
#
# Poissons Ratio (x) = -0.00224 0.64772
# Poissons Ratio (y) = -0.00046 0.18518
# Poissons Ratio (z) = 0.25939 0.36338
#
# Static dielectric constant tensor:
#      x y z
#    x 1.644870 0.000000 -0.006990 
#    y 0.000000 1.702740 0.000000 
#    z -0.006990 0.000000 1.688180 
# 
# From -- ./inp_files/14199.got.cif
#   From: 2010.05.17/outbox.cif.g08.bks.cpg/sg3_8_cif.got.tgz:14199.got - 2010.06.03 18:33:08.
