data_PCOD9112033
_publ_section_title
;
Structure prediction by ZEFSAII (Michael W. Deem and Ramdas Pophale) SiO2 
 PCOD9112033
Probable space group: P -1
;
_chemical_formula_sum "Si O2"
_cell_formula_units_Z 14
_cell_length_a 13.430510
_cell_length_b 7.490438
_cell_length_c 16.319734
_cell_angle_alpha 117.740809
_cell_angle_beta 23.165667
_cell_angle_gamma 119.437744
_cell_volume 562.026951
_symmetry_space_group_name_H-M "P -1"
_symmetry_group_IT_number 2
_symmetry_cell_setting 'triclinic'
loop_
_space_group_symop_operation_xyz
x,y,z
-x,-y,-z
loop_
_atom_site_type_symbol
_atom_site_label
_atom_site_fract_x
_atom_site_fract_y
_atom_site_fract_z
Si Si1 0.181939 0.295287 0.708348
Si Si2 0.923642 0.670317 0.654572
Si Si3 0.372121 0.766490 0.067188
Si Si4 0.341828 0.961619 0.883589
Si Si5 0.141842 0.126979 0.523450
Si Si6 0.713083 0.235929 0.289492
Si Si7 0.858298 0.655216 0.884090
O O1 0.203336 0.267516 0.588044
O O2 0.434791 0.225778 0.539163
O O3 0.207346 0.534229 0.759175
O O4 0.921356 0.154030 0.902890
O O5 0.992857 0.643977 0.691539
O O6 0.000000 0.500000 0.500000
O O7 0.617954 0.674426 0.891343
O O8 0.051176 0.895997 0.575667
O O9 0.257136 0.577721 0.052683
O O10 0.101905 0.804587 0.321839
O O11 0.500000 0.000000 0.000000
O O12 0.581088 0.878878 0.725972
O O13 0.325698 0.916730 0.789593
O O14 0.356302 0.203376 0.933956
O O15 0.936434 0.227128 0.182641
#
# Coordination Sequence:
#
# PCOD9112033 Si02
#       7
#     2   2   2   2   2   2   2
#     4  10  20  44  68 101 141 178 223 276 326 418
#     4  11  24  46  66  98 133 178 233 290 338 393
#     4  10  23  45  70  94 132 178 234 284 330 403
#     4  11  23  41  72 105 139 179 220 274 345 408
#     4  10  21  45  68  96 137 180 224 279 336 401
#     4  10  23  41  69 103 142 175 227 268 339 416
#     4  12  23  44  68  99 140 177 220 291 341 395
#
# _framework density 24.909838000000001
#
# number of rings (size 3 to 8) (size 9 to 14) (size 15 to 20)
#    0.000    1.429    2.857    2.143    0.000    0.571 
#    7.714    2.143    0.000    0.000    0.000    0.000 
#    0.000    0.000    0.000    0.000    0.000    0.000 
#
# Total GULP energy -78188.918586 kJ/mol
# GULP energy per Si atom -5584.922756 kJ/mol
# Density = 2.485314 g / cm^3
# Si number density = 24.909838 Si / 1000 Ang^3
#
#
#
# Elastic Constant Matrix: (Units=GPa)
#
#
# Indices 1 2 3 4 5 6 
#
# 1 68.9039 3.2682 44.8948 12.6276 -0.4066 26.1138
# 2 3.2682 151.0836 46.3916 15.7885 7.2863 5.2765
# 3 44.8948 46.3916 146.6297 5.9335 -35.4919 -5.5850
# 4 12.6276 15.7885 5.9335 48.5710 8.7959 5.0633
# 5 -0.4066 7.2863 -35.4919 8.7959 35.8027 -1.3259
# 6 26.1138 5.2765 -5.5850 5.0633 -1.3259 37.0635
#
#
#
# Elastic Compliance Matrix: (Units=1/GPa)
#
#
# Indices 1 2 3 4 5 6 
#
# 1 0.043450 0.009080 -0.023539 -0.003049 -0.025271 -0.035941
# 2 0.009080 0.010163 -0.008873 -0.001670 -0.010697 -0.009336
# 3 -0.023539 -0.008873 0.024186 -0.001129 0.026629 0.022599
# 4 -0.003049 -0.001670 -0.001129 0.023385 -0.006604 -0.001215
# 5 -0.025271 -0.010697 0.026629 -0.006604 0.058817 0.026347
# 6 -0.035941 -0.009336 0.022599 -0.001215 0.026347 0.058146
#
#
# Mechanical properties :
#
#
# Convention : Reuss Voigt Hill
#
# Bulk Modulus (GPa) = 32.11593 61.74738 46.93165
# Shear Modulus (GPa) = 18.16938 42.42494 30.29716
#
# Velocity S-wave (km/s) = 2.70368 4.13139 3.49129
# Velocity P-wave (km/s) = 4.76103 6.89927 5.92737
#
# Compressibility (1/GPa) = 0.03113719
#
# Stress axis : x y z
#
# Youngs Moduli (GPa) = 23.01505 98.39231 41.34589
#
# Poissons Ratio (x) = -0.89345 0.97323
# Poissons Ratio (y) = -0.20899 0.36686
# Poissons Ratio (z) = 0.54174 0.87303
#
# Static dielectric constant tensor:
#      x y z
#    x 2.027690 -0.017660 -0.026760 
#    y -0.017660 1.924070 0.011360 
#    z -0.026760 0.011360 2.014330 
# 
# From -- ./inp_files/343105.got.cif
#   From: 2010.05.17/outbox.cif.g08.bks.cpg/sg2_172_cif.got.tgz:343105.got - 2010.06.03 11:33:40.
