data_PCOD9112534
_publ_section_title
;
Structure prediction by ZEFSAII (Michael W. Deem and Ramdas Pophale) SiO2 
 PCOD9112534
Probable space group: P 2
;
_chemical_formula_sum "Si O2"
_cell_formula_units_Z 15
_cell_length_a 8.613414
_cell_length_b 8.136577
_cell_length_c 10.660852
_cell_angle_alpha 90.000000
_cell_angle_beta 125.041319
_cell_angle_gamma 90.000000
_cell_volume 611.721896
_symmetry_space_group_name_H-M "P 2"
_symmetry_group_IT_number 3
_symmetry_cell_setting 'monoclinic'
loop_
_space_group_symop_operation_xyz
x,y,z
-x,y,-z
loop_
_atom_site_type_symbol
_atom_site_label
_atom_site_fract_x
_atom_site_fract_y
_atom_site_fract_z
Si Si1 0.727218 0.459640 0.110968
Si Si2 0.315508 0.420539 0.203985
Si Si3 0.286656 0.765161 0.304698
Si Si4 0.675298 0.208190 0.296174
Si Si5 0.352037 0.985864 0.115155
Si Si6 0.875989 0.791487 0.156177
Si Si7 0.878550 0.936976 0.550987
Si Si8 0.000000 0.219199 0.000000
O O1 0.771754 0.318041 0.233372
O O2 0.825498 0.625551 0.204376
O O3 0.500000 0.470986 0.000000
O O4 0.759446 0.445168 0.975251
O O5 0.357774 0.586633 0.298735
O O6 0.510856 0.317771 0.287764
O O7 0.130477 0.317736 0.163305
O O8 0.370175 0.913991 0.263218
O O9 0.063968 0.753766 0.163958
O O10 0.729558 0.822512 0.557592
O O11 0.542146 0.074960 0.165703
O O12 0.796372 0.102590 0.452431
O O13 0.167091 0.101662 0.024023
O O14 0.304985 0.832322 0.008240
O O15 0.951910 0.948061 0.268997
O O16 0.000000 0.847452 0.500000
#
# Coordination Sequence:
#
# PCOD9112534 Si02
#       8
#     2   2   2   2   2   2   2   1
#     4  10  21  39  68 113 147 180 242 321 375 419
#     4  10  20  37  72 113 148 181 243 325 369 425
#     4  10  21  41  77 106 140 193 247 306 368 426
#     4  10  25  43  68 106 154 189 233 302 382 448
#     4  11  20  40  74 110 141 183 251 321 355 427
#     4  10  21  39  77 104 141 190 247 311 358 436
#     4  10  25  46  70  98 150 202 244 289 357 465
#     4  10  18  30  62 110 146 164 220 306 380 402
#
# _framework density 24.520947
#
# number of rings (size 3 to 8) (size 9 to 14) (size 15 to 20)
#    0.800    1.067    2.667    0.800    0.000    6.933 
#    0.000    0.667   11.733    0.000    0.000    0.000 
#    0.000    0.000    0.000    0.000    0.000    0.000 
#
# Total GULP energy -83544.283868 kJ/mol
# GULP energy per Si atom -5569.618925 kJ/mol
# Density = 2.446514 g / cm^3
# Si number density = 24.520947 Si / 1000 Ang^3
#
#
#
# Elastic Constant Matrix: (Units=GPa)
#
#
# Indices 1 2 3 4 5 6 
#
# 1 65.3754 45.5105 39.9155 0.0000 -8.7637 0.0000
# 2 45.5105 149.7183 62.5810 0.0000 -7.1981 0.0000
# 3 39.9155 62.5810 105.2027 0.0000 -7.4109 0.0000
# 4 0.0000 0.0000 0.0000 47.1352 0.0000 -3.2657
# 5 -8.7637 -7.1981 -7.4109 0.0000 21.5139 0.0000
# 6 0.0000 0.0000 0.0000 -3.2657 0.0000 39.6232
#
#
#
# Elastic Compliance Matrix: (Units=1/GPa)
#
#
# Indices 1 2 3 4 5 6 
#
# 1 0.022412 -0.004193 -0.005601 0.000000 0.005797 0.000000
# 2 -0.004193 0.009703 -0.004174 0.000000 0.000101 0.000000
# 3 -0.005601 -0.004174 0.014199 0.000000 0.001213 0.000000
# 4 0.000000 0.000000 0.000000 0.021337 0.000000 0.001759
# 5 0.005797 0.000101 0.001213 0.000000 0.049295 0.000000
# 6 0.000000 0.000000 0.000000 0.001759 0.000000 0.025383
#
#
# Mechanical properties :
#
#
# Convention : Reuss Voigt Hill
#
# Bulk Modulus (GPa) = 54.41152 68.47891 61.44521
# Shear Modulus (GPa) = 28.34610 33.14042 30.74326
#
# Velocity S-wave (km/s) = 3.40368 3.68028 3.54468
# Velocity P-wave (km/s) = 6.13879 6.78577 6.47037
#
# Compressibility (1/GPa) = 0.01837846
#
# Stress axis : x y z
#
# Youngs Moduli (GPa) = 44.61921 103.05727 70.42713
#
# Poissons Ratio (x) = 0.43210 0.39445
# Poissons Ratio (y) = 0.18708 0.29398
# Poissons Ratio (z) = 0.24991 0.43019
#
# Static dielectric constant tensor:
#      x y z
#    x 2.118350 0.000000 -0.054300 
#    y 0.000000 2.006250 0.000000 
#    z -0.054300 0.000000 2.013200 
# 
# From -- ./inp_files/10800.got.cif
#   From: 2010.05.17/outbox.cif.g08.bks.cpg/sg3_6_cif.got.tgz:10800.got - 2010.06.03 18:33:08.
