data_PCOD9112227
_publ_section_title
;
Structure prediction by ZEFSAII (Michael W. Deem and Ramdas Pophale) SiO2 
 PCOD9112227
Probable space group: P -1
;
_chemical_formula_sum "Si O2"
_cell_formula_units_Z 16
_cell_length_a 23.241523
_cell_length_b 7.714407
_cell_length_c 7.689737
_cell_angle_alpha 57.298817
_cell_angle_beta 36.919185
_cell_angle_gamma 58.527765
_cell_volume 685.742551
_symmetry_space_group_name_H-M "P -1"
_symmetry_group_IT_number 2
_symmetry_cell_setting 'triclinic'
loop_
_space_group_symop_operation_xyz
x,y,z
-x,-y,-z
loop_
_atom_site_type_symbol
_atom_site_label
_atom_site_fract_x
_atom_site_fract_y
_atom_site_fract_z
Si Si1 0.615575 0.943158 0.214782
Si Si2 0.368863 0.178500 0.377597
Si Si3 0.754131 0.438591 0.703386
Si Si4 0.601615 0.166294 0.798689
Si Si5 0.063945 0.771202 0.121745
Si Si6 0.119588 0.397386 0.433221
Si Si7 0.130847 0.967242 0.523390
Si Si8 0.605860 0.499105 0.329136
O O1 0.658368 0.908208 0.323343
O O2 0.623623 0.730049 0.201866
O O3 0.500000 0.000000 0.500000
O O4 0.641043 0.116445 0.925092
O O5 0.309338 0.409810 0.363627
O O6 0.357148 0.022224 0.331619
O O7 0.484556 0.183439 0.088865
O O8 0.829681 0.576185 0.524158
O O9 0.681892 0.404170 0.051447
O O10 0.617103 0.373026 0.549968
O O11 0.814579 0.219083 0.619117
O O12 0.120635 0.607135 0.207143
O O13 0.992122 0.638500 0.264226
O O14 0.982403 0.953705 0.301811
O O15 0.126018 0.876884 0.779353
O O16 0.168755 0.187179 0.326197
O O17 0.500000 0.500000 0.500000
#
# Coordination Sequence:
#
# PCOD9112227 Si02
#       8
#     2   2   2   2   2   2   2   2
#     4  10  22  41  68  88 114 176 243 292 340 406
#     4  10  21  43  63  94 127 172 237 294 344 403
#     4  12  24  41  65 105 143 175 238 296 338 412
#     4  10  20  45  65  80 128 183 233 281 342 404
#     4   8  18  45  72  96 137 179 218 269 347 449
#     4   9  20  43  68  97 137 177 214 284 342 412
#     4   9  20  43  67 100 133 175 222 273 353 420
#     4  12  23  44  64  91 136 186 233 288 345 404
#
# _framework density 23.332371999999999
#
# number of rings (size 3 to 8) (size 9 to 14) (size 15 to 20)
#    0.750    1.250    2.500    1.500    0.000    4.000 
#   13.500    0.000    0.000    0.000    0.000    0.000 
#    0.000    0.000    0.000    0.000    0.000    0.000 
#
# Total GULP energy -89432.956269 kJ/mol
# GULP energy per Si atom -5589.559767 kJ/mol
# Density = 2.327927 g / cm^3
# Si number density = 23.332372 Si / 1000 Ang^3
#
#
#
# Elastic Constant Matrix: (Units=GPa)
#
#
# Indices 1 2 3 4 5 6 
#
# 1 91.9664 39.2154 42.2717 2.3665 29.8174 -10.7943
# 2 39.2154 174.4562 37.8883 15.7867 23.4896 -5.3066
# 3 42.2717 37.8883 83.2883 -1.4464 26.6154 -10.8679
# 4 2.3665 15.7867 -1.4464 37.0138 -8.5774 15.6431
# 5 29.8174 23.4896 26.6154 -8.5774 42.0109 -12.6909
# 6 -10.7943 -5.3066 -10.8679 15.6431 -12.6909 28.3004
#
#
#
# Elastic Compliance Matrix: (Units=1/GPa)
#
#
# Indices 1 2 3 4 5 6 
#
# 1 0.016705 -0.001152 -0.005140 -0.003756 -0.007903 0.002714
# 2 -0.001152 0.007132 -0.001750 -0.004224 -0.002487 0.001445
# 3 -0.005140 -0.001750 0.017586 -0.000493 -0.005997 0.002048
# 4 -0.003756 -0.004224 -0.000493 0.039610 0.007037 -0.021153
# 5 -0.007903 -0.002487 -0.005997 0.007037 0.038306 0.007504
# 6 0.002714 0.001445 0.002048 -0.021153 0.007504 0.052485
#
#
# Mechanical properties :
#
#
# Convention : Reuss Voigt Hill
#
# Bulk Modulus (GPa) = 39.46357 65.38465 52.42411
# Shear Modulus (GPa) = 25.46418 36.82072 31.14245
#
# Velocity S-wave (km/s) = 3.30717 3.97684 3.65736
# Velocity P-wave (km/s) = 5.61547 7.01220 6.35234
#
# Compressibility (1/GPa) = 0.02533982
#
# Stress axis : x y z
#
# Youngs Moduli (GPa) = 59.86315 140.20971 56.86292
#
# Poissons Ratio (x) = 0.16156 0.29226
# Poissons Ratio (y) = 0.06898 0.09948
# Poissons Ratio (z) = 0.30769 0.24530
#
# Static dielectric constant tensor:
#      x y z
#    x 1.840150 -0.055720 -0.043270 
#    y -0.055720 1.864930 0.007560 
#    z -0.043270 0.007560 1.904940 
# 
# From -- ./inp_files/351611.got.cif
#   From: 2010.05.17/outbox.cif.g08.bks.cpg/sg2_176_cif.got.tgz:351611.got - 2010.06.03 11:33:40.
