data_PCOD9112018
_publ_section_title
;
Structure prediction by ZEFSAII (Michael W. Deem and Ramdas Pophale) SiO2 
 PCOD9112018
Probable space group: P -1
;
_chemical_formula_sum "Si O2"
_cell_formula_units_Z 16
_cell_length_a 9.234379
_cell_length_b 14.801982
_cell_length_c 21.405849
_cell_angle_alpha 159.781087
_cell_angle_beta 115.080085
_cell_angle_gamma 76.895389
_cell_volume 767.068754
_symmetry_space_group_name_H-M "P -1"
_symmetry_group_IT_number 2
_symmetry_cell_setting 'triclinic'
loop_
_space_group_symop_operation_xyz
x,y,z
-x,-y,-z
loop_
_atom_site_type_symbol
_atom_site_label
_atom_site_fract_x
_atom_site_fract_y
_atom_site_fract_z
Si Si1 0.041541 0.733215 0.872682
Si Si2 0.612021 0.764689 0.558664
Si Si3 0.248782 0.127615 0.053385
Si Si4 0.218683 0.623532 0.630526
Si Si5 0.333159 0.752923 0.594755
Si Si6 0.683537 0.805690 0.207717
Si Si7 0.048950 0.742761 0.357337
Si Si8 0.898308 0.465649 0.023483
O O1 0.945667 0.873351 0.989352
O O2 0.868150 0.512335 0.648225
O O3 0.083181 0.524596 0.789402
O O4 0.215896 0.987956 0.027579
O O5 0.425148 0.480890 0.306139
O O6 0.750612 0.639829 0.508709
O O7 0.514155 0.765307 0.606479
O O8 0.723710 0.109532 0.773651
O O9 0.282866 0.909196 0.874510
O O10 0.318518 0.718287 0.643056
O O11 0.000000 0.500000 0.500000
O O12 0.352596 0.067006 0.778657
O O13 0.500000 0.500000 0.000000
O O14 0.832553 0.707128 0.162451
O O15 0.754649 0.065676 0.443892
O O16 0.032458 0.576461 0.181440
O O17 0.000000 0.000000 0.500000
O O18 0.000000 0.500000 0.000000
#
# Coordination Sequence:
#
# PCOD9112018 Si02
#       8
#     2   2   2   2   2   2   2   2
#     4   9  19  38  68  89 128 165 209 251 318 389
#     4  11  25  43  62  89 130 168 213 262 320 385
#     4  10  22  41  62  93 126 169 207 264 316 373
#     4  12  25  39  63  97 129 164 214 264 321 370
#     4  10  21  41  66  94 124 169 209 263 315 381
#     4  10  20  44  67  92 123 164 218 258 312 382
#     4   9  21  38  63  91 122 168 206 248 315 382
#     4  11  25  42  65  94 128 165 211 271 317 372
#
# _framework density 20.858626000000001
#
# number of rings (size 3 to 8) (size 9 to 14) (size 15 to 20)
#    0.000    1.750    2.500    0.750    3.500    2.000 
#    2.250    0.625    0.000    0.000    0.000    0.000 
#    0.000    0.000    0.000    0.000    0.000    0.000 
#
# Total GULP energy -89232.717902 kJ/mol
# GULP energy per Si atom -5577.044869 kJ/mol
# Density = 2.081115 g / cm^3
# Si number density = 20.858626 Si / 1000 Ang^3
#
#
#
# Elastic Constant Matrix: (Units=GPa)
#
#
# Indices 1 2 3 4 5 6 
#
# 1 86.5929 20.6616 29.9265 -6.8099 -17.6497 10.3340
# 2 20.6616 83.2819 39.2114 14.2799 -14.4828 12.8832
# 3 29.9265 39.2114 104.3819 11.1107 -8.1737 15.0774
# 4 -6.8099 14.2799 11.1107 35.8332 -0.5558 -9.5839
# 5 -17.6497 -14.4828 -8.1737 -0.5558 35.6412 6.0286
# 6 10.3340 12.8832 15.0774 -9.5839 6.0286 36.4869
#
#
#
# Elastic Compliance Matrix: (Units=1/GPa)
#
#
# Indices 1 2 3 4 5 6 
#
# 1 0.014947 -0.001251 -0.003342 0.003809 0.006610 -0.002502
# 2 -0.001251 0.017920 -0.003858 -0.008124 0.006947 -0.007661
# 3 -0.003342 -0.003858 0.013103 -0.004307 0.000445 -0.004311
# 4 0.003809 -0.008124 -0.004307 0.036869 -0.004187 0.013946
# 5 0.006610 0.006947 0.000445 -0.004187 0.036149 -0.011581
# 6 -0.002502 -0.007661 -0.004311 0.013946 -0.011581 0.038179
#
#
# Mechanical properties :
#
#
# Convention : Reuss Voigt Hill
#
# Bulk Modulus (GPa) = 34.40081 50.42841 42.41461
# Shear Modulus (GPa) = 27.20960 33.88939 30.54949
#
# Velocity S-wave (km/s) = 3.61567 4.03515 3.83116
# Velocity P-wave (km/s) = 5.82743 6.77781 6.32051
#
# Compressibility (1/GPa) = 0.02906909
#
# Stress axis : x y z
#
# Youngs Moduli (GPa) = 66.90238 55.80251 76.31635
#
# Poissons Ratio (x) = 0.06984 0.25502
# Poissons Ratio (y) = 0.08373 0.29441
# Poissons Ratio (z) = 0.22356 0.21527
#
# Static dielectric constant tensor:
#      x y z
#    x 2.112070 -0.072020 -0.340030 
#    y -0.072020 2.261020 -0.084330 
#    z -0.340030 -0.084330 2.165410 
# 
# From -- ./inp_files/335687.got.cif
#   From: 2010.05.17/outbox.cif.g08.bks.cpg/sg2_168_cif.got.tgz:335687.got - 2010.06.03 11:33:40.
