data_PCOD9112804
_publ_section_title
;
Structure prediction by ZEFSAII (Michael W. Deem and Ramdas Pophale) SiO2 
 PCOD9112804
Probable space group: P 2
;
_chemical_formula_sum "Si O2"
_cell_formula_units_Z 12
_cell_length_a 13.805764
_cell_length_b 8.823081
_cell_length_c 14.730365
_cell_angle_alpha 90.000000
_cell_angle_beta 159.700834
_cell_angle_gamma 90.000000
_cell_volume 622.480944
_symmetry_space_group_name_H-M "P 2"
_symmetry_group_IT_number 3
_symmetry_cell_setting 'monoclinic'
loop_
_space_group_symop_operation_xyz
x,y,z
-x,y,-z
loop_
_atom_site_type_symbol
_atom_site_label
_atom_site_fract_x
_atom_site_fract_y
_atom_site_fract_z
Si Si1 0.116490 0.709800 0.506621
Si Si2 0.616054 0.927562 0.006392
Si Si3 0.865073 0.083392 0.058769
Si Si4 0.735795 0.583247 0.547091
Si Si5 0.445607 0.922220 0.559166
Si Si6 0.161256 0.417148 0.046331
O O1 0.186342 0.588785 0.490780
O O2 0.000000 0.648393 0.500000
O O3 0.882577 0.823112 0.262044
O O4 0.384405 0.813950 0.762549
O O5 0.702022 0.052199 0.008943
O O6 0.500000 0.988549 0.000000
O O7 0.847839 0.253936 0.008917
O O8 0.183843 0.030739 0.350684
O O9 0.713875 0.977296 0.851077
O O10 0.638438 0.752339 0.487329
O O11 0.477419 0.471951 0.338056
O O12 0.998010 0.534557 0.838113
O O13 0.500000 0.929089 0.500000
O O14 0.000000 0.410249 0.000000
#
# Coordination Sequence:
#
# PCOD9112804 Si02
#       6
#     2   2   2   2   2   2
#     4  10  20  38  64  92 118 151 197 255 309 352
#     4  10  19  37  64  92 118 151 197 254 308 352
#     4  12  23  42  61  91 122 161 206 249 305 357
#     4  12  23  42  62  91 121 162 206 248 305 358
#     4  12  23  38  64  89 117 157 217 259 286 352
#     4  12  26  41  59  87 132 170 195 243 313 363
#
# _framework density 19.277697
#
# number of rings (size 3 to 8) (size 9 to 14) (size 15 to 20)
#    0.000    0.667    3.333    6.000    0.000    0.000 
#    0.000    1.667    0.000    0.000    0.000    0.000 
#    0.000    0.000    0.000    0.000    0.000    0.000 
#
# Total GULP energy -67134.459883 kJ/mol
# GULP energy per Si atom -5594.538324 kJ/mol
# Density = 1.923382 g / cm^3
# Si number density = 19.277697 Si / 1000 Ang^3
#
#
#
# Elastic Constant Matrix: (Units=GPa)
#
#
# Indices 1 2 3 4 5 6 
#
# 1 165.1652 5.4350 -3.7463 0.0000 -7.0946 0.0000
# 2 5.4350 51.4852 -15.0043 0.0000 1.1715 0.0000
# 3 -3.7463 -15.0043 80.0579 0.0000 4.4248 0.0000
# 4 0.0000 0.0000 0.0000 31.1668 0.0000 -7.3261
# 5 -7.0946 1.1715 4.4248 0.0000 35.8738 0.0000
# 6 0.0000 0.0000 0.0000 -7.3261 0.0000 23.4691
#
#
#
# Elastic Compliance Matrix: (Units=1/GPa)
#
#
# Indices 1 2 3 4 5 6 
#
# 1 0.006131 -0.000646 0.000098 0.000000 0.001221 0.000000
# 2 -0.000646 0.020661 0.003913 0.000000 -0.001285 0.000000
# 3 0.000098 0.003913 0.013326 0.000000 -0.001752 0.000000
# 4 0.000000 0.000000 0.000000 0.034626 0.000000 0.010809
# 5 0.001221 -0.001285 -0.001752 0.000000 0.028375 0.000000
# 6 0.000000 0.000000 0.000000 0.010809 0.000000 0.045983
#
#
# Mechanical properties :
#
#
# Convention : Reuss Voigt Hill
#
# Bulk Modulus (GPa) = 21.34610 30.00858 25.67734
# Shear Modulus (GPa) = 31.64809 38.77022 35.20916
#
# Velocity S-wave (km/s) = 4.05618 4.48944 4.27830
# Velocity P-wave (km/s) = 5.74750 6.51719 6.14441
#
# Compressibility (1/GPa) = 0.04684697
#
# Stress axis : x y z
#
# Youngs Moduli (GPa) = 163.11874 48.40065 75.04265
#
# Poissons Ratio (x) = 0.03128 -0.00737
# Poissons Ratio (y) = 0.10543 -0.29364
# Poissons Ratio (z) = -0.01602 -0.18939
#
# Static dielectric constant tensor:
#      x y z
#    x 1.693420 0.000000 -0.001140 
#    y 0.000000 1.625290 0.000000 
#    z -0.001140 0.000000 1.643470 
# 
# From -- ./inp_files/3010.got.cif
#   From: 2010.05.17/outbox.cif.g08.bks.cpg/sg3_2_cif.got.tgz:3010.got - 2010.06.03 18:33:08.
