data_PCOD9112996
_publ_section_title
;
Structure prediction by ZEFSAII (Michael W. Deem and Ramdas Pophale) SiO2 
 PCOD9112996
Probable space group: P 2
;
_chemical_formula_sum "Si O2"
_cell_formula_units_Z 14
_cell_length_a 11.922905
_cell_length_b 9.468249
_cell_length_c 8.378163
_cell_angle_alpha 90.000000
_cell_angle_beta 44.308375
_cell_angle_gamma 90.000000
_cell_volume 660.662015
_symmetry_space_group_name_H-M "P 2"
_symmetry_group_IT_number 3
_symmetry_cell_setting 'monoclinic'
loop_
_space_group_symop_operation_xyz
x,y,z
-x,y,-z
loop_
_atom_site_type_symbol
_atom_site_label
_atom_site_fract_x
_atom_site_fract_y
_atom_site_fract_z
Si Si1 0.612259 0.755040 0.750143
Si Si2 0.617149 0.933360 0.249836
Si Si3 0.315692 0.390865 0.728699
Si Si4 0.812375 0.691671 0.233274
Si Si5 0.785057 0.196742 0.910854
Si Si6 0.821709 0.004789 0.610190
Si Si7 0.892434 0.165342 0.254259
O O1 0.491780 0.848095 0.764449
O O2 0.736911 0.686517 0.492630
O O3 0.719435 0.866152 0.740403
O O4 0.500000 0.678171 0.000000
O O5 0.500000 0.003803 0.500000
O O6 0.719795 0.816372 0.237073
O O7 0.724346 0.054447 0.061961
O O8 0.500000 0.405765 0.500000
O O9 0.232132 0.540899 0.797241
O O10 0.224709 0.281015 0.702239
O O11 0.303556 0.326154 0.918306
O O12 0.000000 0.713278 0.000000
O O13 0.758753 0.148386 0.757351
O O14 0.972649 0.223945 0.760166
O O15 0.816670 0.037467 0.427762
O O16 0.000000 0.983133 0.500000
O O17 0.000000 0.110688 0.000000
#
# Coordination Sequence:
#
# PCOD9112996 Si02
#       7
#     2   2   2   2   2   2   2
#     4  11  23  39  64  95 143 161 220 271 339 382
#     4  10  22  38  61  96 124 167 214 270 326 377
#     4  11  23  42  64  90 126 170 220 272 324 387
#     4  11  26  43  68  92 129 178 227 265 324 401
#     4  10  20  37  63  91 129 163 213 268 324 385
#     4  10  22  37  60  96 133 169 211 271 330 384
#     4   9  21  35  61  89 128 163 222 262 318 385
#
# _framework density 21.190864999999999
#
# number of rings (size 3 to 8) (size 9 to 14) (size 15 to 20)
#    0.000    1.714    1.429    3.000   14.000    0.000 
#    0.000    2.857    0.000    4.286    0.000    0.000 
#    0.000    0.000    0.000    0.000    0.000    0.000 
#
# Total GULP energy -78061.941014 kJ/mol
# GULP energy per Si atom -5575.852930 kJ/mol
# Density = 2.114263 g / cm^3
# Si number density = 21.190865 Si / 1000 Ang^3
#
#
#
# Elastic Constant Matrix: (Units=GPa)
#
#
# Indices 1 2 3 4 5 6 
#
# 1 70.1928 22.7048 31.6803 0.0000 -7.4103 0.0000
# 2 22.7048 64.1530 25.8180 0.0000 -0.8344 0.0000
# 3 31.6803 25.8180 94.8826 0.0000 -4.3064 0.0000
# 4 0.0000 0.0000 0.0000 26.6566 0.0000 -5.0908
# 5 -7.4103 -0.8344 -4.3064 0.0000 34.5690 0.0000
# 6 0.0000 0.0000 0.0000 -5.0908 0.0000 2.3049
#
#
#
# Elastic Compliance Matrix: (Units=1/GPa)
#
#
# Indices 1 2 3 4 5 6 
#
# 1 0.018157 -0.004495 -0.004694 0.000000 0.003199 0.000000
# 2 -0.004495 0.018619 -0.003609 0.000000 -0.000964 0.000000
# 3 -0.004694 -0.003609 0.013113 0.000000 0.000540 0.000000
# 4 0.000000 0.000000 0.000000 0.064882 0.000000 0.143305
# 5 0.003199 -0.000964 0.000540 0.000000 0.029657 0.000000
# 6 0.000000 0.000000 0.000000 0.143305 0.000000 0.750385
#
#
# Mechanical properties :
#
#
# Convention : Reuss Voigt Hill
#
# Bulk Modulus (GPa) = 41.16594 43.29274 42.22934
# Shear Modulus (GPa) = 5.38499 22.64111 14.01305
#
# Velocity S-wave (km/s) = 1.59584 3.27224 2.57432
# Velocity P-wave (km/s) = 4.78164 5.89500 5.36726
#
# Compressibility (1/GPa) = 0.02429193
#
# Stress axis : x y z
#
# Youngs Moduli (GPa) = 55.07579 53.70974 76.25921
#
# Poissons Ratio (x) = 0.24144 0.35796
# Poissons Ratio (y) = 0.24758 0.27522
# Poissons Ratio (z) = 0.25853 0.19384
#
# Static dielectric constant tensor:
#      x y z
#    x 1.811220 0.000000 0.040900 
#    y 0.000000 1.722360 0.000000 
#    z 0.040900 0.000000 1.901750 
# 
# From -- ./inp_files/5253.got.cif
#   From: 2010.05.17/outbox.cif.g08.bks.cpg/sg3_3_cif.got.tgz:5253.got - 2010.06.03 18:33:08.
