data_PCOD9112631
_publ_section_title
;
Structure prediction by ZEFSAII (Michael W. Deem and Ramdas Pophale) SiO2 
 PCOD9112631
Probable space group: P 2
;
_chemical_formula_sum "Si O2"
_cell_formula_units_Z 12
_cell_length_a 15.815536
_cell_length_b 5.837227
_cell_length_c 9.230808
_cell_angle_alpha 90.000000
_cell_angle_beta 145.279483
_cell_angle_gamma 90.000000
_cell_volume 485.378222
_symmetry_space_group_name_H-M "P 2"
_symmetry_group_IT_number 3
_symmetry_cell_setting 'monoclinic'
loop_
_space_group_symop_operation_xyz
x,y,z
-x,y,-z
loop_
_atom_site_type_symbol
_atom_site_label
_atom_site_fract_x
_atom_site_fract_y
_atom_site_fract_z
Si Si1 0.915317 0.964960 0.751168
Si Si2 0.257109 0.805362 0.759600
Si Si3 0.500000 0.881899 0.500000
Si Si4 0.648936 0.234133 0.489365
Si Si5 0.888237 0.157734 0.229968
Si Si6 0.373052 0.504076 0.151751
Si Si7 0.500000 0.138587 0.000000
O O1 0.814551 0.808355 0.501822
O O2 0.817183 0.155235 0.699059
O O3 0.023229 0.085220 0.787676
O O4 0.000000 0.836078 0.000000
O O5 0.155739 0.937459 0.734283
O O6 0.318426 0.573110 0.913849
O O7 0.395586 0.974723 0.944503
O O8 0.369856 0.732488 0.242285
O O9 0.576559 0.028321 0.480859
O O10 0.547556 0.438737 0.410403
O O11 0.598969 0.266301 0.252788
O O12 0.000000 0.290378 0.500000
O O13 0.743174 0.302471 0.976623
#
# Coordination Sequence:
#
# PCOD9112631 Si02
#       7
#     2   2   1   2   2   2   1
#     4  10  25  45  75 100 152 195 223 295 375 418
#     4  10  22  44  71 102 136 188 245 293 347 420
#     4  12  26  44  72 108 144 184 244 306 356 420
#     4  11  25  46  72 103 142 189 239 306 354 414
#     4  10  23  47  70 102 145 194 237 290 357 433
#     4  12  24  43  81 102 137 194 254 287 352 435
#     4  10  18  44  66 102 136 170 236 308 346 394
#
# _framework density 24.722987
#
# number of rings (size 3 to 8) (size 9 to 14) (size 15 to 20)
#    0.000    1.333    3.333    0.500    7.000    2.667 
#    0.000    1.667    0.000    0.000    0.000    0.000 
#    0.000    0.000    0.000    0.000    0.000    0.000 
#
# Total GULP energy -66912.208026 kJ/mol
# GULP energy per Si atom -5576.017336 kJ/mol
# Density = 2.466672 g / cm^3
# Si number density = 24.722987 Si / 1000 Ang^3
#
#
#
# Elastic Constant Matrix: (Units=GPa)
#
#
# Indices 1 2 3 4 5 6 
#
# 1 155.9616 20.1329 28.6267 0.0000 4.7582 0.0000
# 2 20.1329 43.4930 19.6020 0.0000 -7.4083 0.0000
# 3 28.6267 19.6020 132.1620 0.0000 -29.6330 0.0000
# 4 0.0000 0.0000 0.0000 54.1931 0.0000 -9.1265
# 5 4.7582 -7.4083 -29.6330 0.0000 45.5719 0.0000
# 6 0.0000 0.0000 0.0000 -9.1265 0.0000 11.9486
#
#
#
# Elastic Compliance Matrix: (Units=1/GPa)
#
#
# Indices 1 2 3 4 5 6 
#
# 1 0.007163 -0.002974 -0.001623 0.000000 -0.002287 0.000000
# 2 -0.002974 0.026016 -0.002572 0.000000 0.002868 0.000000
# 3 -0.001623 -0.002572 0.009651 0.000000 0.006027 0.000000
# 4 0.000000 0.000000 0.000000 0.021176 0.000000 0.016175
# 5 -0.002287 0.002868 0.006027 0.000000 0.026567 0.000000
# 6 0.000000 0.000000 0.000000 0.016175 0.000000 0.096046
#
#
# Mechanical properties :
#
#
# Convention : Reuss Voigt Hill
#
# Bulk Modulus (GPa) = 35.09628 52.03776 43.56702
# Shear Modulus (GPa) = 23.75794 39.89306 31.82550
#
# Velocity S-wave (km/s) = 3.10331 4.02132 3.59177
# Velocity P-wave (km/s) = 5.20263 6.53111 5.90435
#
# Compressibility (1/GPa) = 0.02849305
#
# Stress axis : x y z
#
# Youngs Moduli (GPa) = 139.59728 38.43747 103.61814
#
# Poissons Ratio (x) = 0.11431 0.16821
# Poissons Ratio (y) = 0.41515 0.26646
# Poissons Ratio (z) = 0.22661 0.09884
#
# Static dielectric constant tensor:
#      x y z
#    x 1.991210 0.000000 0.012110 
#    y 0.000000 2.007250 0.000000 
#    z 0.012110 0.000000 2.042290 
# 
# From -- ./inp_files/8187.got.cif
#   From: 2010.05.17/outbox.cif.g08.bks.cpg/sg3_5_cif.got.tgz:8187.got - 2010.06.03 18:33:08.
