data_PCOD9112977
_publ_section_title
;
Structure prediction by ZEFSAII (Michael W. Deem and Ramdas Pophale) SiO2 
 PCOD9112977
Probable space group: P 2
;
_chemical_formula_sum "Si O2"
_cell_formula_units_Z 16
_cell_length_a 9.547211
_cell_length_b 8.511792
_cell_length_c 17.266257
_cell_angle_alpha 90.000000
_cell_angle_beta 30.406711
_cell_angle_gamma 90.000000
_cell_volume 710.169328
_symmetry_space_group_name_H-M "P 2"
_symmetry_group_IT_number 3
_symmetry_cell_setting 'monoclinic'
loop_
_space_group_symop_operation_xyz
x,y,z
-x,y,-z
loop_
_atom_site_type_symbol
_atom_site_label
_atom_site_fract_x
_atom_site_fract_y
_atom_site_fract_z
Si Si1 0.172652 0.626280 0.339230
Si Si2 0.378329 0.318389 0.659403
Si Si3 0.716732 0.124250 0.830006
Si Si4 0.775049 0.835447 0.176462
Si Si5 0.785476 0.977909 0.327365
Si Si6 0.052500 0.431513 0.685364
Si Si7 0.712730 0.985983 0.673882
Si Si8 0.321895 0.498384 0.828625
O O1 0.226849 0.811273 0.320808
O O2 0.461853 0.531013 0.206403
O O3 0.000000 0.581776 0.500000
O O4 0.023714 0.580351 0.330414
O O5 0.283162 0.147571 0.678171
O O6 0.160311 0.438916 0.722211
O O7 0.681330 0.353771 0.482928
O O8 0.392257 0.349706 0.743203
O O9 0.985976 0.015886 0.717625
O O10 0.810575 0.303689 0.795849
O O11 0.616726 0.091773 0.791102
O O12 0.500000 0.084616 0.000000
O O13 0.525615 0.954086 0.274957
O O14 0.650135 0.660463 0.233582
O O15 0.889256 0.873116 0.206645
O O16 0.000000 0.846060 0.000000
O O17 0.500000 0.915641 0.500000
O O18 0.000000 0.045111 0.500000
O O19 0.000000 0.486244 0.000000
#
# Coordination Sequence:
#
# PCOD9112977 Si02
#       8
#     2   2   2   2   2   2   2   2
#     4  10  20  37  60  86 116 151 195 239 281 343
#     4  10  20  39  59  83 117 152 191 241 283 341
#     4  11  23  39  59  87 119 151 190 241 289 338
#     4  10  22  40  59  85 120 153 189 237 290 343
#     4  11  21  39  60  86 117 153 195 236 281 344
#     4  10  21  38  59  84 117 151 192 237 287 340
#     4  10  22  38  59  88 118 149 194 239 282 341
#     4  10  22  39  59  86 118 151 191 240 289 341
#
# _framework density 22.529837000000001
#
# number of rings (size 3 to 8) (size 9 to 14) (size 15 to 20)
#    0.000    1.750    3.750    1.500    0.000    5.000 
#    2.250    0.625    0.000    0.000    0.000    0.000 
#    0.000    0.000    0.000    0.000    0.000    0.000 
#
# Total GULP energy -89382.958533 kJ/mol
# GULP energy per Si atom -5586.434908 kJ/mol
# Density = 2.247856 g / cm^3
# Si number density = 22.529837 Si / 1000 Ang^3
#
#
#
# Elastic Constant Matrix: (Units=GPa)
#
#
# Indices 1 2 3 4 5 6 
#
# 1 65.3577 12.6633 -5.7683 0.0000 3.9032 0.0000
# 2 12.6633 23.3905 -3.3865 0.0000 3.1151 0.0000
# 3 -5.7683 -3.3865 65.8955 0.0000 -0.1771 0.0000
# 4 0.0000 0.0000 0.0000 1.6674 0.0000 3.1893
# 5 3.9032 3.1151 -0.1771 0.0000 28.1383 0.0000
# 6 0.0000 0.0000 0.0000 3.1893 0.0000 32.3874
#
#
#
# Elastic Compliance Matrix: (Units=1/GPa)
#
#
# Indices 1 2 3 4 5 6 
#
# 1 0.017216 -0.008985 0.001042 0.000000 -0.001387 0.000000
# 2 -0.008985 0.048408 0.001690 0.000000 -0.004102 0.000000
# 3 0.001042 0.001690 0.015353 0.000000 -0.000235 0.000000
# 4 0.000000 0.000000 0.000000 0.738890 0.000000 -0.072761
# 5 -0.001387 -0.004102 -0.000235 0.000000 0.036184 0.000000
# 6 0.000000 0.000000 0.000000 -0.072761 0.000000 0.038041
#
#
# Mechanical properties :
#
#
# Convention : Reuss Voigt Hill
#
# Bulk Modulus (GPa) = 14.60488 17.96229 16.28359
# Shear Modulus (GPa) = 5.37969 22.51432 13.94700
#
# Velocity S-wave (km/s) = 1.54693 3.16462 2.49076
# Velocity P-wave (km/s) = 3.11243 4.61985 3.93892
#
# Compressibility (1/GPa) = 0.06847025
#
# Stress axis : x y z
#
# Youngs Moduli (GPa) = 58.08534 20.65787 65.13402
#
# Poissons Ratio (x) = 0.18561 -0.06784
# Poissons Ratio (y) = 0.52190 -0.11009
# Poissons Ratio (z) = -0.06050 -0.03492
#
# Static dielectric constant tensor:
#      x y z
#    x 1.835750 0.000000 0.001660 
#    y 0.000000 1.836220 0.000000 
#    z 0.001660 0.000000 1.840970 
# 
# From -- ./inp_files/15039.got.cif
#   From: 2010.05.17/outbox.cif.g08.bks.cpg/sg3_8_cif.got.tgz:15039.got - 2010.06.03 18:33:08.
