data_PCOD9112470
_publ_section_title
;
Structure prediction by ZEFSAII (Michael W. Deem and Ramdas Pophale) SiO2 
 PCOD9112470
Probable space group: P 2
;
_chemical_formula_sum "Si O2"
_cell_formula_units_Z 15
_cell_length_a 9.359706
_cell_length_b 8.662655
_cell_length_c 7.908478
_cell_angle_alpha 90.000000
_cell_angle_beta 82.269730
_cell_angle_gamma 90.000000
_cell_volume 635.391418
_symmetry_space_group_name_H-M "P 2"
_symmetry_group_IT_number 3
_symmetry_cell_setting 'monoclinic'
loop_
_space_group_symop_operation_xyz
x,y,z
-x,y,-z
loop_
_atom_site_type_symbol
_atom_site_label
_atom_site_fract_x
_atom_site_fract_y
_atom_site_fract_z
Si Si1 0.223351 0.174050 0.390319
Si Si2 0.860558 0.460096 0.765530
Si Si3 0.073643 0.765407 0.151262
Si Si4 0.000000 0.280501 0.000000
Si Si5 0.538444 0.141768 0.194351
Si Si6 0.365715 0.470993 0.894028
Si Si7 0.358268 0.818844 0.905417
Si Si8 0.929868 0.066104 0.256686
O O1 0.204177 0.358240 0.371756
O O2 0.384725 0.131939 0.314240
O O3 0.174208 0.113207 0.577611
O O4 0.095220 0.113763 0.286370
O O5 0.886645 0.636059 0.720549
O O6 0.998723 0.381510 0.829359
O O7 0.761594 0.444772 0.949559
O O8 0.222337 0.832547 0.054343
O O9 0.955098 0.885815 0.229180
O O10 0.000000 0.686394 0.000000
O O11 0.111593 0.150571 0.911142
O O12 0.606945 0.313698 0.217394
O O13 0.621031 0.977151 0.204365
O O14 0.500000 0.147909 0.000000
O O15 0.347064 0.645866 0.822701
O O16 0.500000 0.483653 0.000000
O O17 0.500000 0.812192 0.000000
#
# Coordination Sequence:
#
# PCOD9112470 Si02
#       8
#     2   2   2   1   2   2   2   2
#     4  10  20  36  57  88 122 154 206 264 303 362
#     4  10  19  35  58  86 118 156 203 250 306 366
#     4  11  21  36  60  93 126 165 204 256 317 383
#     4  10  20  34  58  78 116 160 198 242 296 380
#     4  10  16  30  56  82 112 156 191 259 311 349
#     4   9  16  28  50  84 110 143 193 250 289 352
#     4   9  19  30  52  88 120 147 209 259 298 359
#     4  10  21  36  56  86 123 158 204 252 309 372
#
# _framework density 23.607493999999999
#
# number of rings (size 3 to 8) (size 9 to 14) (size 15 to 20)
#    0.000    2.133    4.000    1.600    1.867    0.000 
#    0.000    5.333    0.000    3.200    0.000    3.733 
#    0.000    0.000    0.000    0.000    0.000    0.000 
#
# Total GULP energy -83511.200566 kJ/mol
# GULP energy per Si atom -5567.413371 kJ/mol
# Density = 2.355376 g / cm^3
# Si number density = 23.607494 Si / 1000 Ang^3
#
#
#
# Elastic Constant Matrix: (Units=GPa)
#
#
# Indices 1 2 3 4 5 6 
#
# 1 58.6712 29.0858 29.8985 0.0000 -20.4974 0.0000
# 2 29.0858 224.4257 60.4226 0.0000 -21.6582 0.0000
# 3 29.8985 60.4226 99.5164 0.0000 -28.3699 0.0000
# 4 0.0000 0.0000 0.0000 14.9334 0.0000 -5.2220
# 5 -20.4974 -21.6582 -28.3699 0.0000 37.5903 0.0000
# 6 0.0000 0.0000 0.0000 -5.2220 0.0000 37.8524
#
#
#
# Elastic Compliance Matrix: (Units=1/GPa)
#
#
# Indices 1 2 3 4 5 6 
#
# 1 0.022531 -0.001100 -0.003542 0.000000 0.008979 0.000000
# 2 -0.001100 0.005399 -0.002844 0.000000 0.000365 0.000000
# 3 -0.003542 -0.002844 0.015062 0.000000 0.007798 0.000000
# 4 0.000000 0.000000 0.000000 0.070358 0.000000 0.009706
# 5 0.008979 0.000365 0.007798 0.000000 0.037594 0.000000
# 6 0.000000 0.000000 0.000000 0.009706 0.000000 0.027757
#
#
# Mechanical properties :
#
#
# Convention : Reuss Voigt Hill
#
# Bulk Modulus (GPa) = 35.68611 69.04745 52.36678
# Shear Modulus (GPa) = 24.62888 35.62233 30.12561
#
# Velocity S-wave (km/s) = 3.23347 3.88872 3.57613
# Velocity P-wave (km/s) = 5.39348 7.03381 6.26754
#
# Compressibility (1/GPa) = 0.02802211
#
# Stress axis : x y z
#
# Youngs Moduli (GPa) = 44.38289 185.21251 66.39112
#
# Poissons Ratio (x) = 0.20374 0.23513
# Poissons Ratio (y) = 0.04882 0.18880
# Poissons Ratio (z) = 0.15718 0.52669
#
# Static dielectric constant tensor:
#      x y z
#    x 1.737900 0.000000 -0.026110 
#    y 0.000000 2.081470 0.000000 
#    z -0.026110 0.000000 1.862010 
# 
# From -- ./inp_files/7134.got.cif
#   From: 2010.05.17/outbox.cif.g08.bks.cpg/sg3_4_cif.got.tgz:7134.got - 2010.06.03 18:33:08.
