data_PCOD9112802
_publ_section_title
;
Structure prediction by ZEFSAII (Michael W. Deem and Ramdas Pophale) SiO2 
 PCOD9112802
Probable space group: P 2
;
_chemical_formula_sum "Si O2"
_cell_formula_units_Z 13
_cell_length_a 13.054113
_cell_length_b 10.147604
_cell_length_c 12.588782
_cell_angle_alpha 90.000000
_cell_angle_beta 157.016794
_cell_angle_gamma 90.000000
_cell_volume 651.137323
_symmetry_space_group_name_H-M "P 2"
_symmetry_group_IT_number 3
_symmetry_cell_setting 'monoclinic'
loop_
_space_group_symop_operation_xyz
x,y,z
-x,y,-z
loop_
_atom_site_type_symbol
_atom_site_label
_atom_site_fract_x
_atom_site_fract_y
_atom_site_fract_z
Si Si1 0.888071 0.166520 0.502627
Si Si2 0.709309 0.184340 0.809062
Si Si3 0.007498 0.627164 0.877118
Si Si4 0.500000 0.964168 0.500000
Si Si5 0.188971 0.334768 0.359897
Si Si6 0.477349 0.773220 0.676987
Si Si7 0.622762 0.018780 0.940986
O O1 0.847618 0.276972 0.555462
O O2 0.614227 0.091581 0.225820
O O3 0.000000 0.223575 0.500000
O O4 0.098899 0.055728 0.741742
O O5 0.721665 0.075098 0.727314
O O6 0.474413 0.292902 0.588914
O O7 0.638002 0.093932 0.842612
O O8 0.971146 0.259392 0.084655
O O9 0.889316 0.485722 0.732763
O O10 0.817667 0.724483 0.628226
O O11 0.000000 0.644366 0.000000
O O12 0.306225 0.657708 0.127171
O O13 0.516333 0.868582 0.613765
O O14 0.544536 0.867570 0.841158
#
# Coordination Sequence:
#
# PCOD9112802 Si02
#       7
#     2   2   2   1   2   2   2
#     4  10  19  37  63  87 110 140 182 239 305 346
#     4   9  20  32  53  74 109 139 180 234 280 319
#     4  12  23  36  54  77 117 165 200 224 257 327
#     4  10  20  34  52  76 104 146 192 226 266 326
#     4  10  22  37  51  84 111 147 184 231 280 325
#     4  11  22  38  54  79 114 155 196 223 274 328
#     4   9  19  35  56  86 110 138 183 236 286 339
#
# _framework density 19.965066
#
# number of rings (size 3 to 8) (size 9 to 14) (size 15 to 20)
#    0.000    1.846    1.538    2.308    2.154    4.923 
#    0.000    0.000    0.000    5.538    0.000    0.000 
#    0.000    0.000    0.000    0.000    0.000    0.000 
#
# Total GULP energy -72394.345677 kJ/mol
# GULP energy per Si atom -5568.795821 kJ/mol
# Density = 1.991962 g / cm^3
# Si number density = 19.965066 Si / 1000 Ang^3
#
#
#
# Elastic Constant Matrix: (Units=GPa)
#
#
# Indices 1 2 3 4 5 6 
#
# 1 62.9018 3.7302 -0.3634 0.0000 -6.2898 0.0000
# 2 3.7302 64.0530 8.2639 0.0000 -11.3304 0.0000
# 3 -0.3634 8.2639 108.0411 0.0000 3.9995 0.0000
# 4 0.0000 0.0000 0.0000 122.5247 0.0000 -5.7389
# 5 -6.2898 -11.3304 3.9995 0.0000 20.7630 0.0000
# 6 0.0000 0.0000 0.0000 -5.7389 0.0000 11.9407
#
#
#
# Elastic Compliance Matrix: (Units=1/GPa)
#
#
# Indices 1 2 3 4 5 6 
#
# 1 0.016396 -0.000062 -0.000124 0.000000 0.004957 0.000000
# 2 -0.000062 0.017590 -0.001712 0.000000 0.009910 0.000000
# 3 -0.000124 -0.001712 0.009490 0.000000 -0.002800 0.000000
# 4 0.000000 0.000000 0.000000 0.008350 0.000000 0.004013
# 5 0.004957 0.009910 -0.002800 0.000000 0.055611 0.000000
# 6 0.000000 0.000000 0.000000 0.004013 0.000000 0.085676
#
#
# Mechanical properties :
#
#
# Convention : Reuss Voigt Hill
#
# Bulk Modulus (GPa) = 25.20181 28.69526 26.94853
# Shear Modulus (GPa) = 23.79415 45.93669 34.86542
#
# Velocity S-wave (km/s) = 3.45598 4.80192 4.18343
# Velocity P-wave (km/s) = 5.34559 6.71927 6.07141
#
# Compressibility (1/GPa) = 0.03967969
#
# Stress axis : x y z
#
# Youngs Moduli (GPa) = 60.98891 56.85189 105.37458
#
# Poissons Ratio (x) = 0.00353 0.01302
# Poissons Ratio (y) = 0.00379 0.18045
# Poissons Ratio (z) = 0.00754 0.09736
#
# Static dielectric constant tensor:
#      x y z
#    x 1.714160 0.000000 -0.020490 
#    y 0.000000 1.719330 0.000000 
#    z -0.020490 0.000000 1.826190 
# 
# From -- ./inp_files/2928.got.cif
#   From: 2010.05.17/outbox.cif.g08.bks.cpg/sg3_2_cif.got.tgz:2928.got - 2010.06.03 18:33:08.
