data_PCOD9112767
_publ_section_title
;
Structure prediction by ZEFSAII (Michael W. Deem and Ramdas Pophale) SiO2 
 PCOD9112767
Probable space group: P 2
;
_chemical_formula_sum "Si O2"
_cell_formula_units_Z 14
_cell_length_a 18.122762
_cell_length_b 4.585092
_cell_length_c 5.943126
_cell_angle_alpha 90.000000
_cell_angle_beta 101.605372
_cell_angle_gamma 90.000000
_cell_volume 483.745371
_symmetry_space_group_name_H-M "P 2"
_symmetry_group_IT_number 3
_symmetry_cell_setting 'monoclinic'
loop_
_space_group_symop_operation_xyz
x,y,z
-x,y,-z
loop_
_atom_site_type_symbol
_atom_site_label
_atom_site_fract_x
_atom_site_fract_y
_atom_site_fract_z
Si Si1 0.424811 0.710510 0.833861
Si Si2 0.644261 0.262388 0.838474
Si Si3 0.141924 0.970431 0.863045
Si Si4 0.284133 0.980561 0.744325
Si Si5 0.500000 0.325747 0.500000
Si Si6 0.000000 0.967458 0.000000
Si Si7 0.071343 0.563408 0.432122
Si Si8 0.783183 0.582502 0.693630
O O1 0.455894 0.527749 0.646822
O O2 0.369184 0.955722 0.699750
O O3 0.500000 0.824294 0.000000
O O4 0.379422 0.482527 0.970362
O O5 0.566684 0.174245 0.675956
O O6 0.711052 0.393530 0.725458
O O7 0.680681 0.984734 0.979955
O O8 0.208425 0.152809 0.781300
O O9 0.105283 0.763500 0.651576
O O10 0.071318 0.130471 0.934609
O O11 0.182950 0.771853 0.078770
O O12 0.246640 0.768728 0.537313
O O13 0.036160 0.767557 0.216467
O O14 0.143137 0.413037 0.357535
O O15 0.000000 0.398117 0.500000
#
# Coordination Sequence:
#
# PCOD9112767 Si02
#       8
#     2   2   2   2   1   1   2   2
#     4  10  22  41  62  88 128 166 219 290 344 418
#     4  11  23  40  64  95 131 175 235 287 349 425
#     4   9  17  32  56  88 124 169 221 273 340 410
#     4  11  22  38  62  92 125 172 226 280 347 418
#     4  10  22  44  66  86 130 180 218 296 362 406
#     4   8  14  28  54  88 122 168 216 270 334 412
#     4   8  15  28  54  89 126 169 224 273 338 417
#     4  10  19  36  59  91 133 173 227 292 342 410
#
# _framework density 28.940847999999999
#
# number of rings (size 3 to 8) (size 9 to 14) (size 15 to 20)
#    0.000    2.286    2.857    0.000    0.000    2.857 
#    0.000    3.571    0.000    5.143    0.000   29.000 
#    0.000    0.000    0.000    0.000    0.000    0.000 
#
# Total GULP energy -78017.678173 kJ/mol
# GULP energy per Si atom -5572.691298 kJ/mol
# Density = 2.887498 g / cm^3
# Si number density = 28.940848 Si / 1000 Ang^3
#
#
#
# Elastic Constant Matrix: (Units=GPa)
#
#
# Indices 1 2 3 4 5 6 
#
# 1 239.8085 48.2625 85.3050 0.0000 -20.4359 0.0000
# 2 48.2625 58.0441 66.0737 0.0000 5.9314 0.0000
# 3 85.3050 66.0737 186.7089 0.0000 37.1631 0.0000
# 4 0.0000 0.0000 0.0000 54.8423 0.0000 11.1502
# 5 -20.4359 5.9314 37.1631 0.0000 78.5964 0.0000
# 6 0.0000 0.0000 0.0000 11.1502 0.0000 -8.0965
#
#
#
# Elastic Compliance Matrix: (Units=1/GPa)
#
#
# Indices 1 2 3 4 5 6 
#
# 1 0.005709 -0.002403 -0.002307 0.000000 0.002756 0.000000
# 2 -0.002403 0.030484 -0.010054 0.000000 0.001829 0.000000
# 3 -0.002307 -0.010054 0.010969 0.000000 -0.005027 0.000000
# 4 0.000000 0.000000 0.000000 0.014245 0.000000 0.019618
# 5 0.002756 0.001829 -0.005027 0.000000 0.015679 0.000000
# 6 0.000000 0.000000 0.000000 0.019618 0.000000 -0.096492
#
#
# Mechanical properties :
#
#
# Convention : Reuss Voigt Hill
#
# Bulk Modulus (GPa) = 56.70694 98.20484 77.45589
# Shear Modulus (GPa) = 312.50883 44.06311 178.28597
#
# Velocity S-wave (km/s) = 10.40271 3.90619 7.85731
# Velocity P-wave (km/s) = 12.80332 7.37231 10.44692
#
# Compressibility (1/GPa) = 0.01763453
#
# Stress axis : x y z
#
# Youngs Moduli (GPa) = 175.16179 32.80380 91.17009
#
# Poissons Ratio (x) = 0.07882 0.21030
# Poissons Ratio (y) = 0.42088 0.91664
# Poissons Ratio (z) = 0.40405 0.32981
#
# Static dielectric constant tensor:
#      x y z
#    x 2.379510 0.000000 -0.094100 
#    y 0.000000 2.245860 0.000000 
#    z -0.094100 0.000000 2.261960 
# 
# From -- ./inp_files/3567.got.cif
#   From: 2010.05.17/outbox.cif.g08.bks.cpg/sg3_2_cif.got.tgz:3567.got - 2010.06.03 18:33:08.
