data_PCOD9112731
_publ_section_title
;
Structure prediction by ZEFSAII (Michael W. Deem and Ramdas Pophale) SiO2 
 PCOD9112731
Probable space group: P 2
;
_chemical_formula_sum "Si O2"
_cell_formula_units_Z 14
_cell_length_a 7.456109
_cell_length_b 11.496473
_cell_length_c 9.370893
_cell_angle_alpha 90.000000
_cell_angle_beta 47.302753
_cell_angle_gamma 90.000000
_cell_volume 590.355996
_symmetry_space_group_name_H-M "P 2"
_symmetry_group_IT_number 3
_symmetry_cell_setting 'monoclinic'
loop_
_space_group_symop_operation_xyz
x,y,z
-x,y,-z
loop_
_atom_site_type_symbol
_atom_site_label
_atom_site_fract_x
_atom_site_fract_y
_atom_site_fract_z
Si Si1 0.741179 0.526950 0.714374
Si Si2 0.137124 0.985854 0.563971
Si Si3 0.500000 0.164639 0.500000
Si Si4 0.903724 0.668894 0.899125
Si Si5 0.276987 0.169288 0.901383
Si Si6 0.757536 0.738323 0.529814
Si Si7 0.215207 0.916879 0.000141
Si Si8 0.500000 0.325923 0.000000
O O1 0.786747 0.581465 0.847939
O O2 0.627990 0.626422 0.670930
O O3 0.000000 0.500211 0.500000
O O4 0.601737 0.409359 0.821772
O O5 0.314670 0.873962 0.437252
O O6 0.000000 0.032931 0.500000
O O7 0.913556 0.941367 0.780264
O O8 0.277423 0.080991 0.577687
O O9 0.426159 0.223273 0.687994
O O10 0.722781 0.780355 0.018480
O O11 0.147897 0.709473 0.680013
O O12 0.000000 0.625747 0.000000
O O13 0.305989 0.242505 0.028698
O O14 0.000000 0.165492 0.000000
O O15 0.361197 0.035046 0.884739
O O16 0.000000 0.745608 0.500000
O O17 0.000000 0.911793 0.000000
#
# Coordination Sequence:
#
# PCOD9112731 Si02
#       8
#     2   2   1   2   2   2   2   1
#     4   9  20  43  63  91 132 163 220 282 312 383
#     4  10  19  34  64  98 133 168 201 248 335 406
#     4  12  24  40  66  98 128 170 216 262 330 400
#     4   8  14  28  64  94 125 170 195 248 352 386
#     4  11  26  47  64  93 137 169 224 284 316 380
#     4   7  14  32  58  89 129 168 195 255 324 389
#     4   9  16  37  60  92 140 168 195 271 329 388
#     4  12  28  46  70  92 118 188 244 262 322 374
#
# _framework density 23.714503000000001
#
# number of rings (size 3 to 8) (size 9 to 14) (size 15 to 20)
#    0.000    2.857    2.857    0.857    2.000    1.714 
#    2.571    1.429    0.000    1.714    0.000    0.000 
#    0.000    0.000    0.000    0.000    0.000    0.000 
#
# Total GULP energy -78071.213289 kJ/mol
# GULP energy per Si atom -5576.515235 kJ/mol
# Density = 2.366053 g / cm^3
# Si number density = 23.714503 Si / 1000 Ang^3
#
#
#
# Elastic Constant Matrix: (Units=GPa)
#
#
# Indices 1 2 3 4 5 6 
#
# 1 60.7577 33.2899 19.6749 0.0000 22.7454 0.0000
# 2 33.2899 97.5616 33.8484 0.0000 -0.2425 0.0000
# 3 19.6749 33.8484 111.8473 0.0000 23.5141 0.0000
# 4 0.0000 0.0000 0.0000 27.4133 0.0000 -7.4506
# 5 22.7454 -0.2425 23.5141 0.0000 38.9061 0.0000
# 6 0.0000 0.0000 0.0000 -7.4506 0.0000 21.0837
#
#
#
# Elastic Compliance Matrix: (Units=1/GPa)
#
#
# Indices 1 2 3 4 5 6 
#
# 1 0.028072 -0.010272 0.001872 0.000000 -0.017607 0.000000
# 2 -0.010272 0.015424 -0.004747 0.000000 0.008970 0.000000
# 3 0.001872 -0.004747 0.011781 0.000000 -0.008244 0.000000
# 4 0.000000 0.000000 0.000000 0.040354 0.000000 0.014260
# 5 -0.017607 0.008970 -0.008244 0.000000 0.041035 0.000000
# 6 0.000000 0.000000 0.000000 0.014260 0.000000 0.052469
#
#
# Mechanical properties :
#
#
# Convention : Reuss Voigt Hill
#
# Bulk Modulus (GPa) = 34.50155 49.31033 41.90594
# Shear Modulus (GPa) = 22.21322 29.70419 25.95870
#
# Velocity S-wave (km/s) = 3.06386 3.54301 3.31211
# Velocity P-wave (km/s) = 5.20544 6.12990 5.68649
#
# Compressibility (1/GPa) = 0.02898421
#
# Stress axis : x y z
#
# Youngs Moduli (GPa) = 35.62235 64.83350 84.88104
#
# Poissons Ratio (x) = 0.66598 -0.15891
# Poissons Ratio (y) = 0.36592 0.40291
# Poissons Ratio (z) = -0.06669 0.30775
#
# Static dielectric constant tensor:
#      x y z
#    x 1.769200 0.000000 -0.130340 
#    y 0.000000 1.933130 0.000000 
#    z -0.130340 0.000000 1.973930 
# 
# From -- ./inp_files/5748.got.cif
#   From: 2010.05.17/outbox.cif.g08.bks.cpg/sg3_3_cif.got.tgz:5748.got - 2010.06.03 18:33:08.
