data_PCOD9112264
_publ_section_title
;
Structure prediction by ZEFSAII (Michael W. Deem and Ramdas Pophale) SiO2 
 PCOD9112264
Probable space group: P -1
;
_chemical_formula_sum "Si O2"
_cell_formula_units_Z 14
_cell_length_a 5.589535
_cell_length_b 9.037682
_cell_length_c 17.063247
_cell_angle_alpha 115.898931
_cell_angle_beta 126.008244
_cell_angle_gamma 82.851156
_cell_volume 616.788498
_symmetry_space_group_name_H-M "P -1"
_symmetry_group_IT_number 2
_symmetry_cell_setting 'triclinic'
loop_
_space_group_symop_operation_xyz
x,y,z
-x,-y,-z
loop_
_atom_site_type_symbol
_atom_site_label
_atom_site_fract_x
_atom_site_fract_y
_atom_site_fract_z
Si Si1 0.242516 0.901496 0.482279
Si Si2 0.625213 0.685080 0.604369
Si Si3 0.242799 0.669365 0.072355
Si Si4 0.799745 0.402595 0.368673
Si Si5 0.276676 0.734256 0.906423
Si Si6 0.196503 0.400405 0.738169
Si Si7 0.087200 0.067206 0.945620
O O1 0.430865 0.811249 0.558774
O O2 0.056313 0.758810 0.358710
O O3 0.500000 0.000000 0.500000
O O4 0.000000 0.000000 0.500000
O O5 0.500000 0.500000 0.500000
O O6 0.513080 0.681617 0.671813
O O7 0.976509 0.710496 0.653112
O O8 0.536830 0.643379 0.168385
O O9 0.146738 0.841635 0.122783
O O10 0.280156 0.706833 0.994862
O O11 0.000000 0.500000 0.000000
O O12 0.726114 0.531259 0.318867
O O13 0.000000 0.500000 0.500000
O O14 0.107076 0.560922 0.799830
O O15 0.164910 0.897128 0.888029
O O16 0.625501 0.782606 0.959395
O O17 0.000000 0.000000 0.000000
#
# Coordination Sequence:
#
# PCOD9112264 Si02
#       7
#     2   2   2   2   2   2   2
#     4  12  28  49  72 107 153 192 251 328 371 435
#     4  10  20  45  72  94 133 188 239 312 356 428
#     4  11  23  42  72 112 152 187 237 305 365 455
#     4  10  21  41  73 101 134 184 259 302 344 440
#     4  10  22  44  71 104 147 186 245 300 354 461
#     4  12  25  44  76 106 138 208 245 290 396 435
#     4   9  20  44  68 100 151 181 230 312 356 422
#
# _framework density 22.698218000000001
#
# number of rings (size 3 to 8) (size 9 to 14) (size 15 to 20)
#    0.000    1.429    4.286    1.286    2.000    2.286 
#    2.571    5.714    0.000    0.000    0.000    0.000 
#    0.000    0.000    0.000    0.000    0.000    0.000 
#
# Total GULP energy -78093.731256 kJ/mol
# GULP energy per Si atom -5578.123661 kJ/mol
# Density = 2.264656 g / cm^3
# Si number density = 22.698218 Si / 1000 Ang^3
#
#
#
# Elastic Constant Matrix: (Units=GPa)
#
#
# Indices 1 2 3 4 5 6 
#
# 1 159.4050 71.6061 31.3390 -2.0932 7.6136 2.2223
# 2 71.6061 174.3829 51.5949 -14.9937 12.9734 -14.5670
# 3 31.3390 51.5949 96.0315 1.0066 3.2042 3.3129
# 4 -2.0932 -14.9937 1.0066 39.4822 4.5384 1.6443
# 5 7.6136 12.9734 3.2042 4.5384 21.6616 -1.7208
# 6 2.2223 -14.5670 3.3129 1.6443 -1.7208 54.8195
#
#
#
# Elastic Compliance Matrix: (Units=1/GPa)
#
#
# Indices 1 2 3 4 5 6 
#
# 1 0.007859 -0.003060 -0.000852 -0.000590 -0.000767 -0.001087
# 2 -0.003060 0.008965 -0.003799 0.003732 -0.004316 0.002488
# 3 -0.000852 -0.003799 0.012778 -0.001852 0.000941 -0.001662
# 4 -0.000590 0.003732 -0.001852 0.027625 -0.007536 0.000062
# 5 -0.000767 -0.004316 0.000941 -0.007536 0.050509 0.000639
# 6 -0.001087 0.002488 -0.001662 0.000062 0.000639 0.019066
#
#
# Mechanical properties :
#
#
# Convention : Reuss Voigt Hill
#
# Bulk Modulus (GPa) = 70.51706 82.09994 76.30850
# Shear Modulus (GPa) = 34.02551 41.54463 37.78507
#
# Velocity S-wave (km/s) = 3.87594 4.28285 4.08446
# Velocity P-wave (km/s) = 7.15299 7.79139 7.47900
#
# Compressibility (1/GPa) = 0.01418097
#
# Stress axis : x y z
#
# Youngs Moduli (GPa) = 127.23919 111.54905 78.26200
#
# Poissons Ratio (x) = 0.34131 0.06665
# Poissons Ratio (y) = 0.38931 0.29731
# Poissons Ratio (z) = 0.10836 0.42376
#
# Static dielectric constant tensor:
#      x y z
#    x 1.949540 -0.067260 -0.067940 
#    y -0.067260 1.862580 0.014190 
#    z -0.067940 0.014190 1.843750 
# 
# From -- ./inp_files/480809.got.cif
#   From: 2010.05.17/outbox.cif.g08.bks.cpg/sg2_241_cif.got.tgz:480809.got - 2010.06.03 11:33:40.
