data_PCOD9112808
_publ_section_title
;
Structure prediction by ZEFSAII (Michael W. Deem and Ramdas Pophale) SiO2 
 PCOD9112808
Probable space group: P 2
;
_chemical_formula_sum "Si O2"
_cell_formula_units_Z 16
_cell_length_a 20.613524
_cell_length_b 8.296674
_cell_length_c 9.051417
_cell_angle_alpha 90.000000
_cell_angle_beta 29.762577
_cell_angle_gamma 90.000000
_cell_volume 768.441482
_symmetry_space_group_name_H-M "P 2"
_symmetry_group_IT_number 3
_symmetry_cell_setting 'monoclinic'
loop_
_space_group_symop_operation_xyz
x,y,z
-x,y,-z
loop_
_atom_site_type_symbol
_atom_site_label
_atom_site_fract_x
_atom_site_fract_y
_atom_site_fract_z
Si Si1 0.639255 0.751470 0.715618
Si Si2 0.354604 0.903294 0.720668
Si Si3 0.696621 0.547196 0.885750
Si Si4 0.614663 0.203021 0.549262
Si Si5 0.126830 0.941526 0.661378
Si Si6 0.317819 0.218238 0.238989
Si Si7 0.597388 0.555086 0.510076
Si Si8 0.122913 0.789026 0.362774
O O1 0.667566 0.684444 0.821839
O O2 0.770298 0.852287 0.431628
O O3 0.611370 0.606588 0.656828
O O4 0.500000 0.845399 0.000000
O O5 0.500000 0.922844 0.500000
O O6 0.350561 0.721547 0.661870
O O7 0.339338 0.046241 0.631558
O O8 0.239615 0.901434 0.068496
O O9 0.728889 0.387478 0.733359
O O10 0.811389 0.611881 0.759943
O O11 0.554008 0.534474 0.239525
O O12 0.664720 0.219153 0.618321
O O13 0.649991 0.372290 0.397390
O O14 0.457415 0.189361 0.883985
O O15 0.084276 0.832633 0.606694
O O16 0.211297 0.083040 0.423339
O O17 0.000000 0.995695 0.000000
O O18 0.000000 0.797895 0.500000
#
# Coordination Sequence:
#
# PCOD9112808 Si02
#       8
#     2   2   2   2   2   2   2   2
#     4   9  18  34  66  94 123 162 216 285 342 386
#     4  12  24  41  65  97 140 184 230 269 346 421
#     4   9  18  40  65  93 131 167 216 285 343 394
#     4  10  22  37  68 108 137 168 223 292 349 407
#     4  11  25  42  65  96 132 182 230 284 335 405
#     4  10  20  39  66 102 134 167 224 296 350 388
#     4  10  19  37  66 103 131 167 219 286 342 400
#     4  11  26  46  64  93 136 186 230 276 336 415
#
# _framework density 20.821365
#
# number of rings (size 3 to 8) (size 9 to 14) (size 15 to 20)
#    0.000    1.750    2.500    1.500    8.750    0.500 
#    2.250    4.375    0.000    0.000    0.000    0.000 
#    0.000    0.000    0.000    0.000    0.000    0.000 
#
# Total GULP energy -89222.400930 kJ/mol
# GULP energy per Si atom -5576.400058 kJ/mol
# Density = 2.077397 g / cm^3
# Si number density = 20.821365 Si / 1000 Ang^3
#
#
#
# Elastic Constant Matrix: (Units=GPa)
#
#
# Indices 1 2 3 4 5 6 
#
# 1 87.9802 35.2288 35.2047 0.0000 -11.4021 0.0000
# 2 35.2288 126.1813 35.7343 0.0000 6.7280 0.0000
# 3 35.2047 35.7343 65.6089 0.0000 -2.2656 0.0000
# 4 0.0000 0.0000 0.0000 12.7876 0.0000 7.7294
# 5 -11.4021 6.7280 -2.2656 0.0000 33.6543 0.0000
# 6 0.0000 0.0000 0.0000 7.7294 0.0000 33.4964
#
#
#
# Elastic Compliance Matrix: (Units=1/GPa)
#
#
# Indices 1 2 3 4 5 6 
#
# 1 0.015937 -0.002808 -0.006832 0.000000 0.005501 0.000000
# 2 -0.002808 0.010034 -0.004070 0.000000 -0.003231 0.000000
# 3 -0.006832 -0.004070 0.021122 0.000000 -0.000079 0.000000
# 4 0.000000 0.000000 0.000000 0.090876 0.000000 -0.020970
# 5 0.005501 -0.003231 -0.000079 0.000000 0.032218 0.000000
# 6 0.000000 0.000000 0.000000 -0.020970 0.000000 0.034693
#
#
# Mechanical properties :
#
#
# Convention : Reuss Voigt Hill
#
# Bulk Modulus (GPa) = 50.83185 54.67844 52.75515
# Shear Modulus (GPa) = 20.93289 27.56118 24.24703
#
# Velocity S-wave (km/s) = 3.17418 3.64221 3.41622
# Velocity P-wave (km/s) = 6.15631 6.63365 6.39943
#
# Compressibility (1/GPa) = 0.01967270
#
# Stress axis : x y z
#
# Youngs Moduli (GPa) = 62.74539 99.66157 47.34403
#
# Poissons Ratio (x) = 0.27985 0.32347
# Poissons Ratio (y) = 0.17619 0.19269
# Poissons Ratio (z) = 0.42870 0.40562
#
# Static dielectric constant tensor:
#      x y z
#    x 1.798970 0.000000 0.030640 
#    y 0.000000 1.790670 0.000000 
#    z 0.030640 0.000000 1.771560 
# 
# From -- ./inp_files/9463.got.cif
#   From: 2010.05.17/outbox.cif.g08.bks.cpg/sg3_5_cif.got.tgz:9463.got - 2010.06.03 18:33:08.
