data_PCOD9112451
_publ_section_title
;
Structure prediction by ZEFSAII (Michael W. Deem and Ramdas Pophale) SiO2 
 PCOD9112451
Probable space group: P 2
;
_chemical_formula_sum "Si O2"
_cell_formula_units_Z 16
_cell_length_a 17.942928
_cell_length_b 8.248808
_cell_length_c 8.534322
_cell_angle_alpha 90.000000
_cell_angle_beta 152.400012
_cell_angle_gamma 90.000000
_cell_volume 585.210276
_symmetry_space_group_name_H-M "P 2"
_symmetry_group_IT_number 3
_symmetry_cell_setting 'monoclinic'
loop_
_space_group_symop_operation_xyz
x,y,z
-x,y,-z
loop_
_atom_site_type_symbol
_atom_site_label
_atom_site_fract_x
_atom_site_fract_y
_atom_site_fract_z
Si Si1 0.222822 0.253080 0.012092
Si Si2 0.932788 0.723633 0.699514
Si Si3 0.552243 0.175228 0.302481
Si Si4 0.172796 0.051754 0.416029
Si Si5 0.562715 0.843864 0.849161
Si Si6 0.046643 0.370095 0.271291
Si Si7 0.216705 0.888971 0.034263
Si Si8 0.417985 0.481538 0.168139
O O1 0.384442 0.200947 0.403741
O O2 0.268842 0.372200 0.957815
O O3 0.153417 0.070709 0.878168
O O4 0.113126 0.357819 0.922914
O O5 0.875866 0.544305 0.549958
O O6 0.803906 0.867922 0.477793
O O7 0.000000 0.702993 0.000000
O O8 0.071398 0.787100 0.839371
O O9 0.700018 0.123807 0.469552
O O10 0.485835 0.355234 0.162850
O O11 0.429085 0.026475 0.059850
O O12 0.135329 0.199645 0.461096
O O13 0.000000 0.031057 0.000000
O O14 0.372864 0.869107 0.439064
O O15 0.700258 0.838682 0.971961
O O16 0.563362 0.652996 0.886610
O O17 0.000000 0.368769 0.000000
O O18 0.500000 0.514274 0.500000
#
# Coordination Sequence:
#
# PCOD9112451 Si02
#       8
#     2   2   2   2   2   2   2   2
#     4  10  15  25  31  35  43  48  52  61  68  72
#     4  10  18  23  30  36  41  49  55  59  66  73
#     4  10  18  24  31  34  42  49  54  60  68  71
#     4  10  16  26  29  34  43  49  54  62  64  71
#     4  10  17  24  29  37  43  46  53  62  67  73
#     4  10  17  23  31  36  41  49  55  59  66  73
#     4  10  16  24  31  35  43  48  52  61  68  72
#     4  10  18  22  30  38  41  47  54  60  68  74
#
# _framework density 27.340603000000002
#
# number of rings (size 3 to 8) (size 9 to 14) (size 15 to 20)
#    0.000    2.000    6.250    3.000    1.750    1.000 
#    0.000    0.000    0.000    0.000    0.000    0.000 
#    0.000    0.000    0.000    0.000    0.000    0.000 
#
# Total GULP energy -89190.150404 kJ/mol
# GULP energy per Si atom -5574.384400 kJ/mol
# Density = 2.727837 g / cm^3
# Si number density = 27.340603 Si / 1000 Ang^3
#
#
#
# Elastic Constant Matrix: (Units=GPa)
#
#
# Indices 1 2 3 4 5 6 
#
# 1 99.6118 52.5062 38.5692 0.0000 30.3782 0.0000
# 2 52.5062 335.2126 65.8227 0.0000 20.1499 0.0000
# 3 38.5692 65.8227 49.0398 0.0000 25.0730 0.0000
# 4 0.0000 0.0000 0.0000 44.8191 0.0000 -16.7481
# 5 30.3782 20.1499 25.0730 0.0000 53.8590 0.0000
# 6 0.0000 0.0000 0.0000 -16.7481 0.0000 35.0964
#
#
#
# Elastic Compliance Matrix: (Units=1/GPa)
#
#
# Indices 1 2 3 4 5 6 
#
# 1 0.015052 -0.000264 -0.009442 0.000000 -0.003996 0.000000
# 2 -0.000264 0.004130 -0.006065 0.000000 0.001427 0.000000
# 3 -0.009442 -0.006065 0.042095 0.000000 -0.012002 0.000000
# 4 0.000000 0.000000 0.000000 0.027154 0.000000 0.012958
# 5 -0.003996 0.001427 -0.012002 0.000000 0.025874 0.000000
# 6 0.000000 0.000000 0.000000 0.012958 0.000000 0.034677
#
#
# Mechanical properties :
#
#
# Convention : Reuss Voigt Hill
#
# Bulk Modulus (GPa) = 33.62976 88.62893 61.12934
# Shear Modulus (GPa) = 26.25571 48.55263 37.40417
#
# Velocity S-wave (km/s) = 3.10226 4.21865 3.70277
# Velocity P-wave (km/s) = 5.01588 7.49775 6.37869
#
# Compressibility (1/GPa) = 0.02973557
#
# Stress axis : x y z
#
# Youngs Moduli (GPa) = 66.43510 242.14923 23.75586
#
# Poissons Ratio (x) = 0.06382 0.22429
# Poissons Ratio (y) = 0.01751 0.14409
# Poissons Ratio (z) = 0.62726 1.46874
#
# Static dielectric constant tensor:
#      x y z
#    x 2.135680 0.000000 -0.176890 
#    y 0.000000 2.222020 0.000000 
#    z -0.176890 0.000000 2.417790 
# 
# From -- ./inp_files/14462.got.cif
#   From: 2010.05.17/outbox.cif.g08.bks.cpg/sg3_8_cif.got.tgz:14462.got - 2010.06.03 18:33:08.
