data_PCOD9112696
_publ_section_title
;
Structure prediction by ZEFSAII (Michael W. Deem and Ramdas Pophale) SiO2 
 PCOD9112696
Probable space group: P 2
;
_chemical_formula_sum "Si O2"
_cell_formula_units_Z 16
_cell_length_a 5.618544
_cell_length_b 4.019837
_cell_length_c 22.272425
_cell_angle_alpha 90.000000
_cell_angle_beta 90.000000
_cell_angle_gamma 90.000000
_cell_volume 503.036774
_symmetry_space_group_name_H-M "P 2"
_symmetry_group_IT_number 3
_symmetry_cell_setting 'monoclinic'
loop_
_space_group_symop_operation_xyz
x,y,z
-x,y,-z
loop_
_atom_site_type_symbol
_atom_site_label
_atom_site_fract_x
_atom_site_fract_y
_atom_site_fract_z
Si Si1 0.250000 0.516250 0.753353
Si Si2 0.750000 0.369619 0.877533
Si Si3 0.250001 0.514811 0.623731
Si Si4 0.250000 0.389821 0.497170
Si Si5 0.250000 0.927684 0.244433
Si Si6 0.249999 0.927562 0.377851
Si Si7 0.250000 0.947102 0.999787
Si Si8 0.250000 0.396717 0.880256
O O1 0.250001 0.343164 0.688659
O O2 0.501861 0.716676 0.755766
O O3 0.250000 0.274615 0.811286
O O4 0.998140 0.716677 0.755766
O O5 0.504863 0.572545 0.880330
O O6 0.995137 0.572545 0.880330
O O7 0.750000 0.152623 0.816256
O O8 0.750000 0.162669 0.939573
O O9 0.250000 0.267069 0.566479
O O10 0.503053 0.713749 0.622009
O O11 0.996948 0.713750 0.622009
O O12 0.500000 0.581591 0.500000
O O13 0.750000 0.151550 0.560903
O O14 0.000000 0.581590 0.500000
O O15 0.249999 0.093477 0.311240
O O16 0.250000 0.157677 0.937747
O O17 0.500000 0.758096 0.000000
O O18 0.000000 0.758096 0.000000
#
# Coordination Sequence:
#
# PCOD9112696 Si02
#       8
#     2   2   2   2   2   2   2   2
#     4  10  21  38  60  87 119 152 189 242 305 354
#     4  10  19  33  58  83 113 153 196 237 284 346
#     4  10  23  43  63  88 126 161 197 257 313 358
#     4  12  26  40  64  94 120 162 214 242 302 386
#     4  10  21  38  60  87 119 152 189 242 305 354
#     4  10  23  43  63  88 126 161 197 257 313 358
#     4   8  16  30  50  76 108 146 190 232 278 332
#     4  10  19  33  58  83 113 153 196 237 284 346
#
# _framework density 31.806820999999999
#
# number of rings (size 3 to 8) (size 9 to 14) (size 15 to 20)
#    0.000    2.000    0.000    3.000    0.000    5.000 
#    0.000    0.000    0.000   40.500    0.000    0.000 
#    0.000    0.000    0.000    0.000    0.000    0.000 
#
# Total GULP energy -89382.230671 kJ/mol
# GULP energy per Si atom -5586.389417 kJ/mol
# Density = 3.173443 g / cm^3
# Si number density = 31.806821 Si / 1000 Ang^3
#
#
#
# Elastic Constant Matrix: (Units=GPa)
#
#
# Indices 1 2 3 4 5 6 
#
# 1 432.9759 76.6626 6.0441 0.0000 30.6468 0.0000
# 2 76.6626 80.3441 99.9415 0.0000 -2.0618 0.0000
# 3 6.0441 99.9415 439.2618 0.0000 -31.2034 0.0000
# 4 0.0000 0.0000 0.0000 91.2775 0.0000 -2.8158
# 5 30.6468 -2.0618 -31.2034 0.0000 45.9359 0.0000
# 6 0.0000 0.0000 0.0000 -2.8158 0.0000 59.4855
#
#
#
# Elastic Compliance Matrix: (Units=1/GPa)
#
#
# Indices 1 2 3 4 5 6 
#
# 1 0.003119 -0.003922 0.000724 0.000000 -0.001765 0.000000
# 2 -0.003922 0.022468 -0.005044 0.000000 0.000199 0.000000
# 3 0.000724 -0.005044 0.003534 0.000000 0.001691 0.000000
# 4 0.000000 0.000000 0.000000 0.010972 0.000000 0.000519
# 5 -0.001765 0.000199 0.001691 0.000000 0.024105 0.000000
# 6 0.000000 0.000000 0.000000 0.000519 0.000000 0.016835
#
#
# Mechanical properties :
#
#
# Convention : Reuss Voigt Hill
#
# Bulk Modulus (GPa) = 79.12858 146.43090 112.77974
# Shear Modulus (GPa) = 49.15042 90.66868 69.90955
#
# Velocity S-wave (km/s) = 3.93527 5.34490 4.69331
# Velocity P-wave (km/s) = 6.75132 9.17759 8.05632
#
# Compressibility (1/GPa) = 0.01263766
#
# Stress axis : x y z
#
# Youngs Moduli (GPa) = 320.63493 44.50824 282.94077
#
# Poissons Ratio (x) = 0.17455 -0.20485
# Poissons Ratio (y) = 1.25746 1.42710
# Poissons Ratio (z) = -0.23214 0.22449
#
# Static dielectric constant tensor:
#      x y z
#    x 2.413060 0.000000 -0.002460 
#    y 0.000000 2.456800 0.000000 
#    z -0.002460 0.000000 2.440780 
# 
# From -- ./inp_files/16171.got.cif
#   From: 2010.05.17/outbox.cif.g08.bks.cpg/sg3_9_cif.got.tgz:16171.got - 2010.06.03 18:33:08.
