data_PCOD9112925
_publ_section_title
;
Structure prediction by ZEFSAII (Michael W. Deem and Ramdas Pophale) SiO2 
 PCOD9112925
Probable space group: P 2
;
_chemical_formula_sum "Si O2"
_cell_formula_units_Z 10
_cell_length_a 5.479670
_cell_length_b 5.078336
_cell_length_c 15.191128
_cell_angle_alpha 90.000000
_cell_angle_beta 68.718722
_cell_angle_gamma 90.000000
_cell_volume 393.906519
_symmetry_space_group_name_H-M "P 2"
_symmetry_group_IT_number 3
_symmetry_cell_setting 'monoclinic'
loop_
_space_group_symop_operation_xyz
x,y,z
-x,y,-z
loop_
_atom_site_type_symbol
_atom_site_label
_atom_site_fract_x
_atom_site_fract_y
_atom_site_fract_z
Si Si1 0.211067 0.460390 0.702697
Si Si2 0.500000 0.631514 0.500000
Si Si3 0.704847 0.116854 0.896088
Si Si4 0.884081 0.971926 0.704137
Si Si5 0.988564 0.615945 0.104494
Si Si6 0.000000 0.950119 0.500000
O O1 0.431162 0.483256 0.599358
O O2 0.985751 0.672629 0.701150
O O3 0.252133 0.541480 0.799291
O O4 0.109188 0.164954 0.711381
O O5 0.756600 0.795979 0.490174
O O6 0.648464 0.029593 0.802908
O O7 0.939506 0.919336 0.892644
O O8 0.785875 0.420852 0.887979
O O9 0.500000 0.069343 0.000000
O O10 0.866628 0.067346 0.605466
O O11 0.000000 0.555487 0.000000
#
# Coordination Sequence:
#
# PCOD9112925 Si02
#       6
#     2   1   2   2   2   1
#     4   9  20  38  58  84 121 162 205 255 309 367
#     4  10  22  42  66  94 128 166 210 258 312 372
#     4  10  20  36  57  84 119 156 200 251 306 366
#     4   9  20  38  58  84 121 162 205 255 309 367
#     4  10  20  36  57  84 119 156 200 251 306 366
#     4  10  22  42  66  94 128 166 210 258 312 372
#
# _framework density 25.386731000000001
#
# number of rings (size 3 to 8) (size 9 to 14) (size 15 to 20)
#    0.000    2.400    0.000    1.200    0.000    8.000 
#    0.000   10.000    0.000    0.000    0.000    0.000 
#    0.000    0.000    0.000    0.000    0.000    0.000 
#
# Total GULP energy -55746.275649 kJ/mol
# GULP energy per Si atom -5574.627565 kJ/mol
# Density = 2.532895 g / cm^3
# Si number density = 25.386731 Si / 1000 Ang^3
#
#
#
# Elastic Constant Matrix: (Units=GPa)
#
#
# Indices 1 2 3 4 5 6 
#
# 1 60.5133 22.1430 21.0598 0.0000 1.4114 0.0000
# 2 22.1430 83.3287 21.9429 0.0000 0.0526 0.0000
# 3 21.0598 21.9429 336.5313 0.0000 -0.0978 0.0000
# 4 0.0000 0.0000 0.0000 62.2937 0.0000 1.2687
# 5 1.4114 0.0526 -0.0978 0.0000 30.3833 0.0000
# 6 0.0000 0.0000 0.0000 1.2687 0.0000 28.5668
#
#
#
# Elastic Compliance Matrix: (Units=1/GPa)
#
#
# Indices 1 2 3 4 5 6 
#
# 1 0.018566 -0.004708 -0.000855 0.000000 -0.000857 0.000000
# 2 -0.004708 0.013404 -0.000579 0.000000 0.000194 0.000000
# 3 -0.000855 -0.000579 0.003063 0.000000 0.000051 0.000000
# 4 0.000000 0.000000 0.000000 0.016068 0.000000 -0.000714
# 5 -0.000857 0.000194 0.000051 0.000000 0.032952 0.000000
# 6 0.000000 0.000000 0.000000 -0.000714 0.000000 0.035037
#
#
# Mechanical properties :
#
#
# Convention : Reuss Voigt Hill
#
# Bulk Modulus (GPa) = 43.95974 67.85165 55.90569
# Shear Modulus (GPa) = 35.98245 51.93062 43.95654
#
# Velocity S-wave (km/s) = 3.76888 4.52772 4.16562
# Velocity P-wave (km/s) = 6.02436 7.35655 6.72353
#
# Compressibility (1/GPa) = 0.02274809
#
# Stress axis : x y z
#
# Youngs Moduli (GPa) = 53.86332 74.60411 326.49946
#
# Poissons Ratio (x) = 0.35122 0.27919
# Poissons Ratio (y) = 0.25357 0.18915
# Poissons Ratio (z) = 0.04606 0.04322
#
# Static dielectric constant tensor:
#      x y z
#    x 2.008170 0.000000 -0.012180 
#    y 0.000000 1.932400 0.000000 
#    z -0.012180 0.000000 2.220810 
# 
# From -- ./inp_files/333.got.cif
#   From: 2010.05.17/outbox.cif.g08.bks.cpg/sg3_1_cif.got.tgz:333.got - 2010.06.03 18:33:08.
