data_PCOD9112930
_publ_section_title
;
Structure prediction by ZEFSAII (Michael W. Deem and Ramdas Pophale) SiO2 
 PCOD9112930
Probable space group: P 2
;
_chemical_formula_sum "Si O2"
_cell_formula_units_Z 10
_cell_length_a 7.852038
_cell_length_b 7.027712
_cell_length_c 9.009852
_cell_angle_alpha 90.000000
_cell_angle_beta 106.218526
_cell_angle_gamma 90.000000
_cell_volume 477.394330
_symmetry_space_group_name_H-M "P 2"
_symmetry_group_IT_number 3
_symmetry_cell_setting 'monoclinic'
loop_
_space_group_symop_operation_xyz
x,y,z
-x,y,-z
loop_
_atom_site_type_symbol
_atom_site_label
_atom_site_fract_x
_atom_site_fract_y
_atom_site_fract_z
Si Si1 0.586734 0.333680 0.875758
Si Si2 0.655712 0.452097 0.425665
Si Si3 0.096934 0.426646 0.253264
Si Si4 0.141608 0.078096 0.915644
Si Si5 0.116020 0.770006 0.668901
O O1 0.432793 0.313830 0.716368
O O2 0.748657 0.440580 0.832708
O O3 0.500000 0.428056 0.000000
O O4 0.681363 0.143146 0.956931
O O5 0.500000 0.510061 0.500000
O O6 0.808512 0.368013 0.568415
O O7 0.731402 0.634916 0.359799
O O8 0.955193 0.269455 0.169165
O O9 0.005606 0.625972 0.264830
O O10 0.175795 0.936932 0.789967
O O11 0.000000 0.997274 0.000000
O O12 0.000000 0.838523 0.500000
#
# Coordination Sequence:
#
# PCOD9112930 Si02
#       5
#     2   2   2   2   2
#     4  10  20  36  58  87 120 151 187 239 300 344
#     4   9  19  38  63  86 114 157 199 240 294 346
#     4   9  20  40  62  83 115 159 202 239 282 348
#     4  10  22  38  59  89 119 153 196 241 293 351
#     4  10  21  38  64  89 114 156 203 243 286 347
#
# _framework density 20.947044000000002
#
# number of rings (size 3 to 8) (size 9 to 14) (size 15 to 20)
#    0.000    2.400    0.000    1.200    0.000    8.000 
#    0.000   15.000    0.000    9.600    0.000    0.000 
#    0.000    0.000    0.000    0.000    0.000    0.000 
#
# Total GULP energy -55819.859680 kJ/mol
# GULP energy per Si atom -5581.985968 kJ/mol
# Density = 2.089937 g / cm^3
# Si number density = 20.947044 Si / 1000 Ang^3
#
#
#
# Elastic Constant Matrix: (Units=GPa)
#
#
# Indices 1 2 3 4 5 6 
#
# 1 91.8223 23.1842 54.5001 0.0000 -11.3590 0.0000
# 2 23.1842 43.2248 59.9163 0.0000 -0.5891 0.0000
# 3 54.5001 59.9163 153.7861 0.0000 1.6540 0.0000
# 4 0.0000 0.0000 0.0000 47.7539 0.0000 -5.0766
# 5 -11.3590 -0.5891 1.6540 0.0000 42.9208 0.0000
# 6 0.0000 0.0000 0.0000 -5.0766 0.0000 0.9429
#
#
#
# Elastic Compliance Matrix: (Units=1/GPa)
#
#
# Indices 1 2 3 4 5 6 
#
# 1 0.014482 -0.001173 -0.004718 0.000000 0.003998 0.000000
# 2 -0.001173 0.050484 -0.019266 0.000000 0.001125 0.000000
# 3 -0.004718 -0.019266 0.015703 0.000000 -0.002118 0.000000
# 4 0.000000 0.000000 0.000000 0.048970 0.000000 0.263659
# 5 0.003998 0.001125 -0.002118 0.000000 0.024454 0.000000
# 6 0.000000 0.000000 0.000000 0.263659 0.000000 2.480139
#
#
# Mechanical properties :
#
#
# Convention : Reuss Voigt Hill
#
# Bulk Modulus (GPa) = 32.94201 62.67050 47.80626
# Shear Modulus (GPa) = 1.85552 28.40569 15.13061
#
# Velocity S-wave (km/s) = 0.94220 3.68648 2.69053
# Velocity P-wave (km/s) = 4.11632 6.93568 5.70297
#
# Compressibility (1/GPa) = 0.03035638
#
# Stress axis : x y z
#
# Youngs Moduli (GPa) = 69.05219 19.80807 63.68016
#
# Poissons Ratio (x) = 0.02323 0.30046
# Poissons Ratio (y) = 0.08098 1.22684
# Poissons Ratio (z) = 0.32581 0.38162
#
# Static dielectric constant tensor:
#      x y z
#    x 1.788300 0.000000 -0.003130 
#    y 0.000000 1.694150 0.000000 
#    z -0.003130 0.000000 1.795350 
# 
# From -- ./inp_files/4680.got.cif
#   From: 2010.05.17/outbox.cif.g08.bks.cpg/sg3_3_cif.got.tgz:4680.got - 2010.06.03 18:33:08.
