data_PCOD9112856
_publ_section_title
;
Structure prediction by ZEFSAII (Michael W. Deem and Ramdas Pophale) SiO2 
 PCOD9112856
Probable space group: P 2
;
_chemical_formula_sum "Si O2"
_cell_formula_units_Z 15
_cell_length_a 12.637691
_cell_length_b 5.805585
_cell_length_c 20.593140
_cell_angle_alpha 90.000000
_cell_angle_beta 24.831584
_cell_angle_gamma 90.000000
_cell_volume 634.506955
_symmetry_space_group_name_H-M "P 2"
_symmetry_group_IT_number 3
_symmetry_cell_setting 'monoclinic'
loop_
_space_group_symop_operation_xyz
x,y,z
-x,y,-z
loop_
_atom_site_type_symbol
_atom_site_label
_atom_site_fract_x
_atom_site_fract_y
_atom_site_fract_z
Si Si1 0.513738 0.562850 0.391470
Si Si2 0.070320 0.864399 0.779569
Si Si3 0.701071 0.360060 0.155317
Si Si4 0.195083 0.092590 0.331343
Si Si5 0.210145 0.594348 0.324840
Si Si6 0.500000 0.212663 0.500000
Si Si7 0.960852 0.833281 0.350464
Si Si8 0.766395 0.865261 0.077027
O O1 0.771973 0.645386 0.281560
O O2 0.564666 0.435483 0.296802
O O3 0.385117 0.380567 0.510183
O O4 0.337580 0.785532 0.482355
O O5 0.958119 0.831889 0.769804
O O6 0.279276 0.061426 0.653179
O O7 0.881510 0.922381 0.942349
O O8 0.623625 0.098494 0.180351
O O9 0.000000 0.340149 0.000000
O O10 0.669604 0.598952 0.132412
O O11 0.324578 0.340115 0.258592
O O12 0.000000 0.096466 0.500000
O O13 0.338613 0.847610 0.257531
O O14 0.045178 0.050476 0.346899
O O15 0.071092 0.626285 0.332859
O O16 0.000000 0.592978 0.500000
O O17 0.000000 0.848217 0.000000
#
# Coordination Sequence:
#
# PCOD9112856 Si02
#       8
#     2   2   2   2   2   1   2   2
#     4  12  22  33  46  71 103 139 169 210 250 299
#     4  12  22  33  46  71 103 139 169 210 250 299
#     4  10  20  36  51  62  83 134 183 213 235 270
#     4   8  16  31  48  67  99 134 157 193 239 313
#     4   8  16  31  48  67  99 134 157 193 239 313
#     4  12  22  32  46  66 110 136 166 198 270 308
#     4  10  20  30  46  78 104 130 160 204 262 310
#     4  10  20  36  51  62  83 134 183 213 235 270
#
# _framework density 23.640404
#
# number of rings (size 3 to 8) (size 9 to 14) (size 15 to 20)
#    0.800    1.067    5.333    1.600    1.867    0.000 
#    0.000    0.000    0.000    0.000    0.000    0.000 
#    0.000    4.267    0.000    0.000    0.000    0.000 
#
# Total GULP energy -83639.659322 kJ/mol
# GULP energy per Si atom -5575.977288 kJ/mol
# Density = 2.358660 g / cm^3
# Si number density = 23.640404 Si / 1000 Ang^3
#
#
#
# Elastic Constant Matrix: (Units=GPa)
#
#
# Indices 1 2 3 4 5 6 
#
# 1 97.1832 73.6645 26.1661 0.0000 26.7652 0.0000
# 2 73.6645 203.4307 34.1843 0.0000 1.2655 0.0000
# 3 26.1661 34.1843 90.2932 0.0000 40.1836 0.0000
# 4 0.0000 0.0000 0.0000 38.7626 0.0000 -7.6510
# 5 26.7652 1.2655 40.1836 0.0000 34.5396 0.0000
# 6 0.0000 0.0000 0.0000 -7.6510 0.0000 36.2243
#
#
#
# Elastic Compliance Matrix: (Units=1/GPa)
#
#
# Indices 1 2 3 4 5 6 
#
# 1 0.023140 -0.009890 0.010072 0.000000 -0.029288 0.000000
# 2 -0.009890 0.009819 -0.008506 0.000000 0.017200 0.000000
# 3 0.010072 -0.008506 0.030506 0.000000 -0.042985 0.000000
# 4 0.000000 0.000000 0.000000 0.026920 0.000000 0.005686
# 5 -0.029288 0.017200 -0.042985 0.000000 0.101026 0.000000
# 6 0.000000 0.000000 0.000000 0.005686 0.000000 0.028807
#
#
# Mechanical properties :
#
#
# Convention : Reuss Voigt Hill
#
# Bulk Modulus (GPa) = 21.35890 73.21520 47.28705
# Shear Modulus (GPa) = 19.80412 39.03146 29.41779
#
# Velocity S-wave (km/s) = 2.89749 4.06772 3.53141
# Velocity P-wave (km/s) = 4.49982 7.28693 6.05590
#
# Compressibility (1/GPa) = 0.04681888
#
# Stress axis : x y z
#
# Youngs Moduli (GPa) = 43.21438 101.84091 32.78018
#
# Poissons Ratio (x) = 1.00718 -0.33018
# Poissons Ratio (y) = 0.42738 0.27883
# Poissons Ratio (z) = -0.43527 0.86628
#
# Static dielectric constant tensor:
#      x y z
#    x 2.078460 0.000000 -0.119200 
#    y 0.000000 1.925000 0.000000 
#    z -0.119200 0.000000 1.799460 
# 
# From -- ./inp_files/15986.got.cif
#   From: 2010.05.17/outbox.cif.g08.bks.cpg/sg3_8_cif.got.tgz:15986.got - 2010.06.03 18:33:08.
