data_PCOD9112035
_publ_section_title
;
Structure prediction by ZEFSAII (Michael W. Deem and Ramdas Pophale) SiO2 
 PCOD9112035
Probable space group: P -1
;
_chemical_formula_sum "Si O2"
_cell_formula_units_Z 13
_cell_length_a 5.348573
_cell_length_b 9.140728
_cell_length_c 19.045236
_cell_angle_alpha 142.314909
_cell_angle_beta 64.511701
_cell_angle_gamma 103.753229
_cell_volume 504.816170
_symmetry_space_group_name_H-M "P -1"
_symmetry_group_IT_number 2
_symmetry_cell_setting 'triclinic'
loop_
_space_group_symop_operation_xyz
x,y,z
-x,-y,-z
loop_
_atom_site_type_symbol
_atom_site_label
_atom_site_fract_x
_atom_site_fract_y
_atom_site_fract_z
Si Si1 0.687778 0.523340 0.372653
Si Si2 0.751392 0.718951 0.589287
Si Si3 0.699966 0.986166 0.062483
Si Si4 0.500000 0.000000 0.500000
Si Si5 0.192879 0.432009 0.017589
Si Si6 0.322809 0.397527 0.195352
Si Si7 0.897038 0.196614 0.713694
O O1 0.728107 0.698860 0.500456
O O2 0.524340 0.334967 0.359190
O O3 0.996187 0.413876 0.263304
O O4 0.504748 0.712801 0.414356
O O5 0.000000 0.500000 0.500000
O O6 0.806091 0.990721 0.695261
O O7 0.507488 0.250444 0.178870
O O8 0.758253 0.851925 0.078023
O O9 0.583931 0.788993 0.952076
O O10 0.000000 0.000000 0.000000
O O11 0.172191 0.077802 0.593775
O O12 0.046155 0.587420 0.160408
O O13 0.500000 0.500000 0.000000
O O14 0.000000 0.500000 0.000000
O O15 0.328006 0.665705 0.264363
#
# Coordination Sequence:
#
# PCOD9112035 Si02
#       7
#     2   2   2   1   2   2   2
#     4  10  23  42  69 101 142 187 239 304 363 443
#     4  11  23  44  66 103 145 186 241 295 370 438
#     4  10  23  46  72  99 144 186 254 306 364 446
#     4  10  20  44  68 104 142 186 248 298 368 438
#     4  11  28  50  77 113 153 197 249 311 384 450
#     4   9  22  43  67 102 137 190 249 299 372 428
#     4  10  23  46  73 106 146 195 248 309 369 450
#
# _framework density 25.751947999999999
#
# number of rings (size 3 to 8) (size 9 to 14) (size 15 to 20)
#    0.000    1.846    1.538    0.000    6.462    7.385 
#    8.308    0.000    0.000    0.000    0.000    0.000 
#    0.000    0.000    0.000    0.000    0.000    0.000 
#
# Total GULP energy -72551.644694 kJ/mol
# GULP energy per Si atom -5580.895746 kJ/mol
# Density = 2.569333 g / cm^3
# Si number density = 25.751948 Si / 1000 Ang^3
#
#
#
# Elastic Constant Matrix: (Units=GPa)
#
#
# Indices 1 2 3 4 5 6 
#
# 1 76.5396 44.7244 35.3545 15.2933 -35.4869 -19.3432
# 2 44.7244 162.6580 58.2303 45.4322 -29.1114 -6.8346
# 3 35.3545 58.2303 152.4141 39.0383 -32.4651 -16.8866
# 4 15.2933 45.4322 39.0383 59.2994 -12.5928 -3.3426
# 5 -35.4869 -29.1114 -32.4651 -12.5928 47.5757 -0.6932
# 6 -19.3432 -6.8346 -16.8866 -3.3426 -0.6932 53.8455
#
#
#
# Elastic Compliance Matrix: (Units=1/GPa)
#
#
# Indices 1 2 3 4 5 6 
#
# 1 0.025088 -0.003642 0.000016 0.000355 0.016718 0.008792
# 2 -0.003642 0.009113 -0.001294 -0.005110 0.000612 -0.000867
# 3 0.000016 -0.001294 0.009348 -0.004052 0.004564 0.002580
# 4 0.000355 -0.005110 -0.004052 0.023458 0.000578 -0.000328
# 5 0.016718 0.000612 0.004564 0.000578 0.037248 0.008030
# 6 0.008792 -0.000867 0.002580 -0.000328 0.008030 0.022512
#
#
# Mechanical properties :
#
#
# Convention : Reuss Voigt Hill
#
# Bulk Modulus (GPa) = 29.66537 74.24779 51.95658
# Shear Modulus (GPa) = 33.82001 49.03095 41.42548
#
# Velocity S-wave (km/s) = 3.62788 4.36819 4.01513
# Velocity P-wave (km/s) = 5.39382 7.37129 6.45869
#
# Compressibility (1/GPa) = 0.03370934
#
# Stress axis : x y z
#
# Youngs Moduli (GPa) = 39.86005 109.73871 106.98029
#
# Poissons Ratio (x) = 0.39962 -0.00171
# Poissons Ratio (y) = 0.14515 0.13840
# Poissons Ratio (z) = -0.00064 0.14197
#
# Static dielectric constant tensor:
#      x y z
#    x 2.055170 -0.049430 0.054950 
#    y -0.049430 2.068700 -0.007750 
#    z 0.054950 -0.007750 2.005280 
# 
# From -- ./inp_files/59095.got.cif
#   From: 2010.05.17/outbox.cif.g08.bks.cpg/sg2_30_cif.got.tgz:59095.got - 2010.06.03 11:33:40.
