data_PCOD9112859
_publ_section_title
;
Structure prediction by ZEFSAII (Michael W. Deem and Ramdas Pophale) SiO2 
 PCOD9112859
Probable space group: P 2
;
_chemical_formula_sum "Si O2"
_cell_formula_units_Z 16
_cell_length_a 19.888641
_cell_length_b 10.968301
_cell_length_c 5.208240
_cell_angle_alpha 90.000000
_cell_angle_beta 128.671150
_cell_angle_gamma 90.000000
_cell_volume 887.043146
_symmetry_space_group_name_H-M "P 2"
_symmetry_group_IT_number 3
_symmetry_cell_setting 'monoclinic'
loop_
_space_group_symop_operation_xyz
x,y,z
-x,y,-z
loop_
_atom_site_type_symbol
_atom_site_label
_atom_site_fract_x
_atom_site_fract_y
_atom_site_fract_z
Si Si1 0.907614 0.776610 0.774575
Si Si2 0.643695 0.631011 0.497653
Si Si3 0.715723 0.983281 0.956749
Si Si4 0.395290 0.211525 0.239303
Si Si5 0.732619 0.718520 0.209724
Si Si6 0.095516 0.948663 0.732301
Si Si7 0.447532 0.866251 0.629970
Si Si8 0.602795 0.356648 0.257808
O O1 0.826706 0.690087 0.543668
O O2 0.910111 0.861225 0.528322
O O3 0.897095 0.863786 0.997145
O O4 0.000000 0.712933 0.000000
O O5 0.667223 0.678835 0.271505
O O6 0.566074 0.719772 0.398993
O O7 0.629954 0.488633 0.425128
O O8 0.713052 0.659210 0.887384
O O9 0.646373 0.928480 0.589306
O O10 0.663362 0.094060 0.955329
O O11 0.726992 0.864860 0.164756
O O12 0.811416 0.014574 0.079148
O O13 0.500000 0.190260 0.500000
O O14 0.371309 0.258897 0.465229
O O15 0.373269 0.312265 0.970261
O O16 0.000000 0.012069 0.500000
O O17 0.500000 0.898159 0.500000
O O18 0.500000 0.906805 0.000000
O O19 0.500000 0.360204 0.000000
#
# Coordination Sequence:
#
# PCOD9112859 Si02
#       8
#     2   2   2   2   2   2   2   2
#     4   9  16  29  47  73 109 138 162 197 250 316
#     4  11  21  35  52  72 102 136 178 220 252 293
#     4  10  21  35  53  78 112 136 166 212 265 317
#     4  10  22  36  52  73 100 138 178 216 257 304
#     4  10  20  32  52  81 105 134 166 209 266 314
#     4   9  18  31  50  74 104 140 171 204 250 309
#     4  11  22  32  48  77 108 141 171 205 261 317
#     4  10  22  38  53  70  96 137 185 221 246 286
#
# _framework density 18.037454
#
# number of rings (size 3 to 8) (size 9 to 14) (size 15 to 20)
#    0.000    2.000    0.000    5.250    0.000    9.000 
#    0.000    0.000    0.000    0.000    0.000    3.500 
#    0.000    1.000    0.000    0.000    0.000    0.000 
#
# Total GULP energy -89109.114664 kJ/mol
# GULP energy per Si atom -5569.319667 kJ/mol
# Density = 1.799640 g / cm^3
# Si number density = 18.037454 Si / 1000 Ang^3
#
#
#
# Elastic Constant Matrix: (Units=GPa)
#
#
# Indices 1 2 3 4 5 6 
#
# 1 63.6830 9.1837 34.4634 0.0000 -0.7817 0.0000
# 2 9.1837 58.3912 15.9751 0.0000 -2.4304 0.0000
# 3 34.4634 15.9751 104.7876 0.0000 0.6168 0.0000
# 4 0.0000 0.0000 0.0000 9.5194 0.0000 -6.6082
# 5 -0.7817 -2.4304 0.6168 0.0000 35.9505 0.0000
# 6 0.0000 0.0000 0.0000 -6.6082 0.0000 13.3824
#
#
#
# Elastic Compliance Matrix: (Units=1/GPa)
#
#
# Indices 1 2 3 4 5 6 
#
# 1 0.019211 -0.001330 -0.006118 0.000000 0.000433 0.000000
# 2 -0.001330 0.018020 -0.002317 0.000000 0.001229 0.000000
# 3 -0.006118 -0.002317 0.011911 0.000000 -0.000494 0.000000
# 4 0.000000 0.000000 0.000000 0.159841 0.000000 0.078929
# 5 0.000433 0.001229 -0.000494 0.000000 0.027917 0.000000
# 6 0.000000 0.000000 0.000000 0.078929 0.000000 0.113700
#
#
# Mechanical properties :
#
#
# Convention : Reuss Voigt Hill
#
# Bulk Modulus (GPa) = 33.76932 38.45625 36.11278
# Shear Modulus (GPa) = 13.15787 22.91976 18.03882
#
# Velocity S-wave (km/s) = 2.70381 3.56852 3.16583
# Velocity P-wave (km/s) = 5.33946 6.19239 5.78167
#
# Compressibility (1/GPa) = 0.02961268
#
# Stress axis : x y z
#
# Youngs Moduli (GPa) = 52.05425 55.49361 83.95302
#
# Poissons Ratio (x) = 0.07378 0.51363
# Poissons Ratio (y) = 0.06921 0.19453
# Poissons Ratio (z) = 0.31847 0.12859
#
# Static dielectric constant tensor:
#      x y z
#    x 1.675290 0.000000 0.030860 
#    y 0.000000 1.628440 0.000000 
#    z 0.030860 0.000000 1.679160 
# 
# From -- ./inp_files/3940.got.cif
#   From: 2010.05.17/outbox.cif.g08.bks.cpg/sg3_2_cif.got.tgz:3940.got - 2010.06.03 18:33:08.
