data_PCOD9112934
_publ_section_title
;
Structure prediction by ZEFSAII (Michael W. Deem and Ramdas Pophale) SiO2 
 PCOD9112934
Probable space group: P 2
;
_chemical_formula_sum "Si O2"
_cell_formula_units_Z 12
_cell_length_a 12.857730
_cell_length_b 5.112816
_cell_length_c 10.337673
_cell_angle_alpha 90.000000
_cell_angle_beta 134.139682
_cell_angle_gamma 90.000000
_cell_volume 487.704097
_symmetry_space_group_name_H-M "P 2"
_symmetry_group_IT_number 3
_symmetry_cell_setting 'monoclinic'
loop_
_space_group_symop_operation_xyz
x,y,z
-x,y,-z
loop_
_atom_site_type_symbol
_atom_site_label
_atom_site_fract_x
_atom_site_fract_y
_atom_site_fract_z
Si Si1 0.995688 0.500000 0.639144
Si Si2 0.301395 0.765814 0.947440
Si Si3 0.307981 0.683108 0.655920
Si Si4 0.865577 0.336061 0.785246
Si Si5 0.662383 0.848927 0.587418
Si Si6 0.476118 0.268360 0.133976
O O1 0.863067 0.695329 0.503784
O O2 0.944531 0.321282 0.713219
O O3 0.000000 0.366449 0.500000
O O4 0.135462 0.669922 0.799396
O O5 0.344035 0.769566 0.831534
O O6 0.382501 0.526153 0.084402
O O7 0.364625 0.030002 0.063236
O O8 0.363776 0.862421 0.590038
O O9 0.367685 0.387646 0.685662
O O10 0.761254 0.591781 0.697645
O O11 0.759554 0.091887 0.716254
O O12 0.000000 0.354221 0.000000
O O13 0.500000 0.837185 0.500000
O O14 0.500000 0.256699 0.000000
#
# Coordination Sequence:
#
# PCOD9112934 Si02
#       6
#     2   2   2   2   2   2
#     4   9  21  43  69 101 139 184 230 281 347 418
#     4  10  21  37  61  96 135 177 222 274 343 412
#     4   9  21  41  65  94 135 180 229 285 342 410
#     4  11  25  48  73 103 140 182 233 292 348 413
#     4  11  25  47  73  99 132 183 239 291 345 412
#     4  10  20  36  58  91 135 176 218 271 334 401
#
# _framework density 24.605081999999999
#
# number of rings (size 3 to 8) (size 9 to 14) (size 15 to 20)
#    0.000    2.000    0.000    2.500    0.000   13.333 
#    0.000   19.167    0.000    0.000    0.000    0.000 
#    0.000    0.000    0.000    0.000    0.000    0.000 
#
# Total GULP energy -66963.672095 kJ/mol
# GULP energy per Si atom -5580.306008 kJ/mol
# Density = 2.454908 g / cm^3
# Si number density = 24.605082 Si / 1000 Ang^3
#
#
#
# Elastic Constant Matrix: (Units=GPa)
#
#
# Indices 1 2 3 4 5 6 
#
# 1 128.3193 29.8279 54.8637 0.0000 20.4289 0.0000
# 2 29.8279 190.0437 46.4753 0.0000 27.1852 0.0000
# 3 54.8637 46.4753 143.2056 0.0000 42.8976 0.0000
# 4 0.0000 0.0000 0.0000 20.0666 0.0000 8.6894
# 5 20.4289 27.1852 42.8976 0.0000 49.5859 0.0000
# 6 0.0000 0.0000 0.0000 8.6894 0.0000 2.9889
#
#
#
# Elastic Compliance Matrix: (Units=1/GPa)
#
#
# Indices 1 2 3 4 5 6 
#
# 1 0.009415 -0.000585 -0.003174 0.000000 -0.000812 0.000000
# 2 -0.000585 0.005913 -0.001074 0.000000 -0.002071 0.000000
# 3 -0.003174 -0.001074 0.010771 0.000000 -0.007421 0.000000
# 4 0.000000 0.000000 0.000000 -0.192491 0.000000 0.559605
# 5 -0.000812 -0.002071 -0.007421 0.000000 0.028057 0.000000
# 6 0.000000 0.000000 0.000000 0.559605 0.000000 -1.292306
#
#
# Mechanical properties :
#
#
# Convention : Reuss Voigt Hill
#
# Bulk Modulus (GPa) = 60.85715 80.43362 70.64538
# Shear Modulus (GPa) = -3.53233 36.55506 16.51137
#
# Velocity S-wave (km/s) = -1.19947 3.85862 2.59328
# Velocity P-wave (km/s) = 4.78215 7.25347 6.14336
#
# Compressibility (1/GPa) = 0.01643192
#
# Stress axis : x y z
#
# Youngs Moduli (GPa) = 106.20817 169.12456 92.84542
#
# Poissons Ratio (x) = 0.09901 0.29468
# Poissons Ratio (y) = 0.06218 0.09974
# Poissons Ratio (z) = 0.33709 0.18168
#
# Static dielectric constant tensor:
#      x y z
#    x 2.031950 0.000000 -0.015050 
#    y 0.000000 1.966860 0.000000 
#    z -0.015050 0.000000 2.029120 
# 
# From -- ./inp_files/12088.got.cif
#   From: 2010.05.17/outbox.cif.g08.bks.cpg/sg3_7_cif.got.tgz:12088.got - 2010.06.03 18:33:08.
