data_PCOD9112201
_publ_section_title
;
Structure prediction by ZEFSAII (Michael W. Deem and Ramdas Pophale) SiO2 
 PCOD9112201
Probable space group: P -1
;
_chemical_formula_sum "Si O2"
_cell_formula_units_Z 14
_cell_length_a 22.729066
_cell_length_b 9.105973
_cell_length_c 6.947815
_cell_angle_alpha 69.494516
_cell_angle_beta 48.714327
_cell_angle_gamma 35.188862
_cell_volume 560.291536
_symmetry_space_group_name_H-M "P -1"
_symmetry_group_IT_number 2
_symmetry_cell_setting 'triclinic'
loop_
_space_group_symop_operation_xyz
x,y,z
-x,-y,-z
loop_
_atom_site_type_symbol
_atom_site_label
_atom_site_fract_x
_atom_site_fract_y
_atom_site_fract_z
Si Si1 0.992759 0.517574 0.274524
Si Si2 0.316115 0.446349 0.307256
Si Si3 0.838536 0.485709 0.704495
Si Si4 0.501451 0.600152 0.143045
Si Si5 0.364931 0.127591 0.676060
Si Si6 0.692567 0.101566 0.234953
Si Si7 0.936491 0.958350 0.269941
O O1 0.879201 0.571048 0.452655
O O2 0.957935 0.758073 0.204410
O O3 0.000000 0.500000 0.500000
O O4 0.856616 0.787128 0.995822
O O5 0.241975 0.510481 0.244683
O O6 0.307943 0.313111 0.528490
O O7 0.224879 0.733244 0.477222
O O8 0.471308 0.261896 0.026837
O O9 0.981228 0.187744 0.636569
O O10 0.743360 0.692359 0.996964
O O11 0.633942 0.337781 0.118822
O O12 0.362558 0.793181 0.477927
O O13 0.500000 0.500000 0.000000
O O14 0.500000 0.000000 0.500000
O O15 0.394213 0.902043 0.659662
O O16 0.000000 0.000000 0.000000
#
# Coordination Sequence:
#
# PCOD9112201 Si02
#       7
#     2   2   2   2   2   2   2
#     4  10  20  44  76 103 143 196 230 295 369 435
#     4  12  26  46  71 109 143 190 245 295 365 426
#     4  11  24  45  73 106 147 190 235 301 362 433
#     4  11  26  46  71 102 142 194 242 301 358 430
#     4  12  25  45  72 102 147 193 244 297 354 433
#     4  11  23  47  70 102 144 184 247 293 362 433
#     4  11  21  45  73 107 147 186 238 295 362 427
#
# _framework density 24.986991
#
# number of rings (size 3 to 8) (size 9 to 14) (size 15 to 20)
#    0.000    0.857    4.286    3.857    0.000    4.571 
#    2.571    1.429    0.000    0.000    0.000    0.000 
#    0.000    0.000    0.000    0.000    0.000    0.000 
#
# Total GULP energy -78444.901423 kJ/mol
# GULP energy per Si atom -5603.207245 kJ/mol
# Density = 2.493012 g / cm^3
# Si number density = 24.986991 Si / 1000 Ang^3
#
#
#
# Elastic Constant Matrix: (Units=GPa)
#
#
# Indices 1 2 3 4 5 6 
#
# 1 121.1517 -8.5672 36.4443 -5.5919 -7.8093 13.8378
# 2 -8.5672 65.0808 32.2790 -10.0062 2.1789 15.0564
# 3 36.4443 32.2790 164.6204 10.0860 -5.2185 15.8854
# 4 -5.5919 -10.0062 10.0860 38.9107 12.8450 -1.8391
# 5 -7.8093 2.1789 -5.2185 12.8450 46.5140 -4.3061
# 6 13.8378 15.0564 15.8854 -1.8391 -4.3061 31.3933
#
#
#
# Elastic Compliance Matrix: (Units=1/GPa)
#
#
# Indices 1 2 3 4 5 6 
#
# 1 0.010108 0.004354 -0.002808 0.003112 -0.000141 -0.004960
# 2 0.004354 0.022207 -0.004997 0.008527 -0.004161 -0.010112
# 3 -0.002808 -0.004997 0.008047 -0.004403 0.001840 -0.000443
# 4 0.003112 0.008527 -0.004403 0.032524 -0.009597 -0.002645
# 5 -0.000141 -0.004161 0.001840 -0.009597 0.024895 0.003979
# 6 -0.004960 -0.010112 -0.000443 -0.002645 0.003979 0.039505
#
#
# Mechanical properties :
#
#
# Convention : Reuss Voigt Hill
#
# Bulk Modulus (GPa) = 29.88672 52.35169 41.11920
# Shear Modulus (GPa) = 32.18723 42.74337 37.46530
#
# Velocity S-wave (km/s) = 3.59299 4.14046 3.87640
# Velocity P-wave (km/s) = 5.40367 6.62230 6.04378
#
# Compressibility (1/GPa) = 0.03345968
#
# Stress axis : x y z
#
# Youngs Moduli (GPa) = 98.93422 45.03129 124.27266
#
# Poissons Ratio (x) = -0.19606 0.34895
# Poissons Ratio (y) = -0.43074 0.62096
# Poissons Ratio (z) = 0.27780 0.22501
#
# Static dielectric constant tensor:
#      x y z
#    x 2.107240 -0.121680 -0.034290 
#    y -0.121680 2.072900 0.000540 
#    z -0.034290 0.000540 2.004030 
# 
# From -- ./inp_files/52409.got.cif
#   From: 2010.05.17/outbox.cif.g08.bks.cpg/sg2_27_cif.got.tgz:52409.got - 2010.06.03 11:33:40.
