data_PCOD9112910
_publ_section_title
;
Structure prediction by ZEFSAII (Michael W. Deem and Ramdas Pophale) SiO2 
 PCOD9112910
Probable space group: P 2
;
_chemical_formula_sum "Si O2"
_cell_formula_units_Z 14
_cell_length_a 8.750480
_cell_length_b 5.221417
_cell_length_c 18.871823
_cell_angle_alpha 90.000000
_cell_angle_beta 138.360556
_cell_angle_gamma 90.000000
_cell_volume 572.915328
_symmetry_space_group_name_H-M "P 2"
_symmetry_group_IT_number 3
_symmetry_cell_setting 'monoclinic'
loop_
_space_group_symop_operation_xyz
x,y,z
-x,y,-z
loop_
_atom_site_type_symbol
_atom_site_label
_atom_site_fract_x
_atom_site_fract_y
_atom_site_fract_z
Si Si1 0.262582 0.053700 0.964328
Si Si2 0.814155 0.247746 0.480288
Si Si3 0.370792 0.259974 0.384965
Si Si4 0.445485 0.527101 0.276305
Si Si5 0.225186 0.554961 0.890113
Si Si6 0.918298 0.243862 0.291461
Si Si7 0.452919 0.026684 0.184277
O O1 0.311689 0.995896 0.062731
O O2 0.500000 0.082646 0.000000
O O3 0.147040 0.327204 0.914472
O O4 0.127875 0.824923 0.880581
O O5 0.293939 0.469959 0.605722
O O6 0.951906 0.351104 0.595143
O O7 0.000000 0.093548 0.500000
O O8 0.582099 0.100962 0.423685
O O9 0.500000 0.366308 0.500000
O O10 0.317086 0.473739 0.306773
O O11 0.136493 0.125114 0.325521
O O12 0.396824 0.290660 0.205678
O O13 0.422343 0.788892 0.226161
O O14 0.187043 0.457008 0.797287
O O15 0.500000 0.586831 0.000000
O O16 0.715776 0.060389 0.247083
#
# Coordination Sequence:
#
# PCOD9112910 Si02
#       7
#     2   2   2   2   2   2   2
#     4  10  20  35  58  96 125 158 222 283 327 393
#     4   9  18  39  63 100 132 176 222 277 336 427
#     4   8  19  41  68  94 145 177 231 282 347 413
#     4  10  24  42  62 100 136 176 220 278 342 420
#     4  10  20  35  59  93 127 157 221 279 333 386
#     4  11  19  37  70  99 131 179 227 285 348 400
#     4  12  22  40  70  96 130 177 225 282 346 407
#
# _framework density 24.436422
#
# number of rings (size 3 to 8) (size 9 to 14) (size 15 to 20)
#    0.857    1.143    4.286    0.857    2.000    0.000 
#    2.571    3.571    0.000    5.143    0.000    0.000 
#    0.000    0.000    0.000    0.000    0.000    0.000 
#
# Total GULP energy -78022.171362 kJ/mol
# GULP energy per Si atom -5573.012240 kJ/mol
# Density = 2.438080 g / cm^3
# Si number density = 24.436422 Si / 1000 Ang^3
#
#
#
# Elastic Constant Matrix: (Units=GPa)
#
#
# Indices 1 2 3 4 5 6 
#
# 1 114.4415 21.3930 13.4441 0.0000 -3.5890 0.0000
# 2 21.3930 124.7724 22.2481 0.0000 -19.8977 0.0000
# 3 13.4441 22.2481 111.0562 0.0000 -43.2169 0.0000
# 4 0.0000 0.0000 0.0000 9.4773 0.0000 -8.3428
# 5 -3.5890 -19.8977 -43.2169 0.0000 57.5424 0.0000
# 6 0.0000 0.0000 0.0000 -8.3428 0.0000 7.3490
#
#
#
# Elastic Compliance Matrix: (Units=1/GPa)
#
#
# Indices 1 2 3 4 5 6 
#
# 1 0.009123 -0.001491 -0.001109 0.000000 -0.000779 0.000000
# 2 -0.001491 0.008775 -0.000612 0.000000 0.002482 0.000000
# 3 -0.001109 -0.000612 0.012931 0.000000 0.009431 0.000000
# 4 0.000000 0.000000 0.000000155.772553 0.000000176.836476
# 5 -0.000779 0.002482 0.009431 0.000000 0.025272 0.000000
# 6 0.000000 0.000000 0.000000176.836476 0.000000200.884783
#
#
# Mechanical properties :
#
#
# Convention : Reuss Voigt Hill
#
# Bulk Modulus (GPa) = 40.97274 51.60449 46.28861
# Shear Modulus (GPa) = 0.01402 34.41942 17.21672
#
# Velocity S-wave (km/s) = 0.07582 3.75711 2.65722
# Velocity P-wave (km/s) = 4.10014 6.32336 5.32898
#
# Compressibility (1/GPa) = 0.02440647
#
# Stress axis : x y z
#
# Youngs Moduli (GPa) = 109.61806 113.95956 77.33115
#
# Poissons Ratio (x) = 0.16988 0.08576
# Poissons Ratio (y) = 0.16340 0.04730
# Poissons Ratio (z) = 0.12157 0.06970
#
# Static dielectric constant tensor:
#      x y z
#    x 3.048010 0.000000 0.593610 
#    y 0.000000 1.939910 0.000000 
#    z 0.593610 0.000000 2.295340 
# 
# From -- ./inp_files/15674.got.cif
#   From: 2010.05.17/outbox.cif.g08.bks.cpg/sg3_8_cif.got.tgz:15674.got - 2010.06.03 18:33:08.
