data_PCOD9112300
_publ_section_title
;
Structure prediction by ZEFSAII (Michael W. Deem and Ramdas Pophale) SiO2 
 PCOD9112300
Probable space group: P -1
;
_chemical_formula_sum "Si O2"
_cell_formula_units_Z 14
_cell_length_a 19.160121
_cell_length_b 15.542018
_cell_length_c 10.578092
_cell_angle_alpha 148.871975
_cell_angle_beta 41.072748
_cell_angle_gamma 158.269774
_cell_volume 588.687747
_symmetry_space_group_name_H-M "P -1"
_symmetry_group_IT_number 2
_symmetry_cell_setting 'triclinic'
loop_
_space_group_symop_operation_xyz
x,y,z
-x,-y,-z
loop_
_atom_site_type_symbol
_atom_site_label
_atom_site_fract_x
_atom_site_fract_y
_atom_site_fract_z
Si Si1 0.768081 0.616088 0.406601
Si Si2 0.108762 0.697789 0.404243
Si Si3 0.370080 0.565545 0.918617
Si Si4 0.899414 0.142608 0.830795
Si Si5 0.135735 0.330265 0.195799
Si Si6 0.366622 0.181442 0.447420
Si Si7 0.504565 0.066580 0.433239
O O1 0.729064 0.562640 0.242275
O O2 0.557355 0.319200 0.381035
O O3 0.930072 0.688510 0.289081
O O4 0.848290 0.907422 0.682810
O O5 0.982010 0.651828 0.607435
O O6 0.202128 0.927516 0.452647
O O7 0.300099 0.877302 0.436983
O O8 0.981195 0.388537 0.122236
O O9 0.434385 0.460998 0.721538
O O10 0.223471 0.415654 0.044436
O O11 0.523271 0.915784 0.146883
O O12 0.722716 0.954575 0.741792
O O13 0.311544 0.572721 0.362376
O O14 0.000000 0.000000 0.000000
O O15 0.500000 0.000000 0.500000
#
# Coordination Sequence:
#
# PCOD9112300 Si02
#       7
#     2   2   2   2   2   2   2
#     4  10  22  42  68  98 140 178 221 274 330 405
#     4  12  25  44  69 105 134 179 224 277 346 399
#     4  10  20  46  65  98 133 174 229 274 328 402
#     4  10  22  41  66 104 133 177 230 263 336 407
#     4  11  25  46  70  97 136 173 227 291 337 390
#     4  11  24  41  69  99 141 177 217 280 338 397
#     4  10  25  46  68  97 134 177 230 277 328 407
#
# _framework density 23.781708999999999
#
# number of rings (size 3 to 8) (size 9 to 14) (size 15 to 20)
#    0.000    1.429    2.857    2.143    4.000    4.571 
#    2.571    0.000    0.000    0.000    0.000    0.000 
#    0.000    0.000    0.000    0.000    0.000    0.000 
#
# Total GULP energy -78269.306756 kJ/mol
# GULP energy per Si atom -5590.664768 kJ/mol
# Density = 2.372758 g / cm^3
# Si number density = 23.781709 Si / 1000 Ang^3
#
#
#
# Elastic Constant Matrix: (Units=GPa)
#
#
# Indices 1 2 3 4 5 6 
#
# 1 59.1463 9.6499 25.8224 -2.8599 7.3754 21.9164
# 2 9.6499 126.7037 58.7428 -8.4071 4.2841 21.7850
# 3 25.8224 58.7428 163.3829 12.9235 -7.6830 17.2689
# 4 -2.8599 -8.4071 12.9235 48.7791 1.3219 2.0043
# 5 7.3754 4.2841 -7.6830 1.3219 16.4371 1.9926
# 6 21.9164 21.7850 17.2689 2.0043 1.9926 41.0524
#
#
#
# Elastic Compliance Matrix: (Units=1/GPa)
#
#
# Indices 1 2 3 4 5 6 
#
# 1 0.024912 0.003143 -0.004674 0.004109 -0.012989 -0.012571
# 2 0.003143 0.011143 -0.004488 0.003687 -0.006031 -0.005591
# 3 -0.004674 -0.004488 0.009032 -0.003685 0.007678 0.000885
# 4 0.004109 0.003687 -0.003685 0.022655 -0.005935 -0.003418
# 5 -0.012989 -0.006031 0.007678 -0.005935 0.071855 0.003707
# 6 -0.012571 -0.005591 0.000885 -0.003418 0.003707 0.033652
#
#
# Mechanical properties :
#
#
# Convention : Reuss Voigt Hill
#
# Bulk Modulus (GPa) = 30.25776 59.74034 44.99905
# Shear Modulus (GPa) = 25.47085 38.25490 31.86288
#
# Velocity S-wave (km/s) = 3.27621 4.01507 3.66431
# Velocity P-wave (km/s) = 5.20213 6.83148 6.07171
#
# Compressibility (1/GPa) = 0.03304937
#
# Stress axis : x y z
#
# Youngs Moduli (GPa) = 40.14156 89.73868 110.71928
#
# Poissons Ratio (x) = -0.28207 0.51756
# Poissons Ratio (y) = -0.12617 0.49687
# Poissons Ratio (z) = 0.18764 0.40271
#
# Static dielectric constant tensor:
#      x y z
#    x 1.895750 0.025630 -0.024400 
#    y 0.025630 1.994790 0.041630 
#    z -0.024400 0.041630 1.960200 
# 
# From -- ./inp_files/472480.got.cif
#   From: 2010.05.17/outbox.cif.g08.bks.cpg/sg2_237_cif.got.tgz:472480.got - 2010.06.03 11:33:40.
