data_PCOD9112157
_publ_section_title
;
Structure prediction by ZEFSAII (Michael W. Deem and Ramdas Pophale) SiO2 
 PCOD9112157
Probable space group: P -1
;
_chemical_formula_sum "Si O2"
_cell_formula_units_Z 13
_cell_length_a 5.688079
_cell_length_b 12.637384
_cell_length_c 11.683982
_cell_angle_alpha 46.360484
_cell_angle_beta 113.344361
_cell_angle_gamma 104.237406
_cell_volume 557.578240
_symmetry_space_group_name_H-M "P -1"
_symmetry_group_IT_number 2
_symmetry_cell_setting 'triclinic'
loop_
_space_group_symop_operation_xyz
x,y,z
-x,-y,-z
loop_
_atom_site_type_symbol
_atom_site_label
_atom_site_fract_x
_atom_site_fract_y
_atom_site_fract_z
Si Si1 0.957861 0.859372 0.344200
Si Si2 0.131552 0.360192 0.071345
Si Si3 0.262230 0.274000 0.922558
Si Si4 0.721893 0.580561 0.415090
Si Si5 0.749883 0.127864 0.220279
Si Si6 0.581329 0.168515 0.401048
Si Si7 0.000000 0.000000 0.000000
O O1 0.249173 0.814646 0.466908
O O2 0.791824 0.720209 0.399583
O O3 0.850577 0.963327 0.347105
O O4 0.943984 0.956437 0.154797
O O5 0.349196 0.284942 0.250344
O O6 0.929866 0.234891 0.109381
O O7 0.229296 0.381370 0.944735
O O8 0.000000 0.500000 0.000000
O O9 0.368662 0.359565 0.771077
O O10 0.466184 0.147906 0.099474
O O11 0.028257 0.178229 0.907066
O O12 0.500000 0.500000 0.500000
O O13 0.000000 0.500000 0.500000
O O14 0.748736 0.184376 0.307013
O O15 0.500000 0.000000 0.500000
#
# Coordination Sequence:
#
# PCOD9112157 Si02
#       7
#     2   2   2   2   2   2   1
#     4  11  23  43  77 106 148 195 254 316 388 463
#     4  11  25  45  73 105 152 196 249 318 396 459
#     4  10  24  44  75 105 149 191 260 314 393 463
#     4  11  29  50  72 112 157 206 259 321 396 472
#     4  11  23  44  72 106 138 193 249 316 385 463
#     4  11  23  44  71 112 146 189 257 318 384 466
#     4  10  20  44  72 108 138 186 248 314 368 456
#
# _framework density 23.315114999999999
#
# number of rings (size 3 to 8) (size 9 to 14) (size 15 to 20)
#    0.000    1.231    3.077    1.385    2.154   11.077 
#    0.000    0.000    0.000    0.000    0.000    0.000 
#    0.000    0.000    0.000    0.000    0.000    0.000 
#
# Total GULP energy -72421.379884 kJ/mol
# GULP energy per Si atom -5570.875376 kJ/mol
# Density = 2.326205 g / cm^3
# Si number density = 23.315115 Si / 1000 Ang^3
#
#
#
# Elastic Constant Matrix: (Units=GPa)
#
#
# Indices 1 2 3 4 5 6 
#
# 1 89.2597 45.6858 44.3678 -18.8235 -8.7456 -2.7318
# 2 45.6858 105.4416 44.6634 -28.8270 8.4637 -6.1814
# 3 44.3678 44.6634 90.1031 -15.7270 -8.3955 -7.3071
# 4 -18.8235 -28.8270 -15.7270 22.8044 -3.0148 2.0263
# 5 -8.7456 8.4637 -8.3955 -3.0148 42.3352 -19.5854
# 6 -2.7318 -6.1814 -7.3071 2.0263 -19.5854 33.2162
#
#
#
# Elastic Compliance Matrix: (Units=1/GPa)
#
#
# Indices 1 2 3 4 5 6 
#
# 1 0.017639 -0.004054 -0.004908 0.006513 0.004928 0.002125
# 2 -0.004054 0.017740 -0.004786 0.015274 -0.005213 -0.002090
# 3 -0.004908 -0.004786 0.017361 0.002169 0.006390 0.006161
# 4 0.006513 0.015274 0.002169 0.070458 0.004860 0.002423
# 5 0.004928 -0.005213 0.006390 0.004860 0.037879 0.022879
# 6 0.002125 -0.002090 0.006161 0.002423 0.022879 0.044590
#
#
# Mechanical properties :
#
#
# Convention : Reuss Voigt Hill
#
# Bulk Modulus (GPa) = 39.61418 61.58205 50.59811
# Shear Modulus (GPa) = 20.69725 29.67698 25.18711
#
# Velocity S-wave (km/s) = 2.98269 3.57159 3.29034
# Velocity P-wave (km/s) = 5.37490 6.59383 6.01532
#
# Compressibility (1/GPa) = 0.02524349
#
# Stress axis : x y z
#
# Youngs Moduli (GPa) = 56.69191 56.37122 57.59966
#
# Poissons Ratio (x) = 0.22854 0.28269
# Poissons Ratio (y) = 0.22984 0.27569
# Poissons Ratio (z) = 0.27823 0.26981
#
# Static dielectric constant tensor:
#      x y z
#    x 1.994780 -0.007890 -0.032450 
#    y -0.007890 1.872730 0.012240 
#    z -0.032450 0.012240 1.883060 
# 
# From -- ./inp_files/94186.got.cif
#   From: 2010.05.17/outbox.cif.g08.bks.cpg/sg2_48_cif.got.tgz:94186.got - 2010.06.03 11:33:40.
