data_PCOD9112583
_publ_section_title
;
Structure prediction by ZEFSAII (Michael W. Deem and Ramdas Pophale) SiO2 
 PCOD9112583
Probable space group: P 2
;
_chemical_formula_sum "Si O2"
_cell_formula_units_Z 14
_cell_length_a 17.640310
_cell_length_b 9.858195
_cell_length_c 8.378567
_cell_angle_alpha 90.000000
_cell_angle_beta 31.664457
_cell_angle_gamma 90.000000
_cell_volume 764.867378
_symmetry_space_group_name_H-M "P 2"
_symmetry_group_IT_number 3
_symmetry_cell_setting 'monoclinic'
loop_
_space_group_symop_operation_xyz
x,y,z
-x,y,-z
loop_
_atom_site_type_symbol
_atom_site_label
_atom_site_fract_x
_atom_site_fract_y
_atom_site_fract_z
Si Si1 0.922112 0.210370 0.290994
Si Si2 0.770459 0.348089 0.855588
Si Si3 0.644790 0.070787 0.635899
Si Si4 0.128954 0.082573 0.150762
Si Si5 0.647595 0.869091 0.338801
Si Si6 0.662437 0.556852 0.284124
Si Si7 0.456936 0.353634 0.262402
O O1 0.873215 0.315501 0.518245
O O2 0.783837 0.115775 0.492867
O O3 0.048805 0.113160 0.129262
O O4 0.000000 0.279060 0.000000
O O5 0.798410 0.220986 0.919919
O O6 0.770726 0.483340 0.964702
O O7 0.608653 0.344598 0.079964
O O8 0.618836 0.208630 0.582759
O O9 0.646801 0.942889 0.513498
O O10 0.500000 0.056265 0.000000
O O11 0.000000 0.051247 0.500000
O O12 0.238394 0.960889 0.957257
O O13 0.500000 0.876002 0.500000
O O14 0.694677 0.712763 0.263314
O O15 0.500000 0.556498 0.500000
O O16 0.643006 0.467092 0.478383
O O17 0.500000 0.377110 0.000000
#
# Coordination Sequence:
#
# PCOD9112583 Si02
#       7
#     2   2   2   2   2   2   2
#     4  11  21  37  59  93 122 149 198 256 311 348
#     4  10  19  37  59  87 115 156 202 245 297 357
#     4  11  21  36  62  93 116 153 201 256 299 354
#     4  10  22  37  61  86 116 158 196 253 303 353
#     4  11  22  38  59  87 121 159 203 244 294 365
#     4   9  21  36  57  87 121 160 202 248 298 354
#     4  10  18  34  62  90 119 148 199 256 302 343
#
# _framework density 18.303827999999999
#
# number of rings (size 3 to 8) (size 9 to 14) (size 15 to 20)
#    0.000    1.714    4.286    1.714    2.000    1.714 
#    0.000    2.143    0.000    3.429    0.000    0.000 
#    0.000    0.000    0.000    0.000    0.000    0.000 
#
# Total GULP energy -77980.062437 kJ/mol
# GULP energy per Si atom -5570.004460 kJ/mol
# Density = 1.826217 g / cm^3
# Si number density = 18.303828 Si / 1000 Ang^3
#
#
#
# Elastic Constant Matrix: (Units=GPa)
#
#
# Indices 1 2 3 4 5 6 
#
# 1 72.6346 46.9368 39.2485 0.0000 3.2982 0.0000
# 2 46.9368 165.4523 65.5603 0.0000 13.5016 0.0000
# 3 39.2485 65.5603 84.8692 0.0000 13.6465 0.0000
# 4 0.0000 0.0000 0.0000 -8.8201 0.0000 1.3454
# 5 3.2982 13.5016 13.6465 0.0000 32.4019 0.0000
# 6 0.0000 0.0000 0.0000 1.3454 0.0000 26.9036
#
#
#
# Elastic Compliance Matrix: (Units=1/GPa)
#
#
# Indices 1 2 3 4 5 6 
#
# 1 0.019348 -0.002857 -0.007095 0.000000 0.002210 0.000000
# 2 -0.002857 0.009154 -0.005560 0.000000 -0.001182 0.000000
# 3 -0.007095 -0.005560 0.020241 0.000000 -0.005486 0.000000
# 4 0.000000 0.000000 0.000000 -0.112519 0.000000 0.005627
# 5 0.002210 -0.001182 -0.005486 0.000000 0.033440 0.000000
# 6 0.000000 0.000000 0.000000 0.005627 0.000000 0.036888
#
#
# Mechanical properties :
#
#
# Convention : Reuss Voigt Hill
#
# Bulk Modulus (GPa) = 56.44160 69.60524 63.02342
# Shear Modulus (GPa) = 114.98218 21.51112 68.24665
#
# Velocity S-wave (km/s) = 7.93442 3.43188 6.11281
# Velocity P-wave (km/s) = 10.71648 7.33580 9.18305
#
# Compressibility (1/GPa) = 0.01771743
#
# Stress axis : x y z
#
# Youngs Moduli (GPa) = 51.68551 109.23845 49.40380
#
# Poissons Ratio (x) = 0.31214 0.35054
# Poissons Ratio (y) = 0.14769 0.27469
# Poissons Ratio (z) = 0.36673 0.60737
#
# Static dielectric constant tensor:
#      x y z
#    x 1.636020 0.000000 0.023600 
#    y 0.000000 1.596430 0.000000 
#    z 0.023600 0.000000 1.668270 
# 
# From -- ./inp_files/5407.got.cif
#   From: 2010.05.17/outbox.cif.g08.bks.cpg/sg3_3_cif.got.tgz:5407.got - 2010.06.03 18:33:08.
