data_PCOD9112263
_publ_section_title
;
Structure prediction by ZEFSAII (Michael W. Deem and Ramdas Pophale) SiO2 
 PCOD9112263
Probable space group: P -1
;
_chemical_formula_sum "Si O2"
_cell_formula_units_Z 14
_cell_length_a 11.260761
_cell_length_b 18.951493
_cell_length_c 7.204338
_cell_angle_alpha 123.771183
_cell_angle_beta 40.718906
_cell_angle_gamma 146.077456
_cell_volume 548.345223
_symmetry_space_group_name_H-M "P -1"
_symmetry_group_IT_number 2
_symmetry_cell_setting 'triclinic'
loop_
_space_group_symop_operation_xyz
x,y,z
-x,-y,-z
loop_
_atom_site_type_symbol
_atom_site_label
_atom_site_fract_x
_atom_site_fract_y
_atom_site_fract_z
Si Si1 0.866360 0.372041 0.716696
Si Si2 0.192623 0.648344 0.679980
Si Si3 0.413786 0.462484 0.333139
Si Si4 0.939726 0.064629 0.561357
Si Si5 0.741451 0.727400 0.224384
Si Si6 0.044549 0.185261 0.278061
Si Si7 0.648450 0.172859 0.945483
O O1 0.825725 0.340550 0.500836
O O2 0.943974 0.498606 0.819088
O O3 0.137511 0.419129 0.545453
O O4 0.623919 0.246980 0.946500
O O5 0.477476 0.695967 0.451673
O O6 0.193719 0.732106 0.925774
O O7 0.500000 0.500000 0.500000
O O8 0.647487 0.596401 0.140671
O O9 0.332990 0.338057 0.193539
O O10 0.007983 0.087877 0.297491
O O11 0.128959 0.203401 0.631349
O O12 0.623195 0.962990 0.845464
O O13 0.000000 0.000000 0.500000
O O14 0.966567 0.826080 0.944420
O O15 0.809911 0.161392 0.614132
#
# Coordination Sequence:
#
# PCOD9112263 Si02
#       7
#     2   2   2   2   2   2   2
#     4   9  22  40  67 103 132 182 228 282 342 407
#     4  10  21  43  68  99 141 176 229 282 344 412
#     4  10  20  45  72 102 138 177 223 289 351 407
#     4  12  26  45  70 100 139 190 234 276 342 411
#     4  11  24  43  73 104 137 181 229 287 344 410
#     4  11  26  44  68 103 140 177 230 288 349 405
#     4  11  24  44  68  98 139 182 231 281 342 405
#
# _framework density 25.531361
#
# number of rings (size 3 to 8) (size 9 to 14) (size 15 to 20)
#    0.000    1.429    2.857    1.286    2.000    4.571 
#   15.429    0.000    0.000    0.000    0.000    0.000 
#    0.000    0.000    0.000    0.000    0.000    0.000 
#
# Total GULP energy -78373.505645 kJ/mol
# GULP energy per Si atom -5598.107546 kJ/mol
# Density = 2.547325 g / cm^3
# Si number density = 25.531361 Si / 1000 Ang^3
#
#
#
# Elastic Constant Matrix: (Units=GPa)
#
#
# Indices 1 2 3 4 5 6 
#
# 1 93.3001 20.2496 36.5787 -14.3213 21.6131 -4.8912
# 2 20.2496 54.8724 7.2870 -22.4442 3.8088 -7.1421
# 3 36.5787 7.2870 99.3054 -15.0320 21.2952 -4.9210
# 4 -14.3213 -22.4442 -15.0320 45.1558 -9.4367 11.3464
# 5 21.6131 3.8088 21.2952 -9.4367 51.4026 -5.2258
# 6 -4.8912 -7.1421 -4.9210 11.3464 -5.2258 35.6973
#
#
#
# Elastic Compliance Matrix: (Units=1/GPa)
#
#
# Indices 1 2 3 4 5 6 
#
# 1 0.014184 -0.004361 -0.004035 0.000194 -0.003946 -0.000125
# 2 -0.004361 0.024263 0.001206 0.011149 0.001698 0.001128
# 3 -0.004035 0.001206 0.012559 0.002842 -0.003067 0.000067
# 4 0.000194 0.011149 0.002842 0.031008 0.002918 -0.006780
# 5 -0.003946 0.001698 -0.003067 0.002918 0.022978 0.001813
# 6 -0.000125 0.001128 0.000067 -0.006780 0.001813 0.030651
#
#
# Mechanical properties :
#
#
# Convention : Reuss Voigt Hill
#
# Bulk Modulus (GPa) = 27.30470 41.74538 34.52504
# Shear Modulus (GPa) = 30.81970 38.67530 34.74750
#
# Velocity S-wave (km/s) = 3.47815 3.89629 3.69314
# Velocity P-wave (km/s) = 5.18149 6.05207 5.63362
#
# Compressibility (1/GPa) = 0.03662373
#
# Stress axis : x y z
#
# Youngs Moduli (GPa) = 70.50153 41.21558 79.62337
#
# Poissons Ratio (x) = 0.17976 0.32130
# Poissons Ratio (y) = 0.30749 -0.09599
# Poissons Ratio (z) = 0.28449 -0.04969
#
# Static dielectric constant tensor:
#      x y z
#    x 2.161550 0.036220 -0.089500 
#    y 0.036220 2.096800 -0.082340 
#    z -0.089500 -0.082340 2.014830 
# 
# From -- ./inp_files/83324.got.cif
#   From: 2010.05.17/outbox.cif.g08.bks.cpg/sg2_42_cif.got.tgz:83324.got - 2010.06.03 11:33:40.
