data_PCOD9112202
_publ_section_title
;
Structure prediction by ZEFSAII (Michael W. Deem and Ramdas Pophale) SiO2 
 PCOD9112202
Probable space group: P -1
;
_chemical_formula_sum "Si O2"
_cell_formula_units_Z 16
_cell_length_a 8.189415
_cell_length_b 14.481099
_cell_length_c 7.327567
_cell_angle_alpha 73.099040
_cell_angle_beta 56.166599
_cell_angle_gamma 55.463977
_cell_volume 594.230488
_symmetry_space_group_name_H-M "P -1"
_symmetry_group_IT_number 2
_symmetry_cell_setting 'triclinic'
loop_
_space_group_symop_operation_xyz
x,y,z
-x,-y,-z
loop_
_atom_site_type_symbol
_atom_site_label
_atom_site_fract_x
_atom_site_fract_y
_atom_site_fract_z
Si Si1 0.335382 0.892347 0.515345
Si Si2 0.836937 0.475448 0.232757
Si Si3 0.113287 0.703588 0.302328
Si Si4 0.576386 0.818727 0.055440
Si Si5 0.781695 0.117817 0.024849
Si Si6 0.476854 0.449454 0.310357
Si Si7 0.915383 0.875598 0.649453
Si Si8 0.762906 0.662930 0.675322
O O1 0.524368 0.811521 0.300170
O O2 0.389422 0.861024 0.711396
O O3 0.107148 0.888439 0.622470
O O4 0.252553 0.020852 0.438783
O O5 0.741772 0.414087 0.193948
O O6 0.601443 0.562880 0.428362
O O7 0.989891 0.430785 0.345422
O O8 0.000000 0.500000 0.000000
O O9 0.335324 0.578508 0.247455
O O10 0.057808 0.766095 0.497816
O O11 0.874054 0.705760 0.426877
O O12 0.155635 0.785962 0.100590
O O13 0.324735 0.899067 0.083643
O O14 0.753247 0.860149 0.897805
O O15 0.659580 0.723770 0.901520
O O16 0.000000 0.000000 0.000000
O O17 0.603565 0.618988 0.723707
#
# Coordination Sequence:
#
# PCOD9112202 Si02
#       8
#     2   2   2   2   2   2   2   2
#     4  11  22  44  72 104 144 196 247 305 381 441
#     4  10  22  42  75 109 144 193 258 313 381 464
#     4  10  20  44  76 103 152 196 247 314 380 453
#     4  11  25  47  70 104 155 193 249 312 382 444
#     4  12  24  45  76 107 147 197 252 309 375 454
#     4  10  23  48  77 106 154 201 246 318 391 444
#     4  10  21  44  72  99 149 193 239 320 370 437
#     4  10  24  50  73 107 155 204 248 322 383 451
#
# _framework density 26.925581000000001
#
# number of rings (size 3 to 8) (size 9 to 14) (size 15 to 20)
#    0.000    1.500    2.500    2.625    1.750    1.000 
#   18.000    0.000    0.000    0.750    0.000    0.000 
#    0.000    0.000    0.000    0.000    0.000    0.000 
#
# Total GULP energy -89396.166394 kJ/mol
# GULP energy per Si atom -5587.260400 kJ/mol
# Density = 2.686430 g / cm^3
# Si number density = 26.925581 Si / 1000 Ang^3
#
#
#
# Elastic Constant Matrix: (Units=GPa)
#
#
# Indices 1 2 3 4 5 6 
#
# 1 158.1885 24.1375 64.0191 -15.5298 -22.0582 8.2967
# 2 24.1375 91.8691 34.9104 -3.8979 -5.3459 10.1894
# 3 64.0191 34.9104 209.7920 -14.6470 -21.2431 9.5390
# 4 -15.5298 -3.8979 -14.6470 29.7500 -1.3366 1.3112
# 5 -22.0582 -5.3459 -21.2431 -1.3366 54.4676 -8.0051
# 6 8.2967 10.1894 9.5390 1.3112 -8.0051 38.0617
#
#
#
# Elastic Compliance Matrix: (Units=1/GPa)
#
#
# Indices 1 2 3 4 5 6 
#
# 1 0.007868 -0.001067 -0.001726 0.003252 0.002400 -0.000604
# 2 -0.001067 0.012055 -0.001558 0.000362 -0.000240 -0.002667
# 3 -0.001726 -0.001558 0.005845 0.001855 0.001409 -0.000439
# 4 0.003252 0.000362 0.001855 0.036479 0.002683 -0.001963
# 5 0.002400 -0.000240 0.001409 0.002683 0.020421 0.003391
# 6 -0.000604 -0.002667 -0.000439 -0.001963 0.003391 0.028010
#
#
# Mechanical properties :
#
#
# Convention : Reuss Voigt Hill
#
# Bulk Modulus (GPa) = 58.59635 78.44263 68.51949
# Shear Modulus (GPa) = 39.97811 46.90804 43.44307
#
# Velocity S-wave (km/s) = 3.85744 4.17842 4.02113
# Velocity P-wave (km/s) = 6.45363 7.24398 6.86020
#
# Compressibility (1/GPa) = 0.01706591
#
# Stress axis : x y z
#
# Youngs Moduli (GPa) = 127.08913 82.95557 171.09434
#
# Poissons Ratio (x) = 0.08850 0.29532
# Poissons Ratio (y) = 0.13558 0.26659
# Poissons Ratio (z) = 0.21936 0.12926
#
# Static dielectric constant tensor:
#      x y z
#    x 2.098410 -0.065810 0.008580 
#    y -0.065810 2.470890 0.020930 
#    z 0.008580 0.020930 2.212120 
# 
# From -- ./inp_files/280411.got.cif
#   From: 2010.05.17/outbox.cif.g08.bks.cpg/sg2_141_cif.got.tgz:280411.got - 2010.06.03 11:33:40.
