data_PCOD9112390
_publ_section_title
;
Structure prediction by ZEFSAII (Michael W. Deem and Ramdas Pophale) SiO2 
 PCOD9112390
Probable space group: P -1
;
_chemical_formula_sum "Si O2"
_cell_formula_units_Z 15
_cell_length_a 22.881379
_cell_length_b 9.709485
_cell_length_c 8.115769
_cell_angle_alpha 98.431421
_cell_angle_beta 29.602766
_cell_angle_gamma 119.371178
_cell_volume 589.849245
_symmetry_space_group_name_H-M "P -1"
_symmetry_group_IT_number 2
_symmetry_cell_setting 'triclinic'
loop_
_space_group_symop_operation_xyz
x,y,z
-x,-y,-z
loop_
_atom_site_type_symbol
_atom_site_label
_atom_site_fract_x
_atom_site_fract_y
_atom_site_fract_z
Si Si1 0.156377 0.899001 0.307882
Si Si2 0.649395 0.026434 0.860922
Si Si3 0.467134 0.319431 0.489708
Si Si4 0.530093 0.674050 0.874749
Si Si5 0.801934 0.428700 0.390370
Si Si6 0.137744 0.412438 0.396067
Si Si7 0.764508 0.307098 0.099131
Si Si8 0.000000 0.000000 0.500000
O O1 0.024134 0.905661 0.578828
O O2 0.189052 0.812029 0.071832
O O3 0.183816 0.844327 0.402786
O O4 0.341861 0.142246 0.895957
O O5 0.450182 0.870598 0.397422
O O6 0.635113 0.875253 0.761329
O O7 0.686447 0.195420 0.692399
O O8 0.500000 0.500000 0.500000
O O9 0.376936 0.251369 0.519582
O O10 0.653290 0.410682 0.044327
O O11 0.500000 0.500000 0.000000
O O12 0.334145 0.563523 0.308693
O O13 0.926621 0.579918 0.267884
O O14 0.847772 0.429897 0.088930
O O15 0.154906 0.527268 0.213982
O O16 0.066376 0.195291 0.488552
#
# Coordination Sequence:
#
# PCOD9112390 Si02
#       8
#     2   2   2   2   2   2   2   1
#     4  12  23  41  69  97 132 174 219 266 335 392
#     4  11  20  39  65 107 133 164 216 280 334 379
#     4  11  20  37  66  95 126 171 219 268 322 393
#     4  10  21  31  57  99 140 163 203 274 334 380
#     4  10  22  39  65 102 136 165 216 278 331 387
#     4  11  23  45  66  97 131 172 223 272 334 384
#     4  11  21  40  73 101 129 170 220 275 327 392
#     4  12  30  44  64  94 138 182 216 276 334 394
#
# _framework density 25.430226000000001
#
# number of rings (size 3 to 8) (size 9 to 14) (size 15 to 20)
#    0.000    1.067    4.000    5.200    3.733    0.533 
#    0.000    1.333    2.933    0.000    0.000    0.000 
#    0.000    0.000    0.000    0.000    0.000    0.000 
#
# Total GULP energy -83552.812671 kJ/mol
# GULP energy per Si atom -5570.187511 kJ/mol
# Density = 2.537235 g / cm^3
# Si number density = 25.430226 Si / 1000 Ang^3
#
#
#
# Elastic Constant Matrix: (Units=GPa)
#
#
# Indices 1 2 3 4 5 6 
#
# 1 186.3070 68.5547 35.9880 5.3471 10.1335 -7.1185
# 2 68.5547 175.4936 4.1326 -13.5318 17.4181 -3.4927
# 3 35.9880 4.1326 39.2554 -7.5215 7.2866 0.4218
# 4 5.3471 -13.5318 -7.5215 24.5312 6.3899 -0.4624
# 5 10.1335 17.4181 7.2866 6.3899 43.4175 2.4836
# 6 -7.1185 -3.4927 0.4218 -0.4624 2.4836 65.3793
#
#
#
# Elastic Compliance Matrix: (Units=1/GPa)
#
#
# Indices 1 2 3 4 5 6 
#
# 1 0.008810 -0.004014 -0.009539 -0.007630 0.002240 0.000667
# 2 -0.004014 0.008219 0.005203 0.008165 -0.004446 0.000195
# 3 -0.009539 0.005203 0.039096 0.019332 -0.009237 -0.000525
# 4 -0.007630 0.008165 0.019332 0.056263 -0.013041 0.000374
# 5 0.002240 -0.004446 -0.009237 -0.013041 0.027825 -0.001083
# 6 0.000667 0.000195 -0.000525 0.000374 -0.001083 0.015426
#
#
# Mechanical properties :
#
#
# Convention : Reuss Voigt Hill
#
# Bulk Modulus (GPa) = 25.36562 68.71186 47.03874
# Shear Modulus (GPa) = 26.95711 46.15765 36.55738
#
# Velocity S-wave (km/s) = 3.25936 4.26499 3.79563
# Velocity P-wave (km/s) = 4.91537 7.16463 6.14381
#
# Compressibility (1/GPa) = 0.03942344
#
# Stress axis : x y z
#
# Youngs Moduli (GPa) = 113.50998 121.67519 25.57817
#
# Poissons Ratio (x) = 0.48843 0.24399
# Poissons Ratio (y) = 0.45565 -0.13307
# Poissons Ratio (z) = 1.08275 -0.63303
#
# Static dielectric constant tensor:
#      x y z
#    x 2.054650 0.029030 -0.074300 
#    y 0.029030 1.946510 0.014080 
#    z -0.074300 0.014080 1.845620 
# 
# From -- ./inp_files/351758.got.cif
#   From: 2010.05.17/outbox.cif.g08.bks.cpg/sg2_176_cif.got.tgz:351758.got - 2010.06.03 11:33:40.
