data_PCOD9112707
_publ_section_title
;
Structure prediction by ZEFSAII (Michael W. Deem and Ramdas Pophale) SiO2 
 PCOD9112707
Probable space group: P 2
;
_chemical_formula_sum "Si O2"
_cell_formula_units_Z 16
_cell_length_a 8.328355
_cell_length_b 18.012195
_cell_length_c 9.054354
_cell_angle_alpha 90.000000
_cell_angle_beta 33.809891
_cell_angle_gamma 90.000000
_cell_volume 755.789663
_symmetry_space_group_name_H-M "P 2"
_symmetry_group_IT_number 3
_symmetry_cell_setting 'monoclinic'
loop_
_space_group_symop_operation_xyz
x,y,z
-x,y,-z
loop_
_atom_site_type_symbol
_atom_site_label
_atom_site_fract_x
_atom_site_fract_y
_atom_site_fract_z
Si Si1 0.351881 0.506740 0.953185
Si Si2 0.133004 0.342619 0.061414
Si Si3 0.683310 0.985315 0.209440
Si Si4 0.676598 0.097237 0.714833
Si Si5 0.249021 0.758500 0.432142
Si Si6 0.850257 0.592644 0.450304
Si Si7 0.141694 0.823703 0.039712
Si Si8 0.366883 0.245314 0.436957
O O1 0.591784 0.533405 0.654673
O O2 0.500000 0.512334 0.000000
O O3 0.236436 0.423701 0.027857
O O4 0.089690 0.564614 0.154530
O O5 0.896602 0.302349 0.342383
O O6 0.397205 0.286726 0.841707
O O7 0.000000 0.350640 0.000000
O O8 0.500000 0.975462 0.500000
O O9 0.503754 0.036576 0.237290
O O10 0.756979 0.906656 0.076802
O O11 0.000000 0.019714 0.000000
O O12 0.710344 0.169331 0.584756
O O13 0.000000 0.069695 0.500000
O O14 0.500000 0.114216 0.000000
O O15 0.255536 0.676010 0.495441
O O16 0.568892 0.780064 0.135856
O O17 0.000000 0.756043 0.500000
O O18 0.117529 0.818163 0.646147
O O19 0.000000 0.592727 0.500000
O O20 0.000000 0.791008 0.000000
O O21 0.500000 0.231501 0.500000
#
# Coordination Sequence:
#
# PCOD9112707 Si02
#       8
#     2   2   2   2   2   2   2   2
#     4  10  19  34  56  81 112 152 196 247 302 359
#     4  10  21  37  58  85 115 154 203 249 293 361
#     4  11  24  45  68  89 124 175 210 242 309 393
#     4  12  26  42  65 100 130 154 203 274 313 350
#     4  11  22  39  64  90 121 164 209 255 307 370
#     4   9  19  35  55  81 114 154 199 242 299 369
#     4  11  23  41  62  91 125 160 205 256 307 367
#     4  10  22  41  62  83 119 167 202 235 304 385
#
# _framework density 21.169910000000002
#
# number of rings (size 3 to 8) (size 9 to 14) (size 15 to 20)
#    0.000    1.500    0.000    5.625    0.000    6.500 
#    0.000    3.750    0.000    0.000    0.000    0.000 
#    0.000    0.000    0.000    0.000    0.000    0.000 
#
# Total GULP energy -89421.920909 kJ/mol
# GULP energy per Si atom -5588.870057 kJ/mol
# Density = 2.112173 g / cm^3
# Si number density = 21.169910 Si / 1000 Ang^3
#
#
#
# Elastic Constant Matrix: (Units=GPa)
#
#
# Indices 1 2 3 4 5 6 
#
# 1 53.5857 40.2735 31.0895 0.0000 -23.1700 0.0000
# 2 40.2735 82.0507 0.4238 0.0000 -13.3966 0.0000
# 3 31.0895 0.4238 69.6102 0.0000 -26.1522 0.0000
# 4 0.0000 0.0000 0.0000 14.3794 0.0000 -35.5828
# 5 -23.1700 -13.3966 -26.1522 0.0000 35.3334 0.0000
# 6 0.0000 0.0000 0.0000 -35.5828 0.0000 -90.5110
#
#
#
# Elastic Compliance Matrix: (Units=1/GPa)
#
#
# Indices 1 2 3 4 5 6 
#
# 1 0.052526 -0.023840 -0.019073 0.000000 0.011288 0.000000
# 2 -0.023840 0.024122 0.011169 0.000000 0.001780 0.000000
# 3 -0.019073 0.011169 0.027300 0.000000 0.011933 0.000000
# 4 0.000000 0.000000 0.000000 0.035251 0.000000 -0.013858
# 5 0.011288 0.001780 0.011933 0.000000 0.045211 0.000000
# 6 0.000000 0.000000 0.000000 -0.013858 0.000000 -0.005600
#
#
# Mechanical properties :
#
#
# Convention : Reuss Voigt Hill
#
# Bulk Modulus (GPa) = 24.71624 38.75780 31.73702
# Shear Modulus (GPa) = 19.54768 0.73768 10.14268
#
# Velocity S-wave (km/s) = 3.04200 0.59094 2.19123
# Velocity P-wave (km/s) = 4.90294 4.33743 4.62883
#
# Compressibility (1/GPa) = 0.04045923
#
# Stress axis : x y z
#
# Youngs Moduli (GPa) = 19.03810 41.45567 36.63057
#
# Poissons Ratio (x) = 0.98832 0.69867
# Poissons Ratio (y) = 0.45387 -0.40914
# Poissons Ratio (z) = 0.36312 -0.46303
#
# Static dielectric constant tensor:
#      x y z
#    x 1.925830 0.000000 0.043700 
#    y 0.000000 1.738570 0.000000 
#    z 0.043700 0.000000 1.765080 
# 
# From -- ./inp_files/6226.got.cif
#   From: 2010.05.17/outbox.cif.g08.bks.cpg/sg3_4_cif.got.tgz:6226.got - 2010.06.03 18:33:08.
