data_PCOD9112144
_publ_section_title
;
Structure prediction by ZEFSAII (Michael W. Deem and Ramdas Pophale) SiO2 
 PCOD9112144
Probable space group: P -1
;
_chemical_formula_sum "Si O2"
_cell_formula_units_Z 13
_cell_length_a 15.266245
_cell_length_b 11.541856
_cell_length_c 11.964945
_cell_angle_alpha 61.554830
_cell_angle_beta 141.558824
_cell_angle_gamma 149.523137
_cell_volume 516.169138
_symmetry_space_group_name_H-M "P -1"
_symmetry_group_IT_number 2
_symmetry_cell_setting 'triclinic'
loop_
_space_group_symop_operation_xyz
x,y,z
-x,-y,-z
loop_
_atom_site_type_symbol
_atom_site_label
_atom_site_fract_x
_atom_site_fract_y
_atom_site_fract_z
Si Si1 0.689948 0.968310 0.362472
Si Si2 0.527084 0.916387 0.735722
Si Si3 0.727067 0.721058 0.229521
Si Si4 0.000000 0.500000 0.500000
Si Si5 0.685215 0.813496 0.801223
Si Si6 0.663483 0.977346 0.079684
Si Si7 0.287831 0.636925 0.310952
O O1 0.882360 0.239720 0.497657
O O2 0.596602 0.942711 0.158188
O O3 0.925070 0.042309 0.552436
O O4 0.382737 0.678926 0.260308
O O5 0.699036 0.193782 0.751309
O O6 0.703323 0.933863 0.865684
O O7 0.417160 0.808069 0.810579
O O8 0.165663 0.620557 0.476312
O O9 0.577940 0.512462 0.277402
O O10 0.718602 0.868079 0.174995
O O11 0.500000 0.500000 0.000000
O O12 0.558423 0.798157 0.582341
O O13 0.000000 0.000000 0.000000
O O14 0.962840 0.305693 0.180697
#
# Coordination Sequence:
#
# PCOD9112144 Si02
#       7
#     2   2   2   1   2   2   2
#     4  11  24  43  71 110 143 196 239 302 375 428
#     4  11  24  46  75 105 147 197 247 307 369 438
#     4  12  23  46  71 100 147 192 244 300 365 435
#     4  10  20  44  72 100 144 190 248 290 358 444
#     4  12  25  46  75 110 146 197 250 306 366 442
#     4  12  25  46  73 106 156 187 248 309 368 450
#     4  11  26  44  73 108 148 192 245 308 371 439
#
# _framework density 25.185542000000002
#
# number of rings (size 3 to 8) (size 9 to 14) (size 15 to 20)
#    0.000    0.615    4.615    2.308    0.000    6.769 
#    0.000    3.077    0.000    0.000    0.000    0.000 
#    0.000    0.000    0.000    0.000    0.000    0.000 
#
# Total GULP energy -72664.141212 kJ/mol
# GULP energy per Si atom -5589.549324 kJ/mol
# Density = 2.512822 g / cm^3
# Si number density = 25.185542 Si / 1000 Ang^3
#
#
#
# Elastic Constant Matrix: (Units=GPa)
#
#
# Indices 1 2 3 4 5 6 
#
# 1 117.9282 50.6900 43.5908 -1.7090 14.5599 10.7655
# 2 50.6900 152.8672 19.5018 -10.6643 4.4248 1.8775
# 3 43.5908 19.5018 125.6512 -12.9714 2.6043 5.8029
# 4 -1.7090 -10.6643 -12.9714 48.4362 3.2414 4.6077
# 5 14.5599 4.4248 2.6043 3.2414 56.1932 -15.3266
# 6 10.7655 1.8775 5.8029 4.6077 -15.3266 52.7132
#
#
#
# Elastic Compliance Matrix: (Units=1/GPa)
#
#
# Indices 1 2 3 4 5 6 
#
# 1 0.011903 -0.003424 -0.003476 -0.000768 -0.003385 -0.002843
# 2 -0.003424 0.007758 0.000124 0.001568 0.000276 0.000353
# 3 -0.003476 0.000124 0.009418 0.002462 0.000177 -0.000495
# 4 -0.000768 0.001568 0.002462 0.022016 -0.002042 -0.002688
# 5 -0.003385 0.000276 0.000177 -0.002042 0.020625 0.006837
# 6 -0.002843 0.000353 -0.000495 -0.002688 0.006837 0.021816
#
#
# Mechanical properties :
#
#
# Convention : Reuss Voigt Hill
#
# Bulk Modulus (GPa) = 64.40273 69.33466 66.86869
# Shear Modulus (GPa) = 44.53771 50.31278 47.42525
#
# Velocity S-wave (km/s) = 4.20978 4.47440 4.34410
# Velocity P-wave (km/s) = 7.01829 7.36770 7.19512
#
# Compressibility (1/GPa) = 0.01552729
#
# Stress axis : x y z
#
# Youngs Moduli (GPa) = 84.01562 128.89320 106.17445
#
# Poissons Ratio (x) = 0.44134 0.36902
# Poissons Ratio (y) = 0.28768 -0.01313
# Poissons Ratio (z) = 0.29200 -0.01594
#
# Static dielectric constant tensor:
#      x y z
#    x 2.114370 0.062900 -0.080470 
#    y 0.062900 1.968570 0.049910 
#    z -0.080470 0.049910 2.136940 
# 
# From -- ./inp_files/237814.got.cif
#   From: 2010.05.17/outbox.cif.g08.bks.cpg/sg2_119_cif.got.tgz:237814.got - 2010.06.03 11:33:40.
