data_PCOD9112424
_publ_section_title
;
Structure prediction by ZEFSAII (Michael W. Deem and Ramdas Pophale) SiO2 
 PCOD9112424
Probable space group: P -1
;
_chemical_formula_sum "Si O2"
_cell_formula_units_Z 16
_cell_length_a 5.544140
_cell_length_b 10.858503
_cell_length_c 17.399094
_cell_angle_alpha 39.582328
_cell_angle_beta 111.085837
_cell_angle_gamma 116.682929
_cell_volume 596.168408
_symmetry_space_group_name_H-M "P -1"
_symmetry_group_IT_number 2
_symmetry_cell_setting 'triclinic'
loop_
_space_group_symop_operation_xyz
x,y,z
-x,-y,-z
loop_
_atom_site_type_symbol
_atom_site_label
_atom_site_fract_x
_atom_site_fract_y
_atom_site_fract_z
Si Si1 0.271409 0.240203 0.094938
Si Si2 0.340569 0.576984 0.536267
Si Si3 0.704590 0.213178 0.056877
Si Si4 0.465823 0.771249 0.705262
Si Si5 0.288451 0.150730 0.457685
Si Si6 0.081468 0.450262 0.721261
Si Si7 0.846049 0.953010 0.085392
Si Si8 0.545049 0.220963 0.700049
O O1 0.491609 0.321769 0.013087
O O2 0.421128 0.235607 0.193982
O O3 0.020889 0.332417 0.034809
O O4 0.088324 0.025648 0.142342
O O5 0.644461 0.679189 0.552436
O O6 0.161567 0.577648 0.590440
O O7 0.335832 0.354803 0.616755
O O8 0.307036 0.711007 0.396676
O O9 0.624831 0.012037 0.199084
O O10 0.671371 0.099832 0.024709
O O11 0.656735 0.746902 0.668500
O O12 0.187241 0.599191 0.733514
O O13 0.458390 0.998479 0.576683
O O14 0.000000 0.000000 0.500000
O O15 0.255642 0.288020 0.811488
O O16 0.775094 0.307156 0.749686
O O17 0.000000 0.000000 0.000000
#
# Coordination Sequence:
#
# PCOD9112424 Si02
#       8
#     2   2   2   2   2   2   2   2
#     4  10  22  41  65  93 123 165 213 257 328 377
#     4  10  21  32  54  84 126 166 208 256 303 376
#     4  10  21  40  65  93 126 162 213 262 318 378
#     4  10  23  37  58  86 127 175 206 264 309 384
#     4  10  21  35  52  84 123 173 218 246 302 375
#     4  11  21  41  56  91 126 163 214 260 326 365
#     4  10  23  42  69  94 122 161 217 274 327 379
#     4  11  19  34  55  91 120 166 204 263 309 377
#
# _framework density 26.838056000000002
#
# number of rings (size 3 to 8) (size 9 to 14) (size 15 to 20)
#    0.750    1.000    2.500    1.875    3.500    0.500 
#    6.750    0.625    0.000    0.750    0.000    0.000 
#    0.000    0.000    0.000    0.000    0.000    0.000 
#
# Total GULP energy -89257.366633 kJ/mol
# GULP energy per Si atom -5578.585415 kJ/mol
# Density = 2.677697 g / cm^3
# Si number density = 26.838056 Si / 1000 Ang^3
#
#
#
# Elastic Constant Matrix: (Units=GPa)
#
#
# Indices 1 2 3 4 5 6 
#
# 1 129.9009 24.3532 25.2170 9.3137 -22.1646 -8.4719
# 2 24.3532 146.6188 37.5265 18.6940 -2.1331 -6.0507
# 3 25.2170 37.5265 84.6230 15.2894 -11.5987 -18.9063
# 4 9.3137 18.6940 15.2894 55.8296 -6.8861 1.1089
# 5 -22.1646 -2.1331 -11.5987 -6.8861 27.2321 -7.4505
# 6 -8.4719 -6.0507 -18.9063 1.1089 -7.4505 40.0221
#
#
#
# Elastic Compliance Matrix: (Units=1/GPa)
#
#
# Indices 1 2 3 4 5 6 
#
# 1 0.009673 -0.001224 -0.000442 -0.000105 0.008445 0.003229
# 2 -0.001224 0.008068 -0.003492 -0.001842 -0.002626 -0.001127
# 3 -0.000442 -0.003492 0.017180 -0.002591 0.008534 0.009155
# 4 -0.000105 -0.001842 -0.002591 0.019685 0.003243 -0.001467
# 5 0.008445 -0.002626 0.008534 0.003243 0.051949 0.015003
# 6 0.003229 -0.001127 0.009155 -0.001467 0.015003 0.032658
#
#
# Mechanical properties :
#
#
# Convention : Reuss Voigt Hill
#
# Bulk Modulus (GPa) = 40.64001 59.48179 50.06090
# Shear Modulus (GPa) = 31.69998 42.88648 37.29323
#
# Velocity S-wave (km/s) = 3.44053 4.00180 3.73173
# Velocity P-wave (km/s) = 5.56404 6.60029 6.10420
#
# Compressibility (1/GPa) = 0.02460629
#
# Stress axis : x y z
#
# Youngs Moduli (GPa) = 103.38552 123.95281 58.20598
#
# Poissons Ratio (x) = 0.15172 0.02570
# Poissons Ratio (y) = 0.12655 0.20323
# Poissons Ratio (z) = 0.04565 0.43278
#
# Static dielectric constant tensor:
#      x y z
#    x 2.356000 0.016900 0.073780 
#    y 0.016900 2.143710 -0.004650 
#    z 0.073780 -0.004650 2.103460 
# 
# From -- ./inp_files/80431.got.cif
#   From: 2010.05.17/outbox.cif.g08.bks.cpg/sg2_41_cif.got.tgz:80431.got - 2010.06.03 11:33:40.
