data_PCOD9112478
_publ_section_title
;
Structure prediction by ZEFSAII (Michael W. Deem and Ramdas Pophale) SiO2 
 PCOD9112478
Probable space group: P 2
;
_chemical_formula_sum "Si O2"
_cell_formula_units_Z 15
_cell_length_a 13.073721
_cell_length_b 11.641111
_cell_length_c 9.087890
_cell_angle_alpha 90.000000
_cell_angle_beta 34.538126
_cell_angle_gamma 90.000000
_cell_volume 784.160415
_symmetry_space_group_name_H-M "P 2"
_symmetry_group_IT_number 3
_symmetry_cell_setting 'monoclinic'
loop_
_space_group_symop_operation_xyz
x,y,z
-x,y,-z
loop_
_atom_site_type_symbol
_atom_site_label
_atom_site_fract_x
_atom_site_fract_y
_atom_site_fract_z
Si Si1 0.803686 0.519160 0.314834
Si Si2 0.291995 0.166096 0.224737
Si Si3 0.745482 0.087044 0.060705
Si Si4 0.194315 0.780764 0.689023
Si Si5 0.054883 0.384589 0.592460
Si Si6 0.084673 0.946964 0.563911
Si Si7 0.500000 0.918342 0.500000
Si Si8 0.187242 0.309746 0.867010
O O1 0.737443 0.648806 0.397737
O O2 0.832192 0.473338 0.445119
O O3 0.710665 0.412037 0.339415
O O4 0.000000 0.525450 0.000000
O O5 0.165162 0.266525 0.438009
O O6 0.236772 0.044198 0.360443
O O7 0.500000 0.194417 0.000000
O O8 0.257936 0.148414 0.092493
O O9 0.731104 0.185394 0.201592
O O10 0.585321 0.998502 0.273495
O O11 0.928930 0.012497 0.841878
O O12 0.159931 0.841512 0.571277
O O13 0.340010 0.847775 0.614064
O O14 0.000000 0.782497 0.000000
O O15 0.000000 0.430581 0.500000
O O16 0.878797 0.357983 0.898257
O O17 0.000000 0.920412 0.500000
O O18 0.000000 0.289118 0.000000
#
# Coordination Sequence:
#
# PCOD9112478 Si02
#       8
#     2   2   2   2   2   2   1   2
#     4   8  20  35  59  87 112 160 207 246 304 351
#     4  11  21  34  55  87 131 157 194 254 315 370
#     4  11  21  36  57  94 119 157 201 248 315 366
#     4  11  22  43  62  86 125 165 214 259 294 363
#     4  10  16  34  60  83 113 155 201 244 302 370
#     4  10  21  38  62  86 121 168 201 252 315 362
#     4  12  26  36  64  98 120 166 210 250 312 372
#     4   9  18  32  58  88 119 152 194 246 301 362
#
# _framework density 19.128737999999998
#
# number of rings (size 3 to 8) (size 9 to 14) (size 15 to 20)
#    0.000    2.133    4.000    1.200    1.867    2.667 
#    0.000    2.000    0.000    0.800    0.000    0.000 
#    0.000    0.000    0.000    0.000    0.000    0.000 
#
# Total GULP energy -83600.348503 kJ/mol
# GULP energy per Si atom -5573.356567 kJ/mol
# Density = 1.908520 g / cm^3
# Si number density = 19.128738 Si / 1000 Ang^3
#
#
#
# Elastic Constant Matrix: (Units=GPa)
#
#
# Indices 1 2 3 4 5 6 
#
# 1 82.8623 55.4586 27.1800 0.0000 14.8166 0.0000
# 2 55.4586 138.3205 27.5628 0.0000 8.7296 0.0000
# 3 27.1800 27.5628 43.9236 0.0000 5.4327 0.0000
# 4 0.0000 0.0000 0.0000 13.6199 0.0000 4.7055
# 5 14.8166 8.7296 5.4327 0.0000 28.6989 0.0000
# 6 0.0000 0.0000 0.0000 4.7055 0.0000 14.3847
#
#
#
# Elastic Compliance Matrix: (Units=1/GPa)
#
#
# Indices 1 2 3 4 5 6 
#
# 1 0.019831 -0.005986 -0.007653 0.000000 -0.006969 0.000000
# 2 -0.005986 0.010139 -0.002723 0.000000 0.000522 0.000000
# 3 -0.007653 -0.002723 0.029306 0.000000 -0.000768 0.000000
# 4 0.000000 0.000000 0.000000 0.082777 0.000000 -0.027078
# 5 -0.006969 0.000522 -0.000768 0.000000 0.038429 0.000000
# 6 0.000000 0.000000 0.000000 -0.027078 0.000000 0.078376
#
#
# Mechanical properties :
#
#
# Convention : Reuss Voigt Hill
#
# Bulk Modulus (GPa) = 37.66163 53.94547 45.80355
# Shear Modulus (GPa) = 16.64256 21.66769 19.15513
#
# Velocity S-wave (km/s) = 2.95283 3.36926 3.16789
# Velocity P-wave (km/s) = 5.59972 6.58774 6.11372
#
# Compressibility (1/GPa) = 0.02655222
#
# Stress axis : x y z
#
# Youngs Moduli (GPa) = 50.42555 98.62507 34.12242
#
# Poissons Ratio (x) = 0.59040 0.26114
# Poissons Ratio (y) = 0.30186 0.09291
# Poissons Ratio (z) = 0.38591 0.26854
#
# Static dielectric constant tensor:
#      x y z
#    x 1.698880 0.000000 -0.002260 
#    y 0.000000 1.683240 0.000000 
#    z -0.002260 0.000000 1.689070 
# 
# From -- ./inp_files/7715.got.cif
#   From: 2010.05.17/outbox.cif.g08.bks.cpg/sg3_4_cif.got.tgz:7715.got - 2010.06.03 18:33:08.
