data_PCOD9112347
_publ_section_title
;
Structure prediction by ZEFSAII (Michael W. Deem and Ramdas Pophale) SiO2 
 PCOD9112347
Probable space group: P -1
;
_chemical_formula_sum "Si O2"
_cell_formula_units_Z 12
_cell_length_a 18.089457
_cell_length_b 11.873874
_cell_length_c 9.060725
_cell_angle_alpha 141.385082
_cell_angle_beta 35.021364
_cell_angle_gamma 158.226482
_cell_volume 412.299952
_symmetry_space_group_name_H-M "P -1"
_symmetry_group_IT_number 2
_symmetry_cell_setting 'triclinic'
loop_
_space_group_symop_operation_xyz
x,y,z
-x,-y,-z
loop_
_atom_site_type_symbol
_atom_site_label
_atom_site_fract_x
_atom_site_fract_y
_atom_site_fract_z
Si Si1 0.651319 0.647551 0.681207
Si Si2 0.592439 0.797807 0.587153
Si Si3 0.925494 0.828489 0.668808
Si Si4 0.981606 0.241262 0.178454
Si Si5 0.546131 0.214797 0.909553
Si Si6 0.832700 0.325954 0.234579
O O1 0.579957 0.380255 0.446815
O O2 0.736688 0.713888 0.770341
O O3 0.461691 0.581955 0.918719
O O4 0.862399 0.952226 0.558579
O O5 0.500000 0.500000 0.500000
O O6 0.587756 0.928774 0.863350
O O7 0.815263 0.056161 0.398241
O O8 0.843952 0.532289 0.507287
O O9 0.998827 0.055025 0.902198
O O10 0.216041 0.565811 0.191805
O O11 0.895854 0.256992 0.192146
O O12 0.399642 0.961691 0.762762
O O13 0.000000 0.500000 0.000000
#
# Coordination Sequence:
#
# PCOD9112347 Si02
#       6
#     2   2   2   2   2   2
#     4  10  20  46  80 116 162 214 277 348 410 502
#     4  10  25  49  86 125 165 224 290 345 429 515
#     4  11  22  47  86 123 163 219 287 345 425 508
#     4  12  27  53  90 122 166 230 284 352 427 512
#     4  11  24  51  85 125 169 223 282 356 428 507
#     4  12  26  51  86 128 174 221 286 354 427 514
#
# _framework density 29.105025000000001
#
# number of rings (size 3 to 8) (size 9 to 14) (size 15 to 20)
#    0.000    1.000    5.000    1.000    0.000    4.000 
#    3.000    6.667   14.667    0.000    0.000    0.000 
#    0.000    0.000    0.000    0.000    0.000    0.000 
#
# Total GULP energy -67231.072418 kJ/mol
# GULP energy per Si atom -5602.589368 kJ/mol
# Density = 2.903878 g / cm^3
# Si number density = 29.105025 Si / 1000 Ang^3
#
#
#
# Elastic Constant Matrix: (Units=GPa)
#
#
# Indices 1 2 3 4 5 6 
#
# 1 219.4319 111.6560 64.1403 2.9014 14.4577 10.2203
# 2 111.6560 180.8216 91.1556 15.9553 8.6544 32.6602
# 3 64.1403 91.1556 179.7920 -4.7353 39.2627 -9.8199
# 4 2.9014 15.9553 -4.7353 79.6594 4.8724 1.3060
# 5 14.4577 8.6544 39.2627 4.8724 41.9492 12.1749
# 6 10.2203 32.6602 -9.8199 1.3060 12.1749 60.7003
#
#
#
# Elastic Compliance Matrix: (Units=1/GPa)
#
#
# Indices 1 2 3 4 5 6 
#
# 1 0.006976 -0.005131 0.000917 0.000973 -0.002988 0.002313
# 2 -0.005131 0.014699 -0.008499 -0.003712 0.010132 -0.010372
# 3 0.000917 -0.008499 0.013183 0.003154 -0.013962 0.009284
# 4 0.000973 -0.003712 0.003154 0.013705 -0.004999 0.003052
# 5 -0.002988 0.010132 -0.013962 -0.004999 0.040866 -0.015296
# 6 0.002313 -0.010372 0.009284 0.003052 -0.015296 0.026170
#
#
# Mechanical properties :
#
#
# Convention : Reuss Voigt Hill
#
# Bulk Modulus (GPa) = 106.00964 123.77213 114.89088
# Shear Modulus (GPa) = 34.68142 57.33471 46.00806
#
# Velocity S-wave (km/s) = 3.45569 4.44320 3.98019
# Velocity P-wave (km/s) = 7.24049 8.30307 7.78992
#
# Compressibility (1/GPa) = 0.00943310
#
# Stress axis : x y z
#
# Youngs Moduli (GPa) = 143.34622 68.03158 75.85423
#
# Poissons Ratio (x) = 0.34904 -0.06956
# Poissons Ratio (y) = 0.73545 0.64469
# Poissons Ratio (z) = -0.13146 0.57821
#
# Static dielectric constant tensor:
#      x y z
#    x 2.396860 -0.026000 0.027910 
#    y -0.026000 2.257040 -0.067180 
#    z 0.027910 -0.067180 2.331200 
# 
# From -- ./inp_files/192715.got.cif
#   From: 2010.05.17/outbox.cif.g08.bks.cpg/sg2_97_cif.got.tgz:192715.got - 2010.06.03 11:33:40.
