data_PCOD9112670
_publ_section_title
;
Structure prediction by ZEFSAII (Michael W. Deem and Ramdas Pophale) SiO2 
 PCOD9112670
Probable space group: P 2
;
_chemical_formula_sum "Si O2"
_cell_formula_units_Z 16
_cell_length_a 12.343075
_cell_length_b 8.949205
_cell_length_c 14.343087
_cell_angle_alpha 90.000000
_cell_angle_beta 151.916759
_cell_angle_gamma 90.000000
_cell_volume 745.837693
_symmetry_space_group_name_H-M "P 2"
_symmetry_group_IT_number 3
_symmetry_cell_setting 'monoclinic'
loop_
_space_group_symop_operation_xyz
x,y,z
-x,y,-z
loop_
_atom_site_type_symbol
_atom_site_label
_atom_site_fract_x
_atom_site_fract_y
_atom_site_fract_z
Si Si1 0.898223 0.862750 0.021893
Si Si2 0.441613 0.601930 0.242998
Si Si3 0.941613 0.248342 0.242998
Si Si4 0.753445 0.219482 0.362132
Si Si5 0.253445 0.630790 0.362132
Si Si6 0.398224 0.987522 0.021893
Si Si7 0.063998 0.359702 0.950128
Si Si8 0.436002 0.490569 0.049872
O O1 0.111766 0.779535 0.234073
O O2 0.729255 0.731809 0.854020
O O3 0.000000 0.932702 0.000000
O O4 0.750000 0.925136 0.000000
O O5 0.677874 0.608217 0.477874
O O6 0.458151 0.615293 0.144572
O O7 0.309858 0.442257 0.149000
O O8 0.177874 0.242055 0.477874
O O9 0.958151 0.234979 0.144572
O O10 0.770745 0.118463 0.145980
O O11 0.809858 0.408015 0.149001
O O12 0.611766 0.070737 0.234074
O O13 0.606548 0.356834 0.209886
O O14 0.000000 0.220265 0.500000
O O15 0.500000 0.630007 0.500000
O O16 0.106548 0.493438 0.209886
O O17 0.500000 0.917570 0.000000
O O18 0.000000 0.296961 0.000000
O O19 0.500000 0.553310 0.000000
#
# Coordination Sequence:
#
# PCOD9112670 Si02
#       8
#     2   2   2   2   2   2   2   2
#     4  11  24  42  63  85 118 163 211 258 307 357
#     4  10  20  36  57  86 121 158 197 244 300 361
#     4  10  20  36  57  86 121 158 197 244 300 361
#     4  11  18  37  63  88 120 161 203 243 306 369
#     4  11  18  37  63  88 120 161 203 243 306 369
#     4  11  24  42  63  85 118 163 211 258 307 357
#     4  10  19  32  57  89 124 158 192 238 297 368
#     4  10  19  32  57  89 124 158 192 238 297 368
#
# _framework density 21.452389
#
# number of rings (size 3 to 8) (size 9 to 14) (size 15 to 20)
#    0.000    1.500    5.000    2.250    0.000    2.000 
#    0.000    0.000    0.000    0.000    0.000    0.000 
#    0.000    0.000    0.000    0.000    0.000    0.000 
#
# Total GULP energy -89079.562573 kJ/mol
# GULP energy per Si atom -5567.472661 kJ/mol
# Density = 2.140356 g / cm^3
# Si number density = 21.452389 Si / 1000 Ang^3
#
#
#
# Elastic Constant Matrix: (Units=GPa)
#
#
# Indices 1 2 3 4 5 6 
#
# 1 161.6505 33.7257 37.2895 0.0000 -23.0133 0.0000
# 2 33.7257 47.7681 27.2164 0.0000 3.5083 0.0000
# 3 37.2895 27.2164 129.2292 0.0000 -11.2803 0.0000
# 4 0.0000 0.0000 0.0000 17.9925 0.0000 2.5307
# 5 -23.0133 3.5083 -11.2803 0.0000 50.3145 0.0000
# 6 0.0000 0.0000 0.0000 2.5307 0.0000 26.1417
#
#
#
# Elastic Compliance Matrix: (Units=1/GPa)
#
#
# Indices 1 2 3 4 5 6 
#
# 1 0.008084 -0.005521 -0.000830 0.000000 0.003897 0.000000
# 2 -0.005521 0.027964 -0.004780 0.000000 -0.005547 0.000000
# 3 -0.000830 -0.004780 0.009160 0.000000 0.002007 0.000000
# 4 0.000000 0.000000 0.000000 0.056346 0.000000 -0.005455
# 5 0.003897 -0.005547 0.002007 0.000000 0.022494 0.000000
# 6 0.000000 0.000000 0.000000 -0.005455 0.000000 0.038781
#
#
# Mechanical properties :
#
#
# Convention : Reuss Voigt Hill
#
# Bulk Modulus (GPa) = 43.58266 59.45679 51.51972
# Shear Modulus (GPa) = 25.94178 34.91748 30.42963
#
# Velocity S-wave (km/s) = 3.48123 4.03882 3.77035
# Velocity P-wave (km/s) = 6.04307 7.03742 6.55912
#
# Compressibility (1/GPa) = 0.02294491
#
# Stress axis : x y z
#
# Youngs Moduli (GPa) = 123.69777 35.76085 109.17482
#
# Poissons Ratio (x) = 0.19744 0.09060
# Poissons Ratio (y) = 0.68294 0.52189
# Poissons Ratio (z) = 0.10265 0.17095
#
# Static dielectric constant tensor:
#      x y z
#    x 1.985740 0.000000 -0.068430 
#    y 0.000000 1.784380 0.000000 
#    z -0.068430 0.000000 1.773520 
# 
# From -- ./inp_files/2514.got.cif
#   From: 2010.05.17/outbox.cif.g08.bks.cpg/sg3_2_cif.got.tgz:2514.got - 2010.06.03 18:33:08.
