data_PCOD9112345
_publ_section_title
;
Structure prediction by ZEFSAII (Michael W. Deem and Ramdas Pophale) SiO2 
 PCOD9112345
Probable space group: P -1
;
_chemical_formula_sum "Si O2"
_cell_formula_units_Z 14
_cell_length_a 16.683372
_cell_length_b 8.600501
_cell_length_c 18.405622
_cell_angle_alpha 37.201845
_cell_angle_beta 158.265461
_cell_angle_gamma 138.777237
_cell_volume 590.408869
_symmetry_space_group_name_H-M "P -1"
_symmetry_group_IT_number 2
_symmetry_cell_setting 'triclinic'
loop_
_space_group_symop_operation_xyz
x,y,z
-x,-y,-z
loop_
_atom_site_type_symbol
_atom_site_label
_atom_site_fract_x
_atom_site_fract_y
_atom_site_fract_z
Si Si1 0.272811 0.023390 0.755971
Si Si2 0.112162 0.430904 0.045725
Si Si3 0.797422 0.661240 0.290004
Si Si4 0.463834 0.224168 0.199169
Si Si5 0.959737 0.512446 0.199752
Si Si6 0.419941 0.903089 0.139869
Si Si7 0.709351 0.104374 0.593708
O O1 0.121029 0.768329 0.735199
O O2 0.356788 0.057336 0.732085
O O3 0.823211 0.750706 0.361827
O O4 0.500000 0.000000 0.000000
O O5 0.335369 0.608489 0.168332
O O6 0.134398 0.128111 0.181236
O O7 0.006550 0.494288 0.856073
O O8 0.000000 0.500000 0.000000
O O9 0.579850 0.478146 0.165898
O O10 0.000000 0.500000 0.500000
O O11 0.757053 0.914106 0.113973
O O12 0.437001 0.001470 0.199780
O O13 0.630033 0.148574 0.429277
O O14 0.242404 0.309187 0.017999
O O15 0.170344 0.644839 0.364614
O O16 0.500000 0.000000 0.500000
#
# Coordination Sequence:
#
# PCOD9112345 Si02
#       7
#     2   2   2   2   2   2   2
#     4  10  20  46  78 109 149 191 249 308 386 447
#     4  12  26  48  77 108 155 199 252 306 377 451
#     4  11  24  43  75 114 150 185 252 316 374 449
#     4  12  26  46  76 111 153 198 256 310 375 453
#     4  12  24  51  82 104 153 206 247 316 384 441
#     4  11  24  47  77 109 151 201 242 314 385 441
#     4  12  30  48  74 112 146 204 262 302 368 455
#
# _framework density 23.712382000000002
#
# number of rings (size 3 to 8) (size 9 to 14) (size 15 to 20)
#    0.000    0.571    7.143    1.714    6.000    0.571 
#    2.571    1.429    0.000    0.000    0.000    0.000 
#    0.000    0.000    0.000    0.000    0.000    0.000 
#
# Total GULP energy -78425.526498 kJ/mol
# GULP energy per Si atom -5601.823321 kJ/mol
# Density = 2.365841 g / cm^3
# Si number density = 23.712382 Si / 1000 Ang^3
#
#
#
# Elastic Constant Matrix: (Units=GPa)
#
#
# Indices 1 2 3 4 5 6 
#
# 1 154.3401 39.7020 47.0958 5.9673 -9.2059 -14.9014
# 2 39.7020 147.3338 37.9436 19.1634 -11.6313 -3.6927
# 3 47.0958 37.9436 67.2357 21.0820 -7.4821 -0.5937
# 4 5.9673 19.1634 21.0820 38.1807 -11.5297 -1.2976
# 5 -9.2059 -11.6313 -7.4821 -11.5297 47.6480 4.2349
# 6 -14.9014 -3.6927 -0.5937 -1.2976 4.2349 41.4511
#
#
#
# Elastic Compliance Matrix: (Units=1/GPa)
#
#
# Indices 1 2 3 4 5 6 
#
# 1 0.008965 -0.000977 -0.006570 0.003105 0.000943 0.003043
# 2 -0.000977 0.008207 -0.003254 -0.001915 0.000824 0.000189
# 3 -0.006570 -0.003254 0.024757 -0.011304 -0.000682 -0.002581
# 4 0.003105 -0.001915 -0.011304 0.034977 0.006715 0.001193
# 5 0.000943 0.000824 -0.000682 0.006715 0.023043 -0.001741
# 6 0.003043 0.000189 -0.002581 0.001193 -0.001741 0.025414
#
#
# Mechanical properties :
#
#
# Convention : Reuss Voigt Hill
#
# Bulk Modulus (GPa) = 49.19349 68.71028 58.95189
# Shear Modulus (GPa) = 32.52216 41.73385 37.12800
#
# Velocity S-wave (km/s) = 3.70743 4.19979 3.96127
# Velocity P-wave (km/s) = 6.25441 7.24963 6.77033
#
# Compressibility (1/GPa) = 0.02032789
#
# Stress axis : x y z
#
# Youngs Moduli (GPa) = 111.54025 121.84225 40.39248
#
# Poissons Ratio (x) = 0.11904 0.26539
# Poissons Ratio (y) = 0.10897 0.13142
# Poissons Ratio (z) = 0.73286 0.39642
#
# Static dielectric constant tensor:
#      x y z
#    x 1.895180 0.052300 -0.021480 
#    y 0.052300 1.844270 -0.018610 
#    z -0.021480 -0.018610 1.944790 
# 
# From -- ./inp_files/575515.got.cif
#   From: 2010.05.17/outbox.cif.g08.bks.cpg/sg2_288_cif.got.tgz:575515.got - 2010.06.03 11:33:40.
