data_PCOD9112866
_publ_section_title
;
Structure prediction by ZEFSAII (Michael W. Deem and Ramdas Pophale) SiO2 
 PCOD9112866
Probable space group: P 2
;
_chemical_formula_sum "Si O2"
_cell_formula_units_Z 16
_cell_length_a 19.782645
_cell_length_b 7.885874
_cell_length_c 13.267859
_cell_angle_alpha 90.000000
_cell_angle_beta 158.458643
_cell_angle_gamma 90.000000
_cell_volume 759.985746
_symmetry_space_group_name_H-M "P 2"
_symmetry_group_IT_number 3
_symmetry_cell_setting 'monoclinic'
loop_
_space_group_symop_operation_xyz
x,y,z
-x,y,-z
loop_
_atom_site_type_symbol
_atom_site_label
_atom_site_fract_x
_atom_site_fract_y
_atom_site_fract_z
Si Si1 0.572627 0.093560 0.781750
Si Si2 0.359226 0.697928 0.883440
Si Si3 0.680512 0.398246 0.601609
Si Si4 0.978606 0.194456 0.290756
Si Si5 0.574253 0.702534 0.791821
Si Si6 0.369467 0.103421 0.908715
Si Si7 0.952898 0.273834 0.830849
Si Si8 0.034486 0.581742 0.668695
O O1 0.443406 0.231843 0.548697
O O2 0.512095 0.897024 0.692529
O O3 0.785442 0.102764 0.042159
O O4 0.567115 0.149109 0.891447
O O5 0.158301 0.655255 0.562843
O O6 0.376616 0.900401 0.911667
O O7 0.500000 0.621289 0.000000
O O8 0.405916 0.647628 0.062700
O O9 0.560048 0.565580 0.443719
O O10 0.773555 0.375703 0.618715
O O11 0.865739 0.392908 0.925405
O O12 0.053075 0.173300 0.279954
O O13 0.940220 0.390668 0.260955
O O14 0.154393 0.148171 0.601764
O O15 0.785885 0.685067 0.050704
O O16 0.500000 0.171956 0.000000
O O17 0.000000 0.170670 0.000000
O O18 0.000000 0.585522 0.500000
#
# Coordination Sequence:
#
# PCOD9112866 Si02
#       8
#     2   2   2   2   2   2   2   2
#     4  11  21  36  64  92 121 155 197 244 306 368
#     4   9  20  33  52  84 125 155 193 240 288 364
#     4   9  20  43  62  81 119 151 204 245 302 349
#     4  12  21  35  62  85 119 161 199 249 303 356
#     4  10  20  37  59  85 121 159 188 247 299 356
#     4  10  21  35  54  90 124 157 196 241 300 369
#     4   8  23  42  62  82 116 159 204 261 298 346
#     4  10  20  33  51  87 122 151 192 233 299 364
#
# _framework density 21.053027
#
# number of rings (size 3 to 8) (size 9 to 14) (size 15 to 20)
#    0.750    1.250    1.250    2.625    3.500    3.000 
#    0.000    2.500    8.250    0.000    0.000    0.000 
#    0.000    0.000    0.000    0.000    0.000    0.000 
#
# Total GULP energy -89157.709009 kJ/mol
# GULP energy per Si atom -5572.356813 kJ/mol
# Density = 2.100511 g / cm^3
# Si number density = 21.053027 Si / 1000 Ang^3
#
#
#
# Elastic Constant Matrix: (Units=GPa)
#
#
# Indices 1 2 3 4 5 6 
#
# 1 17.1320 26.6600 17.9972 0.0000 30.2447 0.0000
# 2 26.6600 -127.5317 -28.1376 0.0000 -72.2479 0.0000
# 3 17.9972 -28.1376 77.2694 0.0000 -0.3907 0.0000
# 4 0.0000 0.0000 0.0000 -4.3688 0.0000 19.1938
# 5 30.2447 -72.2479 -0.3907 0.0000 2.5288 0.0000
# 6 0.0000 0.0000 0.0000 19.1938 0.0000 7.6979
#
#
#
# Elastic Compliance Matrix: (Units=1/GPa)
#
#
# Indices 1 2 3 4 5 6 
#
# 1 0.059333 0.024206 -0.005100 0.000000 -0.018848 0.000000
# 2 0.024206 0.009423 -0.002311 0.000000 -0.020643 0.000000
# 3 -0.005100 -0.002311 0.013273 0.000000 -0.002972 0.000000
# 4 0.000000 0.000000 0.000000 -0.019147 0.000000 0.047742
# 5 -0.018848 -0.020643 -0.002972 0.000000 0.030641 0.000000
# 6 0.000000 0.000000 0.000000 0.047742 0.000000 0.010867
#
#
# Mechanical properties :
#
#
# Convention : Reuss Voigt Hill
#
# Bulk Modulus (GPa) = 8.64902 -0.01012 4.31945
# Shear Modulus (GPa) = 45.72881 -2.13841 21.79520
#
# Velocity S-wave (km/s) = 4.66561 -1.00893 3.22102
# Velocity P-wave (km/s) = 5.75682 1.16707 3.98616
#
# Compressibility (1/GPa) = 0.11562005
#
# Stress axis : x y z
#
# Youngs Moduli (GPa) = 16.85390 106.12023 75.34027
#
# Poissons Ratio (x) = -2.56877 0.38425
# Poissons Ratio (y) = -0.40797 0.17410
# Poissons Ratio (z) = 0.08596 0.24523
#
# Static dielectric constant tensor:
#      x y z
#    x 1.842300 0.000000 0.010370 
#    y 0.000000 1.746020 0.000000 
#    z 0.010370 0.000000 1.790240 
# 
# From -- ./inp_files/7183.got.cif
#   From: 2010.05.17/outbox.cif.g08.bks.cpg/sg3_4_cif.got.tgz:7183.got - 2010.06.03 18:33:08.
