data_PCOD9112494
_publ_section_title
;
Structure prediction by ZEFSAII (Michael W. Deem and Ramdas Pophale) SiO2 
 PCOD9112494
Probable space group: P 2
;
_chemical_formula_sum "Si O2"
_cell_formula_units_Z 16
_cell_length_a 8.900881
_cell_length_b 8.792732
_cell_length_c 16.760261
_cell_angle_alpha 90.000000
_cell_angle_beta 148.814883
_cell_angle_gamma 90.000000
_cell_volume 679.209395
_symmetry_space_group_name_H-M "P 2"
_symmetry_group_IT_number 3
_symmetry_cell_setting 'monoclinic'
loop_
_space_group_symop_operation_xyz
x,y,z
-x,y,-z
loop_
_atom_site_type_symbol
_atom_site_label
_atom_site_fract_x
_atom_site_fract_y
_atom_site_fract_z
Si Si1 0.281155 0.398540 0.091452
Si Si2 0.734577 0.299571 0.172397
Si Si3 0.292867 0.377552 0.589028
Si Si4 0.486864 0.811744 0.378415
Si Si5 0.891434 0.724225 0.040811
Si Si6 0.683092 0.817939 0.279437
Si Si7 0.065543 0.580173 0.362641
Si Si8 0.146865 0.078381 0.446191
O O1 0.535595 0.310717 0.161880
O O2 0.438478 0.448027 0.244012
O O3 0.188727 0.544611 0.997840
O O4 0.000000 0.314368 0.000000
O O5 0.869071 0.469460 0.217997
O O6 0.985016 0.177399 0.304547
O O7 0.500000 0.257318 0.000000
O O8 0.269818 0.451389 0.493218
O O9 0.264772 0.198329 0.565105
O O10 0.000000 0.423527 0.500000
O O11 0.598358 0.802889 0.334855
O O12 0.697515 0.713576 0.531090
O O13 0.566963 0.981063 0.441451
O O14 0.148604 0.765457 0.218595
O O15 0.598558 0.824139 0.906768
O O16 0.000000 0.751298 0.000000
O O17 0.837571 0.664630 0.317777
O O18 0.899860 0.959074 0.363663
#
# Coordination Sequence:
#
# PCOD9112494 Si02
#       8
#     2   2   2   2   2   2   2   2
#     4  11  21  35  61  93 121 150 198 255 314 344
#     4  11  24  40  59  85 122 167 209 246 290 370
#     4  11  16  30  54  86 116 149 195 250 289 355
#     4  10  19  30  55  90 125 148 189 259 306 361
#     4   9  17  31  51  88 128 147 177 240 326 357
#     4  10  17  29  52  87 121 151 184 251 312 355
#     4  10  17  30  57  83 110 150 202 245 297 336
#     4  10  21  34  54  84 119 156 207 244 296 352
#
# _framework density 23.556799999999999
#
# number of rings (size 3 to 8) (size 9 to 14) (size 15 to 20)
#    0.000    1.750    3.750    5.250    0.000    0.000 
#    2.250    2.500    0.000    6.750    0.000    0.000 
#    0.000    0.000    0.000    0.000    0.000    0.000 
#
# Total GULP energy -89070.116317 kJ/mol
# GULP energy per Si atom -5566.882270 kJ/mol
# Density = 2.350318 g / cm^3
# Si number density = 23.556800 Si / 1000 Ang^3
#
#
#
# Elastic Constant Matrix: (Units=GPa)
#
#
# Indices 1 2 3 4 5 6 
#
# 1 24.6002 4.4372 23.0335 0.0000 -3.3544 0.0000
# 2 4.4372 117.7243 38.1383 0.0000 -2.2564 0.0000
# 3 23.0335 38.1383 165.1345 0.0000 -8.6281 0.0000
# 4 0.0000 0.0000 0.0000 39.3506 0.0000 -1.4861
# 5 -3.3544 -2.2564 -8.6281 0.0000 26.4351 0.0000
# 6 0.0000 0.0000 0.0000 -1.4861 0.0000 -15.0056
#
#
#
# Elastic Compliance Matrix: (Units=1/GPa)
#
#
# Indices 1 2 3 4 5 6 
#
# 1 0.047166 0.000392 -0.006465 0.000000 0.003908 0.000000
# 2 0.000392 0.009185 -0.002169 0.000000 0.000126 0.000000
# 3 -0.006465 -0.002169 0.007534 0.000000 0.001454 0.000000
# 4 0.000000 0.000000 0.000000 0.025318 0.000000 -0.002507
# 5 0.003908 0.000126 0.001454 0.000000 0.038810 0.000000
# 6 0.000000 0.000000 0.000000 -0.002507 0.000000 -0.066394
#
#
# Mechanical properties :
#
#
# Convention : Reuss Voigt Hill
#
# Bulk Modulus (GPa) = 21.09736 48.74193 34.91964
# Shear Modulus (GPa) = 53.24581 26.27936 39.76258
#
# Velocity S-wave (km/s) = 4.75944 3.34364 4.11292
# Velocity P-wave (km/s) = 6.25926 5.97016 6.11642
#
# Compressibility (1/GPa) = 0.04739930
#
# Stress axis : x y z
#
# Youngs Moduli (GPa) = 21.20187 108.87495 132.72456
#
# Poissons Ratio (x) = -0.04264 0.85807
# Poissons Ratio (y) = -0.00830 0.28792
# Poissons Ratio (z) = 0.13707 0.23619
#
# Static dielectric constant tensor:
#      x y z
#    x 2.082800 0.000000 -0.045580 
#    y 0.000000 1.939390 0.000000 
#    z -0.045580 0.000000 2.008460 
# 
# From -- ./inp_files/15059.got.cif
#   From: 2010.05.17/outbox.cif.g08.bks.cpg/sg3_8_cif.got.tgz:15059.got - 2010.06.03 18:33:08.
