data_PCOD9112609
_publ_section_title
;
Structure prediction by ZEFSAII (Michael W. Deem and Ramdas Pophale) SiO2 
 PCOD9112609
Probable space group: P 2
;
_chemical_formula_sum "Si O2"
_cell_formula_units_Z 14
_cell_length_a 10.316035
_cell_length_b 8.352036
_cell_length_c 12.465643
_cell_angle_alpha 90.000000
_cell_angle_beta 38.970662
_cell_angle_gamma 90.000000
_cell_volume 675.486845
_symmetry_space_group_name_H-M "P 2"
_symmetry_group_IT_number 3
_symmetry_cell_setting 'monoclinic'
loop_
_space_group_symop_operation_xyz
x,y,z
-x,y,-z
loop_
_atom_site_type_symbol
_atom_site_label
_atom_site_fract_x
_atom_site_fract_y
_atom_site_fract_z
Si Si1 0.362689 0.397080 0.483915
Si Si2 0.500000 0.005699 0.000000
Si Si3 0.690772 0.899148 0.151100
Si Si4 0.000000 0.655265 0.000000
Si Si5 0.348755 0.784731 0.498242
Si Si6 0.597246 0.219568 0.143206
Si Si7 0.864025 0.790886 0.811120
Si Si8 0.074743 0.454033 0.165608
O O1 0.500000 0.353103 0.500000
O O2 0.367832 0.591789 0.473135
O O3 0.450008 0.312283 0.321241
O O4 0.122426 0.362006 0.661068
O O5 0.702451 0.895366 0.848718
O O6 0.488384 0.114291 0.900563
O O7 0.815985 0.777836 0.145601
O O8 0.453836 0.868175 0.328654
O O9 0.725134 0.088156 0.130784
O O10 0.770925 0.830916 0.987650
O O11 0.010121 0.542875 0.096755
O O12 0.500000 0.833886 0.500000
O O13 0.107482 0.830229 0.655581
O O14 0.742499 0.342941 0.988949
O O15 0.855637 0.599062 0.801435
#
# Coordination Sequence:
#
# PCOD9112609 Si02
#       8
#     2   1   2   1   2   2   2   2
#     4  10  20  36  61  95 129 160 199 256 325 391
#     4  10  24  46  62  82 126 176 224 270 308 364
#     4  10  20  34  55  88 123 160 199 246 315 375
#     4  10  18  36  62  88 132 176 204 250 310 396
#     4  10  19  36  64  95 126 160 204 255 317 392
#     4  11  24  39  60  90 126 164 208 268 324 369
#     4   9  20  39  63  84 116 167 216 259 303 368
#     4  10  20  37  63  93 123 163 214 259 315 380
#
# _framework density 20.725791000000001
#
# number of rings (size 3 to 8) (size 9 to 14) (size 15 to 20)
#    0.000    2.000    0.000    6.000    0.000    5.143 
#    0.000    6.429    0.000    6.857    0.000    0.000 
#    0.000    0.000    0.000    0.000    0.000    0.000 
#
# Total GULP energy -77985.805663 kJ/mol
# GULP energy per Si atom -5570.414690 kJ/mol
# Density = 2.067862 g / cm^3
# Si number density = 20.725791 Si / 1000 Ang^3
#
#
#
# Elastic Constant Matrix: (Units=GPa)
#
#
# Indices 1 2 3 4 5 6 
#
# 1 78.0122 51.1509 51.9275 0.0000 -12.6775 0.0000
# 2 51.1509 73.6917 62.2848 0.0000 -15.9470 0.0000
# 3 51.9275 62.2848 201.4310 0.0000 -14.3138 0.0000
# 4 0.0000 0.0000 0.0000 -15.5426 0.0000 8.5832
# 5 -12.6775 -15.9470 -14.3138 0.0000 20.7426 0.0000
# 6 0.0000 0.0000 0.0000 8.5832 0.0000 36.7623
#
#
#
# Elastic Compliance Matrix: (Units=1/GPa)
#
#
# Indices 1 2 3 4 5 6 
#
# 1 0.023890 -0.014946 -0.001384 0.000000 0.002155 0.000000
# 2 -0.014946 0.030314 -0.004746 0.000000 0.010895 0.000000
# 3 -0.001384 -0.004746 0.006803 0.000000 0.000200 0.000000
# 4 0.000000 0.000000 0.000000 -0.056991 0.000000 0.013306
# 5 0.002155 0.010895 0.000200 0.000000 0.058042 0.000000
# 6 0.000000 0.000000 0.000000 0.013306 0.000000 0.024095
#
#
# Mechanical properties :
#
#
# Convention : Reuss Voigt Hill
#
# Bulk Modulus (GPa) = 53.03914 75.98459 64.51187
# Shear Modulus (GPa) = 37.14980 20.91055 29.03018
#
# Velocity S-wave (km/s) = 4.23832 3.17979 3.74662
# Velocity P-wave (km/s) = 7.04255 7.08681 7.06472
#
# Compressibility (1/GPa) = 0.01885400
#
# Stress axis : x y z
#
# Youngs Moduli (GPa) = 41.85851 32.98817 146.99421
#
# Poissons Ratio (x) = 0.49306 0.20343
# Poissons Ratio (y) = 0.62564 0.69765
# Poissons Ratio (z) = 0.05793 0.15656
#
# Static dielectric constant tensor:
#      x y z
#    x 1.913010 0.000000 -0.016530 
#    y 0.000000 1.776120 0.000000 
#    z -0.016530 0.000000 1.783540 
# 
# From -- ./inp_files/13757.got.cif
#   From: 2010.05.17/outbox.cif.g08.bks.cpg/sg3_7_cif.got.tgz:13757.got - 2010.06.03 18:33:08.
