data_PCOD9112043
_publ_section_title
;
Structure prediction by ZEFSAII (Michael W. Deem and Ramdas Pophale) SiO2 
 PCOD9112043
Probable space group: P -1
;
_chemical_formula_sum "Si O2"
_cell_formula_units_Z 12
_cell_length_a 9.768806
_cell_length_b 10.098592
_cell_length_c 11.791907
_cell_angle_alpha 61.609610
_cell_angle_beta 44.180170
_cell_angle_gamma 40.761868
_cell_volume 523.434203
_symmetry_space_group_name_H-M "P -1"
_symmetry_group_IT_number 2
_symmetry_cell_setting 'triclinic'
loop_
_space_group_symop_operation_xyz
x,y,z
-x,-y,-z
loop_
_atom_site_type_symbol
_atom_site_label
_atom_site_fract_x
_atom_site_fract_y
_atom_site_fract_z
Si Si1 0.918593 0.843143 0.253575
Si Si2 0.887836 0.426887 0.966200
Si Si3 0.267136 0.749229 0.535618
Si Si4 0.698375 0.339103 0.695425
Si Si5 0.190731 0.205310 0.099971
Si Si6 0.557738 0.747024 0.558553
O O1 0.762839 0.776930 0.419836
O O2 0.128576 0.785479 0.246403
O O3 0.684492 0.087968 0.278829
O O4 0.062405 0.712568 0.108532
O O5 0.607340 0.541840 0.146649
O O6 0.114070 0.286105 0.983581
O O7 0.873536 0.609629 0.865581
O O8 0.500000 0.500000 0.500000
O O9 0.211175 0.794107 0.417221
O O10 0.406730 0.808548 0.501110
O O11 0.012673 0.814576 0.726015
O O12 0.699636 0.517408 0.597923
O O13 0.500000 0.000000 0.000000
#
# Coordination Sequence:
#
# PCOD9112043 Si02
#       6
#     2   2   2   2   2   2
#     4  11  25  40  64  96 132 170 211 258 328 388
#     4  11  24  42  64  96 135 164 212 273 321 379
#     4  10  20  44  68  90 129 169 215 269 312 373
#     4  11  23  41  69  92 128 173 210 267 321 376
#     4  11  25  42  68  99 126 171 217 268 323 376
#     4  10  23  42  63  93 128 172 216 262 314 381
#
# _framework density 22.925518
#
# number of rings (size 3 to 8) (size 9 to 14) (size 15 to 20)
#    0.000    1.333    3.333    3.000    4.667    5.333 
#    0.000    0.000    0.000    0.000    0.000    0.000 
#    0.000    0.000    0.000    0.000    0.000    0.000 
#
# Total GULP energy -67168.121921 kJ/mol
# GULP energy per Si atom -5597.343493 kJ/mol
# Density = 2.287334 g / cm^3
# Si number density = 22.925518 Si / 1000 Ang^3
#
#
#
# Elastic Constant Matrix: (Units=GPa)
#
#
# Indices 1 2 3 4 5 6 
#
# 1 103.7593 19.6382 33.9802 24.3087 2.3334 -3.7381
# 2 19.6382 85.3080 30.6873 22.3795 3.8308 -2.4603
# 3 33.9802 30.6873 80.7929 27.8520 0.4671 -8.4790
# 4 24.3087 22.3795 27.8520 35.5600 8.7394 -1.7501
# 5 2.3334 3.8308 0.4671 8.7394 46.7105 12.0408
# 6 -3.7381 -2.4603 -8.4790 -1.7501 12.0408 30.6659
#
#
#
# Elastic Compliance Matrix: (Units=1/GPa)
#
#
# Indices 1 2 3 4 5 6 
#
# 1 0.012012 -0.000175 -0.002936 -0.005927 0.000529 0.000093
# 2 -0.000175 0.014647 -0.003230 -0.006605 0.000117 -0.000163
# 3 -0.002936 -0.003230 0.018987 -0.011003 0.001388 0.003460
# 4 -0.005927 -0.006605 -0.011003 0.047064 -0.008281 0.001643
# 5 0.000529 0.000117 0.001388 -0.008281 0.025492 -0.010024
# 6 0.000093 -0.000163 0.003460 0.001643 -0.010024 0.037594
#
#
# Mechanical properties :
#
#
# Convention : Reuss Voigt Hill
#
# Bulk Modulus (GPa) = 30.33620 48.71908 39.52764
# Shear Modulus (GPa) = 27.86018 34.95757 31.40888
#
# Velocity S-wave (km/s) = 3.48982 3.90915 3.70542
# Velocity P-wave (km/s) = 5.43136 6.45542 5.96540
#
# Compressibility (1/GPa) = 0.03296392
#
# Stress axis : x y z
#
# Youngs Moduli (GPa) = 83.24750 68.27121 52.66756
#
# Poissons Ratio (x) = 0.01197 0.15461
# Poissons Ratio (y) = 0.01460 0.17014
# Poissons Ratio (z) = 0.24438 0.22055
#
# Static dielectric constant tensor:
#      x y z
#    x 1.847500 0.004860 0.023250 
#    y 0.004860 1.917990 -0.011680 
#    z 0.023250 -0.011680 1.834670 
# 
# From -- ./inp_files/156427.got.cif
#   From: 2010.05.17/outbox.cif.g08.bks.cpg/sg2_79_cif.got.tgz:156427.got - 2010.06.03 11:33:40.
