data_PCOD9112704
_publ_section_title
;
Structure prediction by ZEFSAII (Michael W. Deem and Ramdas Pophale) SiO2 
 PCOD9112704
Probable space group: P 2
;
_chemical_formula_sum "Si O2"
_cell_formula_units_Z 16
_cell_length_a 10.330319
_cell_length_b 9.809040
_cell_length_c 9.194316
_cell_angle_alpha 90.000000
_cell_angle_beta 123.528069
_cell_angle_gamma 90.000000
_cell_volume 776.650018
_symmetry_space_group_name_H-M "P 2"
_symmetry_group_IT_number 3
_symmetry_cell_setting 'monoclinic'
loop_
_space_group_symop_operation_xyz
x,y,z
-x,y,-z
loop_
_atom_site_type_symbol
_atom_site_label
_atom_site_fract_x
_atom_site_fract_y
_atom_site_fract_z
Si Si1 0.699760 0.642680 0.283203
Si Si2 0.775730 0.537325 0.646519
Si Si3 0.610280 0.705379 0.783526
Si Si4 0.816295 0.958756 0.356879
Si Si5 0.355980 0.135121 0.999511
Si Si6 0.168895 0.326053 0.099695
Si Si7 0.463656 0.990052 0.633666
Si Si8 0.873278 0.601895 0.107829
O O1 0.737301 0.564536 0.456018
O O2 0.512784 0.648515 0.175118
O O3 0.765311 0.798946 0.313184
O O4 0.790677 0.572487 0.208947
O O5 0.652211 0.608392 0.675600
O O6 0.785599 0.380946 0.710906
O O7 0.942388 0.614491 0.767136
O O8 0.524877 0.835686 0.666977
O O9 0.774110 0.721875 0.969919
O O10 0.715925 0.004732 0.435109
O O11 0.000000 0.969017 0.500000
O O12 0.754119 0.049674 0.180904
O O13 0.500000 0.200465 0.000000
O O14 0.273624 0.238491 0.058157
O O15 0.442851 0.037576 0.166828
O O16 0.149615 0.469957 0.005694
O O17 0.000000 0.258113 0.000000
O O18 0.500000 0.055118 0.500000
#
# Coordination Sequence:
#
# PCOD9112704 Si02
#       8
#     2   2   2   2   2   2   2   2
#     4  11  20  33  57  89 117 142 180 235 296 350
#     4  10  20  36  57  82 115 148 184 235 287 341
#     4  10  19  34  54  81 117 149 181 230 292 353
#     4  10  21  38  60  88 119 150 191 241 295 353
#     4  10  22  41  61  81 113 157 200 244 288 342
#     4   9  21  40  57  78 112 152 195 236 280 340
#     4  10  21  37  57  84 116 151 193 242 295 349
#     4  10  20  35  56  81 111 149 189 231 285 346
#
# _framework density 20.601299999999998
#
# number of rings (size 3 to 8) (size 9 to 14) (size 15 to 20)
#    0.000    2.000    0.000    5.250    0.000    5.000 
#    0.000   10.000    0.000    1.500    0.000    0.000 
#    0.000    0.000    0.000    0.000    0.000    0.000 
#
# Total GULP energy -89081.782119 kJ/mol
# GULP energy per Si atom -5567.611382 kJ/mol
# Density = 2.055441 g / cm^3
# Si number density = 20.601300 Si / 1000 Ang^3
#
#
#
# Elastic Constant Matrix: (Units=GPa)
#
#
# Indices 1 2 3 4 5 6 
#
# 1 163.5601 22.0953 46.6844 0.0000 2.6547 0.0000
# 2 22.0953 23.3601 1.5725 0.0000 4.1652 0.0000
# 3 46.6844 1.5725 67.2980 0.0000 -3.0670 0.0000
# 4 0.0000 0.0000 0.0000 34.9485 0.0000 -1.0965
# 5 2.6547 4.1652 -3.0670 0.0000 45.5885 0.0000
# 6 0.0000 0.0000 0.0000 -1.0965 0.0000 32.0364
#
#
#
# Elastic Compliance Matrix: (Units=1/GPa)
#
#
# Indices 1 2 3 4 5 6 
#
# 1 0.008910 -0.007989 -0.006003 0.000000 -0.000193 0.000000
# 2 -0.007989 0.050777 0.004178 0.000000 -0.003893 0.000000
# 3 -0.006003 0.004178 0.018982 0.000000 0.001245 0.000000
# 4 0.000000 0.000000 0.000000 0.028644 0.000000 0.000980
# 5 -0.000193 -0.003893 0.001245 0.000000 0.022386 0.000000
# 6 0.000000 0.000000 0.000000 0.000980 0.000000 0.031248
#
#
# Mechanical properties :
#
#
# Convention : Reuss Voigt Hill
#
# Bulk Modulus (GPa) = 16.93711 43.88028 30.40869
# Shear Modulus (GPa) = 24.96815 34.77243 29.87029
#
# Velocity S-wave (km/s) = 3.48511 4.11283 3.81192
# Velocity P-wave (km/s) = 4.94307 6.62570 5.84524
#
# Compressibility (1/GPa) = 0.05904197
#
# Stress axis : x y z
#
# Youngs Moduli (GPa) = 112.23841 19.69395 52.68032
#
# Poissons Ratio (x) = 0.15733 0.31622
# Poissons Ratio (y) = 0.89664 -0.22009
# Poissons Ratio (z) = 0.67373 -0.08228
#
# Static dielectric constant tensor:
#      x y z
#    x 1.732230 0.000000 0.005250 
#    y 0.000000 1.767000 0.000000 
#    z 0.005250 0.000000 1.822170 
# 
# From -- ./inp_files/5799.got.cif
#   From: 2010.05.17/outbox.cif.g08.bks.cpg/sg3_3_cif.got.tgz:5799.got - 2010.06.03 18:33:08.
