data_PCOD9112900
_publ_section_title
;
Structure prediction by ZEFSAII (Michael W. Deem and Ramdas Pophale) SiO2 
 PCOD9112900
Probable space group: P 2
;
_chemical_formula_sum "Si O2"
_cell_formula_units_Z 16
_cell_length_a 10.842873
_cell_length_b 9.197700
_cell_length_c 7.861626
_cell_angle_alpha 90.000000
_cell_angle_beta 118.541414
_cell_angle_gamma 90.000000
_cell_volume 688.753641
_symmetry_space_group_name_H-M "P 2"
_symmetry_group_IT_number 3
_symmetry_cell_setting 'monoclinic'
loop_
_space_group_symop_operation_xyz
x,y,z
-x,y,-z
loop_
_atom_site_type_symbol
_atom_site_label
_atom_site_fract_x
_atom_site_fract_y
_atom_site_fract_z
Si Si1 0.827044 0.916620 0.204666
Si Si2 0.920194 0.752821 0.767281
Si Si3 0.827040 0.251836 0.204660
Si Si4 0.079802 0.415638 0.232718
Si Si5 0.580066 0.750274 0.869765
Si Si6 0.419937 0.418185 0.130239
Si Si7 0.668081 0.252428 0.463438
Si Si8 0.668078 0.916028 0.463436
O O1 0.753464 0.913869 0.340113
O O2 0.971647 0.830505 0.288622
O O3 0.851857 0.084228 0.174242
O O4 0.718411 0.840284 0.005168
O O5 0.900725 0.584229 0.710516
O O6 0.771074 0.832609 0.658891
O O7 0.000000 0.762378 0.000000
O O8 0.753462 0.254585 0.340109
O O9 0.971640 0.337957 0.288617
O O10 0.718406 0.328168 0.005160
O O11 0.228920 0.335844 0.341107
O O12 0.000000 0.406081 0.000000
O O13 0.610401 0.584229 0.836339
O O14 0.476160 0.833467 0.674053
O O15 0.500000 0.742530 0.000000
O O16 0.523846 0.334996 0.325954
O O17 0.500000 0.425929 0.000000
O O18 0.646648 0.084228 0.495932
#
# Coordination Sequence:
#
# PCOD9112900 Si02
#       8
#     2   2   2   2   2   2   2   2
#     4  10  20  35  57  84 111 140 177 221 268 319
#     4  11  24  39  54  76 108 145 184 225 268 316
#     4  10  20  35  57  84 111 140 177 221 268 319
#     4  11  24  39  54  76 108 145 184 225 268 316
#     4   9  17  31  54  83 112 141 174 216 266 317
#     4   9  17  31  54  83 112 141 174 216 266 317
#     4  10  20  35  57  84 111 140 177 221 268 319
#     4  10  20  35  57  84 111 140 177 221 268 319
#
# _framework density 23.230367000000001
#
# number of rings (size 3 to 8) (size 9 to 14) (size 15 to 20)
#    0.000    2.000    0.000    3.750    0.000   11.000 
#    0.000    1.250    0.000    7.500    0.000    0.000 
#    0.000    0.000    0.000    0.000    0.000    0.000 
#
# Total GULP energy -89618.169898 kJ/mol
# GULP energy per Si atom -5601.135619 kJ/mol
# Density = 2.317749 g / cm^3
# Si number density = 23.230367 Si / 1000 Ang^3
#
#
#
# Elastic Constant Matrix: (Units=GPa)
#
#
# Indices 1 2 3 4 5 6 
#
# 1 74.8099 28.2127 31.8528 0.0000 8.4874 0.0000
# 2 28.2127 205.4807 95.9292 0.0000 12.6972 0.0000
# 3 31.8528 95.9292 142.0034 0.0000 35.7384 0.0000
# 4 0.0000 0.0000 0.0000 181.4484 0.0000 -160.9680
# 5 8.4874 12.6972 35.7384 0.0000 37.0933 0.0000
# 6 0.0000 0.0000 0.0000 -160.9680 0.0000 197.5807
#
#
#
# Elastic Compliance Matrix: (Units=1/GPa)
#
#
# Indices 1 2 3 4 5 6 
#
# 1 0.014857 -0.000752 -0.002685 0.000000 -0.000555 0.000000
# 2 -0.000752 0.007390 -0.005584 0.000000 0.003023 0.000000
# 3 -0.002685 -0.005584 0.014232 0.000000 -0.011186 0.000000
# 4 0.000000 0.000000 0.000000 0.019877 0.000000 0.016194
# 5 -0.000555 0.003023 -0.011186 0.000000 0.036829 0.000000
# 6 0.000000 0.000000 0.000000 0.016194 0.000000 0.018254
#
#
# Mechanical properties :
#
#
# Convention : Reuss Voigt Hill
#
# Bulk Modulus (GPa) = 54.23962 81.58703 67.91333
# Shear Modulus (GPa) = 36.86543 100.97777 68.92160
#
# Velocity S-wave (km/s) = 3.98798 6.60018 5.45281
# Velocity P-wave (km/s) = 6.67866 9.65817 8.30316
#
# Compressibility (1/GPa) = 0.01843671
#
# Stress axis : x y z
#
# Youngs Moduli (GPa) = 67.30844 135.31349 70.26360
#
# Poissons Ratio (x) = 0.10179 0.18863
# Poissons Ratio (y) = 0.05063 0.39238
# Poissons Ratio (z) = 0.18070 0.75565
#
# Static dielectric constant tensor:
#      x y z
#    x 1.980240 0.000000 -0.060400 
#    y 0.000000 1.792720 0.000000 
#    z -0.060400 0.000000 1.848830 
# 
# From -- ./inp_files/7513.got.cif
#   From: 2010.05.17/outbox.cif.g08.bks.cpg/sg3_4_cif.got.tgz:7513.got - 2010.06.03 18:33:08.
