data_PCOD9112146
_publ_section_title
;
Structure prediction by ZEFSAII (Michael W. Deem and Ramdas Pophale) SiO2 
 PCOD9112146
Probable space group: P -1
;
_chemical_formula_sum "Si O2"
_cell_formula_units_Z 12
_cell_length_a 8.433681
_cell_length_b 15.709990
_cell_length_c 11.313549
_cell_angle_alpha 41.789605
_cell_angle_beta 139.408298
_cell_angle_gamma 144.175208
_cell_volume 536.633877
_symmetry_space_group_name_H-M "P -1"
_symmetry_group_IT_number 2
_symmetry_cell_setting 'triclinic'
loop_
_space_group_symop_operation_xyz
x,y,z
-x,-y,-z
loop_
_atom_site_type_symbol
_atom_site_label
_atom_site_fract_x
_atom_site_fract_y
_atom_site_fract_z
Si Si1 0.717344 0.643087 0.558282
Si Si2 0.428817 0.936291 0.393112
Si Si3 0.719078 0.334575 0.547940
Si Si4 0.826820 0.147782 0.996686
Si Si5 0.778517 0.228356 0.133751
Si Si6 0.860856 0.888358 0.188110
O O1 0.500000 0.500000 0.500000
O O2 0.525501 0.650635 0.544593
O O3 0.843018 0.791364 0.392085
O O4 0.986331 0.647442 0.768407
O O5 0.401384 0.779050 0.515131
O O6 0.105026 0.902473 0.225311
O O7 0.500000 0.000000 0.500000
O O8 0.658222 0.063644 0.298864
O O9 0.000000 0.500000 0.500000
O O10 0.803946 0.251295 0.779105
O O11 0.931812 0.239330 0.084770
O O12 0.963025 0.058153 0.115486
O O13 0.500000 0.000000 0.000000
O O14 0.470994 0.209192 0.952069
#
# Coordination Sequence:
#
# PCOD9112146 Si02
#       6
#     2   2   2   2   2   2
#     4  12  26  46  69 103 146 191 239 298 362 420
#     4  12  24  41  73 113 140 188 235 294 355 422
#     4  12  26  47  70 103 152 181 238 305 357 420
#     4  10  20  44  72 101 131 190 235 290 357 418
#     4  11  23  43  74 100 136 195 237 291 350 419
#     4  11  22  44  72 103 143 176 244 289 349 437
#
# _framework density 22.361612999999998
#
# number of rings (size 3 to 8) (size 9 to 14) (size 15 to 20)
#    0.000    0.667    8.333    1.500    2.333    2.000 
#    0.000    0.833    0.000    0.000    0.000    0.000 
#    0.000    0.000    0.000    0.000    0.000    0.000 
#
# Total GULP energy -67069.057570 kJ/mol
# GULP energy per Si atom -5589.088131 kJ/mol
# Density = 2.231072 g / cm^3
# Si number density = 22.361613 Si / 1000 Ang^3
#
#
#
# Elastic Constant Matrix: (Units=GPa)
#
#
# Indices 1 2 3 4 5 6 
#
# 1 95.0750 42.6453 18.8727 0.6442 -3.9097 -14.4371
# 2 42.6453 104.6637 46.7774 29.8874 -5.4174 -13.9688
# 3 18.8727 46.7774 99.0138 22.1445 -14.2125 1.2051
# 4 0.6442 29.8874 22.1445 44.1299 4.2048 -14.6228
# 5 -3.9097 -5.4174 -14.2125 4.2048 45.1817 -5.1380
# 6 -14.4371 -13.9688 1.2051 -14.6228 -5.1380 38.2264
#
#
#
# Elastic Compliance Matrix: (Units=1/GPa)
#
#
# Indices 1 2 3 4 5 6 
#
# 1 0.014508 -0.006498 -0.001248 0.006701 0.000111 0.005723
# 2 -0.006498 0.016961 -0.004650 -0.008951 0.000909 0.000589
# 3 -0.001248 -0.004650 0.014477 -0.005918 0.003943 -0.004361
# 4 0.006701 -0.008951 -0.005918 0.036219 -0.004278 0.012726
# 5 0.000111 0.000909 0.003943 -0.004278 0.024101 0.001852
# 6 0.005723 0.000589 -0.004361 0.012726 0.001852 0.033791
#
#
# Mechanical properties :
#
#
# Convention : Reuss Voigt Hill
#
# Bulk Modulus (GPa) = 47.26749 57.26037 52.26393
# Shear Modulus (GPa) = 29.08679 38.20474 33.64576
#
# Velocity S-wave (km/s) = 3.61050 4.13788 3.88315
# Velocity P-wave (km/s) = 6.21004 6.96359 6.59758
#
# Compressibility (1/GPa) = 0.02115619
#
# Stress axis : x y z
#
# Youngs Moduli (GPa) = 68.92598 58.95716 69.07640
#
# Poissons Ratio (x) = 0.38308 0.08621
# Poissons Ratio (y) = 0.44785 0.32117
# Poissons Ratio (z) = 0.08602 0.27412
#
# Static dielectric constant tensor:
#      x y z
#    x 1.881370 -0.013620 0.022490 
#    y -0.013620 1.880260 0.047970 
#    z 0.022490 0.047970 1.887960 
# 
# From -- ./inp_files/393712.got.cif
#   From: 2010.05.17/outbox.cif.g08.bks.cpg/sg2_197_cif.got.tgz:393712.got - 2010.06.03 11:33:40.
