data_PCOD9112209
_publ_section_title
;
Structure prediction by ZEFSAII (Michael W. Deem and Ramdas Pophale) SiO2 
 PCOD9112209
Probable space group: P -1
;
_chemical_formula_sum "Si O2"
_cell_formula_units_Z 13
_cell_length_a 7.419211
_cell_length_b 9.703085
_cell_length_c 15.366916
_cell_angle_alpha 140.942203
_cell_angle_beta 58.013232
_cell_angle_gamma 106.264821
_cell_volume 573.112066
_symmetry_space_group_name_H-M "P -1"
_symmetry_group_IT_number 2
_symmetry_cell_setting 'triclinic'
loop_
_space_group_symop_operation_xyz
x,y,z
-x,-y,-z
loop_
_atom_site_type_symbol
_atom_site_label
_atom_site_fract_x
_atom_site_fract_y
_atom_site_fract_z
Si Si1 0.000000 0.000000 0.000000
Si Si2 0.336741 0.224307 0.690203
Si Si3 0.075078 0.465178 0.708634
Si Si4 0.383340 0.025345 0.134549
Si Si5 0.873463 0.035080 0.241900
Si Si6 0.774638 0.540116 0.521856
Si Si7 0.428095 0.474252 0.103638
O O1 0.941233 0.269823 0.166098
O O2 0.881570 0.957245 0.102540
O O3 0.205573 0.354564 0.705644
O O4 0.451817 0.395004 0.795171
O O5 0.500000 0.000000 0.500000
O O6 0.194611 0.130749 0.752986
O O7 0.179704 0.376416 0.545021
O O8 0.829053 0.437561 0.768155
O O9 0.399547 0.258203 0.288634
O O10 0.498870 0.793874 0.035404
O O11 0.127096 0.036620 0.195734
O O12 0.500000 0.000000 0.000000
O O13 0.727101 0.293201 0.414286
O O14 0.000000 0.500000 0.500000
O O15 0.500000 0.500000 0.000000
#
# Coordination Sequence:
#
# PCOD9112209 Si02
#       7
#     1   2   2   2   2   2   2
#     4  10  20  44  76 106 140 192 246 314 384 424
#     4  12  30  47  74 112 155 205 255 307 381 463
#     4  11  25  49  76 107 156 199 250 322 380 453
#     4  11  23  40  73 106 139 187 254 311 375 446
#     4  10  22  45  69 102 155 189 244 318 370 447
#     4   9  21  42  75 105 143 197 250 316 376 441
#     4  12  27  45  75 109 146 200 253 303 384 455
#
# _framework density 22.683176
#
# number of rings (size 3 to 8) (size 9 to 14) (size 15 to 20)
#    0.000    1.231    0.000    5.538    8.615    2.462 
#    0.000    1.538    0.000    0.000    0.000    0.000 
#    0.000    0.000    0.000    0.000    0.000    0.000 
#
# Total GULP energy -72513.211094 kJ/mol
# GULP energy per Si atom -5577.939315 kJ/mol
# Density = 2.263155 g / cm^3
# Si number density = 22.683176 Si / 1000 Ang^3
#
#
#
# Elastic Constant Matrix: (Units=GPa)
#
#
# Indices 1 2 3 4 5 6 
#
# 1 123.8671 119.6137 123.2809 11.7659 -15.4559 5.0732
# 2 119.6137-6517.0303-8849.5653-1817.0423 1647.0156-1142.3686
# 3 123.2809-8849.5653**********-2388.4094 2205.6769-1492.2146
# 4 11.7659-1817.0423-2388.4094 -437.0350 437.8683 -291.6512
# 5 -15.4559 1647.0156 2205.6769 437.8683 -377.6755 265.0119
# 6 5.0732-1142.3686-1492.2146 -291.6512 265.0119 -153.7204
#
#
#
# Elastic Compliance Matrix: (Units=1/GPa)
#
#
# Indices 1 2 3 4 5 6 
#
# 1 0.008591 -0.001321 0.000377 0.001411 -0.001746 0.000753
# 2 -0.001321 0.006710 -0.004637 0.001215 0.006718 0.004384
# 3 0.000377 -0.004637 0.004513 -0.003812 -0.001067 -0.003939
# 4 0.001411 0.001215 -0.003812 0.022852 0.006144 -0.004745
# 5 -0.001746 0.006718 -0.001067 0.006144 0.039922 0.017540
# 6 0.000753 0.004384 -0.003939 -0.004745 0.017540 0.038419
#
#
# Mechanical properties :
#
#
# Convention : Reuss Voigt Hill
#
# Bulk Modulus (GPa) = 115.59316 -3920.84890 -1902.62787
# Shear Modulus (GPa) = 37.02297 -824.86135 -393.91919
#
# Velocity S-wave (km/s) = 4.04440 -19.09015 -13.19236
# Velocity P-wave (km/s) = 8.53698 47.09768 32.75143
#
# Compressibility (1/GPa) = 0.00865103
#
# Stress axis : x y z
#
# Youngs Moduli (GPa) = 116.40452 149.03629 221.59775
#
# Poissons Ratio (x) = 0.19685 -0.08354
# Poissons Ratio (y) = 0.15375 1.02760
# Poissons Ratio (z) = -0.04388 0.69111
#
# Static dielectric constant tensor:
#      x y z
#    x 1.929980 -0.004480 -0.001710 
#    y -0.004480 1.725950 0.049110 
#    z -0.001710 0.049110 1.772420 
# 
# From -- ./inp_files/494025.got.cif
#   From: 2010.05.17/outbox.cif.g08.bks.cpg/sg2_248_cif.got.tgz:494025.got - 2010.06.03 11:33:40.
