data_PCOD9112405
_publ_section_title
;
Structure prediction by ZEFSAII (Michael W. Deem and Ramdas Pophale) SiO2 
 PCOD9112405
Probable space group: P -1
;
_chemical_formula_sum "Si O2"
_cell_formula_units_Z 16
_cell_length_a 15.207344
_cell_length_b 14.644268
_cell_length_c 9.507606
_cell_angle_alpha 114.724811
_cell_angle_beta 123.962300
_cell_angle_gamma 27.925772
_cell_volume 806.831576
_symmetry_space_group_name_H-M "P -1"
_symmetry_group_IT_number 2
_symmetry_cell_setting 'triclinic'
loop_
_space_group_symop_operation_xyz
x,y,z
-x,-y,-z
loop_
_atom_site_type_symbol
_atom_site_label
_atom_site_fract_x
_atom_site_fract_y
_atom_site_fract_z
Si Si1 0.680656 0.330381 0.939809
Si Si2 0.856678 0.968487 0.829473
Si Si3 0.767107 0.932374 0.454219
Si Si4 0.796785 0.103080 0.416509
Si Si5 0.316161 0.311479 0.155943
Si Si6 0.112571 0.105688 0.865752
Si Si7 0.105278 0.311141 0.817147
Si Si8 0.644265 0.488754 0.729012
O O1 0.633673 0.431685 0.822699
O O2 0.710301 0.187682 0.840236
O O3 0.500000 0.500000 0.000000
O O4 0.910131 0.182123 0.098326
O O5 0.786349 0.939975 0.640154
O O6 0.865574 0.919428 0.964548
O O7 0.886007 0.742304 0.365324
O O8 0.849351 0.968538 0.480079
O O9 0.530194 0.116763 0.304520
O O10 0.586377 0.328645 0.429081
O O11 0.747758 0.091227 0.214488
O O12 0.000000 0.000000 0.500000
O O13 0.325802 0.414848 0.165054
O O14 0.125047 0.466764 0.196566
O O15 0.262914 0.272579 0.966000
O O16 0.162026 0.172300 0.883608
O O17 0.867951 0.281052 0.724280
#
# Coordination Sequence:
#
# PCOD9112405 Si02
#       8
#     2   2   2   2   2   2   2   2
#     4  10  21  35  54  72 106 157 184 206 264 322
#     4  10  22  36  53  76 115 142 181 221 262 318
#     4  10  21  34  51  84 109 136 175 231 267 310
#     4  10  21  32  52  75 107 138 181 221 260 313
#     4   9  18  36  58  81 105 136 178 228 272 319
#     4   9  19  37  53  75 106 143 177 215 265 321
#     4   9  18  36  62  79 103 140 179 221 277 320
#     4   9  19  34  52  78 102 138 183 216 260 313
#
# _framework density 19.830656000000001
#
# number of rings (size 3 to 8) (size 9 to 14) (size 15 to 20)
#    0.000    2.500    0.000    1.125    7.000    1.500 
#    4.500    0.625    0.000   12.000    0.000    0.000 
#    0.000    0.000    0.000    0.000    0.000    0.000 
#
# Total GULP energy -89215.954953 kJ/mol
# GULP energy per Si atom -5575.997185 kJ/mol
# Density = 1.978552 g / cm^3
# Si number density = 19.830656 Si / 1000 Ang^3
#
#
#
# Elastic Constant Matrix: (Units=GPa)
#
#
# Indices 1 2 3 4 5 6 
#
# 1 50.2896 9.0783 14.6058 0.3744 6.7677 -7.1907
# 2 9.0783 86.4455 20.2352 19.1364 2.2109 -9.3908
# 3 14.6058 20.2352 81.4542 22.0532 -1.8687 -3.1682
# 4 0.3744 19.1364 22.0532 26.7513 -5.5139 -0.7957
# 5 6.7677 2.2109 -1.8687 -5.5139 23.1893 2.0817
# 6 -7.1907 -9.3908 -3.1682 -0.7957 2.0817 21.5226
#
#
#
# Elastic Compliance Matrix: (Units=1/GPa)
#
#
# Indices 1 2 3 4 5 6 
#
# 1 0.023414 -0.001048 -0.004621 0.002997 -0.007064 0.007479
# 2 -0.001048 0.015009 -0.000393 -0.011112 -0.004351 0.006151
# 3 -0.004621 -0.000393 0.016911 -0.013697 -0.000537 0.000320
# 4 0.002997 -0.011112 -0.013697 0.059238 0.013614 -0.004990
# 5 -0.007064 -0.004351 -0.000537 0.013614 0.049569 -0.008629
# 6 0.007479 0.006151 0.000320 -0.004990 -0.008629 0.052343
#
#
# Mechanical properties :
#
#
# Convention : Reuss Voigt Hill
#
# Bulk Modulus (GPa) = 23.14164 34.00309 28.57236
# Shear Modulus (GPa) = 20.57530 25.91065 23.24297
#
# Velocity S-wave (km/s) = 3.22460 3.61861 3.42727
# Velocity P-wave (km/s) = 5.05559 5.88583 5.48644
#
# Compressibility (1/GPa) = 0.04321215
#
# Stress axis : x y z
#
# Youngs Moduli (GPa) = 42.70986 66.62507 59.13145
#
# Poissons Ratio (x) = 0.06979 0.27324
# Poissons Ratio (y) = 0.04474 0.02323
# Poissons Ratio (z) = 0.19736 0.02617
#
# Static dielectric constant tensor:
#      x y z
#    x 1.704860 -0.011660 0.033320 
#    y -0.011660 1.741200 0.006340 
#    z 0.033320 0.006340 1.735090 
# 
# From -- ./inp_files/206681.got.cif
#   From: 2010.05.17/outbox.cif.g08.bks.cpg/sg2_104_cif.got.tgz:206681.got - 2010.06.03 11:33:40.
