data_PCOD9112414
_publ_section_title
;
Structure prediction by ZEFSAII (Michael W. Deem and Ramdas Pophale) SiO2 
 PCOD9112414
Probable space group: P -1
;
_chemical_formula_sum "Si O2"
_cell_formula_units_Z 16
_cell_length_a 12.387178
_cell_length_b 15.740792
_cell_length_c 15.770096
_cell_angle_alpha 161.504635
_cell_angle_beta 113.695525
_cell_angle_gamma 66.528506
_cell_volume 891.650721
_symmetry_space_group_name_H-M "P -1"
_symmetry_group_IT_number 2
_symmetry_cell_setting 'triclinic'
loop_
_space_group_symop_operation_xyz
x,y,z
-x,-y,-z
loop_
_atom_site_type_symbol
_atom_site_label
_atom_site_fract_x
_atom_site_fract_y
_atom_site_fract_z
Si Si1 0.246329 0.416519 0.633386
Si Si2 0.186302 0.968672 0.071951
Si Si3 0.654296 0.001000 0.451343
Si Si4 0.988445 0.364389 0.586388
Si Si5 0.012531 0.748571 0.332858
Si Si6 0.570808 0.668289 0.252617
Si Si7 0.206323 0.475044 0.030101
Si Si8 0.927188 0.925724 0.034148
O O1 0.235007 0.663291 0.798734
O O2 0.348275 0.479112 0.791426
O O3 0.123118 0.385197 0.615486
O O4 0.260625 0.148173 0.327767
O O5 0.056296 0.947088 0.052073
O O6 0.164066 0.089425 0.086130
O O7 0.520644 0.129557 0.534144
O O8 0.659430 0.836433 0.384436
O O9 0.701755 0.785477 0.191682
O O10 0.730711 0.257877 0.720347
O O11 0.986436 0.204837 0.523074
O O12 0.935071 0.669696 0.855888
O O13 0.913698 0.199256 0.340595
O O14 0.896217 0.588860 0.128261
O O15 0.128794 0.559747 0.168044
O O16 0.000000 0.000000 0.500000
O O17 0.500000 0.500000 0.000000
#
# Coordination Sequence:
#
# PCOD9112414 Si02
#       8
#     2   2   2   2   2   2   2   2
#     4  10  21  32  53  78 109 146 183 217 267 329
#     4   9  18  33  51  75 106 141 177 221 271 327
#     4  11  23  38  54  73 108 152 184 227 275 314
#     4  10  21  32  53  78 109 146 183 217 267 329
#     4  11  24  36  56  81 112 149 193 234 264 331
#     4  11  24  36  56  81 112 149 193 234 264 331
#     4  11  23  38  54  73 108 152 184 227 275 314
#     4   9  18  33  51  75 106 141 177 221 271 327
#
# _framework density 17.944247000000001
#
# number of rings (size 3 to 8) (size 9 to 14) (size 15 to 20)
#    0.000    1.750    2.500    1.500    7.000    4.000 
#    0.000    0.000    0.000    0.000    0.000    0.000 
#    0.000   20.000    0.000    0.000    0.000    0.000 
#
# Total GULP energy -89069.661351 kJ/mol
# GULP energy per Si atom -5566.853834 kJ/mol
# Density = 1.790341 g / cm^3
# Si number density = 17.944247 Si / 1000 Ang^3
#
#
#
# Elastic Constant Matrix: (Units=GPa)
#
#
# Indices 1 2 3 4 5 6 
#
# 1 46.4084 6.3613 24.6653 2.8016 -7.3565 4.6816
# 2 6.3613 79.6910 20.1191 0.1429 9.2804 4.4945
# 3 24.6653 20.1191 104.7267 6.7629 3.7844 0.6977
# 4 2.8016 0.1429 6.7629 25.9221 -3.4362 2.2194
# 5 -7.3565 9.2804 3.7844 -3.4362 25.4246 -0.2590
# 6 4.6816 4.4945 0.6977 2.2194 -0.2590 12.6244
#
#
#
# Elastic Compliance Matrix: (Units=1/GPa)
#
#
# Indices 1 2 3 4 5 6 
#
# 1 0.027607 -0.001095 -0.006620 0.000801 0.009385 -0.009430
# 2 -0.001095 0.014061 -0.002250 0.000347 -0.005115 -0.004641
# 3 -0.006620 -0.002250 0.011834 -0.003051 -0.003237 0.003072
# 4 0.000801 0.000347 -0.003051 0.040702 0.005986 -0.007285
# 5 0.009385 -0.005115 -0.003237 0.005986 0.045189 -0.001606
# 6 -0.009430 -0.004641 0.003072 -0.007285 -0.001606 0.085439
#
#
# Mechanical properties :
#
#
# Convention : Reuss Voigt Hill
#
# Bulk Modulus (GPa) = 29.78694 37.01306 33.40000
# Shear Modulus (GPa) = 19.53502 24.77292 22.15397
#
# Velocity S-wave (km/s) = 3.30305 3.71961 3.51750
# Velocity P-wave (km/s) = 5.58414 6.25450 5.92880
#
# Compressibility (1/GPa) = 0.03357176
#
# Stress axis : x y z
#
# Youngs Moduli (GPa) = 36.22294 71.12027 84.50566
#
# Poissons Ratio (x) = 0.07788 0.55940
# Poissons Ratio (y) = 0.03966 0.19014
# Poissons Ratio (z) = 0.23978 0.16002
#
# Static dielectric constant tensor:
#      x y z
#    x 1.647060 -0.000170 -0.021520 
#    y -0.000170 1.622890 0.006310 
#    z -0.021520 0.006310 1.648070 
# 
# From -- ./inp_files/522718.got.cif
#   From: 2010.05.17/outbox.cif.g08.bks.cpg/sg2_262_cif.got.tgz:522718.got - 2010.06.03 11:33:40.
