data_PCOD9112940
_publ_section_title
;
Structure prediction by ZEFSAII (Michael W. Deem and Ramdas Pophale) SiO2 
 PCOD9112940
Probable space group: P 2
;
_chemical_formula_sum "Si O2"
_cell_formula_units_Z 16
_cell_length_a 14.570372
_cell_length_b 13.929495
_cell_length_c 12.372544
_cell_angle_alpha 90.000000
_cell_angle_beta 160.617990
_cell_angle_gamma 90.000000
_cell_volume 833.348035
_symmetry_space_group_name_H-M "P 2"
_symmetry_group_IT_number 3
_symmetry_cell_setting 'monoclinic'
loop_
_space_group_symop_operation_xyz
x,y,z
-x,y,-z
loop_
_atom_site_type_symbol
_atom_site_label
_atom_site_fract_x
_atom_site_fract_y
_atom_site_fract_z
Si Si1 0.392678 0.400300 0.756996
Si Si2 0.111337 0.514216 0.746825
Si Si3 0.764464 0.065344 0.060892
Si Si4 0.457575 0.696727 0.208046
Si Si5 0.292796 0.869300 0.870166
Si Si6 0.953625 0.741874 0.074032
Si Si7 0.322472 0.181043 0.691818
Si Si8 0.809995 0.958353 0.887294
O O1 0.288030 0.292711 0.623817
O O2 0.154476 0.480117 0.480960
O O3 0.500000 0.403843 0.000000
O O4 0.664845 0.428750 0.994166
O O5 0.000000 0.522762 0.500000
O O6 0.283950 0.609057 0.966019
O O7 0.033098 0.128068 0.386648
O O8 0.749933 0.970715 0.118920
O O9 0.495360 0.126845 0.791475
O O10 0.785325 0.029109 0.961018
O O11 0.788375 0.692763 0.578974
O O12 0.395314 0.791949 0.070070
O O13 0.330835 0.710010 0.186978
O O14 0.000000 0.834859 0.500000
O O15 0.500000 0.878972 0.000000
O O16 0.000000 0.720794 0.000000
O O17 0.952402 0.858113 0.082399
O O18 0.500000 0.175651 0.000000
O O19 0.500000 0.936743 0.500000
O O20 0.000000 0.995491 0.000000
#
# Coordination Sequence:
#
# PCOD9112940 Si02
#       8
#     2   2   2   2   2   2   2   2
#     4   9  19  36  57  83 115 153 195 243 285 325
#     4  10  20  36  59  85 119 153 192 237 284 350
#     4  12  23  37  58  86 117 159 196 235 291 349
#     4  12  23  38  58  87 116 157 193 234 290 348
#     4  12  25  37  52  81 125 163 186 217 274 355
#     4  11  23  39  60  82 112 152 200 254 286 327
#     4  11  22  37  58  88 122 156 195 238 284 350
#     4  11  23  40  61  82 112 153 206 256 290 328
#
# _framework density 19.199663000000001
#
# number of rings (size 3 to 8) (size 9 to 14) (size 15 to 20)
#    0.000    1.000    1.250    7.500    1.750    3.500 
#    0.000    0.000    0.000    0.000    0.000   30.625 
#    0.000    0.000    0.000    0.000    0.000    0.000 
#
# Total GULP energy -89398.106749 kJ/mol
# GULP energy per Si atom -5587.381672 kJ/mol
# Density = 1.915596 g / cm^3
# Si number density = 19.199663 Si / 1000 Ang^3
#
#
#
# Elastic Constant Matrix: (Units=GPa)
#
#
# Indices 1 2 3 4 5 6 
#
# 1 94.6267 14.0572 15.3831 0.0000 14.9295 0.0000
# 2 14.0572 99.9066 30.3624 0.0000 -3.5635 0.0000
# 3 15.3831 30.3624 78.7736 0.0000 15.2592 0.0000
# 4 0.0000 0.0000 0.0000 -15.7562 0.0000 -23.9514
# 5 14.9295 -3.5635 15.2592 0.0000 27.6577 0.0000
# 6 0.0000 0.0000 0.0000 -23.9514 0.0000 -23.7778
#
#
#
# Elastic Compliance Matrix: (Units=1/GPa)
#
#
# Indices 1 2 3 4 5 6 
#
# 1 0.011914 -0.001788 -0.000388 0.000000 -0.006447 0.000000
# 2 -0.001788 0.012090 -0.005374 0.000000 0.005488 0.000000
# 3 -0.000388 -0.005374 0.016722 0.000000 -0.009709 0.000000
# 4 0.000000 0.000000 0.000000 0.119473 0.000000 -0.120345
# 5 -0.006447 0.005488 -0.009709 0.000000 0.045700 0.000000
# 6 0.000000 0.000000 0.000000 -0.120345 0.000000 0.079168
#
#
# Mechanical properties :
#
#
# Convention : Reuss Voigt Hill
#
# Bulk Modulus (GPa) = 39.02401 43.65692 41.34046
# Shear Modulus (GPa) = 16.19650 11.85835 14.02742
#
# Velocity S-wave (km/s) = 2.90760 2.48792 2.70591
# Velocity P-wave (km/s) = 5.62509 5.57142 5.59832
#
# Compressibility (1/GPa) = 0.02562525
#
# Stress axis : x y z
#
# Youngs Moduli (GPa) = 83.93614 82.71439 59.80022
#
# Poissons Ratio (x) = 0.14791 0.02323
# Poissons Ratio (y) = 0.15010 0.32135
# Poissons Ratio (z) = 0.03260 0.44448
#
# Static dielectric constant tensor:
#      x y z
#    x 1.668850 0.000000 -0.002390 
#    y 0.000000 1.665590 0.000000 
#    z -0.002390 0.000000 1.694920 
# 
# From -- ./inp_files/11928.got.cif
#   From: 2010.05.17/outbox.cif.g08.bks.cpg/sg3_6_cif.got.tgz:11928.got - 2010.06.03 18:33:08.
