data_PCOD9112088
_publ_section_title
;
Structure prediction by ZEFSAII (Michael W. Deem and Ramdas Pophale) SiO2 
 PCOD9112088
Probable space group: P -1
;
_chemical_formula_sum "Si O2"
_cell_formula_units_Z 14
_cell_length_a 9.429188
_cell_length_b 10.236341
_cell_length_c 8.331102
_cell_angle_alpha 121.588053
_cell_angle_beta 88.869483
_cell_angle_gamma 109.206105
_cell_volume 635.111010
_symmetry_space_group_name_H-M "P -1"
_symmetry_group_IT_number 2
_symmetry_cell_setting 'triclinic'
loop_
_space_group_symop_operation_xyz
x,y,z
-x,-y,-z
loop_
_atom_site_type_symbol
_atom_site_label
_atom_site_fract_x
_atom_site_fract_y
_atom_site_fract_z
Si Si1 0.612740 0.479260 0.350507
Si Si2 0.342862 0.970483 0.647566
Si Si3 0.552596 0.881465 0.815036
Si Si4 0.510844 0.649973 0.213400
Si Si5 0.113222 0.584330 0.815697
Si Si6 0.863553 0.063694 0.057475
Si Si7 0.208210 0.674812 0.236698
O O1 0.500000 0.500000 0.500000
O O2 0.509784 0.288276 0.193310
O O3 0.624294 0.628549 0.329584
O O4 0.779492 0.468720 0.342406
O O5 0.460847 0.886915 0.658683
O O6 0.221055 0.961053 0.783958
O O7 0.261195 0.860211 0.424792
O O8 0.430817 0.163925 0.733509
O O9 0.500000 0.000000 0.000000
O O10 0.734425 0.960499 0.864209
O O11 0.337802 0.608268 0.249314
O O12 0.500000 0.500000 0.000000
O O13 0.083831 0.742084 0.852995
O O14 0.956929 0.433912 0.760057
O O15 0.198839 0.647059 0.026183
O O16 0.000000 0.000000 0.000000
#
# Coordination Sequence:
#
# PCOD9112088 Si02
#       7
#     2   2   2   2   2   2   2
#     4  12  25  43  70 107 138 183 237 289 353 429
#     4  11  24  46  73 105 138 189 246 290 348 429
#     4  10  20  44  69  97 139 181 231 289 352 412
#     4  12  24  42  72 104 141 179 243 291 350 430
#     4  11  25  48  69 101 152 191 228 301 373 412
#     4  11  25  42  74 103 142 188 237 292 362 426
#     4  11  26  45  72 101 146 192 232 299 361 421
#
# _framework density 22.043391
#
# number of rings (size 3 to 8) (size 9 to 14) (size 15 to 20)
#    0.000    0.857    4.286    3.857    4.000    2.857 
#    0.000    1.429    0.000    0.000    0.000    0.000 
#    0.000    0.000    0.000    0.000    0.000    0.000 
#
# Total GULP energy -78095.311476 kJ/mol
# GULP energy per Si atom -5578.236534 kJ/mol
# Density = 2.199322 g / cm^3
# Si number density = 22.043391 Si / 1000 Ang^3
#
#
#
# Elastic Constant Matrix: (Units=GPa)
#
#
# Indices 1 2 3 4 5 6 
#
# 1 158.0219 43.1866 55.2926 15.4691 -25.7745 -11.8269
# 2 43.1866 98.7216 26.2173 11.6091 -2.0813 -3.3999
# 3 55.2926 26.2173 90.9260 13.0288 -10.4755 10.9715
# 4 15.4691 11.6091 13.0288 23.2682 3.3505 -1.7067
# 5 -25.7745 -2.0813 -10.4755 3.3505 38.8703 4.6342
# 6 -11.8269 -3.3999 10.9715 -1.7067 4.6342 37.1002
#
#
#
# Elastic Compliance Matrix: (Units=1/GPa)
#
#
# Indices 1 2 3 4 5 6 
#
# 1 0.010132 -0.002540 -0.004810 -0.003249 0.005134 0.003629
# 2 -0.002540 0.012070 -0.001747 -0.003101 -0.001341 0.000838
# 3 -0.004810 -0.001747 0.016443 -0.006025 0.002520 -0.007148
# 4 -0.003249 -0.003101 -0.006025 0.051623 -0.008864 0.003944
# 5 0.005134 -0.001341 0.002520 -0.008864 0.030919 -0.003501
# 6 0.003629 0.000838 -0.007148 0.003944 -0.003501 0.030920
#
#
# Mechanical properties :
#
#
# Convention : Reuss Voigt Hill
#
# Bulk Modulus (GPa) = 48.89767 66.34026 57.61897
# Shear Modulus (GPa) = 28.22964 34.71261 31.47112
#
# Velocity S-wave (km/s) = 3.58248 3.97260 3.78258
# Velocity P-wave (km/s) = 6.27239 7.15561 6.72851
#
# Compressibility (1/GPa) = 0.02045087
#
# Stress axis : x y z
#
# Youngs Moduli (GPa) = 98.69260 82.85205 60.81664
#
# Poissons Ratio (x) = 0.21043 0.29254
# Poissons Ratio (y) = 0.25066 0.10625
# Poissons Ratio (z) = 0.47473 0.14474
#
# Static dielectric constant tensor:
#      x y z
#    x 1.833890 -0.018270 0.078060 
#    y -0.018270 1.827360 -0.117540 
#    z 0.078060 -0.117540 1.936830 
# 
# From -- ./inp_files/160191.got.cif
#   From: 2010.05.17/outbox.cif.g08.bks.cpg/sg2_81_cif.got.tgz:160191.got - 2010.06.03 11:33:40.
