data_PCOD9112971
_publ_section_title
;
Structure prediction by ZEFSAII (Michael W. Deem and Ramdas Pophale) SiO2 
 PCOD9112971
Probable space group: P 2
;
_chemical_formula_sum "Si O2"
_cell_formula_units_Z 14
_cell_length_a 8.433905
_cell_length_b 9.182673
_cell_length_c 9.133725
_cell_angle_alpha 90.000000
_cell_angle_beta 96.424383
_cell_angle_gamma 90.000000
_cell_volume 702.926567
_symmetry_space_group_name_H-M "P 2"
_symmetry_group_IT_number 3
_symmetry_cell_setting 'monoclinic'
loop_
_space_group_symop_operation_xyz
x,y,z
-x,y,-z
loop_
_atom_site_type_symbol
_atom_site_label
_atom_site_fract_x
_atom_site_fract_y
_atom_site_fract_z
Si Si1 0.874081 0.822670 0.612291
Si Si2 0.785349 0.351385 0.726957
Si Si3 0.000000 0.265465 0.500000
Si Si4 0.000000 0.255787 0.000000
Si Si5 0.586957 0.619678 0.665388
Si Si6 0.884472 0.043961 0.236791
Si Si7 0.443769 0.868552 0.827895
Si Si8 0.637428 0.055094 0.619197
O O1 0.761053 0.699001 0.667639
O O2 0.000000 0.777421 0.500000
O O3 0.743960 0.939647 0.540206
O O4 0.974707 0.923379 0.734268
O O5 0.889915 0.354021 0.884017
O O6 0.635559 0.457831 0.716457
O O7 0.733225 0.185108 0.699103
O O8 0.890820 0.367877 0.590531
O O9 0.093573 0.156429 0.622360
O O10 0.096256 0.148835 0.901130
O O11 0.500000 0.621147 0.500000
O O12 0.471001 0.707947 0.762139
O O13 0.725691 0.947930 0.205777
O O14 0.561731 0.964559 0.741883
O O15 0.500000 0.866773 0.000000
O O16 0.500000 0.113637 0.500000
#
# Coordination Sequence:
#
# PCOD9112971 Si02
#       8
#     2   2   1   1   2   2   2   2
#     4  11  19  36  63  95 121 156 211 268 309 358
#     4  11  22  42  61  91 130 162 210 255 318 378
#     4  10  20  36  68 102 112 160 220 274 308 354
#     4  10  22  40  66  98 122 162 214 270 310 370
#     4  11  26  42  60  91 132 171 209 253 318 379
#     4  11  20  38  69  96 122 154 221 271 313 359
#     4  11  24  41  61  94 129 167 208 257 319 380
#     4  11  20  36  66  94 122 159 210 268 315 360
#
# _framework density 19.916730000000001
#
# number of rings (size 3 to 8) (size 9 to 14) (size 15 to 20)
#    0.000    1.143    3.571    5.571    3.000    0.000 
#    2.571    3.571    0.000    0.000    0.000    0.000 
#    0.000    0.000    0.000    0.000    0.000    0.000 
#
# Total GULP energy -78097.911818 kJ/mol
# GULP energy per Si atom -5578.422273 kJ/mol
# Density = 1.987140 g / cm^3
# Si number density = 19.916730 Si / 1000 Ang^3
#
#
#
# Elastic Constant Matrix: (Units=GPa)
#
#
# Indices 1 2 3 4 5 6 
#
# 1 74.0090 7.0293 32.1644 0.0000 2.6093 0.0000
# 2 7.0293 48.0997 17.2861 0.0000 -2.2645 0.0000
# 3 32.1644 17.2861 134.7109 0.0000 14.8755 0.0000
# 4 0.0000 0.0000 0.0000 6.6046 0.0000 17.6132
# 5 2.6093 -2.2645 14.8755 0.0000 27.6653 0.0000
# 6 0.0000 0.0000 0.0000 17.6132 0.0000 18.7340
#
#
#
# Elastic Compliance Matrix: (Units=1/GPa)
#
#
# Indices 1 2 3 4 5 6 
#
# 1 0.015122 -0.000920 -0.003537 0.000000 0.000400 0.000000
# 2 -0.000920 0.022174 -0.003015 0.000000 0.003523 0.000000
# 3 -0.003537 -0.003015 0.009191 0.000000 -0.004855 0.000000
# 4 0.000000 0.000000 0.000000 -0.100452 0.000000 0.094443
# 5 0.000400 0.003523 -0.004855 0.000000 0.039008 0.000000
# 6 0.000000 0.000000 0.000000 0.094443 0.000000 -0.035414
#
#
# Mechanical properties :
#
#
# Convention : Reuss Voigt Hill
#
# Bulk Modulus (GPa) = 31.70198 41.08656 36.39427
# Shear Modulus (GPa) = -200.68880 23.95676 -88.36602
#
# Velocity S-wave (km/s) = -10.04901 3.47197 -6.66814
# Velocity P-wave (km/s) = 10.89457 6.06191 6.40098
#
# Compressibility (1/GPa) = 0.03154377
#
# Stress axis : x y z
#
# Youngs Moduli (GPa) = 66.12779 45.09814 108.80532
#
# Poissons Ratio (x) = 0.04149 0.38482
# Poissons Ratio (y) = 0.06084 0.32801
# Poissons Ratio (z) = 0.23388 0.13596
#
# Static dielectric constant tensor:
#      x y z
#    x 1.799250 0.000000 0.068930 
#    y 0.000000 1.699490 0.000000 
#    z 0.068930 0.000000 2.060290 
# 
# From -- ./inp_files/5384.got.cif
#   From: 2010.05.17/outbox.cif.g08.bks.cpg/sg3_3_cif.got.tgz:5384.got - 2010.06.03 18:33:08.
