data_PCOD9112447
_publ_section_title
;
Structure prediction by ZEFSAII (Michael W. Deem and Ramdas Pophale) SiO2 
 PCOD9112447
Probable space group: P 2
;
_chemical_formula_sum "Si O2"
_cell_formula_units_Z 12
_cell_length_a 13.789067
_cell_length_b 8.217454
_cell_length_c 7.948513
_cell_angle_alpha 90.000000
_cell_angle_beta 45.004362
_cell_angle_gamma 90.000000
_cell_volume 636.907137
_symmetry_space_group_name_H-M "P 2"
_symmetry_group_IT_number 3
_symmetry_cell_setting 'monoclinic'
loop_
_space_group_symop_operation_xyz
x,y,z
-x,y,-z
loop_
_atom_site_type_symbol
_atom_site_label
_atom_site_fract_x
_atom_site_fract_y
_atom_site_fract_z
Si Si1 0.862618 0.828080 0.879185
Si Si2 0.010750 0.515328 0.168772
Si Si3 0.752322 0.626403 0.699125
Si Si4 0.224859 0.317631 0.135181
Si Si5 0.401311 0.035376 0.780563
Si Si6 0.500000 0.860141 0.000000
Si Si7 0.000000 0.083076 0.500000
O O1 0.914188 0.689809 0.939359
O O2 0.832404 0.732706 0.741375
O O3 0.968746 0.969263 0.698594
O O4 0.723248 0.912249 0.106402
O O5 0.106510 0.403756 0.168532
O O6 0.864879 0.561253 0.429632
O O7 0.000000 0.437123 0.000000
O O8 0.702941 0.461944 0.852012
O O9 0.628080 0.741920 0.797653
O O10 0.135672 0.191916 0.356841
O O11 0.332086 0.209895 0.901569
O O12 0.500000 0.040528 0.500000
O O13 0.465238 0.968198 0.877908
#
# Coordination Sequence:
#
# PCOD9112447 Si02
#       7
#     2   2   2   2   2   1   1
#     4   9  18  35  62  84 111 161 200 249 299 344
#     4  11  21  36  59  94 120 152 203 255 303 356
#     4  10  19  40  61  84 122 152 212 241 294 375
#     4  10  20  39  61  85 119 163 195 252 311 349
#     4  10  23  42  62  88 129 158 209 251 303 368
#     4  10  24  42  66  92 112 178 204 240 308 366
#     4  10  14  32  62  80 106 150 198 232 298 352
#
# _framework density 18.841052000000001
#
# number of rings (size 3 to 8) (size 9 to 14) (size 15 to 20)
#    0.000    2.000    3.333    1.000    2.333    0.667 
#    6.000    5.000    0.000    0.000    0.000    0.000 
#    0.000    0.000    0.000    0.000    0.000    0.000 
#
# Total GULP energy -66886.467540 kJ/mol
# GULP energy per Si atom -5573.872295 kJ/mol
# Density = 1.879817 g / cm^3
# Si number density = 18.841052 Si / 1000 Ang^3
#
#
#
# Elastic Constant Matrix: (Units=GPa)
#
#
# Indices 1 2 3 4 5 6 
#
# 1 54.7032 23.9150 34.6472 0.0000 -6.7523 0.0000
# 2 23.9150 102.9307 53.5768 0.0000 -6.3406 0.0000
# 3 34.6472 53.5768 151.8036 0.0000 -3.7089 0.0000
# 4 0.0000 0.0000 0.0000 23.7074 0.0000 -4.6880
# 5 -6.7523 -6.3406 -3.7089 0.0000 15.1986 0.0000
# 6 0.0000 0.0000 0.0000 -4.6880 0.0000 13.8112
#
#
#
# Elastic Compliance Matrix: (Units=1/GPa)
#
#
# Indices 1 2 3 4 5 6 
#
# 1 0.023074 -0.002724 -0.004107 0.000000 0.008113 0.000000
# 2 -0.002724 0.012465 -0.003702 0.000000 0.003087 0.000000
# 3 -0.004107 -0.003702 0.008802 0.000000 -0.001221 0.000000
# 4 0.000000 0.000000 0.000000 0.045216 0.000000 0.015348
# 5 0.008113 0.003087 -0.001221 0.000000 0.070389 0.000000
# 6 0.000000 0.000000 0.000000 0.015348 0.000000 0.077615
#
#
# Mechanical properties :
#
#
# Convention : Reuss Voigt Hill
#
# Bulk Modulus (GPa) = 42.96441 59.30173 51.13307
# Shear Modulus (GPa) = 18.76986 23.69667 21.23326
#
# Velocity S-wave (km/s) = 3.15972 3.55028 3.36068
# Velocity P-wave (km/s) = 6.01373 6.95335 6.50054
#
# Compressibility (1/GPa) = 0.02327508
#
# Stress axis : x y z
#
# Youngs Moduli (GPa) = 43.33952 80.22209 113.61483
#
# Poissons Ratio (x) = 0.21849 0.46659
# Poissons Ratio (y) = 0.11804 0.42065
# Poissons Ratio (z) = 0.17799 0.29702
#
# Static dielectric constant tensor:
#      x y z
#    x 1.644050 0.000000 -0.015840 
#    y 0.000000 1.682830 0.000000 
#    z -0.015840 0.000000 1.654930 
# 
# From -- ./inp_files/8485.got.cif
#   From: 2010.05.17/outbox.cif.g08.bks.cpg/sg3_5_cif.got.tgz:8485.got - 2010.06.03 18:33:08.
