data_PCOD9112354
_publ_section_title
;
Structure prediction by ZEFSAII (Michael W. Deem and Ramdas Pophale) SiO2 
 PCOD9112354
Probable space group: P -1
;
_chemical_formula_sum "Si O2"
_cell_formula_units_Z 14
_cell_length_a 8.414528
_cell_length_b 11.207313
_cell_length_c 9.376821
_cell_angle_alpha 49.382301
_cell_angle_beta 62.581174
_cell_angle_gamma 59.155551
_cell_volume 565.291561
_symmetry_space_group_name_H-M "P -1"
_symmetry_group_IT_number 2
_symmetry_cell_setting 'triclinic'
loop_
_space_group_symop_operation_xyz
x,y,z
-x,-y,-z
loop_
_atom_site_type_symbol
_atom_site_label
_atom_site_fract_x
_atom_site_fract_y
_atom_site_fract_z
Si Si1 0.127448 0.757719 0.357126
Si Si2 0.881545 0.096104 0.296962
Si Si3 0.604523 0.340774 0.418990
Si Si4 0.370790 0.422522 0.021394
Si Si5 0.985210 0.608218 0.062288
Si Si6 0.786366 0.711998 0.351146
Si Si7 0.332407 0.896293 0.914096
O O1 0.300952 0.659847 0.464593
O O2 0.974759 0.688255 0.390802
O O3 0.226016 0.838198 0.132453
O O4 0.996823 0.903624 0.399113
O O5 0.727099 0.169479 0.424297
O O6 0.774233 0.124061 0.169143
O O7 0.010167 0.215058 0.135957
O O8 0.641822 0.483551 0.197085
O O9 0.386275 0.352135 0.483355
O O10 0.500000 0.500000 0.000000
O O11 0.181248 0.488820 0.138432
O O12 0.458223 0.229944 0.098911
O O13 0.844440 0.641844 0.223897
O O14 0.000000 0.500000 0.000000
O O15 0.693189 0.910999 0.215758
#
# Coordination Sequence:
#
# PCOD9112354 Si02
#       7
#     2   2   2   2   2   2   2
#     4  11  22  43  76 105 149 187 235 310 360 416
#     4  10  20  47  68 104 147 194 234 292 370 429
#     4  11  26  42  73 109 151 179 246 303 361 424
#     4  11  23  49  69  98 149 197 230 288 373 434
#     4  11  23  43  72 101 144 189 243 288 358 444
#     4  11  24  48  74 112 138 189 253 297 356 433
#     4  11  21  43  82  95 144 201 238 288 363 439
#
# _framework density 24.765981
#
# number of rings (size 3 to 8) (size 9 to 14) (size 15 to 20)
#    0.000    1.143    5.714    1.286    2.000    4.571 
#    7.714    1.429    0.000    0.000    0.000    0.000 
#    0.000    0.000    0.000    0.000    0.000    0.000 
#
# Total GULP energy -78219.459129 kJ/mol
# GULP energy per Si atom -5587.104224 kJ/mol
# Density = 2.470961 g / cm^3
# Si number density = 24.765981 Si / 1000 Ang^3
#
#
#
# Elastic Constant Matrix: (Units=GPa)
#
#
# Indices 1 2 3 4 5 6 
#
# 1 94.9534 22.3267 42.5807 1.8959 19.3404 13.4296
# 2 22.3267 119.8374 7.1395 6.6982 -2.5546 20.9494
# 3 42.5807 7.1395 86.4128 7.8298 6.7712 10.6033
# 4 1.8959 6.6982 7.8298 36.3918 -4.3671 1.9284
# 5 19.3404 -2.5546 6.7712 -4.3671 42.5188 3.1461
# 6 13.4296 20.9494 10.6033 1.9284 3.1461 38.9434
#
#
#
# Elastic Compliance Matrix: (Units=1/GPa)
#
#
# Indices 1 2 3 4 5 6 
#
# 1 0.015618 -0.002340 -0.006856 0.000471 -0.005971 -0.001801
# 2 -0.002340 0.009664 0.000926 -0.001402 0.001702 -0.004712
# 3 -0.006856 0.000926 0.015366 -0.002931 0.000591 -0.002220
# 4 0.000471 -0.001402 -0.002931 0.028735 0.003141 -0.000287
# 5 -0.005971 0.001702 0.000591 0.003141 0.026664 -0.001327
# 6 -0.001801 -0.004712 -0.002220 -0.000287 -0.001327 0.029560
#
#
# Mechanical properties :
#
#
# Convention : Reuss Voigt Hill
#
# Bulk Modulus (GPa) = 41.47988 49.47748 45.47868
# Shear Modulus (GPa) = 33.29282 38.84791 36.07037
#
# Velocity S-wave (km/s) = 3.67044 3.96485 3.82048
# Velocity P-wave (km/s) = 5.89474 6.40168 6.15343
#
# Compressibility (1/GPa) = 0.02410807
#
# Stress axis : x y z
#
# Youngs Moduli (GPa) = 64.02920 103.47906 65.07848
#
# Poissons Ratio (x) = 0.24214 0.44620
# Poissons Ratio (y) = 0.14983 -0.06029
# Poissons Ratio (z) = 0.43900 -0.09587
#
# Static dielectric constant tensor:
#      x y z
#    x 2.134430 -0.000880 0.046420 
#    y -0.000880 1.970510 -0.011790 
#    z 0.046420 -0.011790 1.965840 
# 
# From -- ./inp_files/183930.got.cif
#   From: 2010.05.17/outbox.cif.g08.bks.cpg/sg2_92_cif.got.tgz:183930.got - 2010.06.03 11:33:40.
