data_PCOD9112048
_publ_section_title
;
Structure prediction by ZEFSAII (Michael W. Deem and Ramdas Pophale) SiO2 
 PCOD9112048
Probable space group: P -1
;
_chemical_formula_sum "Si O2"
_cell_formula_units_Z 16
_cell_length_a 9.331474
_cell_length_b 5.172746
_cell_length_c 18.030554
_cell_angle_alpha 90.411895
_cell_angle_beta 46.647766
_cell_angle_gamma 84.155146
_cell_volume 625.977018
_symmetry_space_group_name_H-M "P -1"
_symmetry_group_IT_number 2
_symmetry_cell_setting 'triclinic'
loop_
_space_group_symop_operation_xyz
x,y,z
-x,-y,-z
loop_
_atom_site_type_symbol
_atom_site_label
_atom_site_fract_x
_atom_site_fract_y
_atom_site_fract_z
Si Si1 0.758588 0.069848 0.510308
Si Si2 0.651563 0.030033 0.700066
Si Si3 0.919845 0.839701 0.723857
Si Si4 0.498751 0.457875 0.849897
Si Si5 0.893303 0.650222 0.968116
Si Si6 0.159248 0.622362 0.166102
Si Si7 0.481094 0.390199 0.423989
Si Si8 0.280538 0.816284 0.800112
O O1 0.919459 0.080299 0.389937
O O2 0.666429 0.370261 0.558788
O O3 0.796593 0.958461 0.579625
O O4 0.607768 0.878400 0.535537
O O5 0.426363 0.036131 0.749707
O O6 0.724444 0.839571 0.741666
O O7 0.660058 0.303531 0.736502
O O8 0.972986 0.554496 0.739244
O O9 0.879521 0.072381 0.798779
O O10 0.618481 0.491067 0.882898
O O11 0.366755 0.661524 0.843397
O O12 0.337366 0.262660 0.929707
O O13 0.878942 0.452629 0.904409
O O14 0.043134 0.853833 0.893434
O O15 0.000000 0.500000 0.000000
O O16 0.500000 0.500000 0.500000
O O17 0.658599 0.328776 0.300197
#
# Coordination Sequence:
#
# PCOD9112048 Si02
#       8
#     2   2   2   2   2   2   2   2
#     4  11  23  40  66  97 135 177 225 269 328 394
#     4  10  21  41  64 100 132 179 219 276 333 396
#     4  11  24  41  72  99 138 169 228 273 334 393
#     4  10  20  44  68  93 132 171 227 276 340 387
#     4  10  24  45  69  98 131 176 226 278 336 409
#     4  11  24  47  68 103 133 175 220 284 334 396
#     4  11  24  41  62  95 138 184 219 269 332 398
#     4  10  21  41  64  94 137 172 223 275 333 396
#
# _framework density 25.560044000000001
#
# number of rings (size 3 to 8) (size 9 to 14) (size 15 to 20)
#    0.000    1.500    2.500    1.875    3.500    0.500 
#    9.000    5.625    0.000    0.000    0.000    0.000 
#    0.000    0.000    0.000    0.000    0.000    0.000 
#
# Total GULP energy -89235.211057 kJ/mol
# GULP energy per Si atom -5577.200691 kJ/mol
# Density = 2.550187 g / cm^3
# Si number density = 25.560044 Si / 1000 Ang^3
#
#
#
# Elastic Constant Matrix: (Units=GPa)
#
#
# Indices 1 2 3 4 5 6 
#
# 1 135.6407 19.6327 55.3305 -11.9253 26.4703 22.7838
# 2 19.6327 70.8766 9.3304 -4.0295 5.5868 11.5238
# 3 55.3305 9.3304 119.4734 -5.2150 16.0103 23.3845
# 4 -11.9253 -4.0295 -5.2150 24.6702 15.1936 5.0463
# 5 26.4703 5.5868 16.0103 15.1936 49.3094 -0.6821
# 6 22.7838 11.5238 23.3845 5.0463 -0.6821 33.0948
#
#
#
# Elastic Compliance Matrix: (Units=1/GPa)
#
#
# Indices 1 2 3 4 5 6 
#
# 1 0.013544 -0.000006 -0.002013 0.015339 -0.011488 -0.010476
# 2 -0.000006 0.015945 0.001146 0.007146 -0.004482 -0.007540
# 3 -0.002013 0.001146 0.011830 0.006542 -0.005023 -0.008473
# 4 0.015339 0.007146 0.006542 0.078818 -0.035875 -0.030428
# 5 -0.011488 -0.004482 -0.005023 -0.035875 0.039907 0.019311
# 6 -0.010476 -0.007540 -0.008473 -0.030428 0.019311 0.051078
#
#
# Mechanical properties :
#
#
# Convention : Reuss Voigt Hill
#
# Bulk Modulus (GPa) = 25.26937 54.95310 40.11123
# Shear Modulus (GPa) = 22.11803 37.52802 29.82302
#
# Velocity S-wave (km/s) = 2.94485 3.83591 3.41953
# Velocity P-wave (km/s) = 4.63364 6.41601 5.59624
#
# Compressibility (1/GPa) = 0.03957361
#
# Stress axis : x y z
#
# Youngs Moduli (GPa) = 73.83123 62.71454 84.53139
#
# Poissons Ratio (x) = 0.00037 0.17014
# Poissons Ratio (y) = 0.00044 -0.09685
# Poissons Ratio (z) = 0.14861 -0.07186
#
# Static dielectric constant tensor:
#      x y z
#    x 2.125140 -0.015010 -0.028630 
#    y -0.015010 2.034670 -0.104970 
#    z -0.028630 -0.104970 2.097490 
# 
# From -- ./inp_files/81528.got.cif
#   From: 2010.05.17/outbox.cif.g08.bks.cpg/sg2_41_cif.got.tgz:81528.got - 2010.06.03 11:33:40.
