data_PCOD9112817
_publ_section_title
;
Structure prediction by ZEFSAII (Michael W. Deem and Ramdas Pophale) SiO2 
 PCOD9112817
Probable space group: P 2
;
_chemical_formula_sum "Si O2"
_cell_formula_units_Z 15
_cell_length_a 8.879769
_cell_length_b 15.889033
_cell_length_c 5.371261
_cell_angle_alpha 90.000000
_cell_angle_beta 67.255992
_cell_angle_gamma 90.000000
_cell_volume 698.907997
_symmetry_space_group_name_H-M "P 2"
_symmetry_group_IT_number 3
_symmetry_cell_setting 'monoclinic'
loop_
_space_group_symop_operation_xyz
x,y,z
-x,y,-z
loop_
_atom_site_type_symbol
_atom_site_label
_atom_site_fract_x
_atom_site_fract_y
_atom_site_fract_z
Si Si1 0.894244 0.212740 0.814929
Si Si2 0.107262 0.408203 0.184325
Si Si3 0.688878 0.560760 0.086808
Si Si4 0.500000 0.947874 0.500000
Si Si5 0.099930 0.906453 0.189920
Si Si6 0.325156 0.056689 0.979870
Si Si7 0.685217 0.627263 0.591822
Si Si8 0.357091 0.801313 0.249652
O O1 0.844822 0.310197 0.815114
O O2 0.000000 0.190064 0.500000
O O3 0.744165 0.149815 0.955459
O O4 0.000000 0.205986 0.000000
O O5 0.000000 0.430427 0.500000
O O6 0.263646 0.467708 0.036450
O O7 0.000000 0.413989 0.000000
O O8 0.762938 0.579089 0.310668
O O9 0.497782 0.586636 0.251775
O O10 0.760989 0.616371 0.816286
O O11 0.422061 0.884118 0.349351
O O12 0.362071 0.010412 0.693957
O O13 0.234925 0.834236 0.117609
O O14 0.000000 0.888107 0.500000
O O15 0.000000 0.906622 0.000000
O O16 0.186720 0.995906 0.176351
O O17 0.500000 0.051388 0.000000
O O18 0.690992 0.726981 0.533992
O O19 0.500000 0.759846 0.000000
#
# Coordination Sequence:
#
# PCOD9112817 Si02
#       8
#     2   2   2   1   2   2   2   2
#     4  10  24  45  69  97 136 179 216 267 335 403
#     4  10  21  41  68  94 130 175 210 255 330 408
#     4  10  19  38  61  98 120 160 220 263 324 398
#     4  12  22  40  68  98 134 172 236 270 344 368
#     4  12  26  43  64  96 133 179 228 276 336 395
#     4  12  25  42  66 101 131 176 225 282 328 397
#     4  10  22  37  66  92 125 167 213 274 337 376
#     4  12  23  43  69  94 133 184 228 284 330 404
#
# _framework density 21.462050000000001
#
# number of rings (size 3 to 8) (size 9 to 14) (size 15 to 20)
#    0.000    1.067    4.000    3.200    1.867    0.000 
#    2.400    4.000    0.000    1.600    0.000    0.000 
#    0.000    0.000    0.000    0.000    0.000    0.000 
#
# Total GULP energy -83648.909593 kJ/mol
# GULP energy per Si atom -5576.593973 kJ/mol
# Density = 2.141320 g / cm^3
# Si number density = 21.462050 Si / 1000 Ang^3
#
#
#
# Elastic Constant Matrix: (Units=GPa)
#
#
# Indices 1 2 3 4 5 6 
#
# 1 82.5823 45.3595 23.5680 0.0000 15.1366 0.0000
# 2 45.3595 142.6310 47.8077 0.0000 -8.7136 0.0000
# 3 23.5680 47.8077 134.4922 0.0000 25.3484 0.0000
# 4 0.0000 0.0000 0.0000 28.1283 0.0000 19.6925
# 5 15.1366 -8.7136 25.3484 0.0000 23.9232 0.0000
# 6 0.0000 0.0000 0.0000 19.6925 0.0000 -338.9593
#
#
#
# Elastic Compliance Matrix: (Units=1/GPa)
#
#
# Indices 1 2 3 4 5 6 
#
# 1 0.019100 -0.008198 0.003008 0.000000 -0.018258 0.000000
# 2 -0.008198 0.012674 -0.006143 0.000000 0.016312 0.000000
# 3 0.003008 -0.006143 0.012336 0.000000 -0.017212 0.000000
# 4 0.000000 0.000000 0.000000 0.034162 0.000000 0.001985
# 5 -0.018258 0.016312 -0.017212 0.000000 0.077531 0.000000
# 6 0.000000 0.000000 0.000000 0.001985 0.000000 -0.002835
#
#
# Mechanical properties :
#
#
# Convention : Reuss Voigt Hill
#
# Bulk Modulus (GPa) = 46.63219 65.90842 56.27031
# Shear Modulus (GPa) = 27.35511 -41.18352 -6.91420
#
# Velocity S-wave (km/s) = 3.57400 -4.38528 -1.79683
# Velocity P-wave (km/s) = 6.22946 2.26607 4.68729
#
# Compressibility (1/GPa) = 0.02144441
#
# Stress axis : x y z
#
# Youngs Moduli (GPa) = 52.35587 78.90296 81.06497
#
# Poissons Ratio (x) = 0.64685 -0.24387
# Poissons Ratio (y) = 0.42921 0.49798
# Poissons Ratio (z) = -0.15751 0.48470
#
# Static dielectric constant tensor:
#      x y z
#    x 1.908230 0.000000 0.083520 
#    y 0.000000 1.761530 0.000000 
#    z 0.083520 0.000000 2.212850 
# 
# From -- ./inp_files/1572.got.cif
#   From: 2010.05.17/outbox.cif.g08.bks.cpg/sg3_1_cif.got.tgz:1572.got - 2010.06.03 18:33:08.
