data_PCOD9112987
_publ_section_title
;
Structure prediction by ZEFSAII (Michael W. Deem and Ramdas Pophale) SiO2 
 PCOD9112987
Probable space group: P 2
;
_chemical_formula_sum "Si O2"
_cell_formula_units_Z 14
_cell_length_a 13.948883
_cell_length_b 8.768220
_cell_length_c 10.688625
_cell_angle_alpha 90.000000
_cell_angle_beta 32.081374
_cell_angle_gamma 90.000000
_cell_volume 694.333235
_symmetry_space_group_name_H-M "P 2"
_symmetry_group_IT_number 3
_symmetry_cell_setting 'monoclinic'
loop_
_space_group_symop_operation_xyz
x,y,z
-x,y,-z
loop_
_atom_site_type_symbol
_atom_site_label
_atom_site_fract_x
_atom_site_fract_y
_atom_site_fract_z
Si Si1 0.300413 0.205720 0.703896
Si Si2 0.712595 0.132548 0.632390
Si Si3 0.949080 0.986352 0.875527
Si Si4 0.983169 0.632388 0.164374
Si Si5 0.741887 0.417033 0.007819
Si Si6 0.333636 0.428687 0.427281
Si Si7 0.284843 0.106838 0.086596
O O1 0.500000 0.136792 0.500000
O O2 0.278451 0.326644 0.839396
O O3 0.297807 0.309978 0.582748
O O4 0.155384 0.077105 0.898810
O O5 0.721999 0.317293 0.624263
O O6 0.746302 0.070407 0.734198
O O7 0.862457 0.063684 0.374945
O O8 0.502978 0.102786 0.826259
O O9 0.817470 0.003574 0.900380
O O10 0.983300 0.811442 0.868076
O O11 0.787192 0.575887 0.423125
O O12 0.118209 0.547285 0.111048
O O13 0.000000 0.582169 0.000000
O O14 0.542595 0.472265 0.192211
O O15 0.785457 0.279294 0.864525
#
# Coordination Sequence:
#
# PCOD9112987 Si02
#       7
#     2   2   2   2   2   2   2
#     4   9  18  37  60  83 112 153 197 246 290 333
#     4  10  21  38  70  89 111 152 204 253 284 347
#     4  11  24  37  57  89 124 159 191 241 295 353
#     4  12  25  37  53  88 127 160 190 229 296 365
#     4   9  19  39  62  83 115 153 192 248 293 337
#     4  10  20  37  62  87 114 151 201 243 289 343
#     4   9  20  43  64  91 112 148 205 252 297 330
#
# _framework density 20.163229000000001
#
# number of rings (size 3 to 8) (size 9 to 14) (size 15 to 20)
#    0.000    2.000    1.429    3.000    2.000    1.143 
#    2.571    2.857    0.000    3.429    0.000    0.000 
#    0.000    0.000    0.000    0.000    0.000    0.000 
#
# Total GULP energy -78093.413164 kJ/mol
# GULP energy per Si atom -5578.100940 kJ/mol
# Density = 2.011734 g / cm^3
# Si number density = 20.163229 Si / 1000 Ang^3
#
#
#
# Elastic Constant Matrix: (Units=GPa)
#
#
# Indices 1 2 3 4 5 6 
#
# 1 83.9162 17.8493 12.6914 0.0000 -6.7182 0.0000
# 2 17.8493 54.1003 29.4928 0.0000 -26.2060 0.0000
# 3 12.6914 29.4928 72.4888 0.0000 -14.8576 0.0000
# 4 0.0000 0.0000 0.0000 -2.6893 0.0000 6.0767
# 5 -6.7182 -26.2060 -14.8576 0.0000 29.1792 0.0000
# 6 0.0000 0.0000 0.0000 6.0767 0.0000 16.1544
#
#
#
# Elastic Compliance Matrix: (Units=1/GPa)
#
#
# Indices 1 2 3 4 5 6 
#
# 1 0.012880 -0.004614 -0.000692 0.000000 -0.001530 0.000000
# 2 -0.004614 0.039321 -0.009122 0.000000 0.029607 0.000000
# 3 -0.000692 -0.009122 0.017770 0.000000 0.000697 0.000000
# 4 0.000000 0.000000 0.000000 -0.200998 0.000000 0.075608
# 5 -0.001530 0.029607 0.000697 0.000000 0.060864 0.000000
# 6 0.000000 0.000000 0.000000 0.075608 0.000000 0.033462
#
#
# Mechanical properties :
#
#
# Convention : Reuss Voigt Hill
#
# Bulk Modulus (GPa) = 24.32087 36.73027 30.52557
# Shear Modulus (GPa) = 853.31413 18.56028 435.93720
#
# Velocity S-wave (km/s) = 20.59422 3.03727 14.71983
# Velocity P-wave (km/s) = 24.03298 5.52775 17.43760
#
# Compressibility (1/GPa) = 0.04111695
#
# Stress axis : x y z
#
# Youngs Moduli (GPa) = 77.63912 25.43174 56.27313
#
# Poissons Ratio (x) = 0.11734 0.03892
# Poissons Ratio (y) = 0.35821 0.51332
# Poissons Ratio (z) = 0.05369 0.23199
#
# Static dielectric constant tensor:
#      x y z
#    x 1.800530 0.000000 -0.004940 
#    y 0.000000 1.670320 0.000000 
#    z -0.004940 0.000000 1.760150 
# 
# From -- ./inp_files/12181.got.cif
#   From: 2010.05.17/outbox.cif.g08.bks.cpg/sg3_7_cif.got.tgz:12181.got - 2010.06.03 18:33:08.
