data_PCOD9112582
_publ_section_title
;
Structure prediction by ZEFSAII (Michael W. Deem and Ramdas Pophale) SiO2 
 PCOD9112582
Probable space group: P 2
;
_chemical_formula_sum "Si O2"
_cell_formula_units_Z 15
_cell_length_a 8.204965
_cell_length_b 9.182603
_cell_length_c 14.202704
_cell_angle_alpha 90.000000
_cell_angle_beta 50.145551
_cell_angle_gamma 90.000000
_cell_volume 821.468476
_symmetry_space_group_name_H-M "P 2"
_symmetry_group_IT_number 3
_symmetry_cell_setting 'monoclinic'
loop_
_space_group_symop_operation_xyz
x,y,z
-x,y,-z
loop_
_atom_site_type_symbol
_atom_site_label
_atom_site_fract_x
_atom_site_fract_y
_atom_site_fract_z
Si Si1 0.458128 0.202900 0.709734
Si Si2 0.039737 0.183650 0.746014
Si Si3 0.265397 0.698712 0.549985
Si Si4 0.768738 0.934523 0.600143
Si Si5 0.216054 0.153394 0.978898
Si Si6 0.500000 0.937684 0.000000
Si Si7 0.891235 0.857461 0.752737
Si Si8 0.834955 0.377965 0.478112
O O1 0.267218 0.165093 0.710509
O O2 0.350242 0.241540 0.850501
O O3 0.611078 0.316327 0.600320
O O4 0.596030 0.058118 0.674707
O O5 0.077799 0.292452 0.645732
O O6 0.959071 0.026851 0.739567
O O7 0.880662 0.227670 0.890717
O O8 0.500000 0.675720 0.500000
O O9 0.274362 0.828582 0.470574
O O10 0.186135 0.547680 0.537290
O O11 0.094707 0.756238 0.689285
O O12 0.000000 0.006287 0.500000
O O13 0.800830 0.839220 0.681249
O O14 0.384834 0.037203 0.961607
O O15 0.000000 0.101262 0.000000
O O16 0.692192 0.839562 0.893115
O O17 0.000000 0.357134 0.500000
#
# Coordination Sequence:
#
# PCOD9112582 Si02
#       8
#     2   2   2   2   2   1   2   2
#     4  11  19  35  59  87 115 151 188 240 287 340
#     4  10  21  36  57  87 118 148 191 236 287 345
#     4  11  23  39  57  80 114 153 191 242 294 346
#     4  10  19  32  54  83 111 141 181 234 282 334
#     4   9  20  34  57  90 123 153 191 240 295 349
#     4  10  18  34  62  84 122 152 194 240 290 352
#     4  10  19  35  58  86 114 148 189 232 288 342
#     4  12  24  37  57  84 114 151 197 240 292 351
#
# _framework density 18.259982999999998
#
# number of rings (size 3 to 8) (size 9 to 14) (size 15 to 20)
#    0.000    1.600    1.333    6.000    1.867    0.000 
#    0.000    0.000    5.867    0.000    0.000    0.000 
#    0.000    0.000    0.000    0.000    0.000    0.000 
#
# Total GULP energy -83569.898968 kJ/mol
# GULP energy per Si atom -5571.326598 kJ/mol
# Density = 1.821842 g / cm^3
# Si number density = 18.259983 Si / 1000 Ang^3
#
#
#
# Elastic Constant Matrix: (Units=GPa)
#
#
# Indices 1 2 3 4 5 6 
#
# 1 74.5581 1.6209 32.2236 0.0000 1.3769 0.0000
# 2 1.6209 42.6515 33.1691 0.0000 -9.5914 0.0000
# 3 32.2236 33.1691 144.9017 0.0000 -7.9139 0.0000
# 4 0.0000 0.0000 0.0000 8.6085 0.0000 -1.7587
# 5 1.3769 -9.5914 -7.9139 0.0000 28.8006 0.0000
# 6 0.0000 0.0000 0.0000 -1.7587 0.0000 23.4585
#
#
#
# Elastic Compliance Matrix: (Units=1/GPa)
#
#
# Indices 1 2 3 4 5 6 
#
# 1 0.015079 0.002242 -0.003924 0.000000 -0.001053 0.000000
# 2 0.002242 0.030705 -0.007081 0.000000 0.008173 0.000000
# 3 -0.003924 -0.007081 0.009417 0.000000 0.000417 0.000000
# 4 0.000000 0.000000 0.000000 0.117971 0.000000 0.008844
# 5 -0.001053 0.008173 0.000417 0.000000 0.037608 0.000000
# 6 0.000000 0.000000 0.000000 0.008844 0.000000 0.043292
#
#
# Mechanical properties :
#
#
# Convention : Reuss Voigt Hill
#
# Bulk Modulus (GPa) = 26.54231 44.01541 35.27886
# Shear Modulus (GPa) = 17.59588 25.18003 21.38795
#
# Velocity S-wave (km/s) = 3.10761 3.71748 3.42614
# Velocity P-wave (km/s) = 5.23867 6.52560 5.91722
#
# Compressibility (1/GPa) = 0.03767570
#
# Stress axis : x y z
#
# Youngs Moduli (GPa) = 66.31752 32.56783 106.18537
#
# Poissons Ratio (x) = -0.07301 0.41667
# Poissons Ratio (y) = -0.14867 0.75188
# Poissons Ratio (z) = 0.26023 0.23061
#
# Static dielectric constant tensor:
#      x y z
#    x 1.637520 0.000000 -0.002180 
#    y 0.000000 1.580240 0.000000 
#    z -0.002180 0.000000 1.697290 
# 
# From -- ./inp_files/10448.got.cif
#   From: 2010.05.17/outbox.cif.g08.bks.cpg/sg3_6_cif.got.tgz:10448.got - 2010.06.03 18:33:08.
