data_PCOD9112733
_publ_section_title
;
Structure prediction by ZEFSAII (Michael W. Deem and Ramdas Pophale) SiO2 
 PCOD9112733
Probable space group: P 2
;
_chemical_formula_sum "Si O2"
_cell_formula_units_Z 16
_cell_length_a 7.556166
_cell_length_b 12.229057
_cell_length_c 8.659767
_cell_angle_alpha 90.000000
_cell_angle_beta 62.544790
_cell_angle_gamma 90.000000
_cell_volume 710.078161
_symmetry_space_group_name_H-M "P 2"
_symmetry_group_IT_number 3
_symmetry_cell_setting 'monoclinic'
loop_
_space_group_symop_operation_xyz
x,y,z
-x,y,-z
loop_
_atom_site_type_symbol
_atom_site_label
_atom_site_fract_x
_atom_site_fract_y
_atom_site_fract_z
Si Si1 0.692637 0.984860 0.022518
Si Si2 0.191730 0.615797 0.308162
Si Si3 0.224964 0.238605 0.976063
Si Si4 0.323984 0.410901 0.694795
Si Si5 0.669398 0.819644 0.302768
Si Si6 0.932525 0.848560 0.687003
Si Si7 0.903534 0.376502 0.689154
Si Si8 0.236856 0.618966 0.929741
O O1 0.684835 0.927900 0.192657
O O2 0.709944 0.114360 0.031484
O O3 0.500000 0.957556 0.000000
O O4 0.861399 0.931409 0.846920
O O5 0.219148 0.751283 0.299336
O O6 0.220368 0.481876 0.321989
O O7 0.000000 0.620091 0.500000
O O8 0.250681 0.607442 0.104986
O O9 0.343104 0.306483 0.798970
O O10 0.218467 0.301804 0.142572
O O11 0.000000 0.237322 0.000000
O O12 0.500000 0.414613 0.500000
O O13 0.321148 0.516532 0.804358
O O14 0.101984 0.413377 0.706141
O O15 0.500000 0.824184 0.500000
O O16 0.651888 0.721819 0.187580
O O17 0.874295 0.794410 0.311019
O O18 0.000000 0.904060 0.500000
O O19 0.000000 0.318946 0.500000
O O20 0.000000 0.629491 0.000000
#
# Coordination Sequence:
#
# PCOD9112733 Si02
#       8
#     2   2   2   2   2   2   2   2
#     4  12  26  44  65  91 124 165 218 272 320 377
#     4  10  19  34  65  95 127 163 204 248 309 379
#     4  10  22  42  65  86 117 169 215 256 316 376
#     4  11  22  37  62  95 127 162 204 255 309 372
#     4  12  24  40  65  97 130 170 211 258 316 378
#     4  11  22  41  67  94 130 169 208 260 318 378
#     4  10  20  38  65  90 124 163 207 248 309 379
#     4  12  18  38  65  93 129 169 204 247 310 379
#
# _framework density 22.532729
#
# number of rings (size 3 to 8) (size 9 to 14) (size 15 to 20)
#    0.000    1.000    5.000    2.625    0.000    2.000 
#    0.000    3.750    0.000    0.000    0.000    0.000 
#    0.000    0.000    0.000    0.000    0.000    0.000 
#
# Total GULP energy -89136.594869 kJ/mol
# GULP energy per Si atom -5571.037179 kJ/mol
# Density = 2.248144 g / cm^3
# Si number density = 22.532729 Si / 1000 Ang^3
#
#
#
# Elastic Constant Matrix: (Units=GPa)
#
#
# Indices 1 2 3 4 5 6 
#
# 1 71.2303 5.1238 24.5953 0.0000 -7.1167 0.0000
# 2 5.1238 142.9338 80.0370 0.0000 -1.4002 0.0000
# 3 24.5953 80.0370 229.4082 0.0000 5.8515 0.0000
# 4 0.0000 0.0000 0.0000 45.4716 0.0000 -28.2330
# 5 -7.1167 -1.4002 5.8515 0.0000 28.9605 0.0000
# 6 0.0000 0.0000 0.0000 -28.2330 0.0000 36.9677
#
#
#
# Elastic Compliance Matrix: (Units=1/GPa)
#
#
# Indices 1 2 3 4 5 6 
#
# 1 0.015073 0.000576 -0.001922 0.000000 0.004120 0.000000
# 2 0.000576 0.008748 -0.003144 0.000000 0.001200 0.000000
# 3 -0.001922 -0.003144 0.005708 0.000000 -0.001778 0.000000
# 4 0.000000 0.000000 0.000000 0.041824 0.000000 0.031942
# 5 0.004120 0.001200 -0.001778 0.000000 0.035959 0.000000
# 6 0.000000 0.000000 0.000000 0.031942 0.000000 0.051445
#
#
# Mechanical properties :
#
#
# Convention : Reuss Voigt Hill
#
# Bulk Modulus (GPa) = 48.66667 73.67606 61.17137
# Shear Modulus (GPa) = 28.63893 44.53438 36.58666
#
# Velocity S-wave (km/s) = 3.56897 4.45053 4.03390
# Velocity P-wave (km/s) = 6.21518 7.69272 6.99308
#
# Compressibility (1/GPa) = 0.02054794
#
# Stress axis : x y z
#
# Youngs Moduli (GPa) = 66.34437 114.31030 175.20728
#
# Poissons Ratio (x) = -0.06588 0.33678
# Poissons Ratio (y) = -0.03824 0.55094
# Poissons Ratio (z) = 0.12753 0.35945
#
# Static dielectric constant tensor:
#      x y z
#    x 1.987960 0.000000 -0.061940 
#    y 0.000000 1.813470 0.000000 
#    z -0.061940 0.000000 1.807930 
# 
# From -- ./inp_files/5973.got.cif
#   From: 2010.05.17/outbox.cif.g08.bks.cpg/sg3_3_cif.got.tgz:5973.got - 2010.06.03 18:33:08.
