data_PCOD9112772
_publ_section_title
;
Structure prediction by ZEFSAII (Michael W. Deem and Ramdas Pophale) SiO2 
 PCOD9112772
Probable space group: P 2
;
_chemical_formula_sum "Si O2"
_cell_formula_units_Z 16
_cell_length_a 8.518349
_cell_length_b 18.369708
_cell_length_c 9.517698
_cell_angle_alpha 90.000000
_cell_angle_beta 31.882141
_cell_angle_gamma 90.000000
_cell_volume 786.622498
_symmetry_space_group_name_H-M "P 2"
_symmetry_group_IT_number 3
_symmetry_cell_setting 'monoclinic'
loop_
_space_group_symop_operation_xyz
x,y,z
-x,y,-z
loop_
_atom_site_type_symbol
_atom_site_label
_atom_site_fract_x
_atom_site_fract_y
_atom_site_fract_z
Si Si1 0.614913 0.158570 0.072552
Si Si2 0.356835 0.325455 0.952918
Si Si3 0.402204 0.575767 0.415454
Si Si4 0.237910 0.084199 0.589563
Si Si5 0.770862 0.644346 0.897442
Si Si6 0.851498 0.418252 0.457743
Si Si7 0.829435 0.810256 0.778368
Si Si8 0.830594 0.919795 0.277650
O O1 0.911385 0.112510 0.873335
O O2 0.500000 0.155858 0.000000
O O3 0.703314 0.242058 0.039085
O O4 0.349661 0.124389 0.365112
O O5 0.605608 0.356456 0.662331
O O6 0.500000 0.323033 0.000000
O O7 0.094569 0.384434 0.167981
O O8 0.500000 0.588507 0.500000
O O9 0.310182 0.491945 0.463785
O O10 0.098500 0.618121 0.607537
O O11 0.669848 0.604945 0.116343
O O12 0.500000 0.102009 0.500000
O O13 0.212648 0.996775 0.609864
O O14 0.785468 0.731684 0.885354
O O15 0.500000 0.623368 0.000000
O O16 0.000000 0.430073 0.500000
O O17 0.000000 0.800778 0.500000
O O18 0.998749 0.864057 0.752982
O O19 0.500000 0.839869 0.000000
O O20 0.500000 0.890849 0.500000
O O21 0.000000 0.931148 0.000000
#
# Coordination Sequence:
#
# PCOD9112772 Si02
#       8
#     2   2   2   2   2   2   2   2
#     4  11  22  39  64  93 120 157 210 264 306 359
#     4   9  19  35  58  86 116 152 203 254 303 363
#     4  12  25  40  61  94 127 158 203 260 306 359
#     4  11  23  41  60  88 127 167 204 247 308 378
#     4  11  23  43  65  89 122 165 205 246 307 378
#     4  10  19  36  60  84 115 161 203 245 304 373
#     4  11  24  43  67  97 126 157 207 269 312 360
#     4  11  24  43  65  91 127 171 209 251 310 382
#
# _framework density 20.340125
#
# number of rings (size 3 to 8) (size 9 to 14) (size 15 to 20)
#    0.000    1.250    0.000    7.500    0.000    6.000 
#    0.000    3.750    0.000    0.000    0.000    0.000 
#    0.000    0.000    0.000    0.000    0.000    0.000 
#
# Total GULP energy -89399.086471 kJ/mol
# GULP energy per Si atom -5587.442904 kJ/mol
# Density = 2.029383 g / cm^3
# Si number density = 20.340125 Si / 1000 Ang^3
#
#
#
# Elastic Constant Matrix: (Units=GPa)
#
#
# Indices 1 2 3 4 5 6 
#
# 1 47.8270 36.5524 -7.5471 0.0000 -10.9942 0.0000
# 2 36.5524 79.9954 0.4405 0.0000 1.0064 0.0000
# 3 -7.5471 0.4405 71.4493 0.0000 -6.5051 0.0000
# 4 0.0000 0.0000 0.0000 137.7252 0.0000 -80.2747
# 5 -10.9942 1.0064 -6.5051 0.0000 41.6457 0.0000
# 6 0.0000 0.0000 0.0000 -80.2747 0.0000 54.1390
#
#
#
# Elastic Compliance Matrix: (Units=1/GPa)
#
#
# Indices 1 2 3 4 5 6 
#
# 1 0.037479 -0.017293 0.005076 0.000000 0.011105 0.000000
# 2 -0.017293 0.020484 -0.002448 0.000000 -0.005443 0.000000
# 3 0.005076 -0.002448 0.014886 0.000000 0.003725 0.000000
# 4 0.000000 0.000000 0.000000 0.053482 0.000000 0.079301
# 5 0.011105 -0.005443 0.003725 0.000000 0.027657 0.000000
# 6 0.000000 0.000000 0.000000 0.079301 0.000000 0.136055
#
#
# Mechanical properties :
#
#
# Convention : Reuss Voigt Hill
#
# Bulk Modulus (GPa) = 22.97804 28.68482 25.83143
# Shear Modulus (GPa) = 14.97544 58.02368 36.49956
#
# Velocity S-wave (km/s) = 2.71634 5.34683 4.24070
# Velocity P-wave (km/s) = 4.59994 7.22851 6.05850
#
# Compressibility (1/GPa) = 0.04351981
#
# Stress axis : x y z
#
# Youngs Moduli (GPa) = 26.68169 48.81767 67.17560
#
# Poissons Ratio (x) = 0.84420 -0.34102
# Poissons Ratio (y) = 0.46141 0.16448
# Poissons Ratio (z) = -0.13545 0.11953
#
# Static dielectric constant tensor:
#      x y z
#    x 1.585030 0.000000 -0.065000 
#    y 0.000000 1.704160 0.000000 
#    z -0.065000 0.000000 1.661810 
# 
# From -- ./inp_files/6192.got.cif
#   From: 2010.05.17/outbox.cif.g08.bks.cpg/sg3_4_cif.got.tgz:6192.got - 2010.06.03 18:33:08.
