data_PCOD9112057
_publ_section_title
;
Structure prediction by ZEFSAII (Michael W. Deem and Ramdas Pophale) SiO2 
 PCOD9112057
Probable space group: P -1
;
_chemical_formula_sum "Si O2"
_cell_formula_units_Z 16
_cell_length_a 12.069736
_cell_length_b 10.104397
_cell_length_c 15.438512
_cell_angle_alpha 154.210378
_cell_angle_beta 122.249374
_cell_angle_gamma 55.764122
_cell_volume 675.309540
_symmetry_space_group_name_H-M "P -1"
_symmetry_group_IT_number 2
_symmetry_cell_setting 'triclinic'
loop_
_space_group_symop_operation_xyz
x,y,z
-x,-y,-z
loop_
_atom_site_type_symbol
_atom_site_label
_atom_site_fract_x
_atom_site_fract_y
_atom_site_fract_z
Si Si1 0.566198 0.813775 0.101114
Si Si2 0.304400 0.105171 0.229220
Si Si3 0.596031 0.223267 0.644210
Si Si4 0.943333 0.107931 0.945821
Si Si5 0.865352 0.823477 0.286107
Si Si6 0.862321 0.227562 0.690337
Si Si7 0.582797 0.382434 0.333069
Si Si8 0.211829 0.060303 0.964888
O O1 0.716041 0.821224 0.194743
O O2 0.448583 0.862971 0.151562
O O3 0.526422 0.124889 0.209128
O O4 0.572275 0.505424 0.867860
O O5 0.332018 0.435872 0.463860
O O6 0.252230 0.092157 0.101144
O O7 0.195006 0.002936 0.185101
O O8 0.756424 0.091102 0.622658
O O9 0.538573 0.370817 0.615332
O O10 0.500000 0.000000 0.500000
O O11 0.919154 0.481955 0.149488
O O12 0.065523 0.977738 0.855432
O O13 0.000000 0.000000 0.000000
O O14 0.976191 0.847463 0.272826
O O15 0.856592 0.093087 0.511975
O O16 0.806468 0.600520 0.887168
O O17 0.678836 0.196755 0.189660
#
# Coordination Sequence:
#
# PCOD9112057 Si02
#       8
#     2   2   2   2   2   2   2   2
#     4  12  24  43  68  98 136 175 228 274 336 400
#     4  11  23  39  68  99 135 171 225 276 332 400
#     4  12  27  42  66  99 137 176 221 281 338 392
#     4   9  22  41  66  97 135 181 218 275 340 395
#     4  10  23  40  71  97 128 177 225 278 329 401
#     4  10  21  44  66  94 131 171 228 269 334 398
#     4  12  24  44  69  97 131 181 225 275 335 398
#     4  10  20  44  68  95 132 179 227 272 329 404
#
# _framework density 23.692837999999998
#
# number of rings (size 3 to 8) (size 9 to 14) (size 15 to 20)
#    0.000    1.250    2.500    3.000    3.500    2.500 
#    0.000    0.000    0.000    0.000    0.000    0.000 
#    0.000    0.000    0.000    0.000    0.000    0.000 
#
# Total GULP energy -89525.546933 kJ/mol
# GULP energy per Si atom -5595.346683 kJ/mol
# Density = 2.363891 g / cm^3
# Si number density = 23.692838 Si / 1000 Ang^3
#
#
#
# Elastic Constant Matrix: (Units=GPa)
#
#
# Indices 1 2 3 4 5 6 
#
# 1 193.0530 25.9368 50.1682 -7.2323 33.6637 -40.0598
# 2 25.9368 59.8610 0.5186 -1.6694 6.0981 -11.5093
# 3 50.1682 0.5186 115.1018 -21.6352 8.2475 -9.9200
# 4 -7.2323 -1.6694 -21.6352 26.9874 -0.4832 4.3947
# 5 33.6637 6.0981 8.2475 -0.4832 41.1097 -4.6399
# 6 -40.0598 -11.5093 -9.9200 4.3947 -4.6399 34.5548
#
#
#
# Elastic Compliance Matrix: (Units=1/GPa)
#
#
# Indices 1 2 3 4 5 6 
#
# 1 0.008788 -0.001691 -0.003028 -0.001615 -0.005428 0.008232
# 2 -0.001691 0.018386 0.001289 0.001005 -0.001109 0.004257
# 3 -0.003028 0.001289 0.011560 0.008677 -0.000027 -0.000869
# 4 -0.001615 0.001005 0.008677 0.044406 -0.000584 -0.004772
# 5 -0.005428 -0.001109 -0.000027 -0.000584 0.028623 -0.002752
# 6 0.008232 0.004257 -0.000869 -0.004772 -0.002752 0.039889
#
#
# Mechanical properties :
#
#
# Convention : Reuss Voigt Hill
#
# Bulk Modulus (GPa) = 31.37178 57.91811 44.64494
# Shear Modulus (GPa) = 29.56192 39.95650 34.75921
#
# Velocity S-wave (km/s) = 3.53613 4.11108 3.83440
# Velocity P-wave (km/s) = 5.47194 6.85807 6.20384
#
# Compressibility (1/GPa) = 0.03187578
#
# Stress axis : x y z
#
# Youngs Moduli (GPa) = 113.78836 54.38815 86.50657
#
# Poissons Ratio (x) = 0.09196 0.26193
# Poissons Ratio (y) = 0.19240 -0.11154
# Poissons Ratio (z) = 0.34454 -0.07013
#
# Static dielectric constant tensor:
#      x y z
#    x 1.968480 -0.027740 0.026010 
#    y -0.027740 1.961830 -0.027490 
#    z 0.026010 -0.027490 1.838060 
# 
# From -- ./inp_files/282967.got.cif
#   From: 2010.05.17/outbox.cif.g08.bks.cpg/sg2_142_cif.got.tgz:282967.got - 2010.06.03 11:33:40.
