data_PCOD9112410
_publ_section_title
;
Structure prediction by ZEFSAII (Michael W. Deem and Ramdas Pophale) SiO2 
 PCOD9112410
Probable space group: P -1
;
_chemical_formula_sum "Si O2"
_cell_formula_units_Z 14
_cell_length_a 13.755859
_cell_length_b 8.937501
_cell_length_c 11.581972
_cell_angle_alpha 65.855602
_cell_angle_beta 32.998743
_cell_angle_gamma 58.937581
_cell_volume 663.437962
_symmetry_space_group_name_H-M "P -1"
_symmetry_group_IT_number 2
_symmetry_cell_setting 'triclinic'
loop_
_space_group_symop_operation_xyz
x,y,z
-x,-y,-z
loop_
_atom_site_type_symbol
_atom_site_label
_atom_site_fract_x
_atom_site_fract_y
_atom_site_fract_z
Si Si1 0.560284 0.215816 0.292604
Si Si2 0.012917 0.830548 0.470252
Si Si3 0.506010 0.563543 0.105073
Si Si4 0.032445 0.847732 0.187997
Si Si5 0.384517 0.918859 0.223057
Si Si6 0.057898 0.482949 0.311888
Si Si7 0.395886 0.925437 0.462630
O O1 0.486355 0.410132 0.252894
O O2 0.527231 0.203305 0.465614
O O3 0.468074 0.088380 0.361290
O O4 0.788991 0.144544 0.064240
O O5 0.112040 0.813400 0.252507
O O6 0.026055 0.666423 0.588989
O O7 0.791321 0.906227 0.624276
O O8 0.000000 0.000000 0.500000
O O9 0.362235 0.755641 0.224573
O O10 0.500000 0.500000 0.000000
O O11 0.715300 0.575654 0.909255
O O12 0.985035 0.671487 0.265426
O O13 0.835675 0.007706 0.322773
O O14 0.464420 0.848684 0.291747
O O15 0.500000 0.000000 0.000000
O O16 0.000000 0.500000 0.500000
#
# Coordination Sequence:
#
# PCOD9112410 Si02
#       7
#     2   2   2   2   2   2   2
#     4  10  22  38  62  85 113 161 200 237 287 357
#     4  10  21  32  52  85 117 151 184 236 302 342
#     4  11  23  35  59  86 113 152 195 242 294 350
#     4   9  20  36  58  82 116 151 195 240 280 347
#     4  11  22  36  57  82 118 152 186 252 290 337
#     4   9  19  34  50  80 114 148 182 235 289 337
#     4  10  22  40  59  85 118 155 202 238 293 344
#
# _framework density 21.102198000000001
#
# number of rings (size 3 to 8) (size 9 to 14) (size 15 to 20)
#    0.000    2.000    1.429    1.286   12.000    0.571 
#    0.000    0.000    0.000    0.000    0.000   15.000 
#    0.000    0.000    0.000    0.000    0.000    0.000 
#
# Total GULP energy -77998.082501 kJ/mol
# GULP energy per Si atom -5571.291607 kJ/mol
# Density = 2.105417 g / cm^3
# Si number density = 21.102198 Si / 1000 Ang^3
#
#
#
# Elastic Constant Matrix: (Units=GPa)
#
#
# Indices 1 2 3 4 5 6 
#
# 1 68.4107 21.1408 15.3430 -16.7365 23.8520 13.6790
# 2 21.1408 91.4192 16.6678 -13.5011 9.4545 8.8627
# 3 15.3430 16.6678 87.2579 -14.8269 12.8747 4.4272
# 4 -16.7365 -13.5011 -14.8269 38.7878 -2.2636 -7.0996
# 5 23.8520 9.4545 12.8747 -2.2636 34.4801 1.8588
# 6 13.6790 8.8627 4.4272 -7.0996 1.8588 27.3801
#
#
#
# Elastic Compliance Matrix: (Units=1/GPa)
#
#
# Indices 1 2 3 4 5 6 
#
# 1 0.023964 -0.002113 0.000069 0.007212 -0.015097 -0.008404
# 2 -0.002113 0.012342 -0.001294 0.002452 -0.001169 -0.002015
# 3 0.000069 -0.001294 0.013067 0.004264 -0.004274 -0.000333
# 4 0.007212 0.002452 0.004264 0.031704 -0.005361 0.003499
# 5 -0.015097 -0.001169 -0.004274 -0.005361 0.040770 0.004454
# 6 -0.008404 -0.002015 -0.000333 0.003499 0.004454 0.042032
#
#
# Mechanical properties :
#
#
# Convention : Reuss Voigt Hill
#
# Bulk Modulus (GPa) = 23.42130 39.26569 31.34350
# Shear Modulus (GPa) = 27.05801 33.05868 30.05835
#
# Velocity S-wave (km/s) = 3.58472 3.96232 3.77824
# Velocity P-wave (km/s) = 5.31570 6.29135 5.82399
#
# Compressibility (1/GPa) = 0.04269617
#
# Stress axis : x y z
#
# Youngs Moduli (GPa) = 41.73010 81.02615 76.52585
#
# Poissons Ratio (x) = 0.17122 -0.00531
# Poissons Ratio (y) = 0.08818 0.09906
# Poissons Ratio (z) = -0.00289 0.10489
#
# Static dielectric constant tensor:
#      x y z
#    x 1.998180 -0.054150 -0.086570 
#    y -0.054150 1.864560 0.044160 
#    z -0.086570 0.044160 1.812470 
# 
# From -- ./inp_files/170625.got.cif
#   From: 2010.05.17/outbox.cif.g08.bks.cpg/sg2_86_cif.got.tgz:170625.got - 2010.06.03 11:33:40.
