data_PCOD9112329
_publ_section_title
;
Structure prediction by ZEFSAII (Michael W. Deem and Ramdas Pophale) SiO2 
 PCOD9112329
Probable space group: P -1
;
_chemical_formula_sum "Si O2"
_cell_formula_units_Z 16
_cell_length_a 12.467983
_cell_length_b 19.406981
_cell_length_c 9.125630
_cell_angle_alpha 125.460909
_cell_angle_beta 83.197190
_cell_angle_gamma 142.701522
_cell_volume 783.565766
_symmetry_space_group_name_H-M "P -1"
_symmetry_group_IT_number 2
_symmetry_cell_setting 'triclinic'
loop_
_space_group_symop_operation_xyz
x,y,z
-x,-y,-z
loop_
_atom_site_type_symbol
_atom_site_label
_atom_site_fract_x
_atom_site_fract_y
_atom_site_fract_z
Si Si1 0.301854 0.850408 0.978145
Si Si2 0.972289 0.706751 0.638140
Si Si3 0.606832 0.944389 0.209907
Si Si4 0.678353 0.581732 0.955143
Si Si5 0.734079 0.030926 0.627244
Si Si6 0.130511 0.187328 0.058893
Si Si7 0.458910 0.271789 0.193349
Si Si8 0.605338 0.786790 0.543529
O O1 0.360713 0.804776 0.995767
O O2 0.319232 0.932087 0.203782
O O3 0.055817 0.701621 0.747492
O O4 0.500000 0.000000 0.000000
O O5 0.955567 0.789688 0.810896
O O6 0.709216 0.488838 0.363746
O O7 0.169831 0.850158 0.653777
O O8 0.624336 0.971206 0.412072
O O9 0.632952 0.864084 0.069600
O O10 0.967217 0.772356 0.188194
O O11 0.500000 0.500000 0.000000
O O12 0.692411 0.650929 0.895130
O O13 0.552269 0.404468 0.714175
O O14 0.605953 0.859265 0.509944
O O15 0.270379 0.216982 0.168225
O O16 0.897697 0.979987 0.762049
O O17 0.485818 0.251242 0.325995
#
# Coordination Sequence:
#
# PCOD9112329 Si02
#       8
#     2   2   2   2   2   2   2   2
#     4  10  20  46  71  91 125 172 225 271 325 373
#     4  11  22  43  66  97 126 175 218 273 319 381
#     4  11  26  39  68  96 131 170 215 275 325 383
#     4  11  26  39  64  97 138 180 206 265 330 389
#     4  11  24  44  64  98 135 167 218 267 331 386
#     4  11  23  39  64  98 133 171 220 262 321 390
#     4  12  24  38  67 100 129 171 223 263 322 391
#     4  11  22  41  65  92 132 175 215 261 319 392
#
# _framework density 20.419474999999998
#
# number of rings (size 3 to 8) (size 9 to 14) (size 15 to 20)
#    0.000    1.000    5.000    1.875    5.250    1.500 
#    0.000    2.500    0.000    7.500    0.000    0.000 
#    0.000    0.000    0.000    0.000    0.000    0.000 
#
# Total GULP energy -89313.098645 kJ/mol
# GULP energy per Si atom -5582.068665 kJ/mol
# Density = 2.037300 g / cm^3
# Si number density = 20.419475 Si / 1000 Ang^3
#
#
#
# Elastic Constant Matrix: (Units=GPa)
#
#
# Indices 1 2 3 4 5 6 
#
# 1 21.1768 91.1382 -25.0553 14.7207 10.8113 -0.4278
# 2 91.1382 24.6429 50.6971 -31.2240 -3.1488 -13.8149
# 3 -25.0553 50.6971 35.1620 17.6807 -0.7808 0.6933
# 4 14.7207 -31.2240 17.6807 38.7126 -2.2440 -5.1852
# 5 10.8113 -3.1488 -0.7808 -2.2440 19.6238 -9.8689
# 6 -0.4278 -13.8149 0.6933 -5.1852 -9.8689 32.7032
#
#
#
# Elastic Compliance Matrix: (Units=1/GPa)
#
#
# Indices 1 2 3 4 5 6 
#
# 1 0.005961 0.006171 -0.008265 0.007040 0.000215 0.004041
# 2 0.006171 0.001076 0.004871 -0.004154 -0.004271 -0.001516
# 3 -0.008265 0.004871 0.014977 0.001289 0.008255 0.004327
# 4 0.007040 -0.004154 0.001289 0.019209 -0.001904 0.000781
# 5 0.000215 -0.004271 0.008255 -0.001904 0.057908 0.015197
# 6 0.004041 -0.001516 0.004327 0.000781 0.015197 0.034609
#
#
# Mechanical properties :
#
#
# Convention : Reuss Voigt Hill
#
# Bulk Modulus (GPa) = 36.27488 34.94907 35.61198
# Shear Modulus (GPa) = 36.39686 15.82136 26.10911
#
# Velocity S-wave (km/s) = 4.22650 2.78657 3.57968
# Velocity P-wave (km/s) = 6.45144 5.24462 5.87908
#
# Compressibility (1/GPa) = 0.02756729
#
# Stress axis : x y z
#
# Youngs Moduli (GPa) = 167.76234 929.72071 66.76872
#
# Poissons Ratio (x) = -5.73775 0.55187
# Poissons Ratio (y) = -1.03534 -0.32522
# Poissons Ratio (z) = 1.38662 -4.52847
#
# Static dielectric constant tensor:
#      x y z
#    x 1.781480 0.010020 0.035260 
#    y 0.010020 1.718900 0.000260 
#    z 0.035260 0.000260 1.706520 
# 
# From -- ./inp_files/279858.got.cif
#   From: 2010.05.17/outbox.cif.g08.bks.cpg/sg2_140_cif.got.tgz:279858.got - 2010.06.03 11:33:40.
