data_PCOD9112054
_publ_section_title
;
Structure prediction by ZEFSAII (Michael W. Deem and Ramdas Pophale) SiO2 
 PCOD9112054
Probable space group: P -1
;
_chemical_formula_sum "Si O2"
_cell_formula_units_Z 16
_cell_length_a 19.414577
_cell_length_b 9.100277
_cell_length_c 5.362893
_cell_angle_alpha 48.580057
_cell_angle_beta 67.669294
_cell_angle_gamma 61.689542
_cell_volume 622.378899
_symmetry_space_group_name_H-M "P -1"
_symmetry_group_IT_number 2
_symmetry_cell_setting 'triclinic'
loop_
_space_group_symop_operation_xyz
x,y,z
-x,-y,-z
loop_
_atom_site_type_symbol
_atom_site_label
_atom_site_fract_x
_atom_site_fract_y
_atom_site_fract_z
Si Si1 0.017202 0.153521 0.605315
Si Si2 0.436762 0.644766 0.741799
Si Si3 0.883481 0.020439 0.751512
Si Si4 0.409993 0.351185 0.710149
Si Si5 0.675019 0.970711 0.673812
Si Si6 0.815111 0.565740 0.937388
Si Si7 0.722446 0.287330 0.601928
Si Si8 0.907913 0.567842 0.325717
O O1 0.994124 0.399319 0.381035
O O2 0.101579 0.053250 0.475287
O O3 0.943064 0.151353 0.532998
O O4 0.000000 0.000000 0.000000
O O5 0.401397 0.493012 0.808406
O O6 0.498114 0.713978 0.403809
O O7 0.371010 0.860733 0.659118
O O8 0.500000 0.500000 0.000000
O O9 0.797254 0.152593 0.809489
O O10 0.910410 0.800069 0.101554
O O11 0.351153 0.521728 0.412565
O O12 0.379363 0.159527 0.004148
O O13 0.754236 0.790877 0.698220
O O14 0.693002 0.117902 0.693509
O O15 0.869111 0.498588 0.696632
O O16 0.766268 0.407865 0.226805
O O17 0.855537 0.580212 0.133335
#
# Coordination Sequence:
#
# PCOD9112054 Si02
#       8
#     2   2   2   2   2   2   2   2
#     4  11  26  44  68  97 138 180 226 286 343 413
#     4  10  21  40  64  95 134 176 220 278 337 401
#     4  11  24  43  68 100 131 183 226 283 346 408
#     4   9  21  40  63  96 132 174 221 277 333 406
#     4  10  21  43  66  97 133 176 227 278 340 405
#     4  11  25  45  68 103 133 181 227 285 341 406
#     4  10  20  44  68  94 137 173 228 280 345 402
#     4  12  26  45  72  97 139 176 232 283 342 413
#
# _framework density 25.707811
#
# number of rings (size 3 to 8) (size 9 to 14) (size 15 to 20)
#    0.000    1.500    2.500    1.500    3.500    3.000 
#   15.750    0.000    0.000    0.000    0.000    0.000 
#    0.000    0.000    0.000    0.000    0.000    0.000 
#
# Total GULP energy -89343.354507 kJ/mol
# GULP energy per Si atom -5583.959657 kJ/mol
# Density = 2.564930 g / cm^3
# Si number density = 25.707811 Si / 1000 Ang^3
#
#
#
# Elastic Constant Matrix: (Units=GPa)
#
#
# Indices 1 2 3 4 5 6 
#
# 1 115.5730 32.4724 27.0094 -17.0357 -14.9889 2.8900
# 2 32.4724 84.5835 32.1133 -31.9474 10.9872 -20.8807
# 3 27.0094 32.1133 101.0808 -30.3242 1.3186 6.4659
# 4 -17.0357 -31.9474 -30.3242 61.1162 -7.7808 5.4411
# 5 -14.9889 10.9872 1.3186 -7.7808 54.1739 -25.6036
# 6 2.8900 -20.8807 6.4659 5.4411 -25.6036 39.5488
#
#
#
# Elastic Compliance Matrix: (Units=1/GPa)
#
#
# Indices 1 2 3 4 5 6 
#
# 1 0.010665 -0.003796 -0.001448 0.000768 0.003764 -0.000216
# 2 -0.003796 0.019950 -0.004134 0.006470 0.001356 0.011474
# 3 -0.001448 -0.004134 0.013322 0.004321 -0.002245 -0.006303
# 4 0.000768 0.006470 0.004321 0.022320 0.002599 0.001265
# 5 0.003764 0.001356 -0.002245 0.002599 0.028625 0.018982
# 6 -0.000216 0.011474 -0.006303 0.001265 0.018982 0.044504
#
#
# Mechanical properties :
#
#
# Convention : Reuss Voigt Hill
#
# Bulk Modulus (GPa) = 39.71681 53.82528 46.77105
# Shear Modulus (GPa) = 30.02338 44.94392 37.48365
#
# Velocity S-wave (km/s) = 3.42112 4.18576 3.82260
# Velocity P-wave (km/s) = 5.57568 6.65909 6.14133
#
# Compressibility (1/GPa) = 0.02517826
#
# Stress axis : x y z
#
# Youngs Moduli (GPa) = 93.76903 50.12541 75.06269
#
# Poissons Ratio (x) = 0.19030 0.10872
# Poissons Ratio (y) = 0.35599 0.31033
# Poissons Ratio (z) = 0.13582 0.20723
#
# Static dielectric constant tensor:
#      x y z
#    x 2.184940 0.060770 0.123260 
#    y 0.060770 2.175540 0.034990 
#    z 0.123260 0.034990 2.098610 
# 
# From -- ./inp_files/116523.got.cif
#   From: 2010.05.17/outbox.cif.g08.bks.cpg/sg2_59_cif.got.tgz:116523.got - 2010.06.03 11:33:40.
