data_PCOD9112510
_publ_section_title
;
Structure prediction by ZEFSAII (Michael W. Deem and Ramdas Pophale) SiO2 
 PCOD9112510
Probable space group: P 2
;
_chemical_formula_sum "Si O2"
_cell_formula_units_Z 16
_cell_length_a 21.402127
_cell_length_b 8.847724
_cell_length_c 9.256208
_cell_angle_alpha 90.000000
_cell_angle_beta 26.153033
_cell_angle_gamma 90.000000
_cell_volume 772.562866
_symmetry_space_group_name_H-M "P 2"
_symmetry_group_IT_number 3
_symmetry_cell_setting 'monoclinic'
loop_
_space_group_symop_operation_xyz
x,y,z
-x,y,-z
loop_
_atom_site_type_symbol
_atom_site_label
_atom_site_fract_x
_atom_site_fract_y
_atom_site_fract_z
Si Si1 0.571242 0.401760 0.713696
Si Si2 0.165291 0.636238 0.165630
Si Si3 0.142830 0.986015 0.275619
Si Si4 0.671438 0.633069 0.879988
Si Si5 0.461327 0.900755 0.245945
Si Si6 0.064875 0.814761 0.724028
Si Si7 0.388751 0.168272 0.613091
Si Si8 0.773161 0.653891 0.269434
O O1 0.635820 0.293241 0.458776
O O2 0.690844 0.519826 0.522483
O O3 0.500000 0.319728 0.000000
O O4 0.439500 0.501605 0.926947
O O5 0.168589 0.819472 0.155812
O O6 0.249875 0.593135 0.133406
O O7 0.000000 0.589286 0.500000
O O8 0.243271 0.590792 0.859523
O O9 0.113788 0.936412 0.502635
O O10 0.000000 0.045861 0.500000
O O11 0.263904 0.098382 0.971096
O O12 0.805326 0.701020 0.510567
O O13 0.572286 0.781579 0.083059
O O14 0.316234 0.806870 0.531148
O O15 0.447563 0.031840 0.391338
O O16 0.500000 0.943178 0.000000
O O17 0.063042 0.703800 0.060079
O O18 0.000000 0.891695 0.000000
O O19 0.500000 0.226220 0.500000
#
# Coordination Sequence:
#
# PCOD9112510 Si02
#       8
#     2   2   2   2   2   2   2   2
#     4  11  26  44  58  86 129 168 207 253 303 364
#     4  10  17  34  61 100 123 150 192 262 306 361
#     4  10  19  39  61  92 122 152 198 255 304 362
#     4  10  21  36  64  93 125 156 208 251 305 367
#     4  11  22  37  61  92 123 160 206 257 311 359
#     4  11  19  34  64 101 127 151 193 259 318 364
#     4  12  25  41  61  86 121 172 210 251 296 366
#     4  11  20  36  66  92 123 155 204 251 321 356
#
# _framework density 20.710290000000001
#
# number of rings (size 3 to 8) (size 9 to 14) (size 15 to 20)
#    0.000    1.250    5.000    4.875    1.750    1.000 
#    0.000    3.125    0.000    0.000    0.000    5.250 
#    0.000    0.000    0.000    0.000    0.000    0.000 
#
# Total GULP energy -89116.263537 kJ/mol
# GULP energy per Si atom -5569.766471 kJ/mol
# Density = 2.066315 g / cm^3
# Si number density = 20.710290 Si / 1000 Ang^3
#
#
#
# Elastic Constant Matrix: (Units=GPa)
#
#
# Indices 1 2 3 4 5 6 
#
# 1 85.5510 25.6819 43.5933 0.0000 1.4033 0.0000
# 2 25.6819 50.7788 24.8086 0.0000 1.9482 0.0000
# 3 43.5933 24.8086 115.3121 0.0000 10.4952 0.0000
# 4 0.0000 0.0000 0.0000 21.9985 0.0000 11.3435
# 5 1.4033 1.9482 10.4952 0.0000 51.5340 0.0000
# 6 0.0000 0.0000 0.0000 11.3435 0.0000 14.4432
#
#
#
# Elastic Compliance Matrix: (Units=1/GPa)
#
#
# Indices 1 2 3 4 5 6 
#
# 1 0.015847 -0.005680 -0.004839 0.000000 0.000769 0.000000
# 2 -0.005680 0.024043 -0.003013 0.000000 -0.000141 0.000000
# 3 -0.004839 -0.003013 0.011337 0.000000 -0.002063 0.000000
# 4 0.000000 0.000000 0.000000 0.076397 0.000000 -0.060002
# 5 0.000769 -0.000141 -0.002063 0.000000 0.019809 0.000000
# 6 0.000000 0.000000 0.000000 -0.060002 0.000000 0.116362
#
#
# Mechanical properties :
#
#
# Convention : Reuss Voigt Hill
#
# Bulk Modulus (GPa) = 41.38302 48.86772 45.12537
# Shear Modulus (GPa) = 16.72720 28.09902 22.41311
#
# Velocity S-wave (km/s) = 2.84505 3.68743 3.29328
# Velocity P-wave (km/s) = 5.55136 6.46348 6.02471
#
# Compressibility (1/GPa) = 0.02416450
#
# Stress axis : x y z
#
# Youngs Moduli (GPa) = 63.10255 41.59157 88.20408
#
# Poissons Ratio (x) = 0.23625 0.42681
# Poissons Ratio (y) = 0.35844 0.26572
# Poissons Ratio (z) = 0.30534 0.12530
#
# Static dielectric constant tensor:
#      x y z
#    x 1.826810 0.000000 0.047910 
#    y 0.000000 1.710430 0.000000 
#    z 0.047910 0.000000 1.844920 
# 
# From -- ./inp_files/9444.got.cif
#   From: 2010.05.17/outbox.cif.g08.bks.cpg/sg3_5_cif.got.tgz:9444.got - 2010.06.03 18:33:08.
