data_PCOD9112289
_publ_section_title
;
Structure prediction by ZEFSAII (Michael W. Deem and Ramdas Pophale) SiO2 
 PCOD9112289
Probable space group: P -1
;
_chemical_formula_sum "Si O2"
_cell_formula_units_Z 16
_cell_length_a 13.854455
_cell_length_b 6.796290
_cell_length_c 12.568838
_cell_angle_alpha 51.276051
_cell_angle_beta 138.332711
_cell_angle_gamma 109.576665
_cell_volume 593.529336
_symmetry_space_group_name_H-M "P -1"
_symmetry_group_IT_number 2
_symmetry_cell_setting 'triclinic'
loop_
_space_group_symop_operation_xyz
x,y,z
-x,-y,-z
loop_
_atom_site_type_symbol
_atom_site_label
_atom_site_fract_x
_atom_site_fract_y
_atom_site_fract_z
Si Si1 0.743624 0.736214 0.920697
Si Si2 0.994487 0.114648 0.218782
Si Si3 0.487503 0.171175 0.645620
Si Si4 0.204314 0.428743 0.212068
Si Si5 0.804749 0.015509 0.300206
Si Si6 0.359420 0.680966 0.757326
Si Si7 0.978061 0.440749 0.626939
Si Si8 0.528260 0.334389 0.861741
O O1 0.633757 0.539076 0.890640
O O2 0.872148 0.643624 0.146953
O O3 0.802020 0.722296 0.853344
O O4 0.640637 0.020026 0.767014
O O5 0.105775 0.302894 0.252829
O O6 0.906504 0.084828 0.265360
O O7 0.070870 0.831038 0.330080
O O8 0.870766 0.274014 0.979997
O O9 0.628106 0.620615 0.590687
O O10 0.403542 0.938894 0.669939
O O11 0.508799 0.268013 0.747426
O O12 0.873731 0.715712 0.487071
O O13 0.781042 0.207801 0.318170
O O14 0.635101 0.081542 0.092775
O O15 0.500000 0.500000 0.000000
O O16 0.371149 0.483122 0.736339
O O17 0.000000 0.500000 0.500000
#
# Coordination Sequence:
#
# PCOD9112289 Si02
#       8
#     2   2   2   2   2   2   2   2
#     4  11  24  46  76 113 152 201 255 317 373 453
#     4  10  23  48  75 111 150 200 253 314 375 451
#     4  11  24  47  74 109 153 203 252 313 388 443
#     4  11  25  47  74 110 158 202 262 306 369 458
#     4  10  20  45  78 108 151 192 243 320 392 451
#     4   9  22  44  72 111 146 190 251 322 377 453
#     4  10  23  46  77 114 148 198 255 312 394 459
#     4  10  22  46  76 113 151 196 251 314 384 450
#
# _framework density 26.957387000000001
#
# number of rings (size 3 to 8) (size 9 to 14) (size 15 to 20)
#    0.000    1.750    1.250    1.875    0.000    5.500 
#   24.750    1.250    0.000    0.750    0.000    0.000 
#    0.000    0.000    0.000    0.000    0.000    0.000 
#
# Total GULP energy -89637.291129 kJ/mol
# GULP energy per Si atom -5602.330696 kJ/mol
# Density = 2.689603 g / cm^3
# Si number density = 26.957387 Si / 1000 Ang^3
#
#
#
# Elastic Constant Matrix: (Units=GPa)
#
#
# Indices 1 2 3 4 5 6 
#
# 1 132.6793 45.6437 61.7115 -17.4279 9.1812 -26.1230
# 2 45.6437 139.4545 82.4031 -7.1125 11.2516 -28.0237
# 3 61.7115 82.4031 246.5927 -12.8863 32.7237 -32.7955
# 4 -17.4279 -7.1125 -12.8863 68.9857 -6.0357 4.0316
# 5 9.1812 11.2516 32.7237 -6.0357 48.8904 -8.4739
# 6 -26.1230 -28.0237 -32.7955 4.0316 -8.4739 51.4991
#
#
#
# Elastic Compliance Matrix: (Units=1/GPa)
#
#
# Indices 1 2 3 4 5 6 
#
# 1 0.009553 -0.001638 -0.001386 0.001834 0.000252 0.002970
# 2 -0.001638 0.009746 -0.002490 -0.000025 0.000236 0.002928
# 3 -0.001386 -0.002490 0.005767 0.000158 -0.002810 0.001140
# 4 0.001834 -0.000025 0.000158 0.015107 0.001433 0.000071
# 5 0.000252 0.000236 -0.002810 0.001433 0.022774 0.002102
# 6 0.002970 0.002928 0.001140 0.000071 0.002102 0.023584
#
#
# Mechanical properties :
#
#
# Convention : Reuss Voigt Hill
#
# Bulk Modulus (GPa) = 71.23280 99.80480 85.51880
# Shear Modulus (GPa) = 48.90487 55.80625 52.35556
#
# Velocity S-wave (km/s) = 4.26391 4.55484 4.41178
# Velocity P-wave (km/s) = 7.12200 8.04771 7.59896
#
# Compressibility (1/GPa) = 0.01403848
#
# Stress axis : x y z
#
# Youngs Moduli (GPa) = 104.67571 102.60221 173.40136
#
# Poissons Ratio (x) = 0.16804 0.24035
# Poissons Ratio (y) = 0.17143 0.43181
# Poissons Ratio (z) = 0.14509 0.25551
#
# Static dielectric constant tensor:
#      x y z
#    x 2.199240 0.068260 0.037780 
#    y 0.068260 2.147830 0.025670 
#    z 0.037780 0.025670 2.143740 
# 
# From -- ./inp_files/111065.got.cif
#   From: 2010.05.17/outbox.cif.g08.bks.cpg/sg2_56_cif.got.tgz:111065.got - 2010.06.03 11:33:40.
