data_PCOD9112131
_publ_section_title
;
Structure prediction by ZEFSAII (Michael W. Deem and Ramdas Pophale) SiO2 
 PCOD9112131
Probable space group: P -1
;
_chemical_formula_sum "Si O2"
_cell_formula_units_Z 16
_cell_length_a 5.340503
_cell_length_b 8.888086
_cell_length_c 20.034694
_cell_angle_alpha 48.843378
_cell_angle_beta 57.353720
_cell_angle_gamma 61.610675
_cell_volume 591.912063
_symmetry_space_group_name_H-M "P -1"
_symmetry_group_IT_number 2
_symmetry_cell_setting 'triclinic'
loop_
_space_group_symop_operation_xyz
x,y,z
-x,-y,-z
loop_
_atom_site_type_symbol
_atom_site_label
_atom_site_fract_x
_atom_site_fract_y
_atom_site_fract_z
Si Si1 0.852830 0.735066 0.143931
Si Si2 0.172124 0.387162 0.261266
Si Si3 0.587158 0.345227 0.095852
Si Si4 0.147834 0.073644 0.048702
Si Si5 0.167029 0.915389 0.412018
Si Si6 0.362035 0.306908 0.494240
Si Si7 0.681347 0.055579 0.761481
Si Si8 0.061988 0.607550 0.353147
O O1 0.963491 0.799542 0.039039
O O2 0.514837 0.829154 0.183954
O O3 0.919268 0.497624 0.213925
O O4 0.025279 0.865206 0.130710
O O5 0.468482 0.419998 0.165552
O O6 0.151163 0.156912 0.344672
O O7 0.093746 0.509588 0.305137
O O8 0.394847 0.166432 0.161836
O O9 0.500000 0.500000 0.000000
O O10 0.944737 0.233940 0.081673
O O11 0.500000 0.000000 0.000000
O O12 0.328848 0.818548 0.483794
O O13 0.371129 0.864400 0.330128
O O14 0.851562 0.843094 0.461815
O O15 0.354151 0.477414 0.389025
O O16 0.200542 0.425138 0.548323
O O17 0.979567 0.145647 0.708613
#
# Coordination Sequence:
#
# PCOD9112131 Si02
#       8
#     2   2   2   2   2   2   2   2
#     4  10  21  39  64  93 135 178 240 288 351 428
#     4  11  23  40  69 105 143 190 242 310 364 441
#     4  10  20  44  70  98 148 194 239 307 376 439
#     4  10  22  41  67  96 127 186 245 292 353 433
#     4  10  23  44  68 106 148 190 241 304 380 435
#     4  10  23  46  73 103 146 198 241 304 371 462
#     4   9  21  40  67  99 140 187 243 302 350 446
#     4  10  23  41  71 105 138 187 251 298 370 440
#
# _framework density 27.031041999999999
#
# number of rings (size 3 to 8) (size 9 to 14) (size 15 to 20)
#    0.000    2.000    1.250    0.750    1.750    7.500 
#    4.500    1.250    5.500    0.000    0.000    0.000 
#    0.000    0.000    0.000    0.000    0.000    0.000 
#
# Total GULP energy -89204.830266 kJ/mol
# GULP energy per Si atom -5575.301892 kJ/mol
# Density = 2.696952 g / cm^3
# Si number density = 27.031042 Si / 1000 Ang^3
#
#
#
# Elastic Constant Matrix: (Units=GPa)
#
#
# Indices 1 2 3 4 5 6 
#
# 1 113.0550 17.3923 35.2461 -5.8505 1.5473 5.9181
# 2 17.3923 92.9100 32.5515 11.0668 11.1660 -5.2337
# 3 35.2461 32.5515 142.5146 -7.4215 16.3932 6.2978
# 4 -5.8505 11.0668 -7.4215 64.8345 -3.6912 -5.6072
# 5 1.5473 11.1660 16.3932 -3.6912 42.5406 9.3380
# 6 5.9181 -5.2337 6.2978 -5.6072 9.3380 23.3070
#
#
#
# Elastic Compliance Matrix: (Units=1/GPa)
#
#
# Indices 1 2 3 4 5 6 
#
# 1 0.009902 -0.001541 -0.002112 0.000767 0.001520 -0.002714
# 2 -0.001541 0.012924 -0.002491 -0.002419 -0.003650 0.004847
# 3 -0.002112 -0.002491 0.008463 0.000975 -0.002182 -0.001201
# 4 0.000767 -0.002419 0.000975 0.016295 0.001101 0.002478
# 5 0.001520 -0.003650 -0.002182 0.001101 0.027875 -0.011519
# 6 -0.002714 0.004847 -0.001201 0.002478 -0.011519 0.050219
#
#
# Mechanical properties :
#
#
# Convention : Reuss Voigt Hill
#
# Bulk Modulus (GPa) = 52.62802 57.65103 55.13953
# Shear Modulus (GPa) = 34.65043 43.68907 39.16975
#
# Velocity S-wave (km/s) = 3.58421 4.02463 3.81079
# Velocity P-wave (km/s) = 6.05314 6.55522 6.30918
#
# Compressibility (1/GPa) = 0.01900129
#
# Stress axis : x y z
#
# Youngs Moduli (GPa) = 100.99361 77.37458 118.16050
#
# Poissons Ratio (x) = 0.11920 0.24955
# Poissons Ratio (y) = 0.15558 0.29437
# Poissons Ratio (z) = 0.21330 0.19276
#
# Static dielectric constant tensor:
#      x y z
#    x 2.254890 -0.064130 -0.052230 
#    y -0.064130 2.212710 0.012370 
#    z -0.052230 0.012370 2.217250 
# 
# From -- ./inp_files/582235.got.cif
#   From: 2010.05.17/outbox.cif.g08.bks.cpg/sg2_292_cif.got.tgz:582235.got - 2010.06.03 11:33:40.
