data_PCOD9112570
_publ_section_title
;
Structure prediction by ZEFSAII (Michael W. Deem and Ramdas Pophale) SiO2 
 PCOD9112570
Probable space group: P 2
;
_chemical_formula_sum "Si O2"
_cell_formula_units_Z 16
_cell_length_a 16.728345
_cell_length_b 5.324560
_cell_length_c 8.269158
_cell_angle_alpha 90.000000
_cell_angle_beta 118.237042
_cell_angle_gamma 90.000000
_cell_volume 648.892563
_symmetry_space_group_name_H-M "P 2"
_symmetry_group_IT_number 3
_symmetry_cell_setting 'monoclinic'
loop_
_space_group_symop_operation_xyz
x,y,z
-x,y,-z
loop_
_atom_site_type_symbol
_atom_site_label
_atom_site_fract_x
_atom_site_fract_y
_atom_site_fract_z
Si Si1 0.721066 0.001890 0.502086
Si Si2 0.600007 0.108117 0.680147
Si Si3 0.952572 0.435326 0.129634
Si Si4 0.133778 0.950036 0.828428
Si Si5 0.418074 0.333750 0.832948
Si Si6 0.115491 0.246754 0.502865
Si Si7 0.258899 0.637277 0.761058
Si Si8 0.451246 0.615996 0.278833
O O1 0.646733 0.156821 0.329523
O O2 0.817567 0.137348 0.571116
O O3 0.678066 0.003778 0.637101
O O4 0.730449 0.746008 0.411050
O O5 0.500000 0.141799 0.500000
O O6 0.585079 0.890862 0.795835
O O7 0.618888 0.388713 0.757344
O O8 0.912754 0.710876 0.130718
O O9 0.029849 0.371446 0.336840
O O10 0.881930 0.200853 0.080435
O O11 0.000000 0.434127 0.000000
O O12 0.232131 0.849795 0.864140
O O13 0.096428 0.026193 0.613648
O O14 0.351436 0.492177 0.882810
O O15 0.471471 0.523337 0.767726
O O16 0.500000 0.196242 0.000000
O O17 0.175308 0.444571 0.663036
O O18 0.500000 0.654508 0.500000
#
# Coordination Sequence:
#
# PCOD9112570 Si02
#       8
#     2   2   2   2   2   2   2   2
#     4  10  21  39  64  97 135 173 242 294 336 408
#     4  10  18  33  60  83 117 164 218 270 321 383
#     4  12  27  46  72 112 153 182 226 300 374 426
#     4  11  24  45  75 104 140 193 239 285 346 446
#     4  11  23  40  62  96 139 181 230 293 354 401
#     4  10  24  41  75 103 134 188 246 284 346 431
#     4  10  22  42  69  99 133 179 246 291 333 416
#     4  10  19  35  58  85 116 164 223 267 322 396
#
# _framework density 24.657395999999999
#
# number of rings (size 3 to 8) (size 9 to 14) (size 15 to 20)
#    0.000    1.500    3.750    2.250    7.000    0.500 
#    0.000    2.500    0.000    0.000    0.000    0.000 
#    0.000    0.000    0.000    0.000    0.000    0.000 
#
# Total GULP energy -89424.725068 kJ/mol
# GULP energy per Si atom -5589.045317 kJ/mol
# Density = 2.460127 g / cm^3
# Si number density = 24.657396 Si / 1000 Ang^3
#
#
#
# Elastic Constant Matrix: (Units=GPa)
#
#
# Indices 1 2 3 4 5 6 
#
# 1 94.9769 32.0439 26.4092 0.0000 -23.6051 0.0000
# 2 32.0439 141.4734 16.4842 0.0000 -15.1821 0.0000
# 3 26.4092 16.4842 63.1353 0.0000 -19.3820 0.0000
# 4 0.0000 0.0000 0.0000 13.7755 0.0000 -23.9974
# 5 -23.6051 -15.1821 -19.3820 0.0000 50.5893 0.0000
# 6 0.0000 0.0000 0.0000 -23.9974 0.0000 36.3408
#
#
#
# Elastic Compliance Matrix: (Units=1/GPa)
#
#
# Indices 1 2 3 4 5 6 
#
# 1 0.013319 -0.002136 -0.003743 0.000000 0.004140 0.000000
# 2 -0.002136 0.007757 -0.000819 0.000000 0.001017 0.000000
# 3 -0.003743 -0.000819 0.019274 0.000000 0.005392 0.000000
# 4 0.000000 0.000000 0.000000 -0.482856 0.000000 -0.318850
# 5 0.004140 0.001017 0.005392 0.000000 0.024070 0.000000
# 6 0.000000 0.000000 0.000000 -0.318850 0.000000 -0.183033
#
#
# Mechanical properties :
#
#
# Convention : Reuss Voigt Hill
#
# Bulk Modulus (GPa) = 37.10171 49.94001 43.52086
# Shear Modulus (GPa) = -8.63428 35.11765 13.24169
#
# Velocity S-wave (km/s) = -1.87331 3.77798 2.31990
# Velocity P-wave (km/s) = 3.22498 6.27124 4.98643
#
# Compressibility (1/GPa) = 0.02695293
#
# Stress axis : x y z
#
# Youngs Moduli (GPa) = 75.07925 128.91568 51.88388
#
# Poissons Ratio (x) = 0.27543 0.19419
# Poissons Ratio (y) = 0.16041 0.04251
# Poissons Ratio (z) = 0.28100 0.10563
#
# Static dielectric constant tensor:
#      x y z
#    x 2.052130 0.000000 0.026730 
#    y 0.000000 1.992070 0.000000 
#    z 0.026730 0.000000 2.031030 
# 
# From -- ./inp_files/8731.got.cif
#   From: 2010.05.17/outbox.cif.g08.bks.cpg/sg3_5_cif.got.tgz:8731.got - 2010.06.03 18:33:08.
