data_PCOD9112483
_publ_section_title
;
Structure prediction by ZEFSAII (Michael W. Deem and Ramdas Pophale) SiO2 
 PCOD9112483
Probable space group: P 2
;
_chemical_formula_sum "Si O2"
_cell_formula_units_Z 9
_cell_length_a 7.223616
_cell_length_b 5.300665
_cell_length_c 9.419715
_cell_angle_alpha 90.000000
_cell_angle_beta 81.909628
_cell_angle_gamma 90.000000
_cell_volume 357.090852
_symmetry_space_group_name_H-M "P 2"
_symmetry_group_IT_number 3
_symmetry_cell_setting 'monoclinic'
loop_
_space_group_symop_operation_xyz
x,y,z
-x,y,-z
loop_
_atom_site_type_symbol
_atom_site_label
_atom_site_fract_x
_atom_site_fract_y
_atom_site_fract_z
Si Si1 0.788938 0.104200 0.475215
Si Si2 0.737364 0.670841 0.948565
Si Si3 0.683497 0.349415 0.204338
Si Si4 0.500000 0.037524 0.000000
Si Si5 0.348625 0.608195 0.356765
O O1 0.774719 0.166881 0.309292
O O2 0.711101 0.358109 0.555266
O O3 0.000000 0.071682 0.500000
O O4 0.687441 0.860399 0.551042
O O5 0.799311 0.498103 0.070193
O O6 0.500000 0.697993 0.000000
O O7 0.763125 0.615498 0.782128
O O8 0.735023 0.967468 0.970918
O O9 0.566759 0.572177 0.295009
O O10 0.518442 0.198394 0.141506
#
# Coordination Sequence:
#
# PCOD9112483 Si02
#       5
#     2   2   2   1   2
#     4  12  29  46  67 103 156 188 230 289 372 423
#     4   8  19  34  66  99 135 160 232 298 347 388
#     4  11  22  40  74 104 135 182 240 301 348 418
#     4  10  16  36  66 104 138 164 236 298 352 386
#     4  11  23  45  71 102 135 193 241 291 343 430
#
# _framework density 25.203672000000001
#
# number of rings (size 3 to 8) (size 9 to 14) (size 15 to 20)
#    0.667    0.889    3.333    2.667    3.111    3.556 
#    0.000    1.111    0.000    0.000    0.000    0.000 
#    0.000    0.000    0.000    0.000    0.000    0.000 
#
# Total GULP energy -50122.915902 kJ/mol
# GULP energy per Si atom -5569.212878 kJ/mol
# Density = 2.514631 g / cm^3
# Si number density = 25.203672 Si / 1000 Ang^3
#
#
#
# Elastic Constant Matrix: (Units=GPa)
#
#
# Indices 1 2 3 4 5 6 
#
# 1 76.2334 29.0115 55.7945 0.0000 18.1861 0.0000
# 2 29.0115 176.4137 89.2361 0.0000 19.8192 0.0000
# 3 55.7945 89.2361 176.8247 0.0000 48.8876 0.0000
# 4 0.0000 0.0000 0.0000 29.7637 0.0000 34.0461
# 5 18.1861 19.8192 48.8876 0.0000 34.1758 0.0000
# 6 0.0000 0.0000 0.0000 34.0461 0.0000 -30.1580
#
#
#
# Elastic Compliance Matrix: (Units=1/GPa)
#
#
# Indices 1 2 3 4 5 6 
#
# 1 0.017170 -0.000198 -0.004671 0.000000 -0.002341 0.000000
# 2 -0.000198 0.007680 -0.004320 0.000000 0.001830 0.000000
# 3 -0.004671 -0.004320 0.013117 0.000000 -0.013773 0.000000
# 4 0.000000 0.000000 0.000000 0.014663 0.000000 0.016553
# 5 -0.002341 0.001830 -0.013773 0.000000 0.049146 0.000000
# 6 0.000000 0.000000 0.000000 0.016553 0.000000 -0.014471
#
#
# Mechanical properties :
#
#
# Convention : Reuss Voigt Hill
#
# Bulk Modulus (GPa) = 51.04509 86.39511 68.72010
# Shear Modulus (GPa) = 44.55869 23.78493 34.17181
#
# Velocity S-wave (km/s) = 4.20925 3.07532 3.68615
# Velocity P-wave (km/s) = 6.62727 6.85298 6.74107
#
# Compressibility (1/GPa) = 0.01959052
#
# Stress axis : x y z
#
# Youngs Moduli (GPa) = 58.24206 130.20142 76.23806
#
# Poissons Ratio (x) = 0.02579 0.35608
# Poissons Ratio (y) = 0.01154 0.32931
# Poissons Ratio (z) = 0.27202 0.56241
#
# Static dielectric constant tensor:
#      x y z
#    x 2.151000 0.000000 -0.017830 
#    y 0.000000 2.005660 0.000000 
#    z -0.017830 0.000000 2.252140 
# 
# From -- ./inp_files/4688.got.cif
#   From: 2010.05.17/outbox.cif.g08.bks.cpg/sg3_3_cif.got.tgz:4688.got - 2010.06.03 18:33:08.
