data_PCOD9112714
_publ_section_title
;
Structure prediction by ZEFSAII (Michael W. Deem and Ramdas Pophale) SiO2 
 PCOD9112714
Probable space group: P 2
;
_chemical_formula_sum "Si O2"
_cell_formula_units_Z 12
_cell_length_a 13.683073
_cell_length_b 7.886250
_cell_length_c 14.526492
_cell_angle_alpha 90.000000
_cell_angle_beta 159.773003
_cell_angle_gamma 90.000000
_cell_volume 541.957238
_symmetry_space_group_name_H-M "P 2"
_symmetry_group_IT_number 3
_symmetry_cell_setting 'monoclinic'
loop_
_space_group_symop_operation_xyz
x,y,z
-x,y,-z
loop_
_atom_site_type_symbol
_atom_site_label
_atom_site_fract_x
_atom_site_fract_y
_atom_site_fract_z
Si Si1 0.570265 0.325650 0.908419
Si Si2 0.954892 0.080435 0.160296
Si Si3 0.805021 0.706044 0.611969
Si Si4 0.555728 0.193777 0.648623
Si Si5 0.014428 0.505591 0.412647
Si Si6 0.749253 0.529664 0.881342
O O1 0.237936 0.350868 0.620620
O O2 0.659555 0.425956 0.894304
O O3 0.723919 0.145929 0.030065
O O4 0.720915 0.426262 0.122506
O O5 0.238085 0.198405 0.410819
O O6 0.780225 0.096332 0.910581
O O7 0.076932 0.894896 0.283308
O O8 0.887178 0.622251 0.585840
O O9 0.471338 0.681275 0.327234
O O10 0.952066 0.606419 0.826693
O O11 0.500000 0.114105 0.500000
O O12 0.691045 0.381057 0.757013
O O13 0.000000 0.591410 0.500000
#
# Coordination Sequence:
#
# PCOD9112714 Si02
#       6
#     2   2   2   2   2   2
#     4   9  18  33  55  79 105 145 186 218 267 336
#     4  11  21  37  59  83 114 149 184 225 280 342
#     4  10  20  35  57  82 110 146 184 225 278 335
#     4  11  22  38  58  82 111 147 189 235 275 320
#     4  10  19  34  57  83 110 144 189 235 270 315
#     4   9  18  35  56  77 104 143 188 220 264 336
#
# _framework density 22.141967000000001
#
# number of rings (size 3 to 8) (size 9 to 14) (size 15 to 20)
#    0.000    2.000    0.000    7.000    0.000    0.000 
#    0.000    5.833    0.000    6.000    0.000    0.000 
#    0.000    0.000    0.000    0.000    0.000    0.000 
#
# Total GULP energy -66961.078501 kJ/mol
# GULP energy per Si atom -5580.089875 kJ/mol
# Density = 2.209157 g / cm^3
# Si number density = 22.141967 Si / 1000 Ang^3
#
#
#
# Elastic Constant Matrix: (Units=GPa)
#
#
# Indices 1 2 3 4 5 6 
#
# 1 51.0364 15.6931 40.5144 0.0000 -5.2072 0.0000
# 2 15.6931 101.0878 33.4961 0.0000 -5.2018 0.0000
# 3 40.5144 33.4961 149.9000 0.0000 -11.4296 0.0000
# 4 0.0000 0.0000 0.0000 40.7479 0.0000 0.9158
# 5 -5.2072 -5.2018 -11.4296 0.0000 37.7554 0.0000
# 6 0.0000 0.0000 0.0000 0.9158 0.0000 9.1763
#
#
#
# Elastic Compliance Matrix: (Units=1/GPa)
#
#
# Indices 1 2 3 4 5 6 
#
# 1 0.025307 -0.001758 -0.006346 0.000000 0.001327 0.000000
# 2 -0.001758 0.010827 -0.001893 0.000000 0.000676 0.000000
# 3 -0.006346 -0.001893 0.008929 0.000000 0.001567 0.000000
# 4 0.000000 0.000000 0.000000 0.024596 0.000000 -0.002455
# 5 0.001327 0.000676 0.001567 0.000000 0.027237 0.000000
# 6 0.000000 0.000000 0.000000 -0.002455 0.000000 0.109222
#
#
# Mechanical properties :
#
#
# Convention : Reuss Voigt Hill
#
# Bulk Modulus (GPa) = 39.88773 53.49238 46.69005
# Shear Modulus (GPa) = 21.32487 31.69063 26.50775
#
# Velocity S-wave (km/s) = 3.10675 3.78729 3.46377
# Velocity P-wave (km/s) = 5.56083 6.58301 6.09339
#
# Compressibility (1/GPa) = 0.02507037
#
# Stress axis : x y z
#
# Youngs Moduli (GPa) = 39.51411 92.35958 111.99801
#
# Poissons Ratio (x) = 0.16234 0.71074
# Poissons Ratio (y) = 0.06945 0.21199
# Poissons Ratio (z) = 0.25076 0.17482
#
# Static dielectric constant tensor:
#      x y z
#    x 1.924690 0.000000 -0.006950 
#    y 0.000000 1.838020 0.000000 
#    z -0.006950 0.000000 1.811000 
# 
# From -- ./inp_files/14010.got.cif
#   From: 2010.05.17/outbox.cif.g08.bks.cpg/sg3_8_cif.got.tgz:14010.got - 2010.06.03 18:33:08.
