data_PCOD9112380
_publ_section_title
;
Structure prediction by ZEFSAII (Michael W. Deem and Ramdas Pophale) SiO2 
 PCOD9112380
Probable space group: P -1
;
_chemical_formula_sum "Si O2"
_cell_formula_units_Z 16
_cell_length_a 18.411048
_cell_length_b 13.958892
_cell_length_c 14.768975
_cell_angle_alpha 20.094124
_cell_angle_beta 133.549603
_cell_angle_gamma 124.027181
_cell_volume 884.917427
_symmetry_space_group_name_H-M "P -1"
_symmetry_group_IT_number 2
_symmetry_cell_setting 'triclinic'
loop_
_space_group_symop_operation_xyz
x,y,z
-x,-y,-z
loop_
_atom_site_type_symbol
_atom_site_label
_atom_site_fract_x
_atom_site_fract_y
_atom_site_fract_z
Si Si1 0.666954 0.824456 0.211056
Si Si2 0.429918 0.793881 0.521635
Si Si3 0.277617 0.196300 0.172092
Si Si4 0.877599 0.707785 0.204402
Si Si5 0.541047 0.919406 0.323643
Si Si6 0.377523 0.536511 0.343109
Si Si7 0.641258 0.308707 0.162977
Si Si8 0.225776 0.616400 0.456579
O O1 0.652269 0.666648 0.429552
O O2 0.754593 0.590458 0.431160
O O3 0.555726 0.926029 0.967119
O O4 0.688167 0.121624 0.994251
O O5 0.484594 0.873521 0.408833
O O6 0.337941 0.663982 0.530756
O O7 0.370459 0.076416 0.281848
O O8 0.523125 0.540558 0.878261
O O9 0.302762 0.922807 0.504945
O O10 0.169060 0.264533 0.962074
O O11 0.289700 0.480468 0.979383
O O12 0.809430 0.557326 0.339946
O O13 0.000000 0.500000 0.500000
O O14 0.856234 0.044554 0.921071
O O15 0.615603 0.606321 0.623000
O O16 0.612718 0.120110 0.226288
O O17 0.500000 0.500000 0.500000
#
# Coordination Sequence:
#
# PCOD9112380 Si02
#       8
#     2   2   2   2   2   2   2   2
#     4  11  20  34  50  74 106 143 186 220 249 307
#     4  11  22  34  51  75 114 149 185 211 246 306
#     4  11  24  35  51  76 103 144 185 218 257 309
#     4  11  24  42  60  78 106 135 174 230 281 318
#     4  11  22  32  49  74 112 156 185 211 257 293
#     4  10  21  31  48  69 106 149 189 216 249 295
#     4  12  23  33  50  75 113 145 189 207 247 310
#     4  11  21  36  59  81 105 141 181 218 266 317
#
# _framework density 18.080783
#
# number of rings (size 3 to 8) (size 9 to 14) (size 15 to 20)
#    0.000    1.000    2.500    7.875    3.500    0.000 
#    0.000    0.000    0.000    0.000    0.000    0.000 
#    0.000   20.000    0.000    0.000    0.000    0.000 
#
# Total GULP energy -89338.271789 kJ/mol
# GULP energy per Si atom -5583.641987 kJ/mol
# Density = 1.803963 g / cm^3
# Si number density = 18.080783 Si / 1000 Ang^3
#
#
#
# Elastic Constant Matrix: (Units=GPa)
#
#
# Indices 1 2 3 4 5 6 
#
# 1 19.1732 -2.5829 17.6225 -2.6664 -11.6387 0.7834
# 2 -2.5829 75.5182 30.9433 -24.2622 13.7905 -6.0000
# 3 17.6225 30.9433 117.6825 -9.3916 -0.4700 3.6971
# 4 -2.6664 -24.2622 -9.3916 35.1049 1.5235 6.0134
# 5 -11.6387 13.7905 -0.4700 1.5235 35.2364 -2.8871
# 6 0.7834 -6.0000 3.6971 6.0134 -2.8871 11.0913
#
#
#
# Elastic Compliance Matrix: (Units=1/GPa)
#
#
# Indices 1 2 3 4 5 6 
#
# 1 0.080256 0.005550 -0.013213 0.004353 0.024443 0.005741
# 2 0.005550 0.021661 -0.005605 0.013499 -0.006970 0.004061
# 3 -0.013213 -0.005605 0.012114 -0.000399 -0.002531 -0.006579
# 4 0.004353 0.013499 -0.000399 0.041271 -0.007035 -0.017078
# 5 0.024443 -0.006970 -0.002531 -0.007035 0.040241 0.009635
# 6 0.005741 0.004061 -0.006579 -0.017078 0.009635 0.105912
#
#
# Mechanical properties :
#
#
# Convention : Reuss Voigt Hill
#
# Bulk Modulus (GPa) = 11.42908 33.81552 22.62230
# Shear Modulus (GPa) = 13.99954 27.37926 20.68940
#
# Velocity S-wave (km/s) = 2.78560 3.89559 3.38638
# Velocity P-wave (km/s) = 4.08423 6.24317 5.27533
#
# Compressibility (1/GPa) = 0.08749610
#
# Stress axis : x y z
#
# Youngs Moduli (GPa) = 12.46012 46.16682 82.54670
#
# Poissons Ratio (x) = -0.25622 1.09066
# Poissons Ratio (y) = -0.06915 0.46264
# Poissons Ratio (z) = 0.16463 0.25874
#
# Static dielectric constant tensor:
#      x y z
#    x 1.614390 -0.020800 -0.013700 
#    y -0.020800 1.668620 -0.031150 
#    z -0.013700 -0.031150 1.656460 
# 
# From -- ./inp_files/538796.got.cif
#   From: 2010.05.17/outbox.cif.g08.bks.cpg/sg2_270_cif.got.tgz:538796.got - 2010.06.03 11:33:40.
