data_PCOD9112479
_publ_section_title
;
Structure prediction by ZEFSAII (Michael W. Deem and Ramdas Pophale) SiO2 
 PCOD9112479
Probable space group: P 2
;
_chemical_formula_sum "Si O2"
_cell_formula_units_Z 16
_cell_length_a 8.357436
_cell_length_b 10.960070
_cell_length_c 15.405950
_cell_angle_alpha 90.000000
_cell_angle_beta 146.130912
_cell_angle_gamma 90.000000
_cell_volume 786.433039
_symmetry_space_group_name_H-M "P 2"
_symmetry_group_IT_number 3
_symmetry_cell_setting 'monoclinic'
loop_
_space_group_symop_operation_xyz
x,y,z
-x,y,-z
loop_
_atom_site_type_symbol
_atom_site_label
_atom_site_fract_x
_atom_site_fract_y
_atom_site_fract_z
Si Si1 0.379168 0.723590 0.850194
Si Si2 0.836234 0.895371 0.837408
Si Si3 0.810784 0.699197 0.678148
Si Si4 0.967016 0.427556 0.199005
Si Si5 0.604132 0.996049 0.952342
Si Si6 0.719203 0.294187 0.809920
Si Si7 0.437393 0.456861 0.828726
Si Si8 0.342016 0.066759 0.663056
O O1 0.521186 0.853726 0.897062
O O2 0.417073 0.604422 0.808402
O O3 0.043926 0.745624 0.713857
O O4 0.500000 0.686608 0.000000
O O5 0.838972 0.781771 0.775452
O O6 0.519919 0.949471 0.708379
O O7 0.000000 0.863284 0.000000
O O8 0.052086 0.000205 0.898619
O O9 0.500000 0.711389 0.500000
O O10 0.884314 0.559611 0.730721
O O11 0.172425 0.339623 0.235568
O O12 0.840538 0.409522 0.240429
O O13 0.695889 0.435711 0.012493
O O14 0.438128 0.073440 0.806990
O O15 0.500000 0.028196 0.000000
O O16 0.531992 0.391710 0.782460
O O17 0.502804 0.182884 0.696324
O O18 0.000000 0.266963 0.000000
O O19 0.000000 0.061036 0.500000
#
# Coordination Sequence:
#
# PCOD9112479 Si02
#       8
#     2   2   2   2   2   2   2   2
#     4  10  16  34  60  90 127 153 195 243 302 374
#     4  10  21  38  63  88 121 161 208 247 298 370
#     4  11  21  34  59  98 135 157 190 250 315 379
#     4   9  18  36  59  92 122 156 201 253 300 368
#     4  10  19  38  67  91 114 161 206 251 297 369
#     4  10  21  40  65  85 117 165 216 260 300 360
#     4   9  16  34  64  92 116 154 208 250 299 362
#     4  11  26  44  57  85 129 159 205 266 314 366
#
# _framework density 20.345025
#
# number of rings (size 3 to 8) (size 9 to 14) (size 15 to 20)
#    0.000    2.000    5.000    1.125    1.750    3.500 
#   11.250    0.000    0.000    0.000    0.000    0.000 
#    0.000    0.000    0.000    0.000    0.000    0.000 
#
# Total GULP energy -89161.081944 kJ/mol
# GULP energy per Si atom -5572.567621 kJ/mol
# Density = 2.029872 g / cm^3
# Si number density = 20.345025 Si / 1000 Ang^3
#
#
#
# Elastic Constant Matrix: (Units=GPa)
#
#
# Indices 1 2 3 4 5 6 
#
# 1 76.7343 10.5708 41.0345 0.0000 23.3937 0.0000
# 2 10.5708 43.2249 20.9430 0.0000 15.2266 0.0000
# 3 41.0345 20.9430 95.3220 0.0000 41.3906 0.0000
# 4 0.0000 0.0000 0.0000 13.1787 0.0000 14.0819
# 5 23.3937 15.2266 41.3906 0.0000 26.8893 0.0000
# 6 0.0000 0.0000 0.0000 14.0819 0.0000 29.3723
#
#
#
# Elastic Compliance Matrix: (Units=1/GPa)
#
#
# Indices 1 2 3 4 5 6 
#
# 1 0.018040 0.001195 -0.002773 0.000000 -0.012103 0.000000
# 2 0.001195 0.029144 0.002111 0.000000 -0.020793 0.000000
# 3 -0.002773 0.002111 0.032243 0.000000 -0.048415 0.000000
# 4 0.000000 0.000000 0.000000 0.155582 0.000000 -0.074590
# 5 -0.012103 -0.020793 -0.048415 0.000000 0.134017 0.000000
# 6 0.000000 0.000000 0.000000 -0.074590 0.000000 0.069806
#
#
# Mechanical properties :
#
#
# Convention : Reuss Voigt Hill
#
# Bulk Modulus (GPa) = 12.42340 40.04197 26.23269
# Shear Modulus (GPa) = 10.76197 23.40360 17.08279
#
# Velocity S-wave (km/s) = 2.30244 3.39534 2.90082
# Velocity P-wave (km/s) = 3.63151 5.92413 4.91341
#
# Compressibility (1/GPa) = 0.08049326
#
# Stress axis : x y z
#
# Youngs Moduli (GPa) = 55.43207 34.31197 31.01409
#
# Poissons Ratio (x) = -0.04101 0.08601
# Poissons Ratio (y) = -0.06626 -0.06546
# Poissons Ratio (z) = 0.15373 -0.07242
#
# Static dielectric constant tensor:
#      x y z
#    x 1.802070 0.000000 0.043290 
#    y 0.000000 1.753590 0.000000 
#    z 0.043290 0.000000 1.732170 
# 
# From -- ./inp_files/15093.got.cif
#   From: 2010.05.17/outbox.cif.g08.bks.cpg/sg3_8_cif.got.tgz:15093.got - 2010.06.03 18:33:08.
