data_PCOD9112472
_publ_section_title
;
Structure prediction by ZEFSAII (Michael W. Deem and Ramdas Pophale) SiO2 
 PCOD9112472
Probable space group: P 2
;
_chemical_formula_sum "Si O2"
_cell_formula_units_Z 11
_cell_length_a 12.420222
_cell_length_b 5.481853
_cell_length_c 8.626771
_cell_angle_alpha 90.000000
_cell_angle_beta 134.416839
_cell_angle_gamma 90.000000
_cell_volume 419.532502
_symmetry_space_group_name_H-M "P 2"
_symmetry_group_IT_number 3
_symmetry_cell_setting 'monoclinic'
loop_
_space_group_symop_operation_xyz
x,y,z
-x,y,-z
loop_
_atom_site_type_symbol
_atom_site_label
_atom_site_fract_x
_atom_site_fract_y
_atom_site_fract_z
Si Si1 0.406008 0.724490 0.745617
Si Si2 0.145003 0.851518 0.698241
Si Si3 0.226382 0.108844 0.073228
Si Si4 0.958628 0.441311 0.696022
Si Si5 0.347312 0.228538 0.526921
Si Si6 0.000000 0.745960 0.000000
O O1 0.238289 0.740216 0.650711
O O2 0.429046 0.478422 0.667367
O O3 0.421609 0.977342 0.665948
O O4 0.500000 0.708297 0.000000
O O5 0.058016 0.625185 0.690321
O O6 0.000000 0.015435 0.500000
O O7 0.253128 0.001266 0.924931
O O8 0.126192 0.895499 0.041545
O O9 0.328381 0.197564 0.320907
O O10 0.100105 0.307857 0.916428
O O11 0.815968 0.254795 0.546523
O O12 0.899663 0.606902 0.775897
#
# Coordination Sequence:
#
# PCOD9112472 Si02
#       6
#     2   2   2   2   2   1
#     4  12  29  51  75 100 148 200 251 301 373 444
#     4  11  25  41  69 112 149 186 240 310 369 431
#     4  11  22  35  67 104 150 181 241 298 368 432
#     4  11  20  33  65 107 146 177 231 302 369 424
#     4  12  23  46  75 102 142 199 247 292 369 448
#     4  10  16  32  52 102 150 178 218 292 362 434
#
# _framework density 26.219664999999999
#
# number of rings (size 3 to 8) (size 9 to 14) (size 15 to 20)
#    0.000    0.727    5.455    2.727    5.091    0.727 
#    0.000    0.909    0.000    0.000    0.000    0.000 
#    0.000    0.000    0.000    0.000    0.000    0.000 
#
# Total GULP energy -61268.771852 kJ/mol
# GULP energy per Si atom -5569.888350 kJ/mol
# Density = 2.615999 g / cm^3
# Si number density = 26.219665 Si / 1000 Ang^3
#
#
#
# Elastic Constant Matrix: (Units=GPa)
#
#
# Indices 1 2 3 4 5 6 
#
# 1 45.6816 7.1130 14.9099 0.0000 -13.4150 0.0000
# 2 7.1130 135.4447 85.9038 0.0000 -28.8321 0.0000
# 3 14.9099 85.9038 191.0168 0.0000 -15.0036 0.0000
# 4 0.0000 0.0000 0.0000 45.8433 0.0000 -24.8447
# 5 -13.4150 -28.8321 -15.0036 0.0000 48.8949 0.0000
# 6 0.0000 0.0000 0.0000 -24.8447 0.0000 17.9155
#
#
#
# Elastic Compliance Matrix: (Units=1/GPa)
#
#
# Indices 1 2 3 4 5 6 
#
# 1 0.024357 0.001479 -0.002022 0.000000 0.006935 0.000000
# 2 0.001479 0.011638 -0.004897 0.000000 0.005766 0.000000
# 3 -0.002022 -0.004897 0.007506 0.000000 -0.001139 0.000000
# 4 0.000000 0.000000 0.000000 0.087800 0.000000 0.121759
# 5 0.006935 0.005766 -0.001139 0.000000 0.025405 0.000000
# 6 0.000000 0.000000 0.000000 0.121759 0.000000 0.224668
#
#
# Mechanical properties :
#
#
# Convention : Reuss Voigt Hill
#
# Bulk Modulus (GPa) = 30.65361 65.33293 47.99327
# Shear Modulus (GPa) = 12.40305 40.14518 26.27411
#
# Velocity S-wave (km/s) = 2.17732 3.91718 3.16899
# Velocity P-wave (km/s) = 4.24705 6.74023 5.63330
#
# Compressibility (1/GPa) = 0.03262258
#
# Stress axis : x y z
#
# Youngs Moduli (GPa) = 41.05662 85.92217 133.23440
#
# Poissons Ratio (x) = -0.12711 0.26937
# Poissons Ratio (y) = -0.06074 0.65239
# Poissons Ratio (z) = 0.08301 0.42072
#
# Static dielectric constant tensor:
#      x y z
#    x 2.114210 0.000000 -0.011950 
#    y 0.000000 2.223490 0.000000 
#    z -0.011950 0.000000 2.485390 
# 
# From -- ./inp_files/7901.got.cif
#   From: 2010.05.17/outbox.cif.g08.bks.cpg/sg3_4_cif.got.tgz:7901.got - 2010.06.03 18:33:08.
