data_PCOD9112448
_publ_section_title
;
Structure prediction by ZEFSAII (Michael W. Deem and Ramdas Pophale) SiO2 
 PCOD9112448
Probable space group: P 2
;
_chemical_formula_sum "Si O2"
_cell_formula_units_Z 14
_cell_length_a 8.030476
_cell_length_b 16.361205
_cell_length_c 5.424769
_cell_angle_alpha 90.000000
_cell_angle_beta 56.837119
_cell_angle_gamma 90.000000
_cell_volume 596.657301
_symmetry_space_group_name_H-M "P 2"
_symmetry_group_IT_number 3
_symmetry_cell_setting 'monoclinic'
loop_
_space_group_symop_operation_xyz
x,y,z
-x,y,-z
loop_
_atom_site_type_symbol
_atom_site_label
_atom_site_fract_x
_atom_site_fract_y
_atom_site_fract_z
Si Si1 0.245836 0.757760 0.048860
Si Si2 0.226625 0.507850 0.362178
Si Si3 0.378373 0.277382 0.853768
Si Si4 0.773395 0.447503 0.141265
Si Si5 0.130402 0.115978 0.144977
Si Si6 0.785439 0.692126 0.431155
Si Si7 0.131245 0.934832 0.142725
O O1 0.320335 0.738078 0.260534
O O2 0.263525 0.854617 0.001152
O O3 0.008534 0.730998 0.245515
O O4 0.306463 0.706057 0.761930
O O5 0.317392 0.455478 0.511389
O O6 0.212227 0.598791 0.482459
O O7 0.000000 0.477327 0.500000
O O8 0.311519 0.500757 0.017111
O O9 0.500000 0.269104 0.500000
O O10 0.230391 0.353209 0.932545
O O11 0.500000 0.300130 0.000000
O O12 0.277240 0.191448 0.998355
O O13 0.000000 0.476789 0.000000
O O14 0.000000 0.126091 0.500000
O O15 0.225080 0.025135 0.085696
O O16 0.000000 0.117025 0.000000
O O17 0.000000 0.923610 0.500000
O O18 0.000000 0.936029 0.000000
#
# Coordination Sequence:
#
# PCOD9112448 Si02
#       7
#     2   2   2   2   2   2   2
#     4  10  15  22  38  64 107 149 179 206 274 334
#     4  10  18  29  46  75 110 152 178 227 278 347
#     4  12  25  43  64  86 115 153 204 246 292 358
#     4  10  22  36  56  80 113 148 188 235 298 340
#     4  10  22  38  63  87 120 152 192 239 305 350
#     4  10  16  22  39  64 108 150 177 208 276 335
#     4  10  16  28  44  74 107 152 176 221 273 352
#
# _framework density 23.464058000000001
#
# number of rings (size 3 to 8) (size 9 to 14) (size 15 to 20)
#    0.000    1.714    4.286    3.000    4.000    1.714 
#    0.000    0.000    0.000    0.000    0.000    0.000 
#    0.000   22.857    0.000    0.000    0.000    0.000 
#
# Total GULP energy -78187.050795 kJ/mol
# GULP energy per Si atom -5584.789343 kJ/mol
# Density = 2.341065 g / cm^3
# Si number density = 23.464058 Si / 1000 Ang^3
#
#
#
# Elastic Constant Matrix: (Units=GPa)
#
#
# Indices 1 2 3 4 5 6 
#
# 1 67.1913 16.2564 47.8642 0.0000 35.2477 0.0000
# 2 16.2564 159.1921 41.3500 0.0000 16.9326 0.0000
# 3 47.8642 41.3500 194.1861 0.0000 45.5463 0.0000
# 4 0.0000 0.0000 0.0000 38.0322 0.0000 18.7199
# 5 35.2477 16.9326 45.5463 0.0000 54.3107 0.0000
# 6 0.0000 0.0000 0.0000 18.7199 0.0000 5.9176
#
#
#
# Elastic Compliance Matrix: (Units=1/GPa)
#
#
# Indices 1 2 3 4 5 6 
#
# 1 0.023731 -0.000331 -0.002727 0.000000 -0.013011 0.000000
# 2 -0.000331 0.006708 -0.001129 0.000000 -0.000930 0.000000
# 3 -0.002727 -0.001129 0.006927 0.000000 -0.003687 0.000000
# 4 0.000000 0.000000 0.000000 -0.047198 0.000000 0.149309
# 5 -0.013011 -0.000930 -0.003687 0.000000 0.030239 0.000000
# 6 0.000000 0.000000 0.000000 0.149309 0.000000 -0.303344
#
#
# Mechanical properties :
#
#
# Convention : Reuss Voigt Hill
#
# Bulk Modulus (GPa) = 34.49176 70.16786 52.32981
# Shear Modulus (GPa) = -18.87512 40.65869 10.89178
#
# Velocity S-wave (km/s) = -2.83932 4.16722 2.15684
# Velocity P-wave (km/s) = 1.99569 7.28859 5.34352
#
# Compressibility (1/GPa) = 0.02899243
#
# Stress axis : x y z
#
# Youngs Moduli (GPa) = 42.13845 149.08479 144.36019
#
# Poissons Ratio (x) = 0.04936 0.39369
# Poissons Ratio (y) = 0.01395 0.16293
# Poissons Ratio (z) = 0.11492 0.16826
#
# Static dielectric constant tensor:
#      x y z
#    x 1.864980 0.000000 -0.004490 
#    y 0.000000 1.844970 0.000000 
#    z -0.004490 0.000000 1.979400 
# 
# From -- ./inp_files/1557.got.cif
#   From: 2010.05.17/outbox.cif.g08.bks.cpg/sg3_1_cif.got.tgz:1557.got - 2010.06.03 18:33:08.
