data_PCOD9112266
_publ_section_title
;
Structure prediction by ZEFSAII (Michael W. Deem and Ramdas Pophale) SiO2 
 PCOD9112266
Probable space group: P -1
;
_chemical_formula_sum "Si O2"
_cell_formula_units_Z 16
_cell_length_a 20.131530
_cell_length_b 9.249732
_cell_length_c 5.341683
_cell_angle_alpha 94.996348
_cell_angle_beta 97.615809
_cell_angle_gamma 42.028719
_cell_volume 659.971408
_symmetry_space_group_name_H-M "P -1"
_symmetry_group_IT_number 2
_symmetry_cell_setting 'triclinic'
loop_
_space_group_symop_operation_xyz
x,y,z
-x,-y,-z
loop_
_atom_site_type_symbol
_atom_site_label
_atom_site_fract_x
_atom_site_fract_y
_atom_site_fract_z
Si Si1 0.754107 0.042677 0.887937
Si Si2 0.684970 0.871580 0.975452
Si Si3 0.628916 0.476272 0.641176
Si Si4 0.950670 0.986071 0.698101
Si Si5 0.774753 0.248183 0.302473
Si Si6 0.962215 0.641451 0.750817
Si Si7 0.201393 0.584110 0.040004
Si Si8 0.438237 0.961270 0.567561
O O1 0.718694 0.980597 0.059211
O O2 0.841109 0.832462 0.735898
O O3 0.661539 0.271074 0.743684
O O4 0.803708 0.094640 0.073634
O O5 0.777390 0.616188 0.939354
O O6 0.628571 0.971484 0.695721
O O7 0.622209 0.913125 0.186862
O O8 0.661903 0.413276 0.358422
O O9 0.703814 0.480493 0.796617
O O10 0.517623 0.709277 0.640118
O O11 0.847020 0.096652 0.538586
O O12 0.904074 0.179738 0.893928
O O13 0.995387 0.759241 0.769676
O O14 0.000000 0.000000 0.500000
O O15 0.790689 0.385905 0.241946
O O16 0.000000 0.500000 0.500000
O O17 0.000000 0.500000 0.000000
O O18 0.500000 0.000000 0.500000
#
# Coordination Sequence:
#
# PCOD9112266 Si02
#       8
#     2   2   2   2   2   2   2   2
#     4  11  26  47  69 101 147 186 239 285 367 438
#     4  12  29  43  72 111 140 188 238 300 353 425
#     4  10  22  42  75  92 140 192 229 290 359 429
#     4  11  25  44  73 109 140 189 252 299 355 444
#     4  10  20  45  72  94 138 192 233 284 365 423
#     4  12  27  47  73 107 148 191 233 301 370 423
#     4  10  22  43  69 100 136 193 233 286 365 421
#     4  12  26  46  71 107 146 180 243 299 357 417
#
# _framework density 24.243472000000001
#
# number of rings (size 3 to 8) (size 9 to 14) (size 15 to 20)
#    0.000    1.000    5.000    1.875    8.750    2.500 
#    0.000    0.000    0.000    0.000    0.000    0.000 
#    0.000    0.000    0.000    0.000    0.000    0.000 
#
# Total GULP energy -89358.210828 kJ/mol
# GULP energy per Si atom -5584.888177 kJ/mol
# Density = 2.418829 g / cm^3
# Si number density = 24.243472 Si / 1000 Ang^3
#
#
#
# Elastic Constant Matrix: (Units=GPa)
#
#
# Indices 1 2 3 4 5 6 
#
# 1 66.3851 43.8971 10.5950 -8.9313 -21.7814 26.8976
# 2 43.8971 197.8607 55.2768 -11.1882 -14.6428 15.2243
# 3 10.5950 55.2768 93.0566 -0.8731 -14.2107 10.0077
# 4 -8.9313 -11.1882 -0.8731 41.9685 1.6277 -7.8872
# 5 -21.7814 -14.6428 -14.2107 1.6277 37.0279 -11.9032
# 6 26.8976 15.2243 10.0077 -7.8872 -11.9032 41.1567
#
#
#
# Elastic Compliance Matrix: (Units=1/GPa)
#
#
# Indices 1 2 3 4 5 6 
#
# 1 0.026837 -0.004876 0.002893 0.001607 0.010708 -0.013034
# 2 -0.004876 0.007118 -0.003994 0.001084 -0.001187 0.001389
# 3 0.002893 -0.003994 0.013763 -0.000827 0.004610 -0.002585
# 4 0.001607 0.001084 -0.000827 0.025130 0.001210 0.003916
# 5 0.010708 -0.001187 0.004610 0.001210 0.035454 0.002806
# 6 -0.013034 0.001389 -0.002585 0.003916 0.002806 0.034492
#
#
# Mechanical properties :
#
#
# Convention : Reuss Voigt Hill
#
# Bulk Modulus (GPa) = 27.96059 64.09335 46.02697
# Shear Modulus (GPa) = 29.99953 40.53285 35.26619
#
# Velocity S-wave (km/s) = 3.52152 4.09333 3.81815
# Velocity P-wave (km/s) = 5.30030 6.98822 6.20195
#
# Compressibility (1/GPa) = 0.03576463
#
# Stress axis : x y z
#
# Youngs Moduli (GPa) = 37.26261 140.48726 72.65713
#
# Poissons Ratio (x) = 0.68501 -0.21019
# Poissons Ratio (y) = 0.18169 0.29016
# Poissons Ratio (z) = -0.10780 0.56105
#
# Static dielectric constant tensor:
#      x y z
#    x 2.056910 -0.026240 0.025150 
#    y -0.026240 1.939540 0.027350 
#    z 0.025150 0.027350 2.057210 
# 
# From -- ./inp_files/116884.got.cif
#   From: 2010.05.17/outbox.cif.g08.bks.cpg/sg2_59_cif.got.tgz:116884.got - 2010.06.03 11:33:40.
