data_PCOD9112784
_publ_section_title
;
Structure prediction by ZEFSAII (Michael W. Deem and Ramdas Pophale) SiO2 
 PCOD9112784
Probable space group: P 2
;
_chemical_formula_sum "Si O2"
_cell_formula_units_Z 10
_cell_length_a 10.239043
_cell_length_b 8.164435
_cell_length_c 11.085066
_cell_angle_alpha 90.000000
_cell_angle_beta 151.902632
_cell_angle_gamma 90.000000
_cell_volume 436.433705
_symmetry_space_group_name_H-M "P 2"
_symmetry_group_IT_number 3
_symmetry_cell_setting 'monoclinic'
loop_
_space_group_symop_operation_xyz
x,y,z
-x,y,-z
loop_
_atom_site_type_symbol
_atom_site_label
_atom_site_fract_x
_atom_site_fract_y
_atom_site_fract_z
Si Si1 0.112598 0.538840 0.211771
Si Si2 0.674046 0.204507 0.260517
Si Si3 0.485401 0.533166 0.738339
Si Si4 0.189260 0.881639 0.532647
Si Si5 0.812813 0.916103 0.741313
O O1 0.354730 0.484520 0.499822
O O2 0.204916 0.720442 0.246846
O O3 0.812699 0.554305 0.030790
O O4 0.000000 0.445608 0.000000
O O5 0.602873 0.379748 0.255204
O O6 0.000000 0.206478 0.500000
O O7 0.620968 0.041947 0.295249
O O8 0.500000 0.180169 0.000000
O O9 0.345859 0.708688 0.650623
O O10 0.071084 0.918548 0.301289
O O11 0.000000 0.870540 0.500000
O O12 0.500000 0.980809 0.500000
O O13 0.000000 0.988285 0.000000
#
# Coordination Sequence:
#
# PCOD9112784 Si02
#       5
#     2   2   2   2   2
#     4  10  19  36  62  90 122 163 208 255 306 366
#     4  11  25  42  60  89 127 158 200 264 317 360
#     4  11  22  39  63  89 123 163 205 253 312 371
#     4  10  23  41  67  95 124 165 213 256 307 372
#     4  10  20  38  62  93 130 165 205 256 313 369
#
# _framework density 22.912987000000001
#
# number of rings (size 3 to 8) (size 9 to 14) (size 15 to 20)
#    0.000    1.600    0.000    7.200    0.000   12.000 
#    0.000    3.000    0.000    1.200    0.000    0.000 
#    0.000    0.000    0.000    0.000    0.000    0.000 
#
# Total GULP energy -55707.903547 kJ/mol
# GULP energy per Si atom -5570.790355 kJ/mol
# Density = 2.286084 g / cm^3
# Si number density = 22.912987 Si / 1000 Ang^3
#
#
#
# Elastic Constant Matrix: (Units=GPa)
#
#
# Indices 1 2 3 4 5 6 
#
# 1 94.4750 13.5795 34.8645 0.0000 -11.7067 0.0000
# 2 13.5795 112.0359 15.2935 0.0000 -0.2095 0.0000
# 3 34.8645 15.2935 162.3240 0.0000 -13.5045 0.0000
# 4 0.0000 0.0000 0.0000 17.7116 0.0000 -11.9873
# 5 -11.7067 -0.2095 -13.5045 0.0000 41.3172 0.0000
# 6 0.0000 0.0000 0.0000 -11.9873 0.0000 68.9911
#
#
#
# Elastic Compliance Matrix: (Units=1/GPa)
#
#
# Indices 1 2 3 4 5 6 
#
# 1 0.011897 -0.001133 -0.002229 0.000000 0.002637 0.000000
# 2 -0.001133 0.009152 -0.000660 0.000000 -0.000490 0.000000
# 3 -0.002229 -0.000660 0.006834 0.000000 0.001599 0.000000
# 4 0.000000 0.000000 0.000000 0.063985 0.000000 0.011117
# 5 0.002637 -0.000490 0.001599 0.000000 0.025470 0.000000
# 6 0.000000 0.000000 0.000000 0.011117 0.000000 0.016426
#
#
# Mechanical properties :
#
#
# Convention : Reuss Voigt Hill
#
# Bulk Modulus (GPa) = 50.40281 55.14554 52.77417
# Shear Modulus (GPa) = 33.68785 45.94380 39.81582
#
# Velocity S-wave (km/s) = 3.83855 4.48274 4.17309
# Velocity P-wave (km/s) = 6.45687 7.13533 6.80456
#
# Compressibility (1/GPa) = 0.01984016
#
# Stress axis : x y z
#
# Youngs Moduli (GPa) = 84.05491 109.26388 146.31662
#
# Poissons Ratio (x) = 0.12377 0.32617
# Poissons Ratio (y) = 0.09522 0.09653
# Poissons Ratio (z) = 0.18738 0.07209
#
# Static dielectric constant tensor:
#      x y z
#    x 1.992250 0.000000 -0.029560 
#    y 0.000000 1.818060 0.000000 
#    z -0.029560 0.000000 1.754330 
# 
# From -- ./inp_files/2972.got.cif
#   From: 2010.05.17/outbox.cif.g08.bks.cpg/sg3_2_cif.got.tgz:2972.got - 2010.06.03 18:33:08.
