data_PCOD9112789
_publ_section_title
;
Structure prediction by ZEFSAII (Michael W. Deem and Ramdas Pophale) SiO2 
 PCOD9112789
Probable space group: P 2
;
_chemical_formula_sum "Si O2"
_cell_formula_units_Z 11
_cell_length_a 9.157135
_cell_length_b 8.745407
_cell_length_c 11.196761
_cell_angle_alpha 90.000000
_cell_angle_beta 140.670029
_cell_angle_gamma 90.000000
_cell_volume 568.295742
_symmetry_space_group_name_H-M "P 2"
_symmetry_group_IT_number 3
_symmetry_cell_setting 'monoclinic'
loop_
_space_group_symop_operation_xyz
x,y,z
-x,y,-z
loop_
_atom_site_type_symbol
_atom_site_label
_atom_site_fract_x
_atom_site_fract_y
_atom_site_fract_z
Si Si1 0.199004 0.005580 0.052584
Si Si2 0.749679 0.676014 0.796138
Si Si3 0.000000 0.399250 0.500000
Si Si4 0.235226 0.633082 0.479084
Si Si5 0.990005 0.951164 0.327771
Si Si6 0.686036 0.125182 0.315946
O O1 0.418751 0.108142 0.166272
O O2 0.260928 0.855844 0.171571
O O3 0.000000 0.089601 0.000000
O O4 0.097964 0.949726 0.862501
O O5 0.503275 0.614997 0.687924
O O6 0.755888 0.644050 0.658847
O O7 0.000000 0.620808 0.000000
O O8 0.080518 0.502712 0.440553
O O9 0.213790 0.286432 0.662822
O O10 0.115390 0.793202 0.438376
O O11 0.778502 0.999291 0.279525
O O12 0.180073 0.081099 0.477100
#
# Coordination Sequence:
#
# PCOD9112789 Si02
#       6
#     2   2   1   2   2   2
#     4  11  20  36  64  97 122 152 207 267 311 355
#     4  10  21  37  61  96 125 152 205 261 315 357
#     4  10  24  44  62  88 132 174 204 240 316 378
#     4  11  20  39  65  92 123 164 205 261 307 366
#     4  10  19  36  65  92 119 156 210 261 306 347
#     4  10  23  41  59  89 127 165 206 253 300 372
#
# _framework density 19.356120000000001
#
# number of rings (size 3 to 8) (size 9 to 14) (size 15 to 20)
#    0.000    1.818    5.455    1.636    0.000    0.727 
#    0.000   16.364    0.000    0.000    0.000    0.000 
#    0.000    0.000    0.000    0.000    0.000    0.000 
#
# Total GULP energy -61271.515206 kJ/mol
# GULP energy per Si atom -5570.137746 kJ/mol
# Density = 1.931206 g / cm^3
# Si number density = 19.356120 Si / 1000 Ang^3
#
#
#
# Elastic Constant Matrix: (Units=GPa)
#
#
# Indices 1 2 3 4 5 6 
#
# 1 146.3054 63.0717 62.6321 0.0000 25.5754 0.0000
# 2 63.0717 83.9551 34.4448 0.0000 11.4439 0.0000
# 3 62.6321 34.4448 98.1600 0.0000 28.5737 0.0000
# 4 0.0000 0.0000 0.0000 13.9358 0.0000 12.4794
# 5 25.5754 11.4439 28.5737 0.0000 40.5745 0.0000
# 6 0.0000 0.0000 0.0000 12.4794 0.0000 21.9515
#
#
#
# Elastic Compliance Matrix: (Units=1/GPa)
#
#
# Indices 1 2 3 4 5 6 
#
# 1 0.012267 -0.006965 -0.004659 0.000000 -0.002487 0.000000
# 2 -0.006965 0.017881 -0.002063 0.000000 0.000800 0.000000
# 3 -0.004659 -0.002063 0.016176 0.000000 -0.007873 0.000000
# 4 0.000000 0.000000 0.000000 0.146171 0.000000 -0.083098
# 5 -0.002487 0.000800 -0.007873 0.000000 0.031532 0.000000
# 6 0.000000 0.000000 0.000000 -0.083098 0.000000 0.092796
#
#
# Mechanical properties :
#
#
# Convention : Reuss Voigt Hill
#
# Bulk Modulus (GPa) = 52.77312 72.07975 62.42644
# Shear Modulus (GPa) = 14.26472 26.51048 20.38760
#
# Velocity S-wave (km/s) = 2.71765 3.70485 3.24896
# Velocity P-wave (km/s) = 6.09680 7.45793 6.81145
#
# Compressibility (1/GPa) = 0.01894904
#
# Stress axis : x y z
#
# Youngs Moduli (GPa) = 81.52066 55.92478 61.82002
#
# Poissons Ratio (x) = 0.38952 0.28802
# Poissons Ratio (y) = 0.56780 0.12756
# Poissons Ratio (z) = 0.37981 0.11539
#
# Static dielectric constant tensor:
#      x y z
#    x 1.697810 0.000000 0.005510 
#    y 0.000000 1.690740 0.000000 
#    z 0.005510 0.000000 1.720260 
# 
# From -- ./inp_files/10371.got.cif
#   From: 2010.05.17/outbox.cif.g08.bks.cpg/sg3_6_cif.got.tgz:10371.got - 2010.06.03 18:33:08.
