data_PCOD9112403
_publ_section_title
;
Structure prediction by ZEFSAII (Michael W. Deem and Ramdas Pophale) SiO2 
 PCOD9112403
Probable space group: P -1
;
_chemical_formula_sum "Si O2"
_cell_formula_units_Z 16
_cell_length_a 10.774394
_cell_length_b 29.969669
_cell_length_c 5.123146
_cell_angle_alpha 82.702461
_cell_angle_beta 89.014699
_cell_angle_gamma 143.093243
_cell_volume 965.592663
_symmetry_space_group_name_H-M "P -1"
_symmetry_group_IT_number 2
_symmetry_cell_setting 'triclinic'
loop_
_space_group_symop_operation_xyz
x,y,z
-x,-y,-z
loop_
_atom_site_type_symbol
_atom_site_label
_atom_site_fract_x
_atom_site_fract_y
_atom_site_fract_z
Si Si1 0.531782 0.065374 0.261979
Si Si2 0.180184 0.774196 0.958458
Si Si3 0.950297 0.515060 0.240165
Si Si4 0.049797 0.251679 0.515022
Si Si5 0.709104 0.547438 0.705317
Si Si6 0.752047 0.090466 0.733999
Si Si7 0.991809 0.369715 0.869813
Si Si8 0.499861 0.422952 0.440807
O O1 0.598103 0.071450 0.548191
O O2 0.595893 0.135759 0.162758
O O3 0.303431 0.977766 0.269315
O O4 0.683598 0.083402 0.035314
O O5 0.026524 0.748578 0.754572
O O6 0.083956 0.762902 0.243189
O O7 0.173275 0.718402 0.009343
O O8 0.080366 0.599994 0.179536
O O9 0.705731 0.458744 0.298737
O O10 0.000000 0.500000 0.500000
O O11 0.000000 0.500000 0.000000
O O12 0.293857 0.331990 0.503341
O O13 0.976392 0.178184 0.592891
O O14 0.867337 0.600126 0.412687
O O15 0.569930 0.463410 0.691018
O O16 0.567890 0.550733 0.722265
O O17 0.854881 0.585329 0.919954
#
# Coordination Sequence:
#
# PCOD9112403 Si02
#       8
#     2   2   2   2   2   2   2   2
#     4   8  14  23  37  56  88 122 141 160 203 268
#     4  10  17  27  43  69  92 113 145 181 223 265
#     4  11  25  38  48  62  87 127 159 188 226 273
#     4  10  18  27  43  68  92 113 146 182 224 265
#     4  10  21  30  50  74  89 115 142 196 244 263
#     4   8  14  24  36  56  88 122 141 161 203 268
#     4  11  19  35  50  68  94 114 154 193 228 269
#     4  10  20  34  50  68  93 115 155 193 229 275
#
# _framework density 16.570136000000002
#
# number of rings (size 3 to 8) (size 9 to 14) (size 15 to 20)
#    0.000    2.250    2.500    1.500    0.000    8.500 
#    0.000    0.000    0.000    0.000    0.000    0.000 
#    0.000    2.000    0.000    0.000    0.000    5.500 
#
# Total GULP energy -89121.523603 kJ/mol
# GULP energy per Si atom -5570.095225 kJ/mol
# Density = 1.653242 g / cm^3
# Si number density = 16.570136 Si / 1000 Ang^3
#
#
#
# Elastic Constant Matrix: (Units=GPa)
#
#
# Indices 1 2 3 4 5 6 
#
# 1 65.1183 29.8154 24.2438 -2.6939 -0.9013 -17.5190
# 2 29.8154 164.7740 17.9300 -28.7649 4.3591 -20.9042
# 3 24.2438 17.9300 93.0641 13.7950 8.4354 -9.0319
# 4 -2.6939 -28.7649 13.7950 29.0597 -2.7144 5.2476
# 5 -0.9013 4.3591 8.4354 -2.7144 19.0552 -3.0556
# 6 -17.5190 -20.9042 -9.0319 5.2476 -3.0556 17.5497
#
#
#
# Elastic Compliance Matrix: (Units=1/GPa)
#
#
# Indices 1 2 3 4 5 6 
#
# 1 0.023197 -0.001323 -0.004367 -0.000177 0.006601 0.020536
# 2 -0.001323 0.008731 -0.002173 0.008644 0.001024 0.005556
# 3 -0.004367 -0.002173 0.014817 -0.010750 -0.007382 0.002607
# 4 -0.000177 0.008644 -0.010750 0.050480 0.008517 -0.009025
# 5 0.006601 0.001024 -0.007382 0.008517 0.058918 0.011721
# 6 0.020536 0.005556 0.002607 -0.009025 0.011721 0.090179
#
#
# Mechanical properties :
#
#
# Convention : Reuss Voigt Hill
#
# Bulk Modulus (GPa) = 32.23645 51.88164 42.05905
# Shear Modulus (GPa) = 18.35623 29.86407 24.11015
#
# Velocity S-wave (km/s) = 3.33196 4.24994 3.81863
# Velocity P-wave (km/s) = 5.85657 7.44721 6.69926
#
# Compressibility (1/GPa) = 0.03102078
#
# Stress axis : x y z
#
# Youngs Moduli (GPa) = 43.10924 114.52957 67.48940
#
# Poissons Ratio (x) = 0.15147 0.29474
# Poissons Ratio (y) = 0.05701 0.14663
# Poissons Ratio (z) = 0.18826 0.24883
#
# Static dielectric constant tensor:
#      x y z
#    x 1.505800 -0.028080 0.009820 
#    y -0.028080 1.653490 -0.023450 
#    z 0.009820 -0.023450 1.607300 
# 
# From -- ./inp_files/54863.got.cif
#   From: 2010.05.17/outbox.cif.g08.bks.cpg/sg2_28_cif.got.tgz:54863.got - 2010.06.03 11:33:40.
