data_PCOD9112203
_publ_section_title
;
Structure prediction by ZEFSAII (Michael W. Deem and Ramdas Pophale) SiO2 
 PCOD9112203
Probable space group: P -1
;
_chemical_formula_sum "Si O2"
_cell_formula_units_Z 11
_cell_length_a 10.997475
_cell_length_b 12.319121
_cell_length_c 5.096833
_cell_angle_alpha 84.563047
_cell_angle_beta 72.337259
_cell_angle_gamma 40.736752
_cell_volume 419.112278
_symmetry_space_group_name_H-M "P -1"
_symmetry_group_IT_number 2
_symmetry_cell_setting 'triclinic'
loop_
_space_group_symop_operation_xyz
x,y,z
-x,-y,-z
loop_
_atom_site_type_symbol
_atom_site_label
_atom_site_fract_x
_atom_site_fract_y
_atom_site_fract_z
Si Si1 0.886233 0.333240 0.403033
Si Si2 0.358241 0.679654 0.197129
Si Si3 0.740353 0.555924 0.954980
Si Si4 0.241773 0.047499 0.597148
Si Si5 0.000000 0.000000 0.000000
Si Si6 0.638084 0.841568 0.145894
O O1 0.749497 0.312472 0.493003
O O2 0.800460 0.469040 0.653954
O O3 0.855427 0.412012 0.132813
O O4 0.105392 0.156314 0.401541
O O5 0.500000 0.500000 0.000000
O O6 0.508379 0.679662 0.137324
O O7 0.173827 0.836555 0.109684
O O8 0.234058 0.332254 0.051226
O O9 0.476737 0.885224 0.423044
O O10 0.240290 0.157486 0.749279
O O11 0.150117 0.004142 0.811086
O O12 0.500000 0.000000 0.000000
#
# Coordination Sequence:
#
# PCOD9112203 Si02
#       6
#     2   2   2   2   1   2
#     4  10  24  44  69 105 137 191 236 303 348 436
#     4   9  20  40  68 101 146 180 239 292 361 424
#     4  11  24  43  72  99 146 186 238 292 369 418
#     4  10  25  46  70 104 143 185 245 294 361 433
#     4  10  20  44  76 104 138 192 238 300 358 426
#     4  11  26  44  70 100 147 190 235 297 361 436
#
# _framework density 26.245950000000001
#
# number of rings (size 3 to 8) (size 9 to 14) (size 15 to 20)
#    0.000    1.818    0.000    1.636   12.727    1.455 
#    6.545    2.727    0.000    0.000    0.000    0.000 
#    0.000    0.000    0.000    0.000    0.000    0.000 
#
# Total GULP energy -61443.299432 kJ/mol
# GULP energy per Si atom -5585.754494 kJ/mol
# Density = 2.618621 g / cm^3
# Si number density = 26.245950 Si / 1000 Ang^3
#
#
#
# Elastic Constant Matrix: (Units=GPa)
#
#
# Indices 1 2 3 4 5 6 
#
# 1 112.8005 14.0263 47.7793 23.0157 -15.3580 -1.2165
# 2 14.0263 76.0621 34.1472 -10.2541 -13.6534 -18.7958
# 3 47.7793 34.1472 66.3751 5.5196 -13.8856 -18.1830
# 4 23.0157 -10.2541 5.5196 36.8198 -5.1510 -8.3146
# 5 -15.3580 -13.6534 -13.8856 -5.1510 43.1168 4.9858
# 6 -1.2165 -18.7958 -18.1830 -8.3146 4.9858 48.1132
#
#
#
# Elastic Compliance Matrix: (Units=1/GPa)
#
#
# Indices 1 2 3 4 5 6 
#
# 1 0.016013 -0.000004 -0.012081 -0.009344 0.001380 -0.005920
# 2 -0.000004 0.020466 -0.008841 0.008895 0.004027 0.005774
# 3 -0.012081 -0.008841 0.030767 0.002610 0.002181 0.008093
# 4 -0.009344 0.008895 0.002610 0.037947 0.003659 0.010403
# 5 0.001380 0.004027 0.002181 0.003659 0.026057 0.000365
# 6 -0.005920 0.005774 0.008093 0.010403 0.000365 0.027709
#
#
# Mechanical properties :
#
#
# Convention : Reuss Voigt Hill
#
# Bulk Modulus (GPa) = 39.38051 49.68261 44.53156
# Shear Modulus (GPa) = 23.89176 36.22894 30.06035
#
# Velocity S-wave (km/s) = 3.02040 3.71935 3.38795
# Velocity P-wave (km/s) = 5.21543 6.11682 5.68402
#
# Compressibility (1/GPa) = 0.02539327
#
# Stress axis : x y z
#
# Youngs Moduli (GPa) = 62.44738 48.86189 32.50221
#
# Poissons Ratio (x) = 0.00021 0.39266
# Poissons Ratio (y) = 0.00026 0.28737
# Poissons Ratio (z) = 0.75443 0.43201
#
# Static dielectric constant tensor:
#      x y z
#    x 2.087710 0.051570 0.021330 
#    y 0.051570 2.012820 0.106940 
#    z 0.021330 0.106940 2.096450 
# 
# From -- ./inp_files/18449.got.cif
#   From: 2010.05.17/outbox.cif.g08.bks.cpg/sg2_10_cif.got.tgz:18449.got - 2010.06.03 11:33:40.
