data_PCOD9112567
_publ_section_title
;
Structure prediction by ZEFSAII (Michael W. Deem and Ramdas Pophale) SiO2 
 PCOD9112567
Probable space group: P 2
;
_chemical_formula_sum "Si O2"
_cell_formula_units_Z 16
_cell_length_a 8.398207
_cell_length_b 12.486202
_cell_length_c 9.237734
_cell_angle_alpha 90.000000
_cell_angle_beta 53.785113
_cell_angle_gamma 90.000000
_cell_volume 781.541331
_symmetry_space_group_name_H-M "P 2"
_symmetry_group_IT_number 3
_symmetry_cell_setting 'monoclinic'
loop_
_space_group_symop_operation_xyz
x,y,z
-x,y,-z
loop_
_atom_site_type_symbol
_atom_site_label
_atom_site_fract_x
_atom_site_fract_y
_atom_site_fract_z
Si Si1 0.492855 0.796370 0.675801
Si Si2 0.773477 0.240964 0.183598
Si Si3 0.008281 0.254968 0.322969
Si Si4 0.310311 0.406599 0.002071
Si Si5 0.975666 0.013689 0.683743
Si Si6 0.778818 0.999099 0.187288
Si Si7 0.191124 0.646017 0.994195
Si Si8 0.278664 0.809478 0.181434
O O1 0.500000 0.784973 0.500000
O O2 0.695270 0.800162 0.659251
O O3 0.368549 0.904984 0.774079
O O4 0.371373 0.698172 0.809143
O O5 0.657788 0.329824 0.154860
O O6 0.703513 0.119137 0.196800
O O7 0.805665 0.261503 0.337860
O O8 0.000000 0.245735 0.000000
O O9 0.087794 0.134865 0.244252
O O10 0.000000 0.263173 0.500000
O O11 0.150727 0.344746 0.184827
O O12 0.500000 0.421152 0.000000
O O13 0.228902 0.521392 0.998776
O O14 0.000000 0.011642 0.500000
O O15 0.176093 0.993741 0.664974
O O16 0.826792 0.919636 0.801593
O O17 0.000000 0.987517 0.000000
O O18 0.177083 0.710908 0.153048
O O19 0.000000 0.664345 0.000000
O O20 0.500000 0.812017 0.000000
#
# Coordination Sequence:
#
# PCOD9112567 Si02
#       8
#     2   2   2   2   2   2   2   2
#     4  11  22  36  56  85 118 143 176 230 281 320
#     4   8  17  34  56  81 112 150 187 219 261 326
#     4   9  19  36  58  84 113 146 184 224 268 323
#     4  11  22  39  60  82 108 141 185 232 277 323
#     4  10  19  33  54  82 116 149 183 222 267 322
#     4  10  18  33  56  81 112 151 188 216 259 328
#     4  11  23  42  62  77 103 147 192 226 269 332
#     4  10  21  35  54  82 115 145 183 227 272 322
#
# _framework density 20.472366000000001
#
# number of rings (size 3 to 8) (size 9 to 14) (size 15 to 20)
#    0.000    2.000    0.000    6.375    0.000    1.500 
#    0.000    6.250    0.000    0.000    0.000    0.000 
#    0.000    0.000    0.000    0.000    0.000    0.000 
#
# Total GULP energy -89319.022064 kJ/mol
# GULP energy per Si atom -5582.438879 kJ/mol
# Density = 2.042577 g / cm^3
# Si number density = 20.472366 Si / 1000 Ang^3
#
#
#
# Elastic Constant Matrix: (Units=GPa)
#
#
# Indices 1 2 3 4 5 6 
#
# 1 93.0085 44.2826 21.5114 0.0000 37.6486 0.0000
# 2 44.2826 132.0080 31.4928 0.0000 13.2253 0.0000
# 3 21.5114 31.4928 65.6455 0.0000 41.8362 0.0000
# 4 0.0000 0.0000 0.0000 20.4110 0.0000 8.7559
# 5 37.6486 13.2253 41.8362 0.0000 38.6747 0.0000
# 6 0.0000 0.0000 0.0000 8.7559 0.0000 68.8851
#
#
#
# Elastic Compliance Matrix: (Units=1/GPa)
#
#
# Indices 1 2 3 4 5 6 
#
# 1 0.054957 -0.023153 0.071307 0.000000 -0.122719 0.000000
# 2 -0.023153 0.018603 -0.037500 0.000000 0.056742 0.000000
# 3 0.071307 -0.037500 0.147854 0.000000 -0.216533 0.000000
# 4 0.000000 0.000000 0.000000 0.051819 0.000000 -0.006587
# 5 -0.122719 0.056742 -0.216533 0.000000 0.360149 0.000000
# 6 0.000000 0.000000 0.000000 -0.006587 0.000000 0.015354
#
#
# Mechanical properties :
#
#
# Convention : Reuss Voigt Hill
#
# Bulk Modulus (GPa) = 4.11989 53.91506 29.01748
# Shear Modulus (GPa) = 7.05880 38.48585 22.77232
#
# Velocity S-wave (km/s) = 1.85888 4.34048 3.33880
# Velocity P-wave (km/s) = 2.57372 7.17721 5.39149
#
# Compressibility (1/GPa) = 0.24272478
#
# Stress axis : x y z
#
# Youngs Moduli (GPa) = 18.19589 53.75345 6.76341
#
# Poissons Ratio (x) = 1.24453 -0.48228
# Poissons Ratio (y) = 0.42128 0.25363
# Poissons Ratio (z) = -1.29750 2.01576
#
# Static dielectric constant tensor:
#      x y z
#    x 1.722410 0.000000 0.042230 
#    y 0.000000 1.696900 0.000000 
#    z 0.042230 0.000000 1.801790 
# 
# From -- ./inp_files/5993.got.cif
#   From: 2010.05.17/outbox.cif.g08.bks.cpg/sg3_3_cif.got.tgz:5993.got - 2010.06.03 18:33:08.
