data_PCOD9112844
_publ_section_title
;
Structure prediction by ZEFSAII (Michael W. Deem and Ramdas Pophale) SiO2 
 PCOD9112844
Probable space group: P 2
;
_chemical_formula_sum "Si O2"
_cell_formula_units_Z 15
_cell_length_a 17.270339
_cell_length_b 5.391526
_cell_length_c 7.269302
_cell_angle_alpha 90.000000
_cell_angle_beta 55.179262
_cell_angle_gamma 90.000000
_cell_volume 555.671425
_symmetry_space_group_name_H-M "P 2"
_symmetry_group_IT_number 3
_symmetry_cell_setting 'monoclinic'
loop_
_space_group_symop_operation_xyz
x,y,z
-x,y,-z
loop_
_atom_site_type_symbol
_atom_site_label
_atom_site_fract_x
_atom_site_fract_y
_atom_site_fract_z
Si Si1 0.764580 0.502710 0.476955
Si Si2 0.500000 0.698937 0.000000
Si Si3 0.965668 0.300382 0.260595
Si Si4 0.691411 0.896990 0.834583
Si Si5 0.612652 0.180279 0.519526
Si Si6 0.039862 0.809366 0.156250
Si Si7 0.585218 0.308368 0.164747
Si Si8 0.251178 0.783485 0.854116
O O1 0.855289 0.356972 0.418768
O O2 0.760391 0.759221 0.597794
O O3 0.670459 0.332305 0.596005
O O4 0.777155 0.565154 0.245485
O O5 0.405462 0.856418 0.146876
O O6 0.533295 0.520993 0.120623
O O7 0.023002 0.536065 0.259378
O O8 0.981563 0.031649 0.322549
O O9 0.000000 0.277212 0.000000
O O10 0.707617 0.736228 0.999451
O O11 0.673822 0.167064 0.951575
O O12 0.605502 0.362169 0.349787
O O13 0.503576 0.113936 0.704847
O O14 0.675774 0.956752 0.355463
O O15 0.000000 0.782681 0.000000
O O16 0.147598 0.900844 0.020835
#
# Coordination Sequence:
#
# PCOD9112844 Si02
#       8
#     2   1   2   2   2   2   2   2
#     4  12  23  42  72 101 138 186 249 293 372 446
#     4  12  22  44  62  90 148 180 236 304 366 418
#     4  10  20  38  70 105 136 184 238 294 376 441
#     4  11  27  43  66 105 138 189 242 306 362 436
#     4  10  22  41  67  98 131 194 241 294 365 445
#     4  10  19  40  69 101 140 187 228 302 373 440
#     4  10  23  42  64  96 142 181 244 301 366 428
#     4  11  24  42  69 102 143 181 243 301 367 445
#
# _framework density 26.99437
#
# number of rings (size 3 to 8) (size 9 to 14) (size 15 to 20)
#    0.000    1.333    4.000    2.800    3.733    0.000 
#    0.000    0.667    0.000    3.200    0.000    0.000 
#    0.000    0.000    0.000    0.000    0.000    0.000 
#
# Total GULP energy -83804.117289 kJ/mol
# GULP energy per Si atom -5586.941153 kJ/mol
# Density = 2.693293 g / cm^3
# Si number density = 26.994370 Si / 1000 Ang^3
#
#
#
# Elastic Constant Matrix: (Units=GPa)
#
#
# Indices 1 2 3 4 5 6 
#
# 1 74.6307 -14.4317 41.7945 0.0000 -2.7333 0.0000
# 2 -14.4317 83.5787 -6.7037 0.0000 -0.2653 0.0000
# 3 41.7945 -6.7037 65.9008 0.0000 9.2615 0.0000
# 4 0.0000 0.0000 0.0000 38.3260 0.0000 -19.9946
# 5 -2.7333 -0.2653 9.2615 0.0000 61.8164 0.0000
# 6 0.0000 0.0000 0.0000 -19.9946 0.0000 39.2531
#
#
#
# Elastic Compliance Matrix: (Units=1/GPa)
#
#
# Indices 1 2 3 4 5 6 
#
# 1 0.021894 0.002664 -0.014048 0.000000 0.003084 0.000000
# 2 0.002664 0.012388 -0.000463 0.000000 0.000240 0.000000
# 3 -0.014048 -0.000463 0.024643 0.000000 -0.004315 0.000000
# 4 0.000000 0.000000 0.000000 0.035535 0.000000 0.018101
# 5 0.003084 0.000240 -0.004315 0.000000 0.016961 0.000000
# 6 0.000000 0.000000 0.000000 0.018101 0.000000 0.034696
#
#
# Mechanical properties :
#
#
# Convention : Reuss Voigt Hill
#
# Bulk Modulus (GPa) = 28.38390 29.49204 28.93797
# Shear Modulus (GPa) = 27.53972 41.44251 34.49111
#
# Velocity S-wave (km/s) = 3.19753 3.92245 3.57839
# Velocity P-wave (km/s) = 4.91628 5.60920 5.27413
#
# Compressibility (1/GPa) = 0.03523124
#
# Stress axis : x y z
#
# Youngs Moduli (GPa) = 45.67363 80.72106 40.57947
#
# Poissons Ratio (x) = -0.21501 0.57006
# Poissons Ratio (y) = -0.12166 0.01878
# Poissons Ratio (z) = 0.64162 0.03736
#
# Static dielectric constant tensor:
#      x y z
#    x 1.867290 0.000000 -0.063080 
#    y 0.000000 2.276220 0.000000 
#    z -0.063080 0.000000 2.190510 
# 
# From -- ./inp_files/8863.got.cif
#   From: 2010.05.17/outbox.cif.g08.bks.cpg/sg3_5_cif.got.tgz:8863.got - 2010.06.03 18:33:08.
