data_PCOD9112050
_publ_section_title
;
Structure prediction by ZEFSAII (Michael W. Deem and Ramdas Pophale) SiO2 
 PCOD9112050
Probable space group: P -1
;
_chemical_formula_sum "Si O2"
_cell_formula_units_Z 10
_cell_length_a 9.580228
_cell_length_b 9.557449
_cell_length_c 10.130786
_cell_angle_alpha 53.560912
_cell_angle_beta 88.187147
_cell_angle_gamma 46.134087
_cell_volume 406.487982
_symmetry_space_group_name_H-M "P -1"
_symmetry_group_IT_number 2
_symmetry_cell_setting 'triclinic'
loop_
_space_group_symop_operation_xyz
x,y,z
-x,-y,-z
loop_
_atom_site_type_symbol
_atom_site_label
_atom_site_fract_x
_atom_site_fract_y
_atom_site_fract_z
Si Si1 0.534412 0.630625 0.519378
Si Si2 0.932013 0.847621 0.580477
Si Si3 0.052417 0.243401 0.672966
Si Si4 0.404118 0.427820 0.970965
Si Si5 0.691038 0.803789 0.729468
O O1 0.500000 0.500000 0.500000
O O2 0.345966 0.803620 0.552130
O O3 0.829014 0.371941 0.682525
O O4 0.419798 0.939490 0.304939
O O5 0.938293 0.639546 0.752144
O O6 0.833051 0.306519 0.268879
O O7 0.048936 0.169981 0.565778
O O8 0.000000 0.500000 0.500000
O O9 0.334435 0.921956 0.903544
O O10 0.305037 0.389326 0.101882
O O11 0.500000 0.500000 0.000000
O O12 0.500000 0.000000 0.500000
#
# Coordination Sequence:
#
# PCOD9112050 Si02
#       5
#     2   2   2   2   2
#     4  10  22  40  66  99 134 178 230 277 342 414
#     4  10  24  44  71  95 142 184 227 285 354 402
#     4  12  23  45  71  99 137 186 234 283 348 419
#     4  12  24  41  70 107 137 179 237 288 344 417
#     4  10  20  44  68  93 135 187 222 278 345 409
#
# _framework density 24.600971999999999
#
# number of rings (size 3 to 8) (size 9 to 14) (size 15 to 20)
#    1.200    0.000    4.000    1.800    0.000    5.600 
#    0.000    4.000    0.000   13.200    0.000    0.000 
#    0.000    0.000    0.000    0.000    0.000    0.000 
#
# Total GULP energy -55830.030789 kJ/mol
# GULP energy per Si atom -5583.003079 kJ/mol
# Density = 2.454498 g / cm^3
# Si number density = 24.600972 Si / 1000 Ang^3
#
#
#
# Elastic Constant Matrix: (Units=GPa)
#
#
# Indices 1 2 3 4 5 6 
#
# 1 189.3197 48.8501 43.1776 1.1454 -0.9993 -12.2517
# 2 48.8501 100.7392 43.5285 -7.4876 16.4276 -4.5453
# 3 43.1776 43.5285 64.3446 -1.8604 11.5267 -4.2566
# 4 1.1454 -7.4876 -1.8604 28.1033 -5.7784 -5.7217
# 5 -0.9993 16.4276 11.5267 -5.7784 58.4541 -7.3356
# 6 -12.2517 -4.5453 -4.2566 -5.7217 -7.3356 64.3263
#
#
#
# Elastic Compliance Matrix: (Units=1/GPa)
#
#
# Indices 1 2 3 4 5 6 
#
# 1 0.006628 -0.002018 -0.003281 -0.000530 0.001403 0.001015
# 2 -0.002018 0.015138 -0.008373 0.003115 -0.002312 0.000145
# 3 -0.003281 -0.008373 0.023825 -0.001039 -0.002506 -0.000018
# 4 -0.000530 0.003115 -0.001039 0.037873 0.003544 0.003823
# 5 0.001403 -0.002312 -0.002506 0.003544 0.018928 0.002412
# 6 0.001015 0.000145 -0.000018 0.003823 0.002412 0.016363
#
#
# Mechanical properties :
#
#
# Convention : Reuss Voigt Hill
#
# Bulk Modulus (GPa) = 54.80662 69.50175 62.15418
# Shear Modulus (GPa) = 32.85542 44.76656 38.81099
#
# Velocity S-wave (km/s) = 3.65846 4.27043 3.97624
# Velocity P-wave (km/s) = 6.33817 7.25454 6.81178
#
# Compressibility (1/GPa) = 0.01824597
#
# Stress axis : x y z
#
# Youngs Moduli (GPa) = 150.88570 66.05840 41.97263
#
# Poissons Ratio (x) = 0.13332 0.13773
# Poissons Ratio (y) = 0.30452 0.35142
# Poissons Ratio (z) = 0.49512 0.55309
#
# Static dielectric constant tensor:
#      x y z
#    x 2.021240 0.019090 -0.081460 
#    y 0.019090 1.979670 -0.081210 
#    z -0.081460 -0.081210 2.073100 
# 
# From -- ./inp_files/153334.got.cif
#   From: 2010.05.17/outbox.cif.g08.bks.cpg/sg2_77_cif.got.tgz:153334.got - 2010.06.03 11:33:40.
