data_PCOD9112669
_publ_section_title
;
Structure prediction by ZEFSAII (Michael W. Deem and Ramdas Pophale) SiO2 
 PCOD9112669
Probable space group: P 2
;
_chemical_formula_sum "Si O2"
_cell_formula_units_Z 14
_cell_length_a 12.256867
_cell_length_b 5.173085
_cell_length_c 15.268856
_cell_angle_alpha 90.000000
_cell_angle_beta 147.119223
_cell_angle_gamma 90.000000
_cell_volume 525.593043
_symmetry_space_group_name_H-M "P 2"
_symmetry_group_IT_number 3
_symmetry_cell_setting 'monoclinic'
loop_
_space_group_symop_operation_xyz
x,y,z
-x,y,-z
loop_
_atom_site_type_symbol
_atom_site_label
_atom_site_fract_x
_atom_site_fract_y
_atom_site_fract_z
Si Si1 0.815938 0.372190 0.313274
Si Si2 0.772428 0.345132 0.823307
Si Si3 0.584272 0.546851 0.319409
Si Si4 0.763986 0.060497 0.134293
Si Si5 0.751696 0.045827 0.519752
Si Si6 0.219949 0.817775 0.281035
Si Si7 0.850058 0.578856 0.143425
O O1 0.672645 0.515184 0.282937
O O2 0.000000 0.285636 0.500000
O O3 0.888428 0.532838 0.276295
O O4 0.689078 0.150091 0.178223
O O5 0.637415 0.437057 0.813717
O O6 0.691284 0.553602 0.697392
O O7 0.783869 0.048392 0.794933
O O8 0.000000 0.414923 0.000000
O O9 0.637286 0.837673 0.383318
O O10 0.699759 0.337703 0.459859
O O11 0.006197 0.022218 0.319145
O O12 0.686819 0.802846 0.039530
O O13 0.776619 0.293254 0.074877
O O14 0.687366 0.965119 0.573636
O O15 0.016595 0.693140 0.189907
#
# Coordination Sequence:
#
# PCOD9112669 Si02
#       7
#     2   2   2   2   2   2   2
#     4  10  19  32  56  92 138 166 193 249 323 413
#     4  12  28  47  66  90 120 185 232 274 321 366
#     4  12  25  38  62  97 143 169 210 264 318 407
#     4   9  17  30  50  88 134 158 193 225 311 410
#     4  11  21  38  60 104 128 165 202 255 357 378
#     4  11  22  44  71  90 132 161 221 284 316 411
#     4   9  19  32  57  92 116 170 202 241 325 366
#
# _framework density 26.636578
#
# number of rings (size 3 to 8) (size 9 to 14) (size 15 to 20)
#    0.857    0.571    1.429    7.286    2.000    4.000 
#    0.000    0.000    0.000    0.857    3.714    0.000 
#    0.000    0.000    0.000    0.000    0.000    0.000 
#
# Total GULP energy -78035.417632 kJ/mol
# GULP energy per Si atom -5573.958402 kJ/mol
# Density = 2.657595 g / cm^3
# Si number density = 26.636578 Si / 1000 Ang^3
#
#
#
# Elastic Constant Matrix: (Units=GPa)
#
#
# Indices 1 2 3 4 5 6 
#
# 1 113.2040 24.5993 30.3330 0.0000 2.4903 0.0000
# 2 24.5993 168.0080 3.0510 0.0000 -0.3664 0.0000
# 3 30.3330 3.0510 80.8214 0.0000 -0.1010 0.0000
# 4 0.0000 0.0000 0.0000 22.2246 0.0000 6.5392
# 5 2.4903 -0.3664 -0.1010 0.0000 28.0466 0.0000
# 6 0.0000 0.0000 0.0000 6.5392 0.0000 25.1465
#
#
#
# Elastic Compliance Matrix: (Units=1/GPa)
#
#
# Indices 1 2 3 4 5 6 
#
# 1 0.010172 -0.001423 -0.003765 0.000000 -0.000935 0.000000
# 2 -0.001423 0.006155 0.000302 0.000000 0.000208 0.000000
# 3 -0.003765 0.000302 0.013775 0.000000 0.000388 0.000000
# 4 0.000000 0.000000 0.000000 0.048723 0.000000 -0.012670
# 5 -0.000935 0.000208 0.000388 0.000000 0.035742 0.000000
# 6 0.000000 0.000000 0.000000 -0.012670 0.000000 0.043062
#
#
# Mechanical properties :
#
#
# Convention : Reuss Voigt Hill
#
# Bulk Modulus (GPa) = 49.18761 53.11110 51.14936
# Shear Modulus (GPa) = 28.70609 35.35356 32.02982
#
# Velocity S-wave (km/s) = 3.28639 3.64710 3.47143
# Velocity P-wave (km/s) = 5.73644 6.14147 5.94240
#
# Compressibility (1/GPa) = 0.02033032
#
# Stress axis : x y z
#
# Youngs Moduli (GPa) = 98.30617 162.45817 72.59441
#
# Poissons Ratio (x) = 0.23119 0.27333
# Poissons Ratio (y) = 0.13990 -0.02192
# Poissons Ratio (z) = 0.37014 -0.04906
#
# Static dielectric constant tensor:
#      x y z
#    x 2.231480 0.000000 -0.023770 
#    y 0.000000 2.193940 0.000000 
#    z -0.023770 0.000000 2.327770 
# 
# From -- ./inp_files/15847.got.cif
#   From: 2010.05.17/outbox.cif.g08.bks.cpg/sg3_8_cif.got.tgz:15847.got - 2010.06.03 18:33:08.
