data_PCOD9112036
_publ_section_title
;
Structure prediction by ZEFSAII (Michael W. Deem and Ramdas Pophale) SiO2 
 PCOD9112036
Probable space group: P -1
;
_chemical_formula_sum "Si O2"
_cell_formula_units_Z 13
_cell_length_a 15.446848
_cell_length_b 4.865765
_cell_length_c 8.882658
_cell_angle_alpha 80.259430
_cell_angle_beta 51.311983
_cell_angle_gamma 101.032407
_cell_volume 473.759155
_symmetry_space_group_name_H-M "P -1"
_symmetry_group_IT_number 2
_symmetry_cell_setting 'triclinic'
loop_
_space_group_symop_operation_xyz
x,y,z
-x,-y,-z
loop_
_atom_site_type_symbol
_atom_site_label
_atom_site_fract_x
_atom_site_fract_y
_atom_site_fract_z
Si Si1 0.252559 0.521930 0.701632
Si Si2 0.918816 0.924829 0.833885
Si Si3 0.827929 0.387738 0.768350
Si Si4 0.834690 0.114817 0.478011
Si Si5 0.554521 0.981166 0.147547
Si Si6 0.606628 0.637445 0.696711
Si Si7 0.500000 0.000000 0.500000
O O1 0.198100 0.713847 0.639496
O O2 0.313616 0.374480 0.529639
O O3 0.361101 0.744631 0.662556
O O4 0.150951 0.280912 0.933349
O O5 0.866575 0.722904 0.758803
O O6 0.058410 0.984148 0.676388
O O7 0.884633 0.213620 0.834856
O O8 0.869517 0.338050 0.562174
O O9 0.684644 0.204356 0.940319
O O10 0.710417 0.831568 0.679740
O O11 0.475253 0.174022 0.267942
O O12 0.548316 0.822846 0.329038
O O13 0.520098 0.291075 0.859096
#
# Coordination Sequence:
#
# PCOD9112036 Si02
#       7
#     2   2   2   2   2   2   1
#     4  11  26  47  79 110 150 192 251 307 372 436
#     4  12  29  49  78 107 148 203 253 302 363 444
#     4  12  29  49  77 108 150 201 246 309 370 441
#     4  12  28  51  74 111 154 195 251 303 374 441
#     4  11  24  44  72 106 149 187 250 294 381 434
#     4  11  25  44  72 112 143 194 233 318 363 441
#     4  10  20  44  68 108 144 184 238 300 362 436
#
# _framework density 27.440103000000001
#
# number of rings (size 3 to 8) (size 9 to 14) (size 15 to 20)
#    0.000    0.615    4.615    2.308    8.615    3.077 
#    0.000    0.000    0.000    0.000    0.000    0.000 
#    0.000    0.000    0.000    0.000    0.000    0.000 
#
# Total GULP energy -72804.101070 kJ/mol
# GULP energy per Si atom -5600.315467 kJ/mol
# Density = 2.737765 g / cm^3
# Si number density = 27.440103 Si / 1000 Ang^3
#
#
#
# Elastic Constant Matrix: (Units=GPa)
#
#
# Indices 1 2 3 4 5 6 
#
# 1 112.0332 28.7886 31.6859 -10.0566 -20.2657 -17.2845
# 2 28.7886 117.7195 17.1414 -7.4140 -11.3474 -9.7632
# 3 31.6859 17.1414 133.5736 -21.3850 -34.6927 -11.4284
# 4 -10.0566 -7.4140 -21.3850 44.3838 3.4020 0.0755
# 5 -20.2657 -11.3474 -34.6927 3.4020 52.4549 6.2090
# 6 -17.2845 -9.7632 -11.4284 0.0755 6.2090 42.2998
#
#
#
# Elastic Compliance Matrix: (Units=1/GPa)
#
#
# Indices 1 2 3 4 5 6 
#
# 1 0.010828 -0.001874 -0.001169 0.001378 0.002524 0.003303
# 2 -0.001874 0.009232 -0.000258 0.000922 0.000905 0.001161
# 3 -0.001169 -0.000258 0.010051 0.004094 0.005717 0.001332
# 4 0.001378 0.000922 0.004094 0.024841 0.001640 0.001597
# 5 0.002524 0.000905 0.005717 0.001640 0.023998 -0.000740
# 6 0.003303 0.001161 0.001332 0.001597 -0.000740 0.025724
#
#
# Mechanical properties :
#
#
# Convention : Reuss Voigt Hill
#
# Bulk Modulus (GPa) = 42.53668 57.61755 50.07711
# Shear Modulus (GPa) = 41.97684 46.87506 44.42595
#
# Velocity S-wave (km/s) = 3.91546 4.13760 4.02806
# Velocity P-wave (km/s) = 5.99803 6.62341 6.31846
#
# Compressibility (1/GPa) = 0.02350912
#
# Stress axis : x y z
#
# Youngs Moduli (GPa) = 92.35284 108.31667 99.48938
#
# Poissons Ratio (x) = 0.20295 0.11633
# Poissons Ratio (y) = 0.17304 0.02569
# Poissons Ratio (z) = 0.10799 0.02797
#
# Static dielectric constant tensor:
#      x y z
#    x 1.040620 0.307050 -0.678900 
#    y 0.307050 2.086020 0.165450 
#    z -0.678900 0.165450 1.608160 
# 
# From -- ./inp_files/287805.got.cif
#   From: 2010.05.17/outbox.cif.g08.bks.cpg/sg2_144_cif.got.tgz:287805.got - 2010.06.03 11:33:40.
