data_PCOD9112814
_publ_section_title
;
Structure prediction by ZEFSAII (Michael W. Deem and Ramdas Pophale) SiO2 
 PCOD9112814
Probable space group: P 2
;
_chemical_formula_sum "Si O2"
_cell_formula_units_Z 14
_cell_length_a 10.985248
_cell_length_b 5.025306
_cell_length_c 18.241275
_cell_angle_alpha 90.000000
_cell_angle_beta 146.526131
_cell_angle_gamma 90.000000
_cell_volume 555.415080
_symmetry_space_group_name_H-M "P 2"
_symmetry_group_IT_number 3
_symmetry_cell_setting 'monoclinic'
loop_
_space_group_symop_operation_xyz
x,y,z
-x,y,-z
loop_
_atom_site_type_symbol
_atom_site_label
_atom_site_fract_x
_atom_site_fract_y
_atom_site_fract_z
Si Si1 0.654873 0.428840 0.649365
Si Si2 0.983705 0.127285 0.620654
Si Si3 0.221748 0.946868 0.068785
Si Si4 0.903232 0.935738 0.728987
Si Si5 0.777522 0.662893 0.207182
Si Si6 0.607831 0.442875 0.908580
Si Si7 0.587441 0.233897 0.329045
O O1 0.500000 0.397611 0.500000
O O2 0.758425 0.719054 0.696493
O O3 0.519941 0.380356 0.655370
O O4 0.852237 0.213469 0.741914
O O5 0.831493 0.158830 0.474676
O O6 0.067638 0.409412 0.694819
O O7 0.832485 0.991546 0.608480
O O8 0.181146 0.911814 0.716128
O O9 0.278734 0.156576 0.033005
O O10 0.424854 0.991254 0.226631
O O11 0.218965 0.654865 0.034728
O O12 0.000000 0.014103 0.000000
O O13 0.138068 0.798673 0.825994
O O14 0.534000 0.549623 0.095839
O O15 0.428371 0.408582 0.752345
#
# Coordination Sequence:
#
# PCOD9112814 Si02
#       7
#     2   2   2   2   2   2   2
#     4  12  20  32  53  79 119 154 190 225 271 342
#     4  10  20  35  51  82 122 151 190 217 271 342
#     4  10  23  42  59  84 113 144 200 253 296 336
#     4  10  20  31  53  76 116 159 181 222 266 324
#     4  10  19  38  53  82 118 157 187 223 270 356
#     4  10  23  38  61  84 113 153 192 239 296 342
#     4  10  25  35  57  88 114 159 192 232 293 340
#
# _framework density 25.206375000000001
#
# number of rings (size 3 to 8) (size 9 to 14) (size 15 to 20)
#    1.714    0.000    2.857    1.714    4.000    0.571 
#    0.000    0.000    0.000    0.000    0.000    6.000 
#    0.000    0.000    0.000    0.000    0.000    0.000 
#
# Total GULP energy -78187.086367 kJ/mol
# GULP energy per Si atom -5584.791883 kJ/mol
# Density = 2.514900 g / cm^3
# Si number density = 25.206375 Si / 1000 Ang^3
#
#
#
# Elastic Constant Matrix: (Units=GPa)
#
#
# Indices 1 2 3 4 5 6 
#
# 1 116.4049 7.9051 24.6723 0.0000 -1.1515 0.0000
# 2 7.9051 137.0740 13.6596 0.0000 -4.5489 0.0000
# 3 24.6723 13.6596 74.3344 0.0000 -14.9080 0.0000
# 4 0.0000 0.0000 0.0000 9.7072 0.0000 11.7036
# 5 -1.1515 -4.5489 -14.9080 0.0000 35.2859 0.0000
# 6 0.0000 0.0000 0.0000 11.7036 0.0000 35.6516
#
#
#
# Elastic Compliance Matrix: (Units=1/GPa)
#
#
# Indices 1 2 3 4 5 6 
#
# 1 0.009287 -0.000248 -0.003259 0.000000 -0.001106 0.000000
# 2 -0.000248 0.007444 -0.001196 0.000000 0.000446 0.000000
# 3 -0.003259 -0.001196 0.016063 0.000000 0.006526 0.000000
# 4 0.000000 0.000000 0.000000 0.170498 0.000000 -0.055971
# 5 -0.001106 0.000446 0.006526 0.000000 0.031118 0.000000
# 6 0.000000 0.000000 0.000000 -0.055971 0.000000 0.046423
#
#
# Mechanical properties :
#
#
# Convention : Reuss Voigt Hill
#
# Bulk Modulus (GPa) = 42.75554 46.69859 44.72706
# Shear Modulus (GPa) = 16.77658 34.90070 25.83864
#
# Velocity S-wave (km/s) = 2.58266 3.72506 3.20517
# Velocity P-wave (km/s) = 5.08847 6.08836 5.61073
#
# Compressibility (1/GPa) = 0.02338878
#
# Stress axis : x y z
#
# Youngs Moduli (GPa) = 107.67402 134.34334 62.25501
#
# Poissons Ratio (x) = 0.03326 0.20288
# Poissons Ratio (y) = 0.02665 0.07447
# Poissons Ratio (z) = 0.35089 0.16070
#
# Static dielectric constant tensor:
#      x y z
#    x 1.989220 0.000000 -0.003370 
#    y 0.000000 1.961200 0.000000 
#    z -0.003370 0.000000 2.064800 
# 
# From -- ./inp_files/16278.got.cif
#   From: 2010.05.17/outbox.cif.g08.bks.cpg/sg3_9_cif.got.tgz:16278.got - 2010.06.03 18:33:08.
