data_PCOD9112080
_publ_section_title
;
Structure prediction by ZEFSAII (Michael W. Deem and Ramdas Pophale) SiO2 
 PCOD9112080
Probable space group: P -1
;
_chemical_formula_sum "Si O2"
_cell_formula_units_Z 12
_cell_length_a 9.010342
_cell_length_b 24.903967
_cell_length_c 13.880804
_cell_angle_alpha 20.589921
_cell_angle_beta 28.142575
_cell_angle_gamma 35.256035
_cell_volume 515.920007
_symmetry_space_group_name_H-M "P -1"
_symmetry_group_IT_number 2
_symmetry_cell_setting 'triclinic'
loop_
_space_group_symop_operation_xyz
x,y,z
-x,-y,-z
loop_
_atom_site_type_symbol
_atom_site_label
_atom_site_fract_x
_atom_site_fract_y
_atom_site_fract_z
Si Si1 0.918513 0.139378 0.742601
Si Si2 0.693107 0.312803 0.260967
Si Si3 0.280275 0.013984 0.238965
Si Si4 0.874603 0.865019 0.572493
Si Si5 0.085904 0.480163 0.374535
Si Si6 0.662995 0.339813 0.698671
O O1 0.155557 0.130937 0.530852
O O2 0.907920 0.292774 0.555126
O O3 0.567718 0.128356 0.911458
O O4 0.000000 0.000000 0.000000
O O5 0.552460 0.147270 0.588268
O O6 0.914441 0.277720 0.282235
O O7 0.431143 0.420119 0.265076
O O8 0.896439 0.372418 0.953006
O O9 0.083524 0.007552 0.261223
O O10 0.000000 0.000000 0.500000
O O11 0.566243 0.811715 0.898644
O O12 0.000000 0.500000 0.500000
O O13 0.839640 0.365694 0.654678
O O14 0.500000 0.500000 0.500000
#
# Coordination Sequence:
#
# PCOD9112080 Si02
#       6
#     2   2   2   2   2   2
#     4  12  26  44  67 101 137 173 223 281 327 393
#     4   9  22  42  65 100 125 173 225 262 330 399
#     4  10  20  44  69  92 130 176 218 265 327 400
#     4  10  24  44  70  95 133 181 216 271 340 393
#     4  11  24  42  68  95 134 172 220 276 330 393
#     4  12  25  45  67 102 133 173 227 274 332 400
#
# _framework density 23.259421
#
# number of rings (size 3 to 8) (size 9 to 14) (size 15 to 20)
#    1.000    0.333    3.333    1.500    2.333    5.333 
#    3.000    0.000    0.000    0.000    0.000    0.000 
#    0.000    0.000    0.000    0.000    0.000    0.000 
#
# Total GULP energy -66883.352088 kJ/mol
# GULP energy per Si atom -5573.612674 kJ/mol
# Density = 2.320648 g / cm^3
# Si number density = 23.259421 Si / 1000 Ang^3
#
#
#
# Elastic Constant Matrix: (Units=GPa)
#
#
# Indices 1 2 3 4 5 6 
#
# 1 96.3934 23.2879 27.9399 3.6152 15.3997 25.2965
# 2 23.2879 84.6841 10.7098 8.8143 24.7072 27.3588
# 3 27.9399 10.7098 64.6134 19.2216 13.1555 14.0468
# 4 3.6152 8.8143 19.2216 29.9685 9.2728 7.0480
# 5 15.3997 24.7072 13.1555 9.2728 49.7349 4.7404
# 6 25.2965 27.3588 14.0468 7.0480 4.7404 41.7961
#
#
#
# Elastic Compliance Matrix: (Units=1/GPa)
#
#
# Indices 1 2 3 4 5 6 
#
# 1 0.014112 -0.000664 -0.005232 0.004309 -0.002815 -0.006756
# 2 -0.000664 0.017581 0.001613 -0.001254 -0.007714 -0.010562
# 3 -0.005232 0.001613 0.022417 -0.012760 -0.002446 -0.002994
# 4 0.004309 -0.001254 -0.012760 0.044008 -0.005127 -0.004338
# 5 -0.002815 -0.007714 -0.002446 -0.005127 0.025889 0.005504
# 6 -0.006756 -0.010562 -0.002994 -0.004338 0.005504 0.036041
#
#
# Mechanical properties :
#
#
# Convention : Reuss Voigt Hill
#
# Bulk Modulus (GPa) = 21.95708 41.06289 31.50999
# Shear Modulus (GPa) = 27.20424 36.55012 31.87718
#
# Velocity S-wave (km/s) = 3.42365 3.96840 3.70605
# Velocity P-wave (km/s) = 5.00890 6.22015 5.64710
#
# Compressibility (1/GPa) = 0.04554339
#
# Stress axis : x y z
#
# Youngs Moduli (GPa) = 70.86124 56.88109 44.60974
#
# Poissons Ratio (x) = 0.03775 0.23341
# Poissons Ratio (y) = 0.04703 -0.07195
# Poissons Ratio (z) = 0.37076 -0.09174
#
# Static dielectric constant tensor:
#      x y z
#    x 2.016890 -0.013890 -0.002710 
#    y -0.013890 1.870060 -0.019380 
#    z -0.002710 -0.019380 1.956410 
# 
# From -- ./inp_files/330020.got.cif
#   From: 2010.05.17/outbox.cif.g08.bks.cpg/sg2_166_cif.got.tgz:330020.got - 2010.06.03 11:33:40.
