data_PCOD9112592
_publ_section_title
;
Structure prediction by ZEFSAII (Michael W. Deem and Ramdas Pophale) SiO2 
 PCOD9112592
Probable space group: P 2
;
_chemical_formula_sum "Si O2"
_cell_formula_units_Z 15
_cell_length_a 8.198678
_cell_length_b 7.410689
_cell_length_c 14.199335
_cell_angle_alpha 90.000000
_cell_angle_beta 121.263048
_cell_angle_gamma 90.000000
_cell_volume 737.448574
_symmetry_space_group_name_H-M "P 2"
_symmetry_group_IT_number 3
_symmetry_cell_setting 'monoclinic'
loop_
_space_group_symop_operation_xyz
x,y,z
-x,y,-z
loop_
_atom_site_type_symbol
_atom_site_label
_atom_site_fract_x
_atom_site_fract_y
_atom_site_fract_z
Si Si1 0.813729 0.873470 0.063988
Si Si2 0.823656 0.897037 0.729405
Si Si3 0.366502 0.388248 0.550968
Si Si4 0.357604 0.556277 0.213210
Si Si5 0.000000 0.554402 0.000000
Si Si6 0.535060 0.868716 0.157284
Si Si7 0.422128 0.015459 0.627566
Si Si8 0.849187 0.741801 0.535981
O O1 0.686883 0.856046 0.119679
O O2 0.006156 0.971285 0.154819
O O3 0.891928 0.687312 0.041839
O O4 0.664712 0.948449 0.942897
O O5 0.734151 0.719752 0.752952
O O6 0.899791 0.824489 0.652268
O O7 0.645829 0.032203 0.668947
O O8 0.500000 0.392827 0.500000
O O9 0.501070 0.443980 0.679383
O O10 0.305705 0.185181 0.555324
O O11 0.198049 0.529953 0.481555
O O12 0.485353 0.666409 0.176560
O O13 0.175963 0.462002 0.108103
O O14 0.597381 0.980792 0.267114
O O15 0.346762 0.838590 0.552489
O O16 0.000000 0.784835 0.500000
#
# Coordination Sequence:
#
# PCOD9112592 Si02
#       8
#     2   2   2   2   1   2   2   2
#     4   9  17  30  61  88 115 153 197 239 297 354
#     4  10  18  35  57  84 113 151 198 241 289 353
#     4  12  22  39  61  85 118 160 199 244 294 352
#     4   9  17  32  56  78 115 147 193 238 291 346
#     4   8  16  30  52  90 112 146 196 242 286 360
#     4   9  17  34  56  88 119 154 191 244 297 348
#     4  11  23  38  60  86 118 157 198 245 294 353
#     4  12  23  38  60  84 117 154 198 249 300 353
#
# _framework density 20.340399999999999
#
# number of rings (size 3 to 8) (size 9 to 14) (size 15 to 20)
#    0.000    1.867    4.000    2.800    0.000    0.533 
#    0.000    2.667    0.000    6.400    0.000    0.000 
#    0.000    0.000    0.000    0.000    0.000    0.000 
#
# Total GULP energy -83608.090581 kJ/mol
# GULP energy per Si atom -5573.872705 kJ/mol
# Density = 2.029410 g / cm^3
# Si number density = 20.340400 Si / 1000 Ang^3
#
#
#
# Elastic Constant Matrix: (Units=GPa)
#
#
# Indices 1 2 3 4 5 6 
#
# 1 67.8374 -1.4608 -2.2315 0.0000 -12.0524 0.0000
# 2 -1.4608 39.4875 0.4644 0.0000 -2.8051 0.0000
# 3 -2.2315 0.4644 69.9954 0.0000 1.2018 0.0000
# 4 0.0000 0.0000 0.0000 13.1775 0.0000 0.1406
# 5 -12.0524 -2.8051 1.2018 0.0000 32.8295 0.0000
# 6 0.0000 0.0000 0.0000 0.1406 0.0000 7.2553
#
#
#
# Elastic Compliance Matrix: (Units=1/GPa)
#
#
# Indices 1 2 3 4 5 6 
#
# 1 0.015820 0.000998 0.000397 0.000000 0.005879 0.000000
# 2 0.000998 0.025545 -0.000182 0.000000 0.002556 0.000000
# 3 0.000397 -0.000182 0.014307 0.000000 -0.000394 0.000000
# 4 0.000000 0.000000 0.000000 0.075903 0.000000 -0.001471
# 5 0.005879 0.002556 -0.000394 0.000000 0.032851 0.000000
# 6 0.000000 0.000000 0.000000 -0.001471 0.000000 0.137859
#
#
# Mechanical properties :
#
#
# Convention : Reuss Voigt Hill
#
# Bulk Modulus (GPa) = 17.21188 18.98494 18.09841
# Shear Modulus (GPa) = 15.66294 22.68900 19.17597
#
# Velocity S-wave (km/s) = 2.77797 3.34348 3.07376
# Velocity P-wave (km/s) = 4.33241 4.92535 4.63836
#
# Compressibility (1/GPa) = 0.05809941
#
# Stress axis : x y z
#
# Youngs Moduli (GPa) = 63.21067 39.14644 69.89453
#
# Poissons Ratio (x) = -0.03908 -0.02773
# Poissons Ratio (y) = -0.06310 0.01269
# Poissons Ratio (z) = -0.02508 0.00711
#
# Static dielectric constant tensor:
#      x y z
#    x 1.731900 0.000000 0.026700 
#    y 0.000000 1.706720 0.000000 
#    z 0.026700 0.000000 1.798150 
# 
# From -- ./inp_files/7010.got.cif
#   From: 2010.05.17/outbox.cif.g08.bks.cpg/sg3_4_cif.got.tgz:7010.got - 2010.06.03 18:33:08.
