data_PCOD9112818
_publ_section_title
;
Structure prediction by ZEFSAII (Michael W. Deem and Ramdas Pophale) SiO2 
 PCOD9112818
Probable space group: P 2
;
_chemical_formula_sum "Si O2"
_cell_formula_units_Z 11
_cell_length_a 22.263015
_cell_length_b 5.123717
_cell_length_c 10.974731
_cell_angle_alpha 90.000000
_cell_angle_beta 156.006552
_cell_angle_gamma 90.000000
_cell_volume 509.055032
_symmetry_space_group_name_H-M "P 2"
_symmetry_group_IT_number 3
_symmetry_cell_setting 'monoclinic'
loop_
_space_group_symop_operation_xyz
x,y,z
-x,y,-z
loop_
_atom_site_type_symbol
_atom_site_label
_atom_site_fract_x
_atom_site_fract_y
_atom_site_fract_z
Si Si1 0.341155 0.717830 0.216835
Si Si2 0.000000 0.266041 0.500000
Si Si3 0.207848 0.884001 0.734396
Si Si4 0.493395 0.936305 0.843187
Si Si5 0.081160 0.645688 0.870648
Si Si6 0.342621 0.428426 0.454263
O O1 0.500000 0.856554 0.500000
O O2 0.625896 0.472270 0.632477
O O3 0.278994 0.685519 0.965708
O O4 0.207271 0.841961 0.049540
O O5 0.060410 0.447988 0.719488
O O6 0.123278 0.090830 0.662451
O O7 0.079004 0.766760 0.410678
O O8 0.344166 0.986690 0.910451
O O9 0.386726 0.153186 0.588508
O O10 0.435714 0.652709 0.694859
O O11 0.500000 0.953742 0.000000
O O12 0.168187 0.500347 0.138754
#
# Coordination Sequence:
#
# PCOD9112818 Si02
#       6
#     2   1   2   2   2   2
#     4  10  19  38  62 103 134 172 221 285 364 412
#     4  12  20  32  68  98 144 168 220 282 380 414
#     4  12  23  40  67 106 145 183 227 296 362 434
#     4  12  28  49  72  97 140 197 248 285 340 425
#     4  10  22  37  62 103 141 170 222 283 372 419
#     4  10  25  45  71  97 140 179 244 293 348 419
#
# _framework density 21.608667000000001
#
# number of rings (size 3 to 8) (size 9 to 14) (size 15 to 20)
#    1.091    0.000    5.455    0.545   10.182    0.000 
#    0.000    0.909    0.000    0.000    0.000    0.000 
#    0.000    0.000    0.000    0.000    0.000    0.000 
#
# Total GULP energy -61293.018286 kJ/mol
# GULP energy per Si atom -5572.092571 kJ/mol
# Density = 2.155948 g / cm^3
# Si number density = 21.608667 Si / 1000 Ang^3
#
#
#
# Elastic Constant Matrix: (Units=GPa)
#
#
# Indices 1 2 3 4 5 6 
#
# 1 69.9115 13.3869 25.0885 0.0000 -17.8602 0.0000
# 2 13.3869 60.6836 15.3570 0.0000 -5.1605 0.0000
# 3 25.0885 15.3570 146.6073 0.0000 2.6438 0.0000
# 4 0.0000 0.0000 0.0000 26.6107 0.0000 -3.7315
# 5 -17.8602 -5.1605 2.6438 0.0000 14.6704 0.0000
# 6 0.0000 0.0000 0.0000 -3.7315 0.0000 11.3190
#
#
#
# Elastic Compliance Matrix: (Units=1/GPa)
#
#
# Indices 1 2 3 4 5 6 
#
# 1 0.023579 -0.001632 -0.004386 0.000000 0.028922 0.000000
# 2 -0.001632 0.017641 -0.001650 0.000000 0.004516 0.000000
# 3 -0.004386 -0.001650 0.007877 0.000000 -0.007339 0.000000
# 4 0.000000 0.000000 0.000000 0.039400 0.000000 0.012989
# 5 0.028922 0.004516 -0.007339 0.000000 0.106285 0.000000
# 6 0.000000 0.000000 0.000000 0.012989 0.000000 0.092629
#
#
# Mechanical properties :
#
#
# Convention : Reuss Voigt Hill
#
# Bulk Modulus (GPa) = 29.62043 42.76301 36.19172
# Shear Modulus (GPa) = 15.92359 25.41136 20.66747
#
# Velocity S-wave (km/s) = 2.71755 3.43298 3.09600
# Velocity P-wave (km/s) = 4.85635 5.96209 5.43740
#
# Compressibility (1/GPa) = 0.03376048
#
# Stress axis : x y z
#
# Youngs Moduli (GPa) = 42.41121 56.68770 126.95830
#
# Poissons Ratio (x) = 0.09252 0.55678
# Poissons Ratio (y) = 0.06922 0.20948
# Poissons Ratio (z) = 0.18600 0.09353
#
# Static dielectric constant tensor:
#      x y z
#    x 1.748170 0.000000 0.030540 
#    y 0.000000 1.864210 0.000000 
#    z 0.030540 0.000000 1.903160 
# 
# From -- ./inp_files/6417.got.cif
#   From: 2010.05.17/outbox.cif.g08.bks.cpg/sg3_4_cif.got.tgz:6417.got - 2010.06.03 18:33:08.
