data_PCOD9112718
_publ_section_title
;
Structure prediction by ZEFSAII (Michael W. Deem and Ramdas Pophale) SiO2 
 PCOD9112718
Probable space group: P 2
;
_chemical_formula_sum "Si O2"
_cell_formula_units_Z 16
_cell_length_a 5.376062
_cell_length_b 11.401245
_cell_length_c 13.361980
_cell_angle_alpha 90.000000
_cell_angle_beta 101.563020
_cell_angle_gamma 90.000000
_cell_volume 802.384650
_symmetry_space_group_name_H-M "P 2"
_symmetry_group_IT_number 3
_symmetry_cell_setting 'monoclinic'
loop_
_space_group_symop_operation_xyz
x,y,z
-x,y,-z
loop_
_atom_site_type_symbol
_atom_site_label
_atom_site_fract_x
_atom_site_fract_y
_atom_site_fract_z
Si Si1 0.878355 0.200720 0.884369
Si Si2 0.673144 0.098674 0.213596
Si Si3 0.716175 0.862135 0.098583
Si Si4 0.729882 0.460089 0.937012
Si Si5 0.448845 0.995632 0.607542
Si Si6 0.845546 0.752955 0.390682
Si Si7 0.826105 0.863839 0.762106
Si Si8 0.547229 0.657454 0.206162
O O1 0.597347 0.152173 0.839945
O O2 0.824977 0.339407 0.894341
O O3 0.093659 0.165439 0.820947
O O4 0.000000 0.159505 0.000000
O O5 0.657913 0.963198 0.175601
O O6 0.707073 0.084956 0.335740
O O7 0.702954 0.725287 0.131223
O O8 0.017440 0.888308 0.123157
O O9 0.500000 0.878041 0.000000
O O10 0.599431 0.547351 0.847696
O O11 0.500000 0.438600 0.000000
O O12 0.000000 0.511143 0.000000
O O13 0.500000 0.036726 0.500000
O O14 0.324011 0.865386 0.589543
O O15 0.698889 0.972289 0.695032
O O16 0.704907 0.647197 0.321557
O O17 0.000000 0.715339 0.500000
O O18 0.011583 0.807610 0.314804
O O19 0.639154 0.762376 0.779452
#
# Coordination Sequence:
#
# PCOD9112718 Si02
#       8
#     2   2   2   2   2   2   2   2
#     4  11  24  44  65  90 124 173 230 273 323 391
#     4  12  23  40  62  95 130 168 220 272 327 395
#     4  11  22  33  52  88 134 171 195 254 336 401
#     4  11  25  45  69  93 126 177 231 278 323 386
#     4  11  21  35  59  92 131 177 215 268 328 403
#     4  10  19  34  58  86 132 170 215 263 327 404
#     4  10  19  36  51  86 131 167 216 251 321 406
#     4  10  23  35  57  92 127 166 216 268 329 394
#
# _framework density 19.940560000000001
#
# number of rings (size 3 to 8) (size 9 to 14) (size 15 to 20)
#    0.000    1.250    5.000    3.750    5.250    0.000 
#    0.000    0.000    0.000    0.000    3.250    0.875 
#    0.000    0.000    0.000    0.000    0.000    0.000 
#
# Total GULP energy -89068.681807 kJ/mol
# GULP energy per Si atom -5566.792613 kJ/mol
# Density = 1.989517 g / cm^3
# Si number density = 19.940560 Si / 1000 Ang^3
#
#
#
# Elastic Constant Matrix: (Units=GPa)
#
#
# Indices 1 2 3 4 5 6 
#
# 1 111.5494 34.7754 52.3152 0.0000 2.8869 0.0000
# 2 34.7754 80.9400 50.6606 0.0000 4.2754 0.0000
# 3 52.3152 50.6606 123.1224 0.0000 9.1625 0.0000
# 4 0.0000 0.0000 0.0000 19.2503 0.0000 3.5940
# 5 2.8869 4.2754 9.1625 0.0000 39.3313 0.0000
# 6 0.0000 0.0000 0.0000 3.5940 0.0000 28.6821
#
#
#
# Elastic Compliance Matrix: (Units=1/GPa)
#
#
# Indices 1 2 3 4 5 6 
#
# 1 0.011578 -0.002556 -0.003893 0.000000 0.000335 0.000000
# 2 -0.002556 0.017206 -0.005972 0.000000 -0.000292 0.000000
# 3 -0.003893 -0.005972 0.012379 0.000000 -0.001949 0.000000
# 4 0.000000 0.000000 0.000000 0.053192 0.000000 -0.006665
# 5 0.000335 -0.000292 -0.001949 0.000000 0.025886 0.000000
# 6 0.000000 0.000000 0.000000 -0.006665 0.000000 0.035700
#
#
# Mechanical properties :
#
#
# Convention : Reuss Voigt Hill
#
# Bulk Modulus (GPa) = 61.26899 65.67936 63.47417
# Shear Modulus (GPa) = 26.84945 29.31013 28.07979
#
# Velocity S-wave (km/s) = 3.67341 3.83805 3.75664
# Velocity P-wave (km/s) = 6.98459 7.25603 7.12160
#
# Compressibility (1/GPa) = 0.01632147
#
# Stress axis : x y z
#
# Youngs Moduli (GPa) = 86.36698 58.11841 80.78472
#
# Poissons Ratio (x) = 0.14853 0.31451
# Poissons Ratio (y) = 0.22072 0.48246
# Poissons Ratio (z) = 0.33624 0.34709
#
# Static dielectric constant tensor:
#      x y z
#    x 1.947430 0.000000 0.016340 
#    y 0.000000 1.693560 0.000000 
#    z 0.016340 0.000000 1.762960 
# 
# From -- ./inp_files/10008.got.cif
#   From: 2010.05.17/outbox.cif.g08.bks.cpg/sg3_6_cif.got.tgz:10008.got - 2010.06.03 18:33:08.
