data_PCOD9112358
_publ_section_title
;
Structure prediction by ZEFSAII (Michael W. Deem and Ramdas Pophale) SiO2 
 PCOD9112358
Probable space group: P -1
;
_chemical_formula_sum "Si O2"
_cell_formula_units_Z 14
_cell_length_a 15.671770
_cell_length_b 9.583803
_cell_length_c 6.163717
_cell_angle_alpha 52.258601
_cell_angle_beta 130.010350
_cell_angle_gamma 115.721521
_cell_volume 559.463694
_symmetry_space_group_name_H-M "P -1"
_symmetry_group_IT_number 2
_symmetry_cell_setting 'triclinic'
loop_
_space_group_symop_operation_xyz
x,y,z
-x,-y,-z
loop_
_atom_site_type_symbol
_atom_site_label
_atom_site_fract_x
_atom_site_fract_y
_atom_site_fract_z
Si Si1 0.771619 0.164688 0.144581
Si Si2 0.084422 0.961146 0.864191
Si Si3 0.590340 0.647333 0.418381
Si Si4 0.900023 0.369305 0.544922
Si Si5 0.690397 0.416210 0.467149
Si Si6 0.251306 0.124632 0.292797
Si Si7 0.445469 0.876320 0.714959
O O1 0.821920 0.133811 0.022004
O O2 0.834702 0.291895 0.300746
O O3 0.780580 0.970093 0.442609
O O4 0.676905 0.284871 0.785657
O O5 0.041891 0.802175 0.102026
O O6 0.000000 0.000000 0.500000
O O7 0.149334 0.113272 0.968312
O O8 0.500000 0.500000 0.500000
O O9 0.652112 0.593112 0.348718
O O10 0.682032 0.693508 0.712021
O O11 0.530790 0.827607 0.088633
O O12 0.808945 0.438672 0.504775
O O13 0.000000 0.500000 0.500000
O O14 0.601712 0.317035 0.257723
O O15 0.338664 0.981203 0.501951
O O16 0.500000 0.000000 0.500000
#
# Coordination Sequence:
#
# PCOD9112358 Si02
#       7
#     2   2   2   2   2   2   2
#     4  10  20  47  71  97 147 191 243 293 378 434
#     4  10  23  46  76 105 138 188 257 306 362 445
#     4  12  27  44  71 113 152 189 249 308 372 435
#     4  10  23  46  75 103 144 195 245 305 386 433
#     4  11  23  45  71 106 152 188 243 315 360 444
#     4  11  23  46  73 101 148 200 236 302 375 448
#     4  12  23  46  73 101 145 199 246 292 372 450
#
# _framework density 25.023966000000001
#
# number of rings (size 3 to 8) (size 9 to 14) (size 15 to 20)
#    0.000    1.143    4.286    3.429    0.000    4.571 
#    7.714    0.000    0.000    0.000    0.000    0.000 
#    0.000    0.000    0.000    0.000    0.000    0.000 
#
# Total GULP energy -78068.113986 kJ/mol
# GULP energy per Si atom -5576.293856 kJ/mol
# Density = 2.496701 g / cm^3
# Si number density = 25.023966 Si / 1000 Ang^3
#
#
#
# Elastic Constant Matrix: (Units=GPa)
#
#
# Indices 1 2 3 4 5 6 
#
# 1 121.4896 62.4211 17.2720 11.5785 -5.6018 -1.5085
# 2 62.4211 143.2389 35.9191 27.8597 -2.5652 16.5735
# 3 17.2720 35.9191 130.1308 21.9895 -4.2873 22.5270
# 4 11.5785 27.8597 21.9895 34.6026 0.4764 -0.1283
# 5 -5.6018 -2.5652 -4.2873 0.4764 26.0137 -6.5714
# 6 -1.5085 16.5735 22.5270 -0.1283 -6.5714 45.0048
#
#
#
# Elastic Compliance Matrix: (Units=1/GPa)
#
#
# Indices 1 2 3 4 5 6 
#
# 1 0.011009 -0.005088 -0.000611 0.000777 0.002490 0.002914
# 2 -0.005088 0.011147 -0.000542 -0.006929 -0.001013 -0.004172
# 3 -0.000611 -0.000542 0.009659 -0.005520 0.000341 -0.004622
# 4 0.000777 -0.006929 -0.005520 0.037757 -0.000769 0.005336
# 5 0.002490 -0.001013 0.000341 -0.000769 0.040514 0.006199
# 6 0.002914 -0.004172 -0.004622 0.005336 0.006199 0.027088
#
#
# Mechanical properties :
#
#
# Convention : Reuss Voigt Hill
#
# Bulk Modulus (GPa) = 51.72177 69.56486 60.64332
# Shear Modulus (GPa) = 32.03079 39.74068 35.88573
#
# Velocity S-wave (km/s) = 3.58160 3.98943 3.79100
# Velocity P-wave (km/s) = 6.14960 7.00574 6.59158
#
# Compressibility (1/GPa) = 0.01933422
#
# Stress axis : x y z
#
# Youngs Moduli (GPa) = 90.83244 89.71047 103.52872
#
# Poissons Ratio (x) = 0.45648 0.06321
# Poissons Ratio (y) = 0.46219 0.05608
# Poissons Ratio (z) = 0.05546 0.04859
#
# Static dielectric constant tensor:
#      x y z
#    x 1.943240 -0.132620 0.333910 
#    y -0.132620 2.492020 -0.255910 
#    z 0.333910 -0.255910 2.009750 
# 
# From -- ./inp_files/106428.got.cif
#   From: 2010.05.17/outbox.cif.g08.bks.cpg/sg2_54_cif.got.tgz:106428.got - 2010.06.03 11:33:40.
