data_PCOD9112393
_publ_section_title
;
Structure prediction by ZEFSAII (Michael W. Deem and Ramdas Pophale) SiO2 
 PCOD9112393
Probable space group: P -1
;
_chemical_formula_sum "Si O2"
_cell_formula_units_Z 16
_cell_length_a 24.707032
_cell_length_b 12.247956
_cell_length_c 21.874228
_cell_angle_alpha 42.174518
_cell_angle_beta 10.416016
_cell_angle_gamma 42.667634
_cell_volume 802.362936
_symmetry_space_group_name_H-M "P -1"
_symmetry_group_IT_number 2
_symmetry_cell_setting 'triclinic'
loop_
_space_group_symop_operation_xyz
x,y,z
-x,-y,-z
loop_
_atom_site_type_symbol
_atom_site_label
_atom_site_fract_x
_atom_site_fract_y
_atom_site_fract_z
Si Si1 0.362615 0.280542 0.778811
Si Si2 0.635908 0.399728 0.645953
Si Si3 0.888020 0.897428 0.761518
Si Si4 0.072451 0.279000 0.774710
Si Si5 0.254358 0.148361 0.203219
Si Si6 0.930338 0.204686 0.104168
Si Si7 0.654827 0.095247 0.233394
Si Si8 0.257354 0.526204 0.635361
O O1 0.592321 0.218511 0.497755
O O2 0.519984 0.428950 0.577007
O O3 0.335941 0.144271 0.918326
O O4 0.033961 0.346520 0.094745
O O5 0.823568 0.537785 0.411211
O O6 0.561935 0.462364 0.633873
O O7 0.844140 0.237653 0.468605
O O8 0.373825 0.326398 0.007563
O O9 0.805217 0.855410 0.801461
O O10 0.987339 0.082674 0.568175
O O11 0.379080 0.167181 0.470020
O O12 0.948513 0.225971 0.001307
O O13 0.832133 0.240106 0.006854
O O14 0.500000 0.000000 0.000000
O O15 0.115675 0.352203 0.863561
O O16 0.100052 0.038261 0.007276
O O17 0.500000 0.000000 0.500000
#
# Coordination Sequence:
#
# PCOD9112393 Si02
#       8
#     2   2   2   2   2   2   2   2
#     4  11  21  33  48  74 105 135 167 196 237 303
#     4   9  18  30  50  72 103 132 162 206 249 287
#     4   9  18  29  48  74 105 128 162 197 243 304
#     4  10  22  34  53  74  99 131 176 212 246 285
#     4   9  16  30  49  71 101 131 158 197 249 297
#     4  10  21  34  52  70 101 140 166 205 249 283
#     4  10  21  36  51  71  98 131 178 217 246 280
#     4  10  21  32  47  73 104 135 169 195 235 298
#
# _framework density 19.941101
#
# number of rings (size 3 to 8) (size 9 to 14) (size 15 to 20)
#    0.000    2.250    1.250    2.250    1.750   10.000 
#    0.000    0.000    0.000    0.000    0.000    1.750 
#    0.000    0.000    0.000    0.000    0.000    0.000 
#
# Total GULP energy -89274.416178 kJ/mol
# GULP energy per Si atom -5579.651011 kJ/mol
# Density = 1.989571 g / cm^3
# Si number density = 19.941101 Si / 1000 Ang^3
#
#
#
# Elastic Constant Matrix: (Units=GPa)
#
#
# Indices 1 2 3 4 5 6 
#
# 1 49.5569 10.5410 17.3354 -2.3157 1.6009 -10.5594
# 2 10.5410 74.1938 42.9212 -12.2570 22.8213 -2.2864
# 3 17.3354 42.9212 83.0404 -9.7519 10.5122 -4.4895
# 4 -2.3157 -12.2570 -9.7519 38.4833 -5.6350 0.1617
# 5 1.6009 22.8213 10.5122 -5.6350 30.2612 -4.8286
# 6 -10.5594 -2.2864 -4.4895 0.1617 -4.8286 12.3891
#
#
#
# Elastic Compliance Matrix: (Units=1/GPa)
#
#
# Indices 1 2 3 4 5 6 
#
# 1 0.026803 -0.002636 -0.003623 0.000584 0.005645 0.023238
# 2 -0.002636 0.024976 -0.010438 0.002877 -0.015746 -0.007595
# 3 -0.003623 -0.010438 0.018190 0.001408 0.002406 0.002497
# 4 0.000584 0.002877 0.001408 0.027699 0.002832 0.002281
# 5 0.005645 -0.015746 0.002406 0.002832 0.047718 0.021338
# 6 0.023238 -0.007595 0.002497 0.002281 0.021338 0.108312
#
#
# Mechanical properties :
#
#
# Convention : Reuss Voigt Hill
#
# Bulk Modulus (GPa) = 27.34132 38.70958 33.02545
# Shear Modulus (GPa) = 16.70653 25.29294 20.99973
#
# Velocity S-wave (km/s) = 2.89761 3.56530 3.24865
# Velocity P-wave (km/s) = 4.99356 6.03346 5.53797
#
# Compressibility (1/GPa) = 0.03657469
#
# Stress axis : x y z
#
# Youngs Moduli (GPa) = 37.30893 40.03843 54.97607
#
# Poissons Ratio (x) = 0.10555 0.19915
# Poissons Ratio (y) = 0.09835 0.57386
# Poissons Ratio (z) = 0.13515 0.41794
#
# Static dielectric constant tensor:
#      x y z
#    x 1.814400 -0.094610 -0.024800 
#    y -0.094610 1.840270 -0.000080 
#    z -0.024800 -0.000080 1.823530 
# 
# From -- ./inp_files/92773.got.cif
#   From: 2010.05.17/outbox.cif.g08.bks.cpg/sg2_47_cif.got.tgz:92773.got - 2010.06.03 11:33:40.
