data_PCOD9112397
_publ_section_title
;
Structure prediction by ZEFSAII (Michael W. Deem and Ramdas Pophale) SiO2 
 PCOD9112397
Probable space group: P -1
;
_chemical_formula_sum "Si O2"
_cell_formula_units_Z 12
_cell_length_a 4.951566
_cell_length_b 16.460311
_cell_length_c 16.742363
_cell_angle_alpha 34.231045
_cell_angle_beta 52.102792
_cell_angle_gamma 58.303595
_cell_volume 605.261864
_symmetry_space_group_name_H-M "P -1"
_symmetry_group_IT_number 2
_symmetry_cell_setting 'triclinic'
loop_
_space_group_symop_operation_xyz
x,y,z
-x,-y,-z
loop_
_atom_site_type_symbol
_atom_site_label
_atom_site_fract_x
_atom_site_fract_y
_atom_site_fract_z
Si Si1 0.354673 0.259080 0.352245
Si Si2 0.783446 0.789678 0.988209
Si Si3 0.721241 0.967068 0.320930
Si Si4 0.394038 0.567719 0.049655
Si Si5 0.124561 0.188861 0.277030
Si Si6 0.092837 0.924979 0.961642
O O1 0.223497 0.174249 0.521420
O O2 0.397693 0.429793 0.218583
O O3 0.139486 0.234116 0.331167
O O4 0.733938 0.191748 0.319970
O O5 0.398213 0.805316 0.016809
O O6 0.002070 0.913153 0.804724
O O7 0.797512 0.844465 0.033431
O O8 0.018871 0.645509 0.054217
O O9 0.774372 0.960208 0.221316
O O10 0.348929 0.041663 0.345456
O O11 0.500000 0.500000 0.000000
O O12 0.672025 0.690892 0.907670
O O13 0.000000 0.000000 0.000000
#
# Coordination Sequence:
#
# PCOD9112397 Si02
#       6
#     2   2   2   2   2   2
#     4  11  21  32  50  78 111 142 172 207 259 314
#     4   9  21  35  56  78 106 134 180 216 265 309
#     4   9  22  31  56  75 108 133 178 221 264 299
#     4   9  20  34  53  77 113 146 174 203 253 326
#     4  10  21  32  49  75 110 145 177 203 252 315
#     4  10  21  37  60  79  99 135 186 230 263 301
#
# _framework density 19.826129999999999
#
# number of rings (size 3 to 8) (size 9 to 14) (size 15 to 20)
#    1.000    1.333    0.000    2.000    9.333    2.667 
#    0.000    0.000    0.000    2.000    0.000    0.000 
#    0.000    0.000    0.000    0.000    0.000    0.000 
#
# Total GULP energy -66943.148867 kJ/mol
# GULP energy per Si atom -5578.595739 kJ/mol
# Density = 1.978101 g / cm^3
# Si number density = 19.826130 Si / 1000 Ang^3
#
#
#
# Elastic Constant Matrix: (Units=GPa)
#
#
# Indices 1 2 3 4 5 6 
#
# 1 52.8359 -6.1337 -2.7607 6.8257 8.8208 4.1650
# 2 -6.1337 78.7827 31.6382 9.6629 17.7642 15.2039
# 3 -2.7607 31.6382 126.7970 -12.5303 23.6987 5.6646
# 4 6.8257 9.6629 -12.5303 21.5390 3.7022 7.2239
# 5 8.8208 17.7642 23.6987 3.7022 23.6125 5.1966
# 6 4.1650 15.2039 5.6646 7.2239 5.1966 24.6487
#
#
#
# Elastic Compliance Matrix: (Units=1/GPa)
#
#
# Indices 1 2 3 4 5 6 
#
# 1 0.022580 0.005385 0.000893 -0.005988 -0.011760 -0.003108
# 2 0.005385 0.019122 -0.003158 -0.007827 -0.010350 -0.007504
# 3 0.000893 -0.003158 0.011901 0.010540 -0.011188 -0.001668
# 4 -0.005988 -0.007827 0.010540 0.064089 -0.009564 -0.013349
# 5 -0.011760 -0.010350 -0.011188 -0.009564 0.067358 -0.000456
# 6 -0.003108 -0.007504 -0.001668 -0.013349 -0.000456 0.050116
#
#
# Mechanical properties :
#
#
# Convention : Reuss Voigt Hill
#
# Bulk Modulus (GPa) = 16.70991 33.76702 25.23847
# Shear Modulus (GPa) = 20.09046 29.67148 24.88097
#
# Velocity S-wave (km/s) = 3.18674 3.87277 3.54638
# Velocity P-wave (km/s) = 4.68902 6.08821 5.43384
#
# Compressibility (1/GPa) = 0.05984472
#
# Stress axis : x y z
#
# Youngs Moduli (GPa) = 44.28632 52.29450 84.02552
#
# Poissons Ratio (x) = -0.28163 -0.07503
# Poissons Ratio (y) = -0.23850 0.26535
# Poissons Ratio (z) = -0.03954 0.16515
#
# Static dielectric constant tensor:
#      x y z
#    x 1.760120 0.036060 0.002380 
#    y 0.036060 1.700540 0.005020 
#    z 0.002380 0.005020 1.738090 
# 
# From -- ./inp_files/75123.got.cif
#   From: 2010.05.17/outbox.cif.g08.bks.cpg/sg2_38_cif.got.tgz:75123.got - 2010.06.03 11:33:40.
