data_PCOD9112991
_publ_section_title
;
Structure prediction by ZEFSAII (Michael W. Deem and Ramdas Pophale) SiO2 
 PCOD9112991
Probable space group: P 2
;
_chemical_formula_sum "Si O2"
_cell_formula_units_Z 14
_cell_length_a 8.738752
_cell_length_b 10.304713
_cell_length_c 7.870068
_cell_angle_alpha 90.000000
_cell_angle_beta 93.814951
_cell_angle_gamma 90.000000
_cell_volume 707.131847
_symmetry_space_group_name_H-M "P 2"
_symmetry_group_IT_number 3
_symmetry_cell_setting 'monoclinic'
loop_
_space_group_symop_operation_xyz
x,y,z
-x,y,-z
loop_
_atom_site_type_symbol
_atom_site_label
_atom_site_fract_x
_atom_site_fract_y
_atom_site_fract_z
Si Si1 0.600838 0.100990 0.744537
Si Si2 0.176217 0.055988 0.944036
Si Si3 0.447673 0.813713 0.301585
Si Si4 0.176964 0.133224 0.550720
Si Si5 0.624108 0.576486 0.133514
Si Si6 0.820704 0.768520 0.951348
Si Si7 0.616253 0.346068 0.372548
O O1 0.709669 0.074727 0.585551
O O2 0.486412 0.222319 0.704096
O O3 0.520512 0.960927 0.759867
O O4 0.709276 0.126079 0.914883
O O5 0.192607 0.097308 0.750432
O O6 0.000000 0.071485 0.000000
O O7 0.218880 0.904438 0.960873
O O8 0.500000 0.808393 0.500000
O O9 0.541895 0.700073 0.215456
O O10 0.268574 0.784978 0.236233
O O11 0.231763 0.281840 0.540150
O O12 0.000000 0.108587 0.500000
O O13 0.669194 0.460537 0.256979
O O14 0.500000 0.514624 0.000000
O O15 0.754717 0.640950 0.032574
O O16 0.000000 0.761163 0.000000
O O17 0.500000 0.406561 0.500000
#
# Coordination Sequence:
#
# PCOD9112991 Si02
#       7
#     2   2   2   2   2   2   2
#     4  10  22  39  61  95 124 153 210 258 307 368
#     4  10  20  37  62  92 125 162 194 257 315 368
#     4  10  20  38  63  90 121 160 202 258 315 361
#     4  11  22  38  62  91 127 161 202 257 315 366
#     4  10  22  40  61  87 120 168 204 249 306 372
#     4   9  21  40  59  91 127 156 209 257 305 372
#     4  10  23  41  59  88 122 158 205 258 301 365
#
# _framework density 19.798286999999998
#
# number of rings (size 3 to 8) (size 9 to 14) (size 15 to 20)
#    0.000    2.000    1.429    1.714    6.000    0.000 
#    0.000    8.571    0.000    0.000    0.000    0.000 
#    0.000    0.000    0.000    0.000    0.000    0.000 
#
# Total GULP energy -77952.848093 kJ/mol
# GULP energy per Si atom -5568.060578 kJ/mol
# Density = 1.975323 g / cm^3
# Si number density = 19.798287 Si / 1000 Ang^3
#
#
#
# Elastic Constant Matrix: (Units=GPa)
#
#
# Indices 1 2 3 4 5 6 
#
# 1 88.0187 12.9197 35.9137 0.0000 8.7837 0.0000
# 2 12.9197 49.1848 1.5348 0.0000 -3.9991 0.0000
# 3 35.9137 1.5348 114.3092 0.0000 11.2798 0.0000
# 4 0.0000 0.0000 0.0000 31.4397 0.0000 1.2375
# 5 8.7837 -3.9991 11.2798 0.0000 25.6274 0.0000
# 6 0.0000 0.0000 0.0000 1.2375 0.0000 -13.7102
#
#
#
# Elastic Compliance Matrix: (Units=1/GPa)
#
#
# Indices 1 2 3 4 5 6 
#
# 1 0.013898 -0.003821 -0.003958 0.000000 -0.003618 0.000000
# 2 -0.003821 0.021686 0.000467 0.000000 0.004488 0.000000
# 3 -0.003958 0.000467 0.010291 0.000000 -0.003100 0.000000
# 4 0.000000 0.000000 0.000000 0.031694 0.000000 0.002861
# 5 -0.003618 0.004488 -0.003100 0.000000 0.042326 0.000000
# 6 0.000000 0.000000 0.000000 0.002861 0.000000 -0.072680
#
#
# Mechanical properties :
#
#
# Convention : Reuss Voigt Hill
#
# Bulk Modulus (GPa) = 32.00086 39.13878 35.56982
# Shear Modulus (GPa) = 69.19668 22.08102 45.63885
#
# Velocity S-wave (km/s) = 5.91834 3.34323 4.80645
# Velocity P-wave (km/s) = 7.93100 5.89191 6.98625
#
# Compressibility (1/GPa) = 0.03124916
#
# Stress axis : x y z
#
# Youngs Moduli (GPa) = 71.95166 46.11341 97.16786
#
# Poissons Ratio (x) = 0.17622 0.38462
# Poissons Ratio (y) = 0.27495 -0.04533
# Poissons Ratio (z) = 0.28480 -0.02151
#
# Static dielectric constant tensor:
#      x y z
#    x 1.777010 0.000000 0.004580 
#    y 0.000000 1.672070 0.000000 
#    z 0.004580 0.000000 1.795940 
# 
# From -- ./inp_files/5413.got.cif
#   From: 2010.05.17/outbox.cif.g08.bks.cpg/sg3_3_cif.got.tgz:5413.got - 2010.06.03 18:33:08.
