data_PCOD9112318
_publ_section_title
;
Structure prediction by ZEFSAII (Michael W. Deem and Ramdas Pophale) SiO2 
 PCOD9112318
Probable space group: P -1
;
_chemical_formula_sum "Si O2"
_cell_formula_units_Z 13
_cell_length_a 6.742840
_cell_length_b 5.322454
_cell_length_c 17.734636
_cell_angle_alpha 65.855687
_cell_angle_beta 61.624043
_cell_angle_gamma 79.775886
_cell_volume 510.893082
_symmetry_space_group_name_H-M "P -1"
_symmetry_group_IT_number 2
_symmetry_cell_setting 'triclinic'
loop_
_space_group_symop_operation_xyz
x,y,z
-x,-y,-z
loop_
_atom_site_type_symbol
_atom_site_label
_atom_site_fract_x
_atom_site_fract_y
_atom_site_fract_z
Si Si1 0.271399 0.226522 0.181156
Si Si2 0.000000 0.000000 0.500000
Si Si3 0.303023 0.100086 0.868286
Si Si4 0.630545 0.563192 0.707065
Si Si5 0.029846 0.247337 0.629920
Si Si6 0.487411 0.902539 0.428016
Si Si7 0.127863 0.236078 0.038728
O O1 0.263430 0.424544 0.229860
O O2 0.212560 0.306867 0.097672
O O3 0.533113 0.150585 0.142850
O O4 0.113378 0.963010 0.263780
O O5 0.955811 0.917783 0.430243
O O6 0.768066 0.200221 0.520709
O O7 0.427314 0.344451 0.771116
O O8 0.301498 0.165725 0.949786
O O9 0.053669 0.017695 0.896991
O O10 0.853207 0.500212 0.625293
O O11 0.527157 0.840983 0.659446
O O12 0.289750 0.270404 0.608361
O O13 0.500000 0.000000 0.500000
O O14 0.000000 0.500000 0.000000
#
# Coordination Sequence:
#
# PCOD9112318 Si02
#       7
#     2   1   2   2   2   2   2
#     4  11  24  45  68 101 144 184 236 299 357 424
#     4  10  20  46  68  98 144 174 238 298 342 428
#     4  10  25  45  69 102 142 188 239 294 352 432
#     4  11  24  47  74 104 148 190 239 301 359 423
#     4  10  24  43  69 104 141 187 240 294 359 428
#     4  10  23  45  71 102 141 189 237 293 353 430
#     4  11  25  44  71 105 143 188 238 292 362 431
#
# _framework density 25.445637999999999
#
# number of rings (size 3 to 8) (size 9 to 14) (size 15 to 20)
#    0.000    1.538    1.538    1.385    4.308    9.846 
#    2.769    2.308    0.000    0.000    0.000    0.000 
#    0.000    0.000    0.000    0.000    0.000    0.000 
#
# Total GULP energy -72452.108533 kJ/mol
# GULP energy per Si atom -5573.239118 kJ/mol
# Density = 2.538772 g / cm^3
# Si number density = 25.445638 Si / 1000 Ang^3
#
#
#
# Elastic Constant Matrix: (Units=GPa)
#
#
# Indices 1 2 3 4 5 6 
#
# 1 92.9674 32.5735 51.7092 -0.6988 -7.9640 -16.5434
# 2 32.5735 57.4130 19.7989 18.6919 4.6794 -8.0794
# 3 51.7092 19.7989 110.3294 14.1527 -9.9365 4.0998
# 4 -0.6988 18.6919 14.1527 52.9763 7.8322 0.0074
# 5 -7.9640 4.6794 -9.9365 7.8322 60.1170 15.1697
# 6 -16.5434 -8.0794 4.0998 0.0074 15.1697 41.9306
#
#
#
# Elastic Compliance Matrix: (Units=1/GPa)
#
#
# Indices 1 2 3 4 5 6 
#
# 1 0.020283 -0.009298 -0.008949 0.006043 -0.000708 0.007341
# 2 -0.009298 0.025969 0.000549 -0.009057 -0.002538 0.002201
# 3 -0.008949 0.000549 0.014264 -0.004601 0.003241 -0.005991
# 4 0.006043 -0.009057 -0.004601 0.023809 -0.002895 0.002132
# 5 -0.000708 -0.002538 0.003241 -0.002895 0.019725 -0.008221
# 6 0.007341 0.002201 -0.005991 0.002132 -0.008221 0.030729
#
#
# Mechanical properties :
#
#
# Convention : Reuss Voigt Hill
#
# Bulk Modulus (GPa) = 39.80957 52.09699 45.95328
# Shear Modulus (GPa) = 28.00346 41.44666 34.72506
#
# Velocity S-wave (km/s) = 3.32101 4.04026 3.69816
# Velocity P-wave (km/s) = 5.51220 6.50255 6.02775
#
# Compressibility (1/GPa) = 0.02511959
#
# Stress axis : x y z
#
# Youngs Moduli (GPa) = 49.30204 38.50745 70.10483
#
# Poissons Ratio (x) = 0.35804 0.62740
# Poissons Ratio (y) = 0.45841 -0.03849
# Poissons Ratio (z) = 0.44123 -0.02114
#
# Static dielectric constant tensor:
#      x y z
#    x 1.857080 -0.123200 0.038750 
#    y -0.123200 2.008320 -0.015870 
#    z 0.038750 -0.015870 2.010670 
# 
# From -- ./inp_files/545348.got.cif
#   From: 2010.05.17/outbox.cif.g08.bks.cpg/sg2_273_cif.got.tgz:545348.got - 2010.06.03 11:33:40.
