data_PCOD9112656
_publ_section_title
;
Structure prediction by ZEFSAII (Michael W. Deem and Ramdas Pophale) SiO2 
 PCOD9112656
Probable space group: P 2
;
_chemical_formula_sum "Si O2"
_cell_formula_units_Z 14
_cell_length_a 11.244117
_cell_length_b 13.583028
_cell_length_c 11.963878
_cell_angle_alpha 90.000000
_cell_angle_beta 24.345701
_cell_angle_gamma 90.000000
_cell_volume 753.260707
_symmetry_space_group_name_H-M "P 2"
_symmetry_group_IT_number 3
_symmetry_cell_setting 'monoclinic'
loop_
_space_group_symop_operation_xyz
x,y,z
-x,y,-z
loop_
_atom_site_type_symbol
_atom_site_label
_atom_site_fract_x
_atom_site_fract_y
_atom_site_fract_z
Si Si1 0.249309 0.018840 0.867188
Si Si2 0.284005 0.825024 0.939825
Si Si3 0.847992 0.101961 0.386584
Si Si4 0.826691 0.510972 0.260092
Si Si5 0.309712 0.715175 0.547564
Si Si6 0.171386 0.290745 0.738566
Si Si7 0.314005 0.972410 0.264051
O O1 0.123266 0.047672 0.097220
O O2 0.553315 0.065588 0.580870
O O3 0.000000 0.052352 0.000000
O O4 0.279013 0.901925 0.840821
O O5 0.464414 0.731943 0.744690
O O6 0.481203 0.886990 0.858154
O O7 0.953204 0.793217 0.242701
O O8 0.878442 0.214480 0.320245
O O9 0.781151 0.059600 0.567630
O O10 0.500000 0.499052 0.500000
O O11 0.827839 0.606352 0.336554
O O12 0.914019 0.401979 0.224889
O O13 0.000000 0.536189 0.000000
O O14 0.500000 0.723572 0.500000
O O15 0.500000 0.286874 0.500000
O O16 0.000000 0.268827 0.000000
O O17 0.000000 0.929401 0.500000
O O18 0.500000 0.010684 0.000000
#
# Coordination Sequence:
#
# PCOD9112656 Si02
#       7
#     2   2   2   2   2   2   2
#     4  11  20  31  46  74 110 137 162 204 254 319
#     4  11  22  33  51  75 100 139 179 210 261 313
#     4  11  21  33  52  75 100 138 178 211 263 315
#     4   9  18  31  48  73 108 147 174 198 240 299
#     4  11  19  32  51  78 112 142 171 205 246 312
#     4  10  19  32  51  77 110 142 172 205 247 312
#     4  11  23  40  55  72 102 137 184 239 273 310
#
# _framework density 18.585864000000001
#
# number of rings (size 3 to 8) (size 9 to 14) (size 15 to 20)
#    0.000    1.429    0.000    9.857    0.000    0.000 
#    0.000    0.000    0.000    0.000    0.000    4.000 
#    0.000    2.286    0.000    0.000    0.000    0.571 
#
# Total GULP energy -77964.418322 kJ/mol
# GULP energy per Si atom -5568.887023 kJ/mol
# Density = 1.854356 g / cm^3
# Si number density = 18.585864 Si / 1000 Ang^3
#
#
#
# Elastic Constant Matrix: (Units=GPa)
#
#
# Indices 1 2 3 4 5 6 
#
# 1 64.4382 17.9268 16.6857 0.0000 -2.5298 0.0000
# 2 17.9268 106.3926 10.8627 0.0000 6.8816 0.0000
# 3 16.6857 10.8627 116.2639 0.0000 0.4208 0.0000
# 4 0.0000 0.0000 0.0000 28.1892 0.0000 1.0468
# 5 -2.5298 6.8816 0.4208 0.0000 37.7781 0.0000
# 6 0.0000 0.0000 0.0000 1.0468 0.0000 12.2174
#
#
#
# Elastic Compliance Matrix: (Units=1/GPa)
#
#
# Indices 1 2 3 4 5 6 
#
# 1 0.016908 -0.002734 -0.002177 0.000000 0.001654 0.000000
# 2 -0.002734 0.010045 -0.000539 0.000000 -0.002007 0.000000
# 3 -0.002177 -0.000539 0.008964 0.000000 -0.000147 0.000000
# 4 0.000000 0.000000 0.000000 0.035588 0.000000 -0.003049
# 5 0.001654 -0.002007 -0.000147 0.000000 0.026948 0.000000
# 6 0.000000 0.000000 0.000000 -0.003049 0.000000 0.082112
#
#
# Mechanical properties :
#
#
# Convention : Reuss Voigt Hill
#
# Bulk Modulus (GPa) = 39.97183 42.00501 40.98842
# Shear Modulus (GPa) = 25.02458 31.74491 28.38474
#
# Velocity S-wave (km/s) = 3.67336 4.13730 3.91221
# Velocity P-wave (km/s) = 6.28845 6.74333 6.51986
#
# Compressibility (1/GPa) = 0.02501762
#
# Stress axis : x y z
#
# Youngs Moduli (GPa) = 59.14376 99.55613 111.55167
#
# Poissons Ratio (x) = 0.27215 0.24286
# Poissons Ratio (y) = 0.16168 0.06011
# Poissons Ratio (z) = 0.12876 0.05365
#
# Static dielectric constant tensor:
#      x y z
#    x 1.711590 0.000000 0.022190 
#    y 0.000000 1.713000 0.000000 
#    z 0.022190 0.000000 1.650800 
# 
# From -- ./inp_files/11907.got.cif
#   From: 2010.05.17/outbox.cif.g08.bks.cpg/sg3_6_cif.got.tgz:11907.got - 2010.06.03 18:33:08.
