data_PCOD9112614
_publ_section_title
;
Structure prediction by ZEFSAII (Michael W. Deem and Ramdas Pophale) SiO2 
 PCOD9112614
Probable space group: P 2
;
_chemical_formula_sum "Si O2"
_cell_formula_units_Z 16
_cell_length_a 12.617257
_cell_length_b 9.981410
_cell_length_c 9.206402
_cell_angle_alpha 90.000000
_cell_angle_beta 132.450541
_cell_angle_gamma 90.000000
_cell_volume 855.501729
_symmetry_space_group_name_H-M "P 2"
_symmetry_group_IT_number 3
_symmetry_cell_setting 'monoclinic'
loop_
_space_group_symop_operation_xyz
x,y,z
-x,y,-z
loop_
_atom_site_type_symbol
_atom_site_label
_atom_site_fract_x
_atom_site_fract_y
_atom_site_fract_z
Si Si1 0.124158 0.478780 0.728921
Si Si2 0.671771 0.810266 0.790308
Si Si3 0.028456 0.708488 0.856158
Si Si4 0.486683 0.072951 0.656140
Si Si5 0.495880 0.539067 0.329389
Si Si6 0.741133 0.866813 0.521809
Si Si7 0.647540 0.653809 0.227157
Si Si8 0.610476 0.308019 0.967503
O O1 0.055012 0.567501 0.796843
O O2 0.230295 0.588514 0.755611
O O3 0.000000 0.446870 0.500000
O O4 0.223419 0.344964 0.841572
O O5 0.588472 0.677849 0.757817
O O6 0.683291 0.813560 0.625289
O O7 0.584450 0.940073 0.754266
O O8 0.826658 0.796539 0.005166
O O9 0.903200 0.806273 0.678377
O O10 0.000000 0.677851 0.000000
O O11 0.500000 0.121499 0.500000
O O12 0.555882 0.175344 0.834235
O O13 0.323131 0.019041 0.534784
O O14 0.500000 0.503379 0.500000
O O15 0.638018 0.565936 0.367113
O O16 0.416008 0.424718 0.171760
O O17 0.678418 0.800077 0.318337
O O18 0.500000 0.648419 0.000000
O O19 0.500000 0.326122 0.000000
#
# Coordination Sequence:
#
# PCOD9112614 Si02
#       8
#     2   2   2   2   2   2   2   2
#     4  12  23  39  59  89 138 161 201 261 324 370
#     4  10  18  36  65  94 123 153 207 264 310 367
#     4  10  21  37  63  98 127 157 200 259 324 378
#     4  10  22  42  63  90 123 166 214 260 308 369
#     4  12  19  34  65  95 119 157 211 266 313 366
#     4  10  20  36  62  96 126 154 203 264 316 367
#     4  12  20  34  58  92 127 158 199 255 320 363
#     4  12  25  43  58  89 128 172 211 257 313 374
#
# _framework density 18.702473999999999
#
# number of rings (size 3 to 8) (size 9 to 14) (size 15 to 20)
#    0.000    1.000    7.500    0.750    0.000    0.500 
#    0.000    1.250    0.000    2.250    0.000    0.000 
#    0.000    0.000    0.000    0.000    0.000    0.000 
#
# Total GULP energy -89072.721474 kJ/mol
# GULP energy per Si atom -5567.045092 kJ/mol
# Density = 1.865991 g / cm^3
# Si number density = 18.702474 Si / 1000 Ang^3
#
#
#
# Elastic Constant Matrix: (Units=GPa)
#
#
# Indices 1 2 3 4 5 6 
#
# 1 63.6312 22.9255 54.4645 0.0000 6.8118 0.0000
# 2 22.9255 80.3753 59.9624 0.0000 5.4701 0.0000
# 3 54.4645 59.9624 132.8614 0.0000 5.9278 0.0000
# 4 0.0000 0.0000 0.0000 31.7252 0.0000 -0.7583
# 5 6.8118 5.4701 5.9278 0.0000 31.8609 0.0000
# 6 0.0000 0.0000 0.0000 -0.7583 0.0000 13.2713
#
#
#
# Elastic Compliance Matrix: (Units=1/GPa)
#
#
# Indices 1 2 3 4 5 6 
#
# 1 0.024620 0.000948 -0.010364 0.000000 -0.003498 0.000000
# 2 0.000948 0.018881 -0.008829 0.000000 -0.001801 0.000000
# 3 -0.010364 -0.008829 0.015724 0.000000 0.000806 0.000000
# 4 0.000000 0.000000 0.000000 0.031564 0.000000 0.001804
# 5 -0.003498 -0.001801 0.000806 0.000000 0.032294 0.000000
# 6 0.000000 0.000000 0.000000 0.001804 0.000000 0.075454
#
#
# Mechanical properties :
#
#
# Convention : Reuss Voigt Hill
#
# Bulk Modulus (GPa) = 43.98864 61.28588 52.63726
# Shear Modulus (GPa) = 20.60966 24.67251 22.64108
#
# Velocity S-wave (km/s) = 3.32320 3.63603 3.48313
# Velocity P-wave (km/s) = 6.18839 7.10406 6.66198
#
# Compressibility (1/GPa) = 0.02273314
#
# Stress axis : x y z
#
# Youngs Moduli (GPa) = 40.61799 52.96363 63.59665
#
# Poissons Ratio (x) = -0.05019 0.65912
# Poissons Ratio (y) = -0.03849 0.56152
# Poissons Ratio (z) = 0.42097 0.46764
#
# Static dielectric constant tensor:
#      x y z
#    x 1.711550 0.000000 0.024620 
#    y 0.000000 1.646500 0.000000 
#    z 0.024620 0.000000 1.779310 
# 
# From -- ./inp_files/7517.got.cif
#   From: 2010.05.17/outbox.cif.g08.bks.cpg/sg3_4_cif.got.tgz:7517.got - 2010.06.03 18:33:08.
