data_PCOD9112712
_publ_section_title
;
Structure prediction by ZEFSAII (Michael W. Deem and Ramdas Pophale) SiO2 
 PCOD9112712
Probable space group: P 2
;
_chemical_formula_sum "Si O2"
_cell_formula_units_Z 16
_cell_length_a 8.475686
_cell_length_b 19.426150
_cell_length_c 7.460873
_cell_angle_alpha 90.000000
_cell_angle_beta 37.398291
_cell_angle_gamma 90.000000
_cell_volume 746.091020
_symmetry_space_group_name_H-M "P 2"
_symmetry_group_IT_number 3
_symmetry_cell_setting 'monoclinic'
loop_
_space_group_symop_operation_xyz
x,y,z
-x,y,-z
loop_
_atom_site_type_symbol
_atom_site_label
_atom_site_fract_x
_atom_site_fract_y
_atom_site_fract_z
Si Si1 0.042953 0.541770 0.175202
Si Si2 0.424514 0.974921 0.860969
Si Si3 0.277155 0.767645 0.342519
Si Si4 0.724873 0.118129 0.148573
Si Si5 0.078824 0.904605 0.642235
Si Si6 0.225978 0.396878 0.159071
Si Si7 0.275280 0.269983 0.851222
Si Si8 0.542728 0.621813 0.675896
O O1 0.115222 0.464901 0.164342
O O2 0.780279 0.570089 0.499648
O O3 0.280383 0.593305 0.000016
O O4 0.000000 0.542543 0.000000
O O5 0.322222 0.052088 0.930911
O O6 0.694321 0.958782 0.518126
O O7 0.500000 0.964314 0.000000
O O8 0.190444 0.923453 0.020189
O O9 0.205408 0.829257 0.543545
O O10 0.385884 0.698261 0.329425
O O11 0.000000 0.752122 0.500000
O O12 0.500000 0.791674 0.000000
O O13 0.500000 0.116600 0.500000
O O14 0.708199 0.193942 0.075604
O O15 0.000000 0.112596 0.000000
O O16 0.000000 0.908494 0.500000
O O17 0.000000 0.374877 0.500000
O O18 0.500000 0.415811 0.000000
O O19 0.285987 0.333539 0.974764
O O20 0.500000 0.275591 0.500000
O O21 0.000000 0.272860 0.000000
O O22 0.500000 0.622046 0.500000
#
# Coordination Sequence:
#
# PCOD9112712 Si02
#       8
#     2   2   2   2   2   2   2   2
#     4  10  22  40  60  80 113 159 193 224 286 362
#     4  10  19  34  57  80 109 147 186 229 278 333
#     4  11  21  35  58  82 109 147 189 235 284 339
#     4  10  21  38  59  85 115 148 191 237 280 337
#     4   9  18  33  53  80 109 144 187 225 275 343
#     4  12  25  39  61  94 124 147 192 257 293 327
#     4  10  22  42  64  84 118 166 199 226 288 369
#     4  10  22  39  58  83 113 148 192 237 283 342
#
# _framework density 21.445107
#
# number of rings (size 3 to 8) (size 9 to 14) (size 15 to 20)
#    0.000    1.750    0.000    5.250    0.000    5.000 
#    0.000    3.750    0.000    0.000    0.000    0.000 
#    0.000    0.000    0.000    0.000    0.000    0.000 
#
# Total GULP energy -89437.605521 kJ/mol
# GULP energy per Si atom -5589.850345 kJ/mol
# Density = 2.139630 g / cm^3
# Si number density = 21.445107 Si / 1000 Ang^3
#
#
#
# Elastic Constant Matrix: (Units=GPa)
#
#
# Indices 1 2 3 4 5 6 
#
# 1 42.9386 46.1831 44.5258 0.0000 -22.0074 0.0000
# 2 46.1831 172.7499 39.5894 0.0000 -20.3670 0.0000
# 3 44.5258 39.5894 131.8209 0.0000 -32.0946 0.0000
# 4 0.0000 0.0000 0.0000 34.6030 0.0000 -11.0379
# 5 -22.0074 -20.3670 -32.0946 0.0000 30.2206 0.0000
# 6 0.0000 0.0000 0.0000 -11.0379 0.0000 111.1540
#
#
#
# Elastic Compliance Matrix: (Units=1/GPa)
#
#
# Indices 1 2 3 4 5 6 
#
# 1 0.057175 -0.010084 -0.010522 0.000000 0.023666 0.000000
# 2 -0.010084 0.008200 0.000676 0.000000 -0.001099 0.000000
# 3 -0.010522 0.000676 0.012385 0.000000 0.005946 0.000000
# 4 0.000000 0.000000 0.000000 0.029845 0.000000 0.002964
# 5 0.023666 -0.001099 0.005946 0.000000 0.055898 0.000000
# 6 0.000000 0.000000 0.000000 0.002964 0.000000 0.009291
#
#
# Mechanical properties :
#
#
# Convention : Reuss Voigt Hill
#
# Bulk Modulus (GPa) = 26.38511 67.56734 46.97622
# Shear Modulus (GPa) = 22.19394 49.67627 35.93510
#
# Velocity S-wave (km/s) = 3.22051 4.81816 4.09795
# Velocity P-wave (km/s) = 5.11460 7.90749 6.65911
#
# Compressibility (1/GPa) = 0.03790017
#
# Stress axis : x y z
#
# Youngs Moduli (GPa) = 17.49008 121.95025 80.74417
#
# Poissons Ratio (x) = 1.22972 0.84958
# Poissons Ratio (y) = 0.17637 -0.05456
# Poissons Ratio (z) = 0.18403 -0.08240
#
# Static dielectric constant tensor:
#      x y z
#    x 1.765490 0.000000 0.025850 
#    y 0.000000 1.775010 0.000000 
#    z 0.025850 0.000000 1.748690 
# 
# From -- ./inp_files/6188.got.cif
#   From: 2010.05.17/outbox.cif.g08.bks.cpg/sg3_4_cif.got.tgz:6188.got - 2010.06.03 18:33:08.
