data_PCOD9112649
_publ_section_title
;
Structure prediction by ZEFSAII (Michael W. Deem and Ramdas Pophale) SiO2 
 PCOD9112649
Probable space group: P 2
;
_chemical_formula_sum "Si O2"
_cell_formula_units_Z 13
_cell_length_a 9.445247
_cell_length_b 5.515482
_cell_length_c 21.041965
_cell_angle_alpha 90.000000
_cell_angle_beta 151.417156
_cell_angle_gamma 90.000000
_cell_volume 524.445701
_symmetry_space_group_name_H-M "P 2"
_symmetry_group_IT_number 3
_symmetry_cell_setting 'monoclinic'
loop_
_space_group_symop_operation_xyz
x,y,z
-x,y,-z
loop_
_atom_site_type_symbol
_atom_site_label
_atom_site_fract_x
_atom_site_fract_y
_atom_site_fract_z
Si Si1 0.000000 0.690521 0.000000
Si Si2 0.532222 0.339435 0.834324
Si Si3 0.356957 0.041151 0.649985
Si Si4 0.047026 0.977934 0.765389
Si Si5 0.313177 0.537067 0.581221
Si Si6 0.081241 0.485014 0.350550
Si Si7 0.251351 0.012259 0.986905
O O1 0.274464 0.525041 0.128251
O O2 0.103770 0.846264 0.981401
O O3 0.439235 0.106489 0.755254
O O4 0.244513 0.467941 0.746936
O O5 0.734447 0.272661 0.974004
O O6 0.462505 0.281260 0.655617
O O7 0.000000 0.035441 0.500000
O O8 0.455191 0.789366 0.658676
O O9 0.904396 0.723652 0.687521
O O10 0.899261 0.220231 0.676032
O O11 0.396373 0.961906 0.882539
O O12 0.081680 0.004899 0.854308
O O13 0.000000 0.529808 0.500000
O O14 0.270964 0.528941 0.488737
#
# Coordination Sequence:
#
# PCOD9112649 Si02
#       7
#     1   2   2   2   2   2   2
#     4  12  24  40  64  84 142 176 222 254 316 384
#     4  11  23  38  59  91 134 170 211 261 323 384
#     4  10  20  32  57  86 127 160 195 263 327 370
#     4  10  23  38  63  87 131 170 211 262 320 379
#     4  10  19  31  54  91 124 156 196 259 332 367
#     4  11  20  37  62  91 129 165 204 268 324 385
#     4  10  24  39  58  90 127 176 217 261 313 381
#
# _framework density 24.788076
#
# number of rings (size 3 to 8) (size 9 to 14) (size 15 to 20)
#    0.000    1.538    4.615    1.385   10.769    1.231 
#    0.000    0.000    0.000    0.000    0.000    1.077 
#    0.000    0.000    0.000    0.000    0.000    0.000 
#
# Total GULP energy -72672.519226 kJ/mol
# GULP energy per Si atom -5590.193787 kJ/mol
# Density = 2.473166 g / cm^3
# Si number density = 24.788076 Si / 1000 Ang^3
#
#
#
# Elastic Constant Matrix: (Units=GPa)
#
#
# Indices 1 2 3 4 5 6 
#
# 1 97.9358 56.0344 68.0853 0.0000 -19.2116 0.0000
# 2 56.0344 195.0761 77.5450 0.0000 -27.3839 0.0000
# 3 68.0853 77.5450 118.9366 0.0000 -55.0757 0.0000
# 4 0.0000 0.0000 0.0000 58.0869 0.0000 97.0224
# 5 -19.2116 -27.3839 -55.0757 0.0000 56.4651 0.0000
# 6 0.0000 0.0000 0.0000 97.0224 0.0000 544.9003
#
#
#
# Elastic Compliance Matrix: (Units=1/GPa)
#
#
# Indices 1 2 3 4 5 6 
#
# 1 0.018663 -0.001083 -0.013277 0.000000 -0.007126 0.000000
# 2 -0.001083 0.007097 -0.004712 0.000000 -0.001523 0.000000
# 3 -0.013277 -0.004712 0.029053 0.000000 0.021535 0.000000
# 4 0.000000 0.000000 0.000000 0.024503 0.000000 -0.004363
# 5 -0.007126 -0.001523 0.021535 0.000000 0.035552 0.000000
# 6 0.000000 0.000000 0.000000 -0.004363 0.000000 0.002612
#
#
# Mechanical properties :
#
#
# Convention : Reuss Voigt Hill
#
# Bulk Modulus (GPa) = 59.99671 90.58644 75.29157
# Shear Modulus (GPa) = 31.02104 145.90937 88.46520
#
# Velocity S-wave (km/s) = 3.54142 7.68053 5.98048
# Velocity P-wave (km/s) = 6.40146 10.73675 8.83901
#
# Compressibility (1/GPa) = 0.01666758
#
# Stress axis : x y z
#
# Youngs Moduli (GPa) = 53.58172 140.91090 34.41997
#
# Poissons Ratio (x) = 0.15265 0.45700
# Poissons Ratio (y) = 0.05805 0.16219
# Poissons Ratio (z) = 0.71141 0.66398
#
# Static dielectric constant tensor:
#      x y z
#    x -2.628450 0.000000 0.855260 
#    y 0.000000 1.971400 0.000000 
#    z 0.855260 0.000000 1.835880 
# 
# From -- ./inp_files/14895.got.cif
#   From: 2010.05.17/outbox.cif.g08.bks.cpg/sg3_8_cif.got.tgz:14895.got - 2010.06.03 18:33:08.
