data_PCOD9112723
_publ_section_title
;
Structure prediction by ZEFSAII (Michael W. Deem and Ramdas Pophale) SiO2 
 PCOD9112723
Probable space group: P 2
;
_chemical_formula_sum "Si O2"
_cell_formula_units_Z 15
_cell_length_a 7.491995
_cell_length_b 12.002172
_cell_length_c 9.086576
_cell_angle_alpha 90.000000
_cell_angle_beta 51.730656
_cell_angle_gamma 90.000000
_cell_volume 641.485611
_symmetry_space_group_name_H-M "P 2"
_symmetry_group_IT_number 3
_symmetry_cell_setting 'monoclinic'
loop_
_space_group_symop_operation_xyz
x,y,z
-x,y,-z
loop_
_atom_site_type_symbol
_atom_site_label
_atom_site_fract_x
_atom_site_fract_y
_atom_site_fract_z
Si Si1 0.515407 0.084780 0.237992
Si Si2 0.766634 0.556667 0.214459
Si Si3 0.319598 0.657708 0.420467
Si Si4 0.000000 0.491021 0.500000
Si Si5 0.881770 0.073898 0.812541
Si Si6 0.803806 0.914080 0.477449
Si Si7 0.121033 0.314943 0.231691
Si Si8 0.571523 0.329059 0.207121
O O1 0.321390 0.080143 0.206912
O O2 0.542141 0.207471 0.294032
O O3 0.423972 0.984607 0.381650
O O4 0.749620 0.070222 0.032630
O O5 0.583561 0.645934 0.246640
O O6 0.762425 0.598805 0.385456
O O7 0.636679 0.437324 0.266880
O O8 0.000000 0.556366 0.000000
O O9 0.197388 0.579526 0.363368
O O10 0.251083 0.784758 0.479622
O O11 0.961542 0.408225 0.381799
O O12 0.992960 0.193424 0.715012
O O13 0.059698 0.973625 0.722673
O O14 0.000000 0.934506 0.500000
O O15 0.341154 0.332027 0.226097
O O16 0.223620 0.327747 0.017485
#
# Coordination Sequence:
#
# PCOD9112723 Si02
#       8
#     2   2   2   1   2   2   2   2
#     4   8  16  30  53  85 120 150 191 244 307 365
#     4  11  24  44  62  81 125 176 209 252 313 366
#     4  11  25  40  60  91 123 168 221 254 295 370
#     4  12  20  36  58  94 126 156 206 270 310 358
#     4   8  16  29  50  88 122 151 185 244 315 366
#     4  10  19  34  59  89 127 158 199 256 306 357
#     4   9  18  29  59  94 125 148 193 254 321 373
#     4   9  17  36  57  89 120 157 199 251 308 380
#
# _framework density 23.383219
#
# number of rings (size 3 to 8) (size 9 to 14) (size 15 to 20)
#    0.000    2.400    2.000    2.400    4.667    1.067 
#    0.000    0.000    0.000   13.600    0.000    0.000 
#    0.000    0.000    0.000    0.000    0.000    0.000 
#
# Total GULP energy -83513.450882 kJ/mol
# GULP energy per Si atom -5567.563392 kJ/mol
# Density = 2.333000 g / cm^3
# Si number density = 23.383219 Si / 1000 Ang^3
#
#
#
# Elastic Constant Matrix: (Units=GPa)
#
#
# Indices 1 2 3 4 5 6 
#
# 1 52.9618 13.1653 20.3614 0.0000 -7.7604 0.0000
# 2 13.1653 171.8190 79.6824 0.0000 -11.8956 0.0000
# 3 20.3614 79.6824 118.2236 0.0000 -20.3539 0.0000
# 4 0.0000 0.0000 0.0000 31.0461 0.0000 -8.5036
# 5 -7.7604 -11.8956 -20.3539 0.0000 27.1192 0.0000
# 6 0.0000 0.0000 0.0000 -8.5036 0.0000 11.9687
#
#
#
# Elastic Compliance Matrix: (Units=1/GPa)
#
#
# Indices 1 2 3 4 5 6 
#
# 1 0.020539 0.000040 -0.002928 0.000000 0.003698 0.000000
# 2 0.000040 0.008477 -0.005832 0.000000 -0.000647 0.000000
# 3 -0.002928 -0.005832 0.014135 0.000000 0.007213 0.000000
# 4 0.000000 0.000000 0.000000 0.039993 0.000000 0.028414
# 5 0.003698 -0.000647 0.007213 0.000000 0.043062 0.000000
# 6 0.000000 0.000000 0.000000 0.028414 0.000000 0.103739
#
#
# Mechanical properties :
#
#
# Convention : Reuss Voigt Hill
#
# Bulk Modulus (GPa) = 38.89219 63.26917 51.08068
# Shear Modulus (GPa) = 19.53475 29.34648 24.44061
#
# Velocity S-wave (km/s) = 2.89349 3.54647 3.23649
# Velocity P-wave (km/s) = 5.27558 6.62467 5.98824
#
# Compressibility (1/GPa) = 0.02571210
#
# Stress axis : x y z
#
# Youngs Moduli (GPa) = 48.68789 117.97152 70.74605
#
# Poissons Ratio (x) = -0.00472 0.20713
# Poissons Ratio (y) = -0.00195 0.41256
# Poissons Ratio (z) = 0.14255 0.68795
#
# Static dielectric constant tensor:
#      x y z
#    x 2.145490 0.000000 -0.038650 
#    y 0.000000 1.898540 0.000000 
#    z -0.038650 0.000000 1.921720 
# 
# From -- ./inp_files/10986.got.cif
#   From: 2010.05.17/outbox.cif.g08.bks.cpg/sg3_6_cif.got.tgz:10986.got - 2010.06.03 18:33:08.
