data_PCOD9112254
_publ_section_title
;
Structure prediction by ZEFSAII (Michael W. Deem and Ramdas Pophale) SiO2 
 PCOD9112254
Probable space group: P -1
;
_chemical_formula_sum "Si O2"
_cell_formula_units_Z 16
_cell_length_a 13.566885
_cell_length_b 10.978997
_cell_length_c 8.545685
_cell_angle_alpha 97.978781
_cell_angle_beta 147.629961
_cell_angle_gamma 91.268052
_cell_volume 651.155186
_symmetry_space_group_name_H-M "P -1"
_symmetry_group_IT_number 2
_symmetry_cell_setting 'triclinic'
loop_
_space_group_symop_operation_xyz
x,y,z
-x,-y,-z
loop_
_atom_site_type_symbol
_atom_site_label
_atom_site_fract_x
_atom_site_fract_y
_atom_site_fract_z
Si Si1 0.360935 0.207903 0.209024
Si Si2 0.228997 0.256396 0.562450
Si Si3 0.836381 0.512861 0.665473
Si Si4 0.812583 0.396096 0.279861
Si Si5 0.422862 0.928890 0.724086
Si Si6 0.552737 0.180734 0.775807
Si Si7 0.402811 0.431007 0.123380
Si Si8 0.026729 0.974678 0.215111
O O1 0.472564 0.178359 0.199368
O O2 0.509297 0.212579 0.548129
O O3 0.315123 0.341933 0.134689
O O4 0.165749 0.106298 0.977180
O O5 0.131575 0.344412 0.338981
O O6 0.399184 0.222390 0.688403
O O7 0.098209 0.117304 0.408340
O O8 0.321627 0.347909 0.844920
O O9 0.808031 0.416601 0.461820
O O10 0.628197 0.473338 0.455170
O O11 0.000000 0.500000 0.000000
O O12 0.000000 0.500000 0.500000
O O13 0.763159 0.249957 0.135181
O O14 0.659186 0.442722 0.977557
O O15 0.195601 0.902581 0.430079
O O16 0.497790 0.030109 0.703077
O O17 0.500000 0.000000 0.000000
O O18 0.000000 0.000000 0.000000
#
# Coordination Sequence:
#
# PCOD9112254 Si02
#       8
#     2   2   2   2   2   2   2   2
#     4  12  26  44  73 108 141 186 238 289 351 426
#     4  10  20  45  70  93 140 188 222 294 353 406
#     4  11  24  43  71 103 133 186 236 288 349 422
#     4  11  25  45  68 102 137 183 235 286 358 415
#     4  11  26  45  70 103 140 185 234 291 353 416
#     4  11  22  44  69  96 143 180 226 296 346 411
#     4  11  24  46  70  98 143 184 229 291 358 415
#     4  11  24  44  71 102 138 187 235 287 352 413
#
# _framework density 24.571715999999999
#
# number of rings (size 3 to 8) (size 9 to 14) (size 15 to 20)
#    0.000    1.000    5.000    2.625    1.750    7.500 
#    0.000    0.000    0.000    0.000    0.000    0.000 
#    0.000    0.000    0.000    0.000    0.000    0.000 
#
# Total GULP energy -89510.960373 kJ/mol
# GULP energy per Si atom -5594.435023 kJ/mol
# Density = 2.451579 g / cm^3
# Si number density = 24.571716 Si / 1000 Ang^3
#
#
#
# Elastic Constant Matrix: (Units=GPa)
#
#
# Indices 1 2 3 4 5 6 
#
# 1 78.2399 18.3903 37.5169 7.8053 5.2641 -0.5705
# 2 18.3903 93.1957 38.4522 1.2708 6.1362 15.0710
# 3 37.5169 38.4522 145.2986 0.1323 19.7688 8.4976
# 4 7.8053 1.2708 0.1323 47.4039 7.0325 -6.4458
# 5 5.2641 6.1362 19.7688 7.0325 41.4592 2.2098
# 6 -0.5705 15.0710 8.4976 -6.4458 2.2098 33.7636
#
#
#
# Elastic Compliance Matrix: (Units=1/GPa)
#
#
# Indices 1 2 3 4 5 6 
#
# 1 0.015119 -0.001738 -0.003576 -0.002285 0.000352 0.001472
# 2 -0.001738 0.013057 -0.002693 -0.000779 -0.000012 -0.005328
# 3 -0.003576 -0.002693 0.009049 0.001077 -0.003608 -0.000694
# 4 -0.002285 -0.000779 0.001077 0.022748 -0.004215 0.004657
# 5 0.000352 -0.000012 -0.003608 -0.004215 0.026599 -0.001626
# 6 0.001472 -0.005328 -0.000694 0.004657 -0.001626 0.033191
#
#
# Mechanical properties :
#
#
# Convention : Reuss Voigt Hill
#
# Bulk Modulus (GPa) = 47.14355 56.16143 51.65249
# Shear Modulus (GPa) = 35.00241 39.35033 37.17637
#
# Velocity S-wave (km/s) = 3.77835 4.00615 3.89392
# Velocity P-wave (km/s) = 6.18565 6.65618 6.42523
#
# Compressibility (1/GPa) = 0.02121181
#
# Stress axis : x y z
#
# Youngs Moduli (GPa) = 66.14018 76.58659 110.51246
#
# Poissons Ratio (x) = 0.13312 0.39517
# Poissons Ratio (y) = 0.11497 0.29758
# Poissons Ratio (z) = 0.23650 0.20623
#
# Static dielectric constant tensor:
#      x y z
#    x 2.029900 -0.127280 -0.066910 
#    y -0.127280 2.373620 0.248520 
#    z -0.066910 0.248520 2.148720 
# 
# From -- ./inp_files/307645.got.cif
#   From: 2010.05.17/outbox.cif.g08.bks.cpg/sg2_154_cif.got.tgz:307645.got - 2010.06.03 11:33:40.
