data_PCOD9112699
_publ_section_title
;
Structure prediction by ZEFSAII (Michael W. Deem and Ramdas Pophale) SiO2 
 PCOD9112699
Probable space group: P 2
;
_chemical_formula_sum "Si O2"
_cell_formula_units_Z 15
_cell_length_a 11.577954
_cell_length_b 8.881973
_cell_length_c 10.013106
_cell_angle_alpha 90.000000
_cell_angle_beta 42.153170
_cell_angle_gamma 90.000000
_cell_volume 691.045986
_symmetry_space_group_name_H-M "P 2"
_symmetry_group_IT_number 3
_symmetry_cell_setting 'monoclinic'
loop_
_space_group_symop_operation_xyz
x,y,z
-x,y,-z
loop_
_atom_site_type_symbol
_atom_site_label
_atom_site_fract_x
_atom_site_fract_y
_atom_site_fract_z
Si Si1 0.895149 0.734740 0.209368
Si Si2 0.357020 0.512557 0.731589
Si Si3 0.925811 0.467309 0.353767
Si Si4 0.819368 0.246907 0.204908
Si Si5 0.571378 0.495282 0.793873
Si Si6 0.386216 0.138825 0.224460
Si Si7 0.368663 0.969942 0.507447
Si Si8 0.000000 0.238735 0.500000
O O1 0.763839 0.630963 0.237607
O O2 0.994680 0.614949 0.218329
O O3 0.788044 0.856015 0.381958
O O4 0.000000 0.810554 0.000000
O O5 0.500000 0.468725 0.500000
O O6 0.252187 0.359261 0.846205
O O7 0.451895 0.565810 0.782165
O O8 0.848911 0.356389 0.306537
O O9 0.769139 0.525581 0.582425
O O10 0.039782 0.355083 0.344387
O O11 0.698028 0.113981 0.352855
O O12 0.000000 0.186233 0.000000
O O13 0.562940 0.312846 0.790947
O O14 0.500000 0.538222 0.000000
O O15 0.177030 0.148405 0.379012
O O16 0.428661 0.034440 0.314642
O O17 0.500000 0.091193 0.000000
O O18 0.500000 0.894804 0.500000
#
# Coordination Sequence:
#
# PCOD9112699 Si02
#       8
#     2   2   2   2   2   2   2   1
#     4  11  25  41  61  90 133 171 223 267 331 388
#     4  11  18  37  66  89 125 169 213 274 323 374
#     4  10  20  38  62  93 127 167 207 274 321 389
#     4  11  21  34  60  94 124 162 218 267 324 383
#     4  10  19  33  61  99 127 156 215 268 329 384
#     4  10  22  42  67 102 135 172 217 273 339 398
#     4  12  24  43  65  93 131 173 223 276 320 394
#     4  10  20  40  72  98 138 164 210 286 332 394
#
# _framework density 21.706226999999998
#
# number of rings (size 3 to 8) (size 9 to 14) (size 15 to 20)
#    0.000    1.333    5.333    3.600    0.000    7.467 
#    2.400    1.333    0.000    0.000    0.000    0.000 
#    0.000    0.000    0.000    0.000    0.000    0.000 
#
# Total GULP energy -83720.189296 kJ/mol
# GULP energy per Si atom -5581.345953 kJ/mol
# Density = 2.165682 g / cm^3
# Si number density = 21.706227 Si / 1000 Ang^3
#
#
#
# Elastic Constant Matrix: (Units=GPa)
#
#
# Indices 1 2 3 4 5 6 
#
# 1 71.8778 -5.9278 12.1704 0.0000 12.4112 0.0000
# 2 -5.9278 43.4788 10.5207 0.0000 3.5909 0.0000
# 3 12.1704 10.5207 120.7412 0.0000 13.3704 0.0000
# 4 0.0000 0.0000 0.0000 16.7909 0.0000 -4.6442
# 5 12.4112 3.5909 13.3704 0.0000 27.9851 0.0000
# 6 0.0000 0.0000 0.0000 -4.6442 0.0000 15.8299
#
#
#
# Elastic Compliance Matrix: (Units=1/GPa)
#
#
# Indices 1 2 3 4 5 6 
#
# 1 0.015499 0.002929 -0.001071 0.000000 -0.006738 0.000000
# 2 0.002929 0.024172 -0.002021 0.000000 -0.003435 0.000000
# 3 -0.001071 -0.002021 0.008959 0.000000 -0.003546 0.000000
# 4 0.000000 0.000000 0.000000 0.064815 0.000000 0.019016
# 5 -0.006738 -0.003435 -0.003546 0.000000 0.040856 0.000000
# 6 0.000000 0.000000 0.000000 0.019016 0.000000 0.068750
#
#
# Mechanical properties :
#
#
# Convention : Reuss Voigt Hill
#
# Bulk Modulus (GPa) = 20.70295 29.95826 25.33061
# Shear Modulus (GPa) = 20.87860 26.74347 23.81104
#
# Velocity S-wave (km/s) = 3.10477 3.51389 3.31564
# Velocity P-wave (km/s) = 4.73406 5.50408 5.13352
#
# Compressibility (1/GPa) = 0.04830228
#
# Stress axis : x y z
#
# Youngs Moduli (GPa) = 64.52098 41.37060 111.62066
#
# Poissons Ratio (x) = -0.12116 0.11958
# Poissons Ratio (y) = -0.18897 0.22559
# Poissons Ratio (z) = 0.06912 0.08361
#
# Static dielectric constant tensor:
#      x y z
#    x 1.866590 0.000000 -0.027180 
#    y 0.000000 1.761860 0.000000 
#    z -0.027180 0.000000 1.846160 
# 
# From -- ./inp_files/7418.got.cif
#   From: 2010.05.17/outbox.cif.g08.bks.cpg/sg3_4_cif.got.tgz:7418.got - 2010.06.03 18:33:08.
