data_PCOD9112217
_publ_section_title
;
Structure prediction by ZEFSAII (Michael W. Deem and Ramdas Pophale) SiO2 
 PCOD9112217
Probable space group: P -1
;
_chemical_formula_sum "Si O2"
_cell_formula_units_Z 14
_cell_length_a 7.604392
_cell_length_b 11.434280
_cell_length_c 11.729623
_cell_angle_alpha 103.399291
_cell_angle_beta 78.283025
_cell_angle_gamma 143.505414
_cell_volume 589.821772
_symmetry_space_group_name_H-M "P -1"
_symmetry_group_IT_number 2
_symmetry_cell_setting 'triclinic'
loop_
_space_group_symop_operation_xyz
x,y,z
-x,-y,-z
loop_
_atom_site_type_symbol
_atom_site_label
_atom_site_fract_x
_atom_site_fract_y
_atom_site_fract_z
Si Si1 0.749856 0.052340 0.542586
Si Si2 0.732303 0.665930 0.629341
Si Si3 0.870072 0.601883 0.243716
Si Si4 0.332968 0.638152 0.458398
Si Si5 0.346167 0.683564 0.195799
Si Si6 0.919483 0.094328 0.157647
Si Si7 0.177230 0.226355 0.905982
O O1 0.013963 0.152026 0.446547
O O2 0.909589 0.214172 0.654862
O O3 0.500000 0.000000 0.500000
O O4 0.560223 0.834959 0.548099
O O5 0.447154 0.580873 0.696653
O O6 0.627656 0.481502 0.554457
O O7 0.924806 0.739279 0.734511
O O8 0.846395 0.678880 0.157759
O O9 0.018034 0.552977 0.185461
O O10 0.389128 0.691054 0.328107
O O11 0.000000 0.500000 0.500000
O O12 0.481977 0.639085 0.106049
O O13 0.565976 0.906569 0.173099
O O14 0.978889 0.984106 0.158050
O O15 0.041287 0.180060 0.035891
#
# Coordination Sequence:
#
# PCOD9112217 Si02
#       7
#     2   2   2   2   2   2   2
#     4  12  23  44  65  96 142 178 219 282 332 400
#     4  12  23  42  67 101 133 181 223 277 336 399
#     4  12  24  39  70 101 134 176 228 271 336 407
#     4  12  23  40  69  97 128 181 220 263 346 392
#     4  10  20  45  62  94 138 166 220 281 324 397
#     4   9  20  45  72  89 139 177 222 283 336 390
#     4   9  21  44  71  96 129 184 224 276 342 385
#
# _framework density 23.735986
#
# number of rings (size 3 to 8) (size 9 to 14) (size 15 to 20)
#    0.857    0.286    5.714    0.429    0.000    1.714 
#    5.143    0.714    0.000    0.000    0.000    0.000 
#    0.000    0.000    0.000    0.000    0.000    0.000 
#
# Total GULP energy -78255.345311 kJ/mol
# GULP energy per Si atom -5589.667522 kJ/mol
# Density = 2.368196 g / cm^3
# Si number density = 23.735986 Si / 1000 Ang^3
#
#
#
# Elastic Constant Matrix: (Units=GPa)
#
#
# Indices 1 2 3 4 5 6 
#
# 1 110.5413 27.6894 16.2330 -28.5436 12.3281 27.4723
# 2 27.6894 119.2843 21.1107 -22.4309 -4.9700 15.8196
# 3 16.2330 21.1107 84.2872 -44.9068 -0.1807 9.4929
# 4 -28.5436 -22.4309 -44.9068 46.4470 1.9304 -12.8433
# 5 12.3281 -4.9700 -0.1807 1.9304 23.3318 -12.8913
# 6 27.4723 15.8196 9.4929 -12.8433 -12.8913 44.0649
#
#
#
# Elastic Compliance Matrix: (Units=1/GPa)
#
#
# Indices 1 2 3 4 5 6 
#
# 1 0.016616 -0.001629 0.004401 0.010931 -0.016891 -0.012478
# 2 -0.001629 0.009584 -0.000469 0.002847 0.002192 -0.000853
# 3 0.004401 -0.000469 0.025781 0.027126 -0.005479 -0.001826
# 4 0.010931 0.002847 0.027126 0.056216 -0.009681 -0.000128
# 5 -0.016891 0.002192 -0.005479 -0.009681 0.068571 0.028163
# 6 -0.012478 -0.000853 -0.001826 -0.000128 0.028163 0.039375
#
#
# Mechanical properties :
#
#
# Convention : Reuss Voigt Hill
#
# Bulk Modulus (GPa) = 17.67250 49.35323 33.51286
# Shear Modulus (GPa) = 21.70147 39.37404 30.53776
#
# Velocity S-wave (km/s) = 3.02700 4.07730 3.59076
# Velocity P-wave (km/s) = 4.43605 6.55771 5.59831
#
# Compressibility (1/GPa) = 0.05658510
#
# Stress axis : x y z
#
# Youngs Moduli (GPa) = 60.18455 104.33682 38.78894
#
# Poissons Ratio (x) = 0.17000 -0.17071
# Poissons Ratio (y) = 0.09806 0.01820
# Poissons Ratio (z) = -0.26487 0.04897
#
# Static dielectric constant tensor:
#      x y z
#    x 1.960010 -0.029270 0.020620 
#    y -0.029270 1.914210 0.017440 
#    z 0.020620 0.017440 1.879640 
# 
# From -- ./inp_files/396006.got.cif
#   From: 2010.05.17/outbox.cif.g08.bks.cpg/sg2_199_cif.got.tgz:396006.got - 2010.06.03 11:33:40.
