data_PCOD9112214
_publ_section_title
;
Structure prediction by ZEFSAII (Michael W. Deem and Ramdas Pophale) SiO2 
 PCOD9112214
Probable space group: P -1
;
_chemical_formula_sum "Si O2"
_cell_formula_units_Z 16
_cell_length_a 21.466079
_cell_length_b 9.714741
_cell_length_c 24.517686
_cell_angle_alpha 158.317635
_cell_angle_beta 18.243824
_cell_angle_gamma 148.499591
_cell_volume 571.272432
_symmetry_space_group_name_H-M "P -1"
_symmetry_group_IT_number 2
_symmetry_cell_setting 'triclinic'
loop_
_space_group_symop_operation_xyz
x,y,z
-x,-y,-z
loop_
_atom_site_type_symbol
_atom_site_label
_atom_site_fract_x
_atom_site_fract_y
_atom_site_fract_z
Si Si1 0.070472 0.451828 0.829154
Si Si2 0.374776 0.770211 0.751401
Si Si3 0.449161 0.520397 0.264363
Si Si4 0.934840 0.476966 0.839121
Si Si5 0.064162 0.399740 0.585723
Si Si6 0.904901 0.436877 0.615281
Si Si7 0.628179 0.715671 0.334366
Si Si8 0.398541 0.636068 0.231863
O O1 0.155329 0.692231 0.892512
O O2 0.035450 0.635733 0.865463
O O3 0.223401 0.031589 0.537834
O O4 0.840060 0.455909 0.039116
O O5 0.500000 0.500000 0.500000
O O6 0.466502 0.579431 0.661871
O O7 0.404276 0.195436 0.877429
O O8 0.311977 0.331189 0.348475
O O9 0.415974 0.395809 0.184328
O O10 0.342352 0.973090 0.531043
O O11 0.690528 0.512630 0.063909
O O12 0.993279 0.601579 0.777010
O O13 0.031235 0.018107 0.594299
O O14 0.975964 0.582872 0.667177
O O15 0.000000 0.000000 0.500000
O O16 0.667050 0.552488 0.836731
O O17 0.000000 0.500000 0.500000
O O18 0.500000 0.000000 0.500000
#
# Coordination Sequence:
#
# PCOD9112214 Si02
#       8
#     2   2   2   2   2   2   2   2
#     4  10  21  42  67  93 141 182 218 273 337 399
#     4  10  21  40  64  94 138 175 223 279 324 408
#     4  12  23  43  67 102 137 176 231 281 334 414
#     4  10  24  44  69 101 137 178 224 282 346 401
#     4  10  24  45  71  96 134 175 228 288 350 395
#     4  10  20  44  76  95 128 177 225 284 345 405
#     4  12  24  40  66 100 137 185 225 271 338 405
#     4  10  22  42  68  96 135 175 225 281 338 402
#
# _framework density 28.007655
#
# number of rings (size 3 to 8) (size 9 to 14) (size 15 to 20)
#    0.000    1.500    5.000    0.375    0.000    7.000 
#    0.000    4.375    0.000    0.000    0.000    0.000 
#    0.000    0.000    0.000    0.000    0.000    0.000 
#
# Total GULP energy -89430.437620 kJ/mol
# GULP energy per Si atom -5589.402351 kJ/mol
# Density = 2.794391 g / cm^3
# Si number density = 28.007655 Si / 1000 Ang^3
#
#
#
# Elastic Constant Matrix: (Units=GPa)
#
#
# Indices 1 2 3 4 5 6 
#
# 1 225.6275 42.4277 37.8204 -12.6578 -4.6750 -26.1166
# 2 42.4277 110.0571 14.0580 -15.2812 -2.0849 -30.4205
# 3 37.8204 14.0580 90.4244 -24.5602 1.5160 -8.1310
# 4 -12.6578 -15.2812 -24.5602 49.7597 0.7428 4.9356
# 5 -4.6750 -2.0849 1.5160 0.7428 40.1372 6.7091
# 6 -26.1166 -30.4205 -8.1310 4.9356 6.7091 55.6547
#
#
#
# Elastic Compliance Matrix: (Units=1/GPa)
#
#
# Indices 1 2 3 4 5 6 
#
# 1 0.005163 -0.001394 -0.001876 -0.000181 0.000376 0.001358
# 2 -0.001394 0.011487 0.000016 0.002648 -0.000527 0.005456
# 3 -0.001876 0.000016 0.013599 0.006186 -0.000960 0.000682
# 4 -0.000181 0.002648 0.006186 0.023904 -0.000596 0.000218
# 5 0.000376 -0.000527 -0.000960 -0.000596 0.025526 -0.003276
# 6 0.001358 0.005456 0.000682 0.000218 -0.003276 0.022062
#
#
# Mechanical properties :
#
#
# Convention : Reuss Voigt Hill
#
# Bulk Modulus (GPa) = 42.12147 68.30236 55.21192
# Shear Modulus (GPa) = 43.04239 51.23052 47.13646
#
# Velocity S-wave (km/s) = 3.92447 4.28151 4.10687
# Velocity P-wave (km/s) = 5.96718 6.99155 6.49957
#
# Compressibility (1/GPa) = 0.02374086
#
# Stress axis : x y z
#
# Youngs Moduli (GPa) = 193.66820 87.05430 73.53478
#
# Poissons Ratio (x) = 0.12131 0.13798
# Poissons Ratio (y) = 0.26989 -0.00114
# Poissons Ratio (z) = 0.36339 -0.00135
#
# Static dielectric constant tensor:
#      x y z
#    x 2.287210 0.079770 -0.085680 
#    y 0.079770 2.393410 -0.065220 
#    z -0.085680 -0.065220 2.263280 
# 
# From -- ./inp_files/613622.got.cif
#   From: 2010.05.17/outbox.cif.g08.bks.cpg/sg2_307_cif.got.tgz:613622.got - 2010.06.03 11:33:40.
