data_PCOD9112496
_publ_section_title
;
Structure prediction by ZEFSAII (Michael W. Deem and Ramdas Pophale) SiO2 
 PCOD9112496
Probable space group: P 2
;
_chemical_formula_sum "Si O2"
_cell_formula_units_Z 14
_cell_length_a 10.143261
_cell_length_b 11.984281
_cell_length_c 7.295360
_cell_angle_alpha 90.000000
_cell_angle_beta 136.649559
_cell_angle_gamma 90.000000
_cell_volume 608.766552
_symmetry_space_group_name_H-M "P 2"
_symmetry_group_IT_number 3
_symmetry_cell_setting 'monoclinic'
loop_
_space_group_symop_operation_xyz
x,y,z
-x,y,-z
loop_
_atom_site_type_symbol
_atom_site_label
_atom_site_fract_x
_atom_site_fract_y
_atom_site_fract_z
Si Si1 0.828590 0.045150 0.588337
Si Si2 0.429635 0.235945 0.686853
Si Si3 0.464970 0.861192 0.742071
Si Si4 0.453166 0.607642 0.738926
Si Si5 0.735475 0.421075 0.892473
Si Si6 0.746942 0.049598 0.066917
Si Si7 0.845416 0.417936 0.581154
O O1 0.714332 0.149675 0.559420
O O2 0.797102 0.045600 0.334065
O O3 0.054216 0.062289 0.839636
O O4 0.722245 0.928369 0.518233
O O5 0.575869 0.328429 0.763561
O O6 0.276790 0.317927 0.637554
O O7 0.587765 0.145730 0.908465
O O8 0.450575 0.733872 0.665835
O O9 0.500000 0.857950 0.000000
O O10 0.644732 0.940538 0.878336
O O11 0.619070 0.535868 0.806214
O O12 0.254410 0.538024 0.542490
O O13 0.500000 0.612590 0.000000
O O14 0.805326 0.400951 0.757226
O O15 0.925762 0.416521 0.211499
#
# Coordination Sequence:
#
# PCOD9112496 Si02
#       7
#     2   2   2   2   2   2   2
#     4   9  17  29  47  74 109 144 172 205 258 319
#     4  10  17  30  50  73  96 125 172 220 254 295
#     4   8  16  30  47  71 104 139 173 211 259 313
#     4  10  20  34  55  84 111 134 172 225 270 308
#     4  10  22  39  56  74 103 146 185 215 259 319
#     4   9  17  29  47  74 109 144 172 205 258 319
#     4  10  22  39  56  74 103 146 185 215 259 319
#
# _framework density 22.997319999999998
#
# number of rings (size 3 to 8) (size 9 to 14) (size 15 to 20)
#    0.000    2.571    0.000    3.857    0.000    6.286 
#    0.000    2.857    0.000   13.714    0.000   16.000 
#    0.000    0.000    0.000    0.000    0.000    0.000 
#
# Total GULP energy -77984.312441 kJ/mol
# GULP energy per Si atom -5570.308031 kJ/mol
# Density = 2.294498 g / cm^3
# Si number density = 22.997320 Si / 1000 Ang^3
#
#
#
# Elastic Constant Matrix: (Units=GPa)
#
#
# Indices 1 2 3 4 5 6 
#
# 1 81.2360 53.3843 51.2634 0.0000 33.9654 0.0000
# 2 53.3843 215.8640 63.8683 0.0000 45.1436 0.0000
# 3 51.2634 63.8683 116.5575 0.0000 51.2751 0.0000
# 4 0.0000 0.0000 0.0000 -19.0445 0.0000 36.4396
# 5 33.9654 45.1436 51.2751 0.0000 54.5093 0.0000
# 6 0.0000 0.0000 0.0000 36.4396 0.0000 -32.4947
#
#
#
# Elastic Compliance Matrix: (Units=1/GPa)
#
#
# Indices 1 2 3 4 5 6 
#
# 1 0.019060 -0.002131 -0.004720 0.000000 -0.005672 0.000000
# 2 -0.002131 0.006060 -0.001296 0.000000 -0.002472 0.000000
# 3 -0.004720 -0.001296 0.016376 0.000000 -0.011390 0.000000
# 4 0.000000 0.000000 0.000000 0.045832 0.000000 0.051396
# 5 -0.005672 -0.002472 -0.011390 0.000000 0.034641 0.000000
# 6 0.000000 0.000000 0.000000 0.051396 0.000000 0.026861
#
#
# Mechanical properties :
#
#
# Convention : Reuss Voigt Hill
#
# Bulk Modulus (GPa) = 39.67919 83.40994 61.54456
# Shear Modulus (GPa) = 28.81420 16.93679 22.87549
#
# Velocity S-wave (km/s) = 3.54353 2.71674 3.15731
# Velocity P-wave (km/s) = 5.83381 6.79625 6.33334
#
# Compressibility (1/GPa) = 0.02520213
#
# Stress axis : x y z
#
# Youngs Moduli (GPa) = 52.46536 165.01875 61.06418
#
# Poissons Ratio (x) = 0.35165 0.28823
# Poissons Ratio (y) = 0.11180 0.07914
# Poissons Ratio (z) = 0.24764 0.21385
#
# Static dielectric constant tensor:
#      x y z
#    x 2.070520 0.000000 -0.201970 
#    y 0.000000 1.848490 0.000000 
#    z -0.201970 0.000000 2.050470 
# 
# From -- ./inp_files/7748.got.cif
#   From: 2010.05.17/outbox.cif.g08.bks.cpg/sg3_4_cif.got.tgz:7748.got - 2010.06.03 18:33:08.
