data_PCOD9112561
_publ_section_title
;
Structure prediction by ZEFSAII (Michael W. Deem and Ramdas Pophale) SiO2 
 PCOD9112561
Probable space group: P 2
;
_chemical_formula_sum "Si O2"
_cell_formula_units_Z 16
_cell_length_a 9.072401
_cell_length_b 9.774396
_cell_length_c 13.511850
_cell_angle_alpha 90.000000
_cell_angle_beta 134.491425
_cell_angle_gamma 90.000000
_cell_volume 854.737779
_symmetry_space_group_name_H-M "P 2"
_symmetry_group_IT_number 3
_symmetry_cell_setting 'monoclinic'
loop_
_space_group_symop_operation_xyz
x,y,z
-x,y,-z
loop_
_atom_site_type_symbol
_atom_site_label
_atom_site_fract_x
_atom_site_fract_y
_atom_site_fract_z
Si Si1 0.824707 0.928410 0.843861
Si Si2 0.486812 0.130158 0.605479
Si Si3 0.373322 0.552713 0.525454
Si Si4 0.668003 0.535767 0.157962
Si Si5 0.230439 0.341742 0.609547
Si Si6 0.862034 0.915950 0.516857
Si Si7 0.524385 0.731732 0.258251
Si Si8 0.031375 0.733952 0.265135
O O1 0.652406 0.844223 0.824346
O O2 0.925592 0.819007 0.814412
O O3 0.698303 0.051829 0.733529
O O4 0.000000 0.979763 0.000000
O O5 0.500000 0.184692 0.500000
O O6 0.404474 0.237334 0.649572
O O7 0.311084 0.012523 0.519205
O O8 0.500000 0.477968 0.500000
O O9 0.228016 0.459926 0.524168
O O10 0.521220 0.622636 0.676241
O O11 0.242888 0.664305 0.403520
O O12 0.726367 0.417070 0.265048
O O13 0.560276 0.653138 0.174138
O O14 0.858247 0.615098 0.192871
O O15 0.500000 0.485347 0.000000
O O16 0.000000 0.283072 0.500000
O O17 0.737001 0.799765 0.396961
O O18 0.003075 0.849221 0.667257
O O19 0.000000 0.987944 0.500000
#
# Coordination Sequence:
#
# PCOD9112561 Si02
#       8
#     2   2   2   2   2   2   2   2
#     4  11  22  38  60  90 125 161 196 244 308 367
#     4  11  23  41  63  88 115 161 211 251 290 350
#     4  10  18  32  59  90 117 151 195 255 301 344
#     4  11  22  38  60  90 125 161 196 244 308 367
#     4  11  23  41  63  88 115 161 211 251 290 350
#     4  10  18  32  59  90 117 151 195 255 301 344
#     4   9  19  30  54  88 122 150 190 244 308 358
#     4  11  19  34  62  92 126 152 200 244 310 370
#
# _framework density 18.719190999999999
#
# number of rings (size 3 to 8) (size 9 to 14) (size 15 to 20)
#    0.000    1.500    5.000    1.500    0.000    0.000 
#    0.000    1.250    0.000    0.000    0.000    0.000 
#    0.000    0.000    0.000    0.000    0.000    0.000 
#
# Total GULP energy -89104.661367 kJ/mol
# GULP energy per Si atom -5569.041335 kJ/mol
# Density = 1.867659 g / cm^3
# Si number density = 18.719191 Si / 1000 Ang^3
#
#
#
# Elastic Constant Matrix: (Units=GPa)
#
#
# Indices 1 2 3 4 5 6 
#
# 1 82.0862 20.5971 42.7143 0.0000 -8.2796 0.0000
# 2 20.5971 74.2146 33.9086 0.0000 -4.4204 0.0000
# 3 42.7143 33.9086 100.3822 0.0000 3.1458 0.0000
# 4 0.0000 0.0000 0.0000 4.5026 0.0000 -4.6705
# 5 -8.2796 -4.4204 3.1458 0.0000 19.8840 0.0000
# 6 0.0000 0.0000 0.0000 -4.6705 0.0000 34.5759
#
#
#
# Elastic Compliance Matrix: (Units=1/GPa)
#
#
# Indices 1 2 3 4 5 6 
#
# 1 0.016939 -0.000969 -0.007130 0.000000 0.007966 0.000000
# 2 -0.000969 0.016384 -0.005250 0.000000 0.004070 0.000000
# 3 -0.007130 -0.005250 0.014973 0.000000 -0.006505 0.000000
# 4 0.000000 0.000000 0.000000 0.258286 0.000000 0.034889
# 5 0.007966 0.004070 -0.006505 0.000000 0.055542 0.000000
# 6 0.000000 0.000000 0.000000 0.034889 0.000000 0.033635
#
#
# Mechanical properties :
#
#
# Convention : Reuss Voigt Hill
#
# Bulk Modulus (GPa) = 46.29885 50.12476 48.21180
# Shear Modulus (GPa) = 11.63716 22.42338 17.03027
#
# Velocity S-wave (km/s) = 2.49604 3.46480 3.01952
# Velocity P-wave (km/s) = 5.75274 6.54536 6.16181
#
# Compressibility (1/GPa) = 0.02159881
#
# Stress axis : x y z
#
# Youngs Moduli (GPa) = 59.03460 61.03378 66.78605
#
# Poissons Ratio (x) = 0.05914 0.47620
# Poissons Ratio (y) = 0.05720 0.35061
# Poissons Ratio (z) = 0.42093 0.32042
#
# Static dielectric constant tensor:
#      x y z
#    x 1.715610 0.000000 -0.003400 
#    y 0.000000 1.670250 0.000000 
#    z -0.003400 0.000000 1.627150 
# 
# From -- ./inp_files/5824.got.cif
#   From: 2010.05.17/outbox.cif.g08.bks.cpg/sg3_3_cif.got.tgz:5824.got - 2010.06.03 18:33:08.
