data_PCOD9112083
_publ_section_title
;
Structure prediction by ZEFSAII (Michael W. Deem and Ramdas Pophale) SiO2 
 PCOD9112083
Probable space group: P -1
;
_chemical_formula_sum "Si O2"
_cell_formula_units_Z 14
_cell_length_a 9.134996
_cell_length_b 5.477559
_cell_length_c 15.647204
_cell_angle_alpha 121.886586
_cell_angle_beta 61.795477
_cell_angle_gamma 101.566414
_cell_volume 584.597201
_symmetry_space_group_name_H-M "P -1"
_symmetry_group_IT_number 2
_symmetry_cell_setting 'triclinic'
loop_
_space_group_symop_operation_xyz
x,y,z
-x,-y,-z
loop_
_atom_site_type_symbol
_atom_site_label
_atom_site_fract_x
_atom_site_fract_y
_atom_site_fract_z
Si Si1 0.535809 0.797444 0.787699
Si Si2 0.929116 0.575438 0.397388
Si Si3 0.869151 0.931012 0.646446
Si Si4 0.381884 0.707176 0.628062
Si Si5 0.644468 0.670821 0.220005
Si Si6 0.650853 0.690368 0.017910
Si Si7 0.990511 0.348466 0.067472
O O1 0.700646 0.955151 0.752467
O O2 0.459673 0.738576 0.705110
O O3 0.534768 0.470344 0.758977
O O4 0.417240 0.980422 0.920470
O O5 0.843650 0.779498 0.533110
O O6 0.793729 0.429692 0.351542
O O7 0.021583 0.308447 0.373327
O O8 0.042234 0.780498 0.348996
O O9 0.500000 0.500000 0.500000
O O10 0.362392 0.042110 0.668665
O O11 0.670170 0.715758 0.120085
O O12 0.807437 0.474351 0.168639
O O13 0.500000 0.500000 0.000000
O O14 0.837570 0.591703 0.918858
O O15 0.000000 0.500000 0.000000
O O16 0.000000 0.000000 0.000000
#
# Coordination Sequence:
#
# PCOD9112083 Si02
#       7
#     2   2   2   2   2   2   2
#     4  11  23  42  66  99 135 177 232 282 343 410
#     4  10  23  43  63  95 133 187 228 272 341 395
#     4  10  23  41  66  92 138 178 227 282 335 404
#     4  11  24  42  67  99 137 184 233 279 331 409
#     4  10  24  41  70 101 135 181 231 284 345 416
#     4  10  23  43  67  98 133 173 226 286 354 409
#     4  10  20  44  69  94 133 175 218 282 343 408
#
# _framework density 23.948115999999999
#
# number of rings (size 3 to 8) (size 9 to 14) (size 15 to 20)
#    0.000    1.714    2.857    0.000    6.000    3.429 
#    0.000    0.000    0.000    0.000    0.000    0.000 
#    0.000    0.000    0.000    0.000    0.000    0.000 
#
# Total GULP energy -78043.894491 kJ/mol
# GULP energy per Si atom -5574.563892 kJ/mol
# Density = 2.389361 g / cm^3
# Si number density = 23.948116 Si / 1000 Ang^3
#
#
#
# Elastic Constant Matrix: (Units=GPa)
#
#
# Indices 1 2 3 4 5 6 
#
# 1 80.5636 32.6452 29.9460 14.2490 -3.7786 23.8087
# 2 32.6452 153.7513 31.4504 12.4093 -9.8682 19.4075
# 3 29.9460 31.4504 93.6419 18.8200 -10.6219 -4.8163
# 4 14.2490 12.4093 18.8200 37.8415 8.0695 1.7102
# 5 -3.7786 -9.8682 -10.6219 8.0695 25.7650 0.1140
# 6 23.8087 19.4075 -4.8163 1.7102 0.1140 40.6489
#
#
#
# Elastic Compliance Matrix: (Units=1/GPa)
#
#
# Indices 1 2 3 4 5 6 
#
# 1 0.018816 -0.001132 -0.005250 -0.003914 0.001436 -0.010942
# 2 -0.001132 0.007821 -0.001800 -0.001656 0.002620 -0.003222
# 3 -0.005250 -0.001800 0.015458 -0.006896 0.007046 0.006037
# 4 -0.003914 -0.001656 -0.006896 0.035040 -0.015030 0.000834
# 5 0.001436 0.002620 0.007046 -0.015030 0.047642 -0.000758
# 6 -0.010942 -0.003222 0.006037 0.000834 -0.000758 0.033230
#
#
# Mechanical properties :
#
#
# Convention : Reuss Voigt Hill
#
# Bulk Modulus (GPa) = 38.86453 57.33779 48.10116
# Shear Modulus (GPa) = 27.32982 36.44543 31.88762
#
# Velocity S-wave (km/s) = 3.38184 3.90532 3.65297
# Velocity P-wave (km/s) = 5.61365 6.65807 6.15804
#
# Compressibility (1/GPa) = 0.02573040
#
# Stress axis : x y z
#
# Youngs Moduli (GPa) = 53.14608 127.85727 64.68961
#
# Poissons Ratio (x) = 0.14472 0.33964
# Poissons Ratio (y) = 0.06016 0.11647
# Poissons Ratio (z) = 0.27903 0.23020
#
# Static dielectric constant tensor:
#      x y z
#    x 1.937070 0.252720 -0.142210 
#    y 0.252720 -0.413490 0.733160 
#    z -0.142210 0.733160 1.723310 
# 
# From -- ./inp_files/116788.got.cif
#   From: 2010.05.17/outbox.cif.g08.bks.cpg/sg2_59_cif.got.tgz:116788.got - 2010.06.03 11:33:40.
