data_PCOD9112798
_publ_section_title
;
Structure prediction by ZEFSAII (Michael W. Deem and Ramdas Pophale) SiO2 
 PCOD9112798
Probable space group: P 2
;
_chemical_formula_sum "Si O2"
_cell_formula_units_Z 16
_cell_length_a 23.001358
_cell_length_b 6.684337
_cell_length_c 14.705577
_cell_angle_alpha 90.000000
_cell_angle_beta 159.785906
_cell_angle_gamma 90.000000
_cell_volume 781.229159
_symmetry_space_group_name_H-M "P 2"
_symmetry_group_IT_number 3
_symmetry_cell_setting 'monoclinic'
loop_
_space_group_symop_operation_xyz
x,y,z
-x,y,-z
loop_
_atom_site_type_symbol
_atom_site_label
_atom_site_fract_x
_atom_site_fract_y
_atom_site_fract_z
Si Si1 0.147845 0.777390 0.141919
Si Si2 0.099195 0.274832 0.504465
Si Si3 0.309699 0.628373 0.744210
Si Si4 0.097206 0.947735 0.351947
Si Si5 0.613760 0.853412 0.960070
Si Si6 0.294578 0.113245 0.487145
Si Si7 0.570626 0.485155 0.405284
Si Si8 0.744990 0.225104 0.070348
O O1 0.282998 0.600579 0.325288
O O2 0.236875 0.972518 0.318311
O O3 0.000000 0.725139 0.000000
O O4 0.067777 0.841749 0.928789
O O5 0.181798 0.446090 0.565135
O O6 0.214759 0.276588 0.764763
O O7 0.907685 0.300134 0.255389
O O8 0.094165 0.069669 0.440403
O O9 0.240388 0.779022 0.567269
O O10 0.500000 0.566475 0.000000
O O11 0.306468 0.754644 0.833648
O O12 0.153516 0.097022 0.355657
O O13 0.528544 0.666578 0.785991
O O14 0.469545 0.012952 0.776278
O O15 0.724690 0.984090 0.051905
O O16 0.327576 0.341366 0.512641
O O17 0.421353 0.330596 0.215061
#
# Coordination Sequence:
#
# PCOD9112798 Si02
#       8
#     2   2   2   2   2   2   2   2
#     4   9  21  38  61  92 125 166 211 261 327 392
#     4  11  25  38  59  94 132 176 210 274 326 396
#     4  12  24  37  62  98 136 167 205 267 343 404
#     4  11  23  39  58  94 140 165 204 269 344 390
#     4  10  19  37  61  89 121 164 205 259 317 386
#     4   9  20  36  61  90 123 162 206 261 320 396
#     4  10  20  38  68  89 117 166 221 261 310 393
#     4  10  22  42  60  89 128 172 230 260 324 387
#
# _framework density 20.480543999999998
#
# number of rings (size 3 to 8) (size 9 to 14) (size 15 to 20)
#    0.000    1.750    3.750    0.000    1.750    4.000 
#    0.000    0.000    0.000   18.000    0.000    0.000 
#    0.000    0.000    0.000    0.000    0.000    0.000 
#
# Total GULP energy -89133.660029 kJ/mol
# GULP energy per Si atom -5570.853752 kJ/mol
# Density = 2.043393 g / cm^3
# Si number density = 20.480544 Si / 1000 Ang^3
#
#
#
# Elastic Constant Matrix: (Units=GPa)
#
#
# Indices 1 2 3 4 5 6 
#
# 1 43.4565 28.2527 25.9157 0.0000 13.3527 0.0000
# 2 28.2527 99.4167 39.3280 0.0000 13.2535 0.0000
# 3 25.9157 39.3280 95.8890 0.0000 16.0583 0.0000
# 4 0.0000 0.0000 0.0000 37.6180 0.0000 -0.0396
# 5 13.3527 13.2535 16.0583 0.0000 16.8407 0.0000
# 6 0.0000 0.0000 0.0000 -0.0396 0.0000 13.8842
#
#
#
# Elastic Compliance Matrix: (Units=1/GPa)
#
#
# Indices 1 2 3 4 5 6 
#
# 1 0.035113 -0.005861 -0.003804 0.000000 -0.019601 0.000000
# 2 -0.005861 0.013456 -0.003498 0.000000 -0.002607 0.000000
# 3 -0.003804 -0.003498 0.014192 0.000000 -0.007764 0.000000
# 4 0.000000 0.000000 0.000000 0.026583 0.000000 0.000076
# 5 -0.019601 -0.002607 -0.007764 0.000000 0.084376 0.000000
# 6 0.000000 0.000000 0.000000 0.000076 0.000000 0.072025
#
#
# Mechanical properties :
#
#
# Convention : Reuss Voigt Hill
#
# Bulk Modulus (GPa) = 27.44612 47.30611 37.37612
# Shear Modulus (GPa) = 17.59240 23.35295 20.47268
#
# Velocity S-wave (km/s) = 2.93402 3.38042 3.16510
# Velocity P-wave (km/s) = 4.99080 6.19553 5.62551
#
# Compressibility (1/GPa) = 0.03643502
#
# Stress axis : x y z
#
# Youngs Moduli (GPa) = 28.47956 74.31863 70.46436
#
# Poissons Ratio (x) = 0.43557 0.26802
# Poissons Ratio (y) = 0.16691 0.24649
# Poissons Ratio (z) = 0.10832 0.25998
#
# Static dielectric constant tensor:
#      x y z
#    x 1.718930 0.000000 0.006460 
#    y 0.000000 1.753330 0.000000 
#    z 0.006460 0.000000 1.774930 
# 
# From -- ./inp_files/11309.got.cif
#   From: 2010.05.17/outbox.cif.g08.bks.cpg/sg3_6_cif.got.tgz:11309.got - 2010.06.03 18:33:08.
