data_PCOD9112909
_publ_section_title
;
Structure prediction by ZEFSAII (Michael W. Deem and Ramdas Pophale) SiO2 
 PCOD9112909
Probable space group: P 2
;
_chemical_formula_sum "Si O2"
_cell_formula_units_Z 11
_cell_length_a 11.644234
_cell_length_b 5.350319
_cell_length_c 8.229184
_cell_angle_alpha 90.000000
_cell_angle_beta 53.428507
_cell_angle_gamma 90.000000
_cell_volume 411.741443
_symmetry_space_group_name_H-M "P 2"
_symmetry_group_IT_number 3
_symmetry_cell_setting 'monoclinic'
loop_
_space_group_symop_operation_xyz
x,y,z
-x,y,-z
loop_
_atom_site_type_symbol
_atom_site_label
_atom_site_fract_x
_atom_site_fract_y
_atom_site_fract_z
Si Si1 0.500000 0.117540 0.500000
Si Si2 0.575859 0.510791 0.685756
Si Si3 0.908513 0.088604 0.415943
Si Si4 0.125160 0.582854 0.738581
Si Si5 0.285305 0.816809 0.859051
Si Si6 0.660089 0.926787 0.841765
O O1 0.517772 0.256962 0.656217
O O2 0.343846 0.995700 0.667108
O O3 0.708041 0.560076 0.455688
O O4 0.434316 0.675470 0.771664
O O5 0.638006 0.637082 0.799359
O O6 0.932633 0.314973 0.270161
O O7 0.000000 0.129651 0.500000
O O8 0.931652 0.819165 0.314869
O O9 0.749319 0.073205 0.630773
O O10 0.152226 0.655525 0.904338
O O11 0.256837 0.939249 0.057790
O O12 0.500000 0.032460 0.000000
#
# Coordination Sequence:
#
# PCOD9112909 Si02
#       6
#     1   2   2   2   2   2
#     4  12  18  34  62  90 144 184 222 258 348 414
#     4  10  20  35  58  94 138 175 212 265 341 405
#     4  11  25  47  70  96 134 186 234 277 340 418
#     4  11  21  40  71  96 127 188 232 271 337 418
#     4  11  21  38  60 101 139 175 224 285 339 407
#     4   9  23  43  62 104 143 171 223 290 345 391
#
# _framework density 26.715793000000001
#
# number of rings (size 3 to 8) (size 9 to 14) (size 15 to 20)
#    0.000    1.455    3.636    1.636    5.091    0.000 
#   16.364    0.909    0.000    6.545    0.000    0.000 
#    0.000    0.000    0.000    0.000    0.000    0.000 
#
# Total GULP energy -61372.832987 kJ/mol
# GULP energy per Si atom -5579.348453 kJ/mol
# Density = 2.665499 g / cm^3
# Si number density = 26.715793 Si / 1000 Ang^3
#
#
#
# Elastic Constant Matrix: (Units=GPa)
#
#
# Indices 1 2 3 4 5 6 
#
# 1 99.7338 26.9471 2.5038 0.0000 15.0899 0.0000
# 2 26.9471 126.7244 32.7617 0.0000 17.3946 0.0000
# 3 2.5038 32.7617 112.8932 0.0000 16.0246 0.0000
# 4 0.0000 0.0000 0.0000 26.3301 0.0000 4.6075
# 5 15.0899 17.3946 16.0246 0.0000 43.4277 0.0000
# 6 0.0000 0.0000 0.0000 4.6075 0.0000 23.9635
#
#
#
# Elastic Compliance Matrix: (Units=1/GPa)
#
#
# Indices 1 2 3 4 5 6 
#
# 1 0.011079 -0.002118 0.000839 0.000000 -0.003311 0.000000
# 2 -0.002118 0.009233 -0.002334 0.000000 -0.002101 0.000000
# 3 0.000839 -0.002334 0.009946 0.000000 -0.003027 0.000000
# 4 0.000000 0.000000 0.000000 0.039302 0.000000 -0.007557
# 5 -0.003311 -0.002101 -0.003027 0.000000 0.026136 0.000000
# 6 0.000000 0.000000 0.000000 -0.007557 0.000000 0.043183
#
#
# Mechanical properties :
#
#
# Convention : Reuss Voigt Hill
#
# Bulk Modulus (GPa) = 43.41912 51.53074 47.47493
# Shear Modulus (GPa) = 32.51322 37.22017 34.86669
#
# Velocity S-wave (km/s) = 3.49234 3.73659 3.61653
# Velocity P-wave (km/s) = 5.70521 6.16008 5.93700
#
# Compressibility (1/GPa) = 0.02303133
#
# Stress axis : x y z
#
# Youngs Moduli (GPa) = 90.26173 108.30169 100.53907
#
# Poissons Ratio (x) = 0.22942 -0.08435
# Poissons Ratio (y) = 0.19120 0.23469
# Poissons Ratio (z) = -0.07573 0.25282
#
# Static dielectric constant tensor:
#      x y z
#    x 2.154740 0.000000 0.027140 
#    y 0.000000 2.194720 0.000000 
#    z 0.027140 0.000000 2.174960 
# 
# From -- ./inp_files/6374.got.cif
#   From: 2010.05.17/outbox.cif.g08.bks.cpg/sg3_4_cif.got.tgz:6374.got - 2010.06.03 18:33:08.
