data_PCOD9112832
_publ_section_title
;
Structure prediction by ZEFSAII (Michael W. Deem and Ramdas Pophale) SiO2 
 PCOD9112832
Probable space group: P 2
;
_chemical_formula_sum "Si O2"
_cell_formula_units_Z 14
_cell_length_a 11.022051
_cell_length_b 9.137452
_cell_length_c 12.102689
_cell_angle_alpha 90.000000
_cell_angle_beta 144.702167
_cell_angle_gamma 90.000000
_cell_volume 704.315176
_symmetry_space_group_name_H-M "P 2"
_symmetry_group_IT_number 3
_symmetry_cell_setting 'monoclinic'
loop_
_space_group_symop_operation_xyz
x,y,z
-x,y,-z
loop_
_atom_site_type_symbol
_atom_site_label
_atom_site_fract_x
_atom_site_fract_y
_atom_site_fract_z
Si Si1 0.011471 0.263860 0.878289
Si Si2 0.157378 0.077719 0.413173
Si Si3 0.494155 0.264210 0.770013
Si Si4 0.827967 0.301724 0.285356
Si Si5 0.728880 0.628448 0.202287
Si Si6 0.159503 0.740112 0.467505
Si Si7 0.333353 0.482215 0.474441
O O1 0.901730 0.112952 0.757225
O O2 0.874595 0.389651 0.714767
O O3 0.257849 0.259792 0.031844
O O4 0.000000 0.286806 0.000000
O O5 0.384415 0.146327 0.608715
O O6 0.969087 0.174497 0.332563
O O7 0.172155 0.913520 0.465351
O O8 0.368954 0.242546 0.791241
O O9 0.427589 0.412246 0.656934
O O10 0.747558 0.457200 0.180132
O O11 0.000000 0.361103 0.500000
O O12 0.768725 0.673220 0.360363
O O13 0.914027 0.705784 0.274795
O O14 0.500000 0.680420 0.000000
O O15 0.278023 0.648307 0.461824
O O16 0.500000 0.466285 0.500000
#
# Coordination Sequence:
#
# PCOD9112832 Si02
#       7
#     2   2   2   2   2   2   2
#     4  11  23  42  67  94 122 166 230 276 306 380
#     4  10  25  40  65  93 133 174 206 266 336 391
#     4  10  21  39  66  92 124 161 224 269 310 379
#     4  10  19  39  63  95 122 166 214 261 320 378
#     4  11  23  38  67  93 128 170 210 274 322 383
#     4  11  24  44  59  97 139 164 213 264 333 406
#     4  11  22  42  67  93 124 176 219 274 328 372
#
# _framework density 19.877465000000001
#
# number of rings (size 3 to 8) (size 9 to 14) (size 15 to 20)
#    0.000    1.429    4.286    1.714   10.000    1.143 
#    2.571    0.714    0.000    0.000    0.000    0.000 
#    0.000    0.000    0.000    0.000    0.000    0.000 
#
# Total GULP energy -78009.938470 kJ/mol
# GULP energy per Si atom -5572.138462 kJ/mol
# Density = 1.983222 g / cm^3
# Si number density = 19.877465 Si / 1000 Ang^3
#
#
#
# Elastic Constant Matrix: (Units=GPa)
#
#
# Indices 1 2 3 4 5 6 
#
# 1 53.3819 22.2862 29.4349 0.0000 12.4715 0.0000
# 2 22.2862 125.9207 37.9855 0.0000 5.7627 0.0000
# 3 29.4349 37.9855 144.1373 0.0000 21.5046 0.0000
# 4 0.0000 0.0000 0.0000 3.3052 0.0000 -3.0818
# 5 12.4715 5.7627 21.5046 0.0000 36.7678 0.0000
# 6 0.0000 0.0000 0.0000 -3.0818 0.0000 14.3637
#
#
#
# Elastic Compliance Matrix: (Units=1/GPa)
#
#
# Indices 1 2 3 4 5 6 
#
# 1 0.022930 -0.002870 -0.003104 0.000000 -0.005513 0.000000
# 2 -0.002870 0.008987 -0.001882 0.000000 0.000665 0.000000
# 3 -0.003104 -0.001882 0.008619 0.000000 -0.003693 0.000000
# 4 0.000000 0.000000 0.000000 0.378216 0.000000 0.081147
# 5 -0.005513 0.000665 -0.003693 0.000000 0.031123 0.000000
# 6 0.000000 0.000000 0.000000 0.081147 0.000000 0.087030
#
#
# Mechanical properties :
#
#
# Convention : Reuss Voigt Hill
#
# Bulk Modulus (GPa) = 40.28183 55.87257 48.07720
# Shear Modulus (GPa) = 8.91440 26.46956 17.69198
#
# Velocity S-wave (km/s) = 2.12000 3.65312 2.98661
# Velocity P-wave (km/s) = 5.12851 6.77962 6.01102
#
# Compressibility (1/GPa) = 0.02482509
#
# Stress axis : x y z
#
# Youngs Moduli (GPa) = 43.61012 111.27757 116.02889
#
# Poissons Ratio (x) = 0.31934 0.36015
# Poissons Ratio (y) = 0.12515 0.21831
# Poissons Ratio (z) = 0.13537 0.20937
#
# Static dielectric constant tensor:
#      x y z
#    x 1.808090 0.000000 -0.039270 
#    y 0.000000 1.680250 0.000000 
#    z -0.039270 0.000000 1.729750 
# 
# From -- ./inp_files/13773.got.cif
#   From: 2010.05.17/outbox.cif.g08.bks.cpg/sg3_7_cif.got.tgz:13773.got - 2010.06.03 18:33:08.
