data_PCOD9112402
_publ_section_title
;
Structure prediction by ZEFSAII (Michael W. Deem and Ramdas Pophale) SiO2 
 PCOD9112402
Probable space group: P -1
;
_chemical_formula_sum "Si O2"
_cell_formula_units_Z 16
_cell_length_a 6.372289
_cell_length_b 9.426573
_cell_length_c 13.092197
_cell_angle_alpha 99.145962
_cell_angle_beta 58.934378
_cell_angle_gamma 88.657442
_cell_volume 659.885539
_symmetry_space_group_name_H-M "P -1"
_symmetry_group_IT_number 2
_symmetry_cell_setting 'triclinic'
loop_
_space_group_symop_operation_xyz
x,y,z
-x,-y,-z
loop_
_atom_site_type_symbol
_atom_site_label
_atom_site_fract_x
_atom_site_fract_y
_atom_site_fract_z
Si Si1 0.631286 0.003830 0.706971
Si Si2 0.827692 0.301987 0.765250
Si Si3 0.400287 0.506959 0.409337
Si Si4 0.966899 0.720787 0.586055
Si Si5 0.623279 0.113270 0.047492
Si Si6 0.936608 0.443590 0.253923
Si Si7 0.857444 0.848751 0.153774
Si Si8 0.644566 0.666361 0.008695
O O1 0.852373 0.882631 0.604844
O O2 0.488470 0.913169 0.817263
O O3 0.757667 0.146978 0.724917
O O4 0.379092 0.065035 0.718434
O O5 0.979023 0.419941 0.688837
O O6 0.005432 0.259530 0.811770
O O7 0.566734 0.390687 0.876224
O O8 0.500000 0.500000 0.500000
O O9 0.234983 0.382484 0.408909
O O10 0.660670 0.478927 0.284846
O O11 0.228222 0.660051 0.461267
O O12 0.020744 0.689689 0.690783
O O13 0.510391 0.263230 0.041422
O O14 0.911929 0.082010 0.944169
O O15 0.500000 0.000000 0.000000
O O16 0.112603 0.416484 0.109732
O O17 0.742438 0.779549 0.076128
#
# Coordination Sequence:
#
# PCOD9112402 Si02
#       8
#     2   2   2   2   2   2   2   2
#     4  11  21  35  59  82 112 154 189 234 286 330
#     4  10  23  38  51  86 128 154 187 228 271 344
#     4   9  22  41  62  90 110 136 186 249 291 338
#     4  10  22  41  65  86 110 139 194 246 288 331
#     4  11  18  32  50  81 117 151 193 237 270 325
#     4  11  22  38  62  83 115 157 191 229 288 337
#     4  10  21  32  51  82 123 154 193 232 269 327
#     4  10  21  33  54  83 117 157 196 228 270 330
#
# _framework density 24.246628999999999
#
# number of rings (size 3 to 8) (size 9 to 14) (size 15 to 20)
#    0.000    1.750    5.000    0.750    1.750    4.500 
#    0.000    0.625    0.000    7.500    0.000    0.000 
#    0.000    0.000    0.000    0.000    0.000    0.000 
#
# Total GULP energy -89131.799388 kJ/mol
# GULP energy per Si atom -5570.737462 kJ/mol
# Density = 2.419144 g / cm^3
# Si number density = 24.246629 Si / 1000 Ang^3
#
#
#
# Elastic Constant Matrix: (Units=GPa)
#
#
# Indices 1 2 3 4 5 6 
#
# 1 117.1523 28.3443 45.7057 10.6419 -43.6950 -10.2022
# 2 28.3443 84.0857 29.5688 16.2139 -20.0475 -8.0606
# 3 45.7057 29.5688 65.8550 33.0258 -40.8503 -9.4620
# 4 10.6419 16.2139 33.0258 36.8351 -17.5956 -11.5565
# 5 -43.6950 -20.0475 -40.8503 -17.5956 54.1566 -1.2005
# 6 -10.2022 -8.0606 -9.4620 -11.5565 -1.2005 31.2067
#
#
#
# Elastic Compliance Matrix: (Units=1/GPa)
#
#
# Indices 1 2 3 4 5 6 
#
# 1 0.015017 -0.001334 -0.008789 0.009982 0.008367 0.005919
# 2 -0.001334 0.014394 -0.004225 -0.001375 0.000652 0.001517
# 3 -0.008789 -0.004225 0.051922 -0.032441 0.019981 0.000533
# 4 0.009982 -0.001375 -0.032441 0.060247 0.002993 0.015498
# 5 0.008367 0.000652 0.019981 0.002993 0.041760 0.011677
# 6 0.005919 0.001517 0.000533 0.015498 0.011677 0.040721
#
#
# Mechanical properties :
#
#
# Convention : Reuss Voigt Hill
#
# Bulk Modulus (GPa) = 18.99805 52.70340 35.85072
# Shear Modulus (GPa) = 18.49776 35.33796 26.91786
#
# Velocity S-wave (km/s) = 2.76506 3.82178 3.33553
# Velocity P-wave (km/s) = 4.24811 6.42326 5.44540
#
# Compressibility (1/GPa) = 0.05263699
#
# Stress axis : x y z
#
# Youngs Moduli (GPa) = 66.59152 69.47309 19.25975
#
# Poissons Ratio (x) = 0.09268 0.16926
# Poissons Ratio (y) = 0.08884 0.08138
# Poissons Ratio (z) = 0.58524 0.29354
#
# Static dielectric constant tensor:
#      x y z
#    x 1.922670 -0.029690 -0.015220 
#    y -0.029690 2.111670 -0.030770 
#    z -0.015220 -0.030770 2.116840 
# 
# From -- ./inp_files/482227.got.cif
#   From: 2010.05.17/outbox.cif.g08.bks.cpg/sg2_242_cif.got.tgz:482227.got - 2010.06.03 11:33:40.
