data_PCOD9112653
_publ_section_title
;
Structure prediction by ZEFSAII (Michael W. Deem and Ramdas Pophale) SiO2 
 PCOD9112653
Probable space group: P 2
;
_chemical_formula_sum "Si O2"
_cell_formula_units_Z 14
_cell_length_a 7.418242
_cell_length_b 17.400751
_cell_length_c 8.666745
_cell_angle_alpha 90.000000
_cell_angle_beta 143.796766
_cell_angle_gamma 90.000000
_cell_volume 660.778813
_symmetry_space_group_name_H-M "P 2"
_symmetry_group_IT_number 3
_symmetry_cell_setting 'monoclinic'
loop_
_space_group_symop_operation_xyz
x,y,z
-x,y,-z
loop_
_atom_site_type_symbol
_atom_site_label
_atom_site_fract_x
_atom_site_fract_y
_atom_site_fract_z
Si Si1 0.165945 0.246720 0.944464
Si Si2 0.911429 0.418797 0.116267
Si Si3 0.658483 0.164437 0.444089
Si Si4 0.366357 0.839605 0.735386
Si Si5 0.683986 0.508737 0.378011
Si Si6 0.363516 0.005860 0.734227
Si Si7 0.635365 0.673575 0.266668
O O1 0.125066 0.331880 0.849492
O O2 0.007331 0.184646 0.722989
O O3 0.510060 0.224310 0.222633
O O4 0.000000 0.244251 0.000000
O O5 0.189167 0.463737 0.387307
O O6 0.589784 0.463565 0.893744
O O7 0.000000 0.411868 0.000000
O O8 0.500000 0.174677 0.500000
O O9 0.576394 0.080075 0.327183
O O10 0.462573 0.756757 0.733956
O O11 0.000000 0.839971 0.500000
O O12 0.461051 0.922457 0.733215
O O13 0.500000 0.839118 0.000000
O O14 0.571233 0.596587 0.318651
O O15 0.000000 0.512310 0.500000
O O16 0.000000 0.003559 0.500000
O O17 0.500000 0.013826 0.000000
O O18 0.000000 0.677995 0.500000
O O19 0.500000 0.663611 0.000000
#
# Coordination Sequence:
#
# PCOD9112653 Si02
#       7
#     2   2   2   2   2   2   2
#     4   9  19  35  54  72  94 133 179 210 239 304
#     4  11  22  38  57  76 103 141 181 216 259 315
#     4  10  19  34  54  73  96 131 172 208 248 301
#     4   8  15  27  46  71  98 130 165 199 239 296
#     4  11  21  35  55  82 109 134 171 223 269 304
#     4  10  19  32  50  76 105 128 160 208 256 297
#     4   9  16  29  49  74 102 133 168 204 246 301
#
# _framework density 21.18712
#
# number of rings (size 3 to 8) (size 9 to 14) (size 15 to 20)
#    0.000    2.286    0.000    4.286    0.000    2.286 
#    0.000    7.143    0.000    1.714    0.000    2.000 
#    0.000    0.000    0.000    0.000    0.000    0.000 
#
# Total GULP energy -78031.955271 kJ/mol
# GULP energy per Si atom -5573.711091 kJ/mol
# Density = 2.113890 g / cm^3
# Si number density = 21.187120 Si / 1000 Ang^3
#
#
#
# Elastic Constant Matrix: (Units=GPa)
#
#
# Indices 1 2 3 4 5 6 
#
# 1 19.2736 -3.5762 6.0025 0.0000 3.7983 0.0000
# 2 -3.5762 183.1407 54.9830 0.0000 -16.7780 0.0000
# 3 6.0025 54.9830 162.2285 0.0000 3.0271 0.0000
# 4 0.0000 0.0000 0.0000 36.1839 0.0000 -1.6248
# 5 3.7983 -16.7780 3.0271 0.0000 19.5252 0.0000
# 6 0.0000 0.0000 0.0000 -1.6248 0.0000 39.4902
#
#
#
# Elastic Compliance Matrix: (Units=1/GPa)
#
#
# Indices 1 2 3 4 5 6 
#
# 1 0.054586 0.000825 -0.002120 0.000000 -0.009581 0.000000
# 2 0.000825 0.006759 -0.002434 0.000000 0.006025 0.000000
# 3 -0.002120 -0.002434 0.007119 0.000000 -0.002783 0.000000
# 4 0.000000 0.000000 0.000000 0.027688 0.000000 0.001139
# 5 -0.009581 0.006025 -0.002783 0.000000 0.058688 0.000000
# 6 0.000000 0.000000 0.000000 0.001139 0.000000 0.025370
#
#
# Mechanical properties :
#
#
# Convention : Reuss Voigt Hill
#
# Bulk Modulus (GPa) = 16.39192 53.27350 34.83271
# Shear Modulus (GPa) = 24.03795 39.52209 31.78002
#
# Velocity S-wave (km/s) = 3.37197 4.32369 3.87714
# Velocity P-wave (km/s) = 4.78683 7.07988 6.04311
#
# Compressibility (1/GPa) = 0.06100566
#
# Stress axis : x y z
#
# Youngs Moduli (GPa) = 18.31967 147.95078 140.46193
#
# Poissons Ratio (x) = -0.12202 0.29784
# Poissons Ratio (y) = -0.01511 0.34185
# Poissons Ratio (z) = 0.03885 0.36007
#
# Static dielectric constant tensor:
#      x y z
#    x 1.748360 0.000000 0.000990 
#    y 0.000000 1.863970 0.000000 
#    z 0.000990 0.000000 1.734850 
# 
# From -- ./inp_files/4512.got.cif
#   From: 2010.05.17/outbox.cif.g08.bks.cpg/sg3_3_cif.got.tgz:4512.got - 2010.06.03 18:33:08.
