data_PCOD9112697
_publ_section_title
;
Structure prediction by ZEFSAII (Michael W. Deem and Ramdas Pophale) SiO2 
 PCOD9112697
Probable space group: P 2
;
_chemical_formula_sum "Si O2"
_cell_formula_units_Z 14
_cell_length_a 9.818826
_cell_length_b 7.427658
_cell_length_c 16.955735
_cell_angle_alpha 90.000000
_cell_angle_beta 27.966968
_cell_angle_gamma 90.000000
_cell_volume 579.917418
_symmetry_space_group_name_H-M "P 2"
_symmetry_group_IT_number 3
_symmetry_cell_setting 'monoclinic'
loop_
_space_group_symop_operation_xyz
x,y,z
-x,y,-z
loop_
_atom_site_type_symbol
_atom_site_label
_atom_site_fract_x
_atom_site_fract_y
_atom_site_fract_z
Si Si1 0.284582 0.307250 0.020640
Si Si2 0.770218 0.134892 0.518942
Si Si3 0.823083 0.059834 0.239325
Si Si4 0.850533 0.783415 0.829636
Si Si5 0.873604 0.738515 0.989609
Si Si6 0.142538 0.450658 0.268017
Si Si7 0.621878 0.004573 0.762719
O O1 0.535858 0.438095 0.857967
O O2 0.449132 0.116992 0.917054
O O3 0.973184 0.251759 0.145201
O O4 0.211246 0.352767 0.148802
O O5 0.631825 0.116074 0.676483
O O6 0.517930 0.086681 0.587594
O O7 0.909602 0.330263 0.431792
O O8 0.045767 0.000059 0.379622
O O9 0.967686 0.962406 0.242316
O O10 0.916482 0.915768 0.125002
O O11 0.944587 0.651077 0.711591
O O12 0.500000 0.806191 0.000000
O O13 0.901444 0.669562 0.885616
O O14 0.551124 0.820980 0.162512
O O15 0.000000 0.634709 0.000000
#
# Coordination Sequence:
#
# PCOD9112697 Si02
#       7
#     2   2   2   2   2   2   2
#     4   9  18  33  58  86 116 163 222 257 304 381
#     4  10  19  33  60  96 133 161 210 275 333 390
#     4   9  20  32  63  93 123 163 214 276 320 381
#     4  10  20  35  64  96 127 174 221 272 322 392
#     4   9  17  34  63  94 129 161 228 274 313 381
#     4  10  20  36  57  89 127 168 206 267 328 387
#     4   9  17  33  59  96 120 167 214 273 324 378
#
# _framework density 24.141366999999999
#
# number of rings (size 3 to 8) (size 9 to 14) (size 15 to 20)
#    0.857    1.714    2.857    0.000    2.000    0.571 
#    0.000    0.000    6.286    1.714   11.143    0.000 
#    0.000    0.000    0.000    0.000    0.000    0.000 
#
# Total GULP energy -77943.983022 kJ/mol
# GULP energy per Si atom -5567.427359 kJ/mol
# Density = 2.408642 g / cm^3
# Si number density = 24.141367 Si / 1000 Ang^3
#
#
#
# Elastic Constant Matrix: (Units=GPa)
#
#
# Indices 1 2 3 4 5 6 
#
# 1 125.8394 42.8202 32.6550 0.0000 -17.7294 0.0000
# 2 42.8202 99.9841 36.3250 0.0000 -0.6996 0.0000
# 3 32.6550 36.3250 93.5216 0.0000 -9.7033 0.0000
# 4 0.0000 0.0000 0.0000 29.3223 0.0000 12.0649
# 5 -17.7294 -0.6996 -9.7033 0.0000 51.7125 0.0000
# 6 0.0000 0.0000 0.0000 12.0649 0.0000 20.9794
#
#
#
# Elastic Compliance Matrix: (Units=1/GPa)
#
#
# Indices 1 2 3 4 5 6 
#
# 1 0.010084 -0.003649 -0.001785 0.000000 0.003073 0.000000
# 2 -0.003649 0.012990 -0.003960 0.000000 -0.001818 0.000000
# 3 -0.001785 -0.003960 0.013039 0.000000 0.001781 0.000000
# 4 0.000000 0.000000 0.000000 0.044675 0.000000 -0.025692
# 5 0.003073 -0.001818 0.001781 0.000000 0.020701 0.000000
# 6 0.000000 0.000000 0.000000 -0.025692 0.000000 0.062441
#
#
# Mechanical properties :
#
#
# Convention : Reuss Voigt Hill
#
# Bulk Modulus (GPa) = 57.71831 60.32726 59.02279
# Shear Modulus (GPa) = 26.52610 34.23918 30.38264
#
# Velocity S-wave (km/s) = 3.31838 3.77009 3.55143
# Velocity P-wave (km/s) = 6.21632 6.63286 6.42796
#
# Compressibility (1/GPa) = 0.01732552
#
# Stress axis : x y z
#
# Youngs Moduli (GPa) = 99.16271 76.98045 76.69300
#
# Poissons Ratio (x) = 0.28089 0.13690
# Poissons Ratio (y) = 0.36183 0.30372
# Poissons Ratio (z) = 0.17701 0.30486
#
# Static dielectric constant tensor:
#      x y z
#    x 2.080950 0.000000 0.043340 
#    y 0.000000 2.034140 0.000000 
#    z 0.043340 0.000000 1.958640 
# 
# From -- ./inp_files/15267.got.cif
#   From: 2010.05.17/outbox.cif.g08.bks.cpg/sg3_8_cif.got.tgz:15267.got - 2010.06.03 18:33:08.
