data_PCOD9112417
_publ_section_title
;
Structure prediction by ZEFSAII (Michael W. Deem and Ramdas Pophale) SiO2 
 PCOD9112417
Probable space group: P -1
;
_chemical_formula_sum "Si O2"
_cell_formula_units_Z 16
_cell_length_a 22.954169
_cell_length_b 6.452013
_cell_length_c 11.604986
_cell_angle_alpha 58.953779
_cell_angle_beta 27.771663
_cell_angle_gamma 66.954905
_cell_volume 676.992962
_symmetry_space_group_name_H-M "P -1"
_symmetry_group_IT_number 2
_symmetry_cell_setting 'triclinic'
loop_
_space_group_symop_operation_xyz
x,y,z
-x,-y,-z
loop_
_atom_site_type_symbol
_atom_site_label
_atom_site_fract_x
_atom_site_fract_y
_atom_site_fract_z
Si Si1 0.106809 0.690344 0.821460
Si Si2 0.269314 0.954620 0.202484
Si Si3 0.566089 0.762312 0.575012
Si Si4 0.666897 0.462807 0.672850
Si Si5 0.016820 0.607335 0.676023
Si Si6 0.817002 0.763779 0.529789
Si Si7 0.404903 0.673553 0.667051
Si Si8 0.236295 0.272348 0.964011
O O1 0.238190 0.630047 0.559856
O O2 0.103600 0.975115 0.723709
O O3 0.076112 0.600181 0.029785
O O4 0.000000 0.500000 0.000000
O O5 0.367645 0.783199 0.120131
O O6 0.128872 0.786170 0.495548
O O7 0.269303 0.164923 0.236676
O O8 0.282992 0.066564 0.020718
O O9 0.573736 0.589832 0.721205
O O10 0.442887 0.694308 0.728791
O O11 0.579645 0.053261 0.489376
O O12 0.686705 0.729882 0.289425
O O13 0.741374 0.653637 0.579930
O O14 0.915166 0.769852 0.765542
O O15 0.099917 0.434871 0.512036
O O16 0.500000 0.500000 0.500000
O O17 0.272856 0.524373 0.899152
#
# Coordination Sequence:
#
# PCOD9112417 Si02
#       8
#     2   2   2   2   2   2   2   2
#     4  11  18  32  50  82 117 149 194 243 272 319
#     4  10  23  39  51  85 127 156 187 231 270 341
#     4  10  21  41  65  87 110 140 190 248 288 334
#     4  10  21  35  60  82 111 152 192 233 286 331
#     4  11  21  33  54  82 118 159 196 227 273 331
#     4  10  21  32  53  80 122 156 192 233 275 323
#     4   9  22  40  62  90 113 136 184 245 296 339
#     4  11  23  38  61  83 117 156 192 228 288 341
#
# _framework density 23.633925000000001
#
# number of rings (size 3 to 8) (size 9 to 14) (size 15 to 20)
#    0.000    1.750    5.000    0.750    1.750    4.500 
#    0.000    0.625    0.000    7.500    0.000    0.000 
#    0.000    0.000    0.000    0.000    0.000    0.000 
#
# Total GULP energy -89255.763560 kJ/mol
# GULP energy per Si atom -5578.485223 kJ/mol
# Density = 2.358013 g / cm^3
# Si number density = 23.633925 Si / 1000 Ang^3
#
#
#
# Elastic Constant Matrix: (Units=GPa)
#
#
# Indices 1 2 3 4 5 6 
#
# 1 99.1310 50.3599 15.6701 3.6302 15.3354 -30.3738
# 2 50.3599 149.0765 25.7455 7.7717 1.7966 -7.9126
# 3 15.6701 25.7455 45.0194 3.1633 0.6162 -6.9834
# 4 3.6302 7.7717 3.1633 39.9658 -9.1823 -2.2417
# 5 15.3354 1.7966 0.6162 -9.1823 26.8901 -9.7963
# 6 -30.3738 -7.9126 -6.9834 -2.2417 -9.7963 40.1473
#
#
#
# Elastic Compliance Matrix: (Units=1/GPa)
#
#
# Indices 1 2 3 4 5 6 
#
# 1 0.016749 -0.004748 -0.001397 -0.001314 -0.006027 0.009949
# 2 -0.004748 0.008867 -0.003725 -0.000881 0.001069 -0.002281
# 3 -0.001397 -0.003725 0.025308 -0.000696 0.001279 0.002884
# 4 -0.001314 -0.000881 -0.000696 0.028205 0.011590 0.003114
# 5 -0.006027 0.001069 0.001279 0.011590 0.047431 0.008094
# 6 0.009949 -0.002281 0.002884 0.003114 0.008094 0.034636
#
#
# Mechanical properties :
#
#
# Convention : Reuss Voigt Hill
#
# Bulk Modulus (GPa) = 32.06614 52.97534 42.52074
# Shear Modulus (GPa) = 26.13283 34.83073 30.48178
#
# Velocity S-wave (km/s) = 3.32887 3.84312 3.59520
# Velocity P-wave (km/s) = 5.32658 6.49280 5.93838
#
# Compressibility (1/GPa) = 0.03118554
#
# Stress axis : x y z
#
# Youngs Moduli (GPa) = 59.70420 112.77724 39.51350
#
# Poissons Ratio (x) = 0.53543 0.05519
# Poissons Ratio (y) = 0.28345 0.14718
# Poissons Ratio (z) = 0.08339 0.42007
#
# Static dielectric constant tensor:
#      x y z
#    x 1.966140 -0.039900 0.035650 
#    y -0.039900 1.909210 0.008520 
#    z 0.035650 0.008520 1.979670 
# 
# From -- ./inp_files/94510.got.cif
#   From: 2010.05.17/outbox.cif.g08.bks.cpg/sg2_48_cif.got.tgz:94510.got - 2010.06.03 11:33:40.
