data_PCOD9112357
_publ_section_title
;
Structure prediction by ZEFSAII (Michael W. Deem and Ramdas Pophale) SiO2 
 PCOD9112357
Probable space group: P -1
;
_chemical_formula_sum "Si O2"
_cell_formula_units_Z 16
_cell_length_a 18.118000
_cell_length_b 20.546423
_cell_length_c 8.770378
_cell_angle_alpha 146.876372
_cell_angle_beta 34.896127
_cell_angle_gamma 159.679236
_cell_volume 609.046629
_symmetry_space_group_name_H-M "P -1"
_symmetry_group_IT_number 2
_symmetry_cell_setting 'triclinic'
loop_
_space_group_symop_operation_xyz
x,y,z
-x,-y,-z
loop_
_atom_site_type_symbol
_atom_site_label
_atom_site_fract_x
_atom_site_fract_y
_atom_site_fract_z
Si Si1 0.777254 0.721718 0.709088
Si Si2 0.677420 0.979036 0.082030
Si Si3 0.377847 0.058613 0.369804
Si Si4 0.773648 0.478062 0.050153
Si Si5 0.964473 0.197571 0.315646
Si Si6 0.699988 0.546364 0.985107
Si Si7 0.169026 0.084292 0.562416
Si Si8 0.739344 0.214861 0.214806
O O1 0.740687 0.558682 0.389748
O O2 0.558102 0.630951 0.926213
O O3 0.908319 0.808683 0.815375
O O4 0.927930 0.888679 0.650896
O O5 0.426387 0.759372 0.067346
O O6 0.795248 0.976366 0.760051
O O7 0.784510 0.039138 0.182107
O O8 0.721983 0.146973 0.279197
O O9 0.318196 0.140045 0.554416
O O10 0.586551 0.210851 0.422300
O O11 0.181394 0.859262 0.412404
O O12 0.381089 0.976735 0.056382
O O13 0.763190 0.532296 0.008589
O O14 0.011391 0.595626 0.885180
O O15 0.158020 0.400041 0.290177
O O16 0.773566 0.740067 0.234833
#
# Coordination Sequence:
#
# PCOD9112357 Si02
#       8
#     2   2   2   2   2   2   2   2
#     4  11  23  42  62  93 132 173 216 258 313 385
#     4  11  23  41  65  98 130 168 215 264 320 379
#     4   9  21  43  73  91 125 170 219 266 325 374
#     4  12  23  42  67  98 127 172 225 252 315 398
#     4  11  23  43  62  99 135 165 210 271 326 376
#     4  12  25  40  67  96 135 174 211 263 317 388
#     4  10  22  43  67  93 129 176 218 257 314 392
#     4  10  20  47  71  91 125 174 214 271 316 384
#
# _framework density 26.270567
#
# number of rings (size 3 to 8) (size 9 to 14) (size 15 to 20)
#    0.000    1.250    6.250    0.750    1.750    3.500 
#    4.500    8.750    0.000    0.000    0.000    0.000 
#    0.000    0.000    0.000    0.000    0.000    0.000 
#
# Total GULP energy -89584.088932 kJ/mol
# GULP energy per Si atom -5599.005558 kJ/mol
# Density = 2.621077 g / cm^3
# Si number density = 26.270567 Si / 1000 Ang^3
#
#
#
# Elastic Constant Matrix: (Units=GPa)
#
#
# Indices 1 2 3 4 5 6 
#
# 1 126.6374 56.7138 32.1863 -19.9718 16.7364 31.5343
# 2 56.7138 169.0872 24.9004 -26.9695 -13.6916 13.3086
# 3 32.1863 24.9004 70.2036 -15.5821 12.1478 -7.9290
# 4 -19.9718 -26.9695 -15.5821 33.0175 4.4076 -8.3199
# 5 16.7364 -13.6916 12.1478 4.4076 35.2421 -15.5672
# 6 31.5343 13.3086 -7.9290 -8.3199 -15.5672 42.6517
#
#
#
# Elastic Compliance Matrix: (Units=1/GPa)
#
#
# Indices 1 2 3 4 5 6 
#
# 1 0.019530 -0.005278 -0.005654 0.002226 -0.018572 -0.020188
# 2 -0.005278 0.008622 -0.000619 0.003698 0.007642 0.004607
# 3 -0.005654 -0.000619 0.020137 0.008081 -0.001461 0.009160
# 4 0.002226 0.003698 0.008081 0.040350 -0.005423 0.004594
# 5 -0.018572 0.007642 -0.001461 -0.005423 0.054568 0.029933
# 6 -0.020188 0.004607 0.009160 0.004594 0.029933 0.050458
#
#
# Mechanical properties :
#
#
# Convention : Reuss Voigt Hill
#
# Bulk Modulus (GPa) = 39.70470 65.94768 52.82619
# Shear Modulus (GPa) = 22.20623 38.99078 30.59850
#
# Velocity S-wave (km/s) = 2.91054 3.85671 3.41654
# Velocity P-wave (km/s) = 5.14214 6.70746 5.97627
#
# Compressibility (1/GPa) = 0.02518593
#
# Stress axis : x y z
#
# Youngs Moduli (GPa) = 51.20391 115.98817 49.65926
#
# Poissons Ratio (x) = 0.61214 0.28079
# Poissons Ratio (y) = 0.27024 0.03076
# Poissons Ratio (z) = 0.28952 0.07184
#
# Static dielectric constant tensor:
#      x y z
#    x 2.048480 0.016120 -0.070110 
#    y 0.016120 2.034180 0.011250 
#    z -0.070110 0.011250 2.156190 
# 
# From -- ./inp_files/338194.got.cif
#   From: 2010.05.17/outbox.cif.g08.bks.cpg/sg2_170_cif.got.tgz:338194.got - 2010.06.03 11:33:40.
