data_PCOD9112142
_publ_section_title
;
Structure prediction by ZEFSAII (Michael W. Deem and Ramdas Pophale) SiO2 
 PCOD9112142
Probable space group: P -1
;
_chemical_formula_sum "Si O2"
_cell_formula_units_Z 14
_cell_length_a 12.247607
_cell_length_b 11.442129
_cell_length_c 9.834842
_cell_angle_alpha 124.740948
_cell_angle_beta 37.379055
_cell_angle_gamma 130.716537
_cell_volume 630.195034
_symmetry_space_group_name_H-M "P -1"
_symmetry_group_IT_number 2
_symmetry_cell_setting 'triclinic'
loop_
_space_group_symop_operation_xyz
x,y,z
-x,-y,-z
loop_
_atom_site_type_symbol
_atom_site_label
_atom_site_fract_x
_atom_site_fract_y
_atom_site_fract_z
Si Si1 0.733685 0.780464 0.157481
Si Si2 0.998932 0.306570 0.650037
Si Si3 0.032178 0.766216 0.060545
Si Si4 0.317448 0.927177 0.529762
Si Si5 0.436502 0.861230 0.078380
Si Si6 0.189690 0.136854 0.173635
Si Si7 0.732605 0.349392 0.437409
O O1 0.861836 0.718865 0.084245
O O2 0.499949 0.693275 0.356814
O O3 0.793273 0.960431 0.264841
O O4 0.772369 0.785949 0.961750
O O5 0.046167 0.296481 0.754792
O O6 0.033105 0.175523 0.440791
O O7 0.139869 0.469729 0.557342
O O8 0.769742 0.272449 0.847587
O O9 0.128370 0.952879 0.097994
O O10 0.196387 0.708033 0.807678
O O11 0.397654 0.930801 0.303854
O O12 0.218610 0.750305 0.558997
O O13 0.500000 0.000000 0.500000
O O14 0.608253 0.804141 0.901428
O O15 0.500000 0.000000 0.000000
#
# Coordination Sequence:
#
# PCOD9112142 Si02
#       7
#     2   2   2   2   2   2   2
#     4  11  24  43  77  99 129 182 242 286 326 411
#     4  12  30  42  67 108 145 179 222 289 357 402
#     4  12  25  45  73 100 134 186 238 281 336 413
#     4  10  20  44  71  99 127 183 236 271 329 410
#     4  12  25  44  70 101 143 180 224 290 347 402
#     4  12  24  46  70 104 133 177 239 288 338 407
#     4  11  25  47  68 100 143 182 234 277 343 416
#
# _framework density 22.215344000000002
#
# number of rings (size 3 to 8) (size 9 to 14) (size 15 to 20)
#    0.000    0.571    5.714    3.000    4.000    2.857 
#    0.000    0.000    0.000    0.000    0.000    0.000 
#    0.000    0.000    0.000    0.000    0.000    0.000 
#
# Total GULP energy -78361.667075 kJ/mol
# GULP energy per Si atom -5597.261934 kJ/mol
# Density = 2.216478 g / cm^3
# Si number density = 22.215344 Si / 1000 Ang^3
#
#
#
# Elastic Constant Matrix: (Units=GPa)
#
#
# Indices 1 2 3 4 5 6 
#
# 1 105.8591 17.8748 17.0884 -26.9022 -3.8808 0.4477
# 2 17.8748 70.8541 2.7032 -23.8850 -2.4497 9.5483
# 3 17.0884 2.7032 88.2008 -16.2462 10.4818 -3.2141
# 4 -26.9022 -23.8850 -16.2462 33.6346 3.6957 -0.6681
# 5 -3.8808 -2.4497 10.4818 3.6957 54.6604 -14.3643
# 6 0.4477 9.5483 -3.2141 -0.6681 -14.3643 12.1212
#
#
#
# Elastic Compliance Matrix: (Units=1/GPa)
#
#
# Indices 1 2 3 4 5 6 
#
# 1 0.011895 0.000109 -0.000646 0.009238 0.000435 0.000328
# 2 0.000109 0.023266 0.002555 0.018144 -0.007323 -0.025332
# 3 -0.000646 0.002555 0.013209 0.008029 -0.003621 -0.002335
# 4 0.009238 0.018144 0.008029 0.054478 -0.009078 -0.020261
# 5 0.000435 -0.007323 -0.003621 -0.009078 0.029675 0.039459
# 6 0.000328 -0.025332 -0.002335 -0.020261 0.039459 0.147467
#
#
# Mechanical properties :
#
#
# Convention : Reuss Voigt Hill
#
# Bulk Modulus (GPa) = 19.08222 37.80519 28.44370
# Shear Modulus (GPa) = 17.04030 35.23309 26.13669
#
# Velocity S-wave (km/s) = 2.77257 3.98676 3.43376
# Velocity P-wave (km/s) = 4.34256 6.18440 5.34344
#
# Compressibility (1/GPa) = 0.05240481
#
# Stress axis : x y z
#
# Youngs Moduli (GPa) = 84.07187 42.98192 75.70704
#
# Poissons Ratio (x) = -0.00467 0.04891
# Poissons Ratio (y) = -0.00914 -0.19345
# Poissons Ratio (z) = 0.05431 -0.10983
#
# Static dielectric constant tensor:
#      x y z
#    x 1.849760 0.017030 -0.032240 
#    y 0.017030 1.812250 -0.012940 
#    z -0.032240 -0.012940 1.808260 
# 
# From -- ./inp_files/262868.got.cif
#   From: 2010.05.17/outbox.cif.g08.bks.cpg/sg2_132_cif.got.tgz:262868.got - 2010.06.03 11:33:40.
