data_PCOD9112465
_publ_section_title
;
Structure prediction by ZEFSAII (Michael W. Deem and Ramdas Pophale) SiO2 
 PCOD9112465
Probable space group: P 2
;
_chemical_formula_sum "Si O2"
_cell_formula_units_Z 16
_cell_length_a 5.362239
_cell_length_b 19.364197
_cell_length_c 6.472717
_cell_angle_alpha 90.000000
_cell_angle_beta 99.723273
_cell_angle_gamma 90.000000
_cell_volume 662.442783
_symmetry_space_group_name_H-M "P 2"
_symmetry_group_IT_number 3
_symmetry_cell_setting 'monoclinic'
loop_
_space_group_symop_operation_xyz
x,y,z
-x,y,-z
loop_
_atom_site_type_symbol
_atom_site_label
_atom_site_fract_x
_atom_site_fract_y
_atom_site_fract_z
Si Si1 0.910960 0.760190 0.763328
Si Si2 0.777996 0.908665 0.639713
Si Si3 0.779135 0.561413 0.140962
Si Si4 0.193576 0.208038 0.230127
Si Si5 0.288558 0.264611 0.706510
Si Si6 0.780331 0.408186 0.141757
Si Si7 0.402076 0.700201 0.745703
Si Si8 0.777269 0.059765 0.642989
O O1 0.813869 0.838384 0.769945
O O2 0.670655 0.712604 0.671283
O O3 0.178969 0.756201 0.681270
O O4 0.000000 0.735355 0.000000
O O5 0.500000 0.905639 0.500000
O O6 0.000000 0.907923 0.500000
O O7 0.802813 0.983944 0.747768
O O8 0.825822 0.485003 0.237466
O O9 0.740544 0.626437 0.286049
O O10 0.500000 0.556827 0.000000
O O11 0.000000 0.573100 0.000000
O O12 0.240872 0.226013 0.484070
O O13 0.424281 0.254372 0.188919
O O14 0.221066 0.126231 0.210587
O O15 0.902876 0.228057 0.164081
O O16 0.220316 0.345225 0.698128
O O17 0.500000 0.407405 0.000000
O O18 0.000000 0.396897 0.000000
O O19 0.500000 0.706159 0.000000
O O20 0.500000 0.060757 0.500000
O O21 0.000000 0.066946 0.500000
#
# Coordination Sequence:
#
# PCOD9112465 Si02
#       8
#     2   2   2   2   2   2   2   2
#     4  10  19  32  51  78 105 131 166 216 262 298
#     4  10  21  33  52  78 104 136 170 212 256 318
#     4   9  16  28  46  70 100 127 168 209 239 285
#     4  10  17  30  50  76  89 119 167 220 242 275
#     4  10  18  29  49  72  96 122 160 209 256 282
#     4  10  20  32  46  71 106 137 160 198 256 311
#     4   9  16  28  49  74  99 126 166 212 248 288
#     4  10  16  30  49  75  96 115 163 214 254 276
#
# _framework density 24.153030000000001
#
# number of rings (size 3 to 8) (size 9 to 14) (size 15 to 20)
#    0.000    2.250    2.500    3.375    0.000    0.000 
#    0.000    0.000    0.000    2.250   19.500    0.000 
#    0.000    0.000    0.000    0.000    0.000    0.000 
#
# Total GULP energy -89275.272466 kJ/mol
# GULP energy per Si atom -5579.704529 kJ/mol
# Density = 2.409806 g / cm^3
# Si number density = 24.153030 Si / 1000 Ang^3
#
#
#
# Elastic Constant Matrix: (Units=GPa)
#
#
# Indices 1 2 3 4 5 6 
#
# 1 213.5544 39.3381 23.9724 0.0000 3.6466 0.0000
# 2 39.3381 215.9125 -9.1692 0.0000 9.6141 0.0000
# 3 23.9724 -9.1692 16.5538 0.0000 4.0730 0.0000
# 4 0.0000 0.0000 0.0000 9.3690 0.0000 3.2432
# 5 3.6466 9.6141 4.0730 0.0000 44.8127 0.0000
# 6 0.0000 0.0000 0.0000 3.2432 0.0000 42.2969
#
#
#
# Elastic Compliance Matrix: (Units=1/GPa)
#
#
# Indices 1 2 3 4 5 6 
#
# 1 0.006058 -0.001553 -0.009813 0.000000 0.000732 0.000000
# 2 -0.001553 0.005215 0.005505 0.000000 -0.001493 0.000000
# 3 -0.009813 0.005505 0.079542 0.000000 -0.007612 0.000000
# 4 0.000000 0.000000 0.000000 0.109645 0.000000 -0.008407
# 5 0.000732 -0.001493 -0.007612 0.000000 0.023268 0.000000
# 6 0.000000 0.000000 0.000000 -0.008407 0.000000 0.024287
#
#
# Mechanical properties :
#
#
# Convention : Reuss Voigt Hill
#
# Bulk Modulus (GPa) = 12.64351 61.58925 37.11638
# Shear Modulus (GPa) = 17.47637 45.42101 31.44869
#
# Velocity S-wave (km/s) = 2.69284 4.34124 3.61232
# Velocity P-wave (km/s) = 3.86195 7.11923 5.72704
#
# Compressibility (1/GPa) = 0.07909195
#
# Stress axis : x y z
#
# Youngs Moduli (GPa) = 165.07727 191.76567 12.57198
#
# Poissons Ratio (x) = 0.29782 0.12337
# Poissons Ratio (y) = 0.25637 -0.06921
# Poissons Ratio (z) = 1.61990 -1.05562
#
# Static dielectric constant tensor:
#      x y z
#    x 1.936100 0.000000 -0.039430 
#    y 0.000000 1.928200 0.000000 
#    z -0.039430 0.000000 1.981550 
# 
# From -- ./inp_files/4573.got.cif
#   From: 2010.05.17/outbox.cif.g08.bks.cpg/sg3_3_cif.got.tgz:4573.got - 2010.06.03 18:33:08.
