data_PCOD9112027
_publ_section_title
;
Structure prediction by ZEFSAII (Michael W. Deem and Ramdas Pophale) SiO2 
 PCOD9112027
Probable space group: P -1
;
_chemical_formula_sum "Si O2"
_cell_formula_units_Z 14
_cell_length_a 11.050605
_cell_length_b 12.396634
_cell_length_c 13.218260
_cell_angle_alpha 136.161991
_cell_angle_beta 140.129049
_cell_angle_gamma 35.198757
_cell_volume 647.032039
_symmetry_space_group_name_H-M "P -1"
_symmetry_group_IT_number 2
_symmetry_cell_setting 'triclinic'
loop_
_space_group_symop_operation_xyz
x,y,z
-x,-y,-z
loop_
_atom_site_type_symbol
_atom_site_label
_atom_site_fract_x
_atom_site_fract_y
_atom_site_fract_z
Si Si1 0.426901 0.853273 0.840820
Si Si2 0.833742 0.522763 0.998527
Si Si3 0.545358 0.195662 0.405790
Si Si4 0.785819 0.756512 0.315372
Si Si5 0.179689 0.473785 0.512756
Si Si6 0.105617 0.857922 0.246309
Si Si7 0.454868 0.840251 0.330648
O O1 0.571440 0.681452 0.897387
O O2 0.485073 0.763611 0.704756
O O3 0.152127 0.977542 0.768952
O O4 0.500000 0.000000 0.000000
O O5 0.891205 0.316262 0.914013
O O6 0.866302 0.610290 0.176965
O O7 0.000000 0.500000 0.000000
O O8 0.301742 0.313685 0.392163
O O9 0.720915 0.222880 0.598802
O O10 0.679003 0.967047 0.348028
O O11 0.571338 0.780215 0.254972
O O12 0.010212 0.672112 0.475943
O O13 0.407079 0.364245 0.657263
O O14 0.000000 0.500000 0.500000
O O15 0.195396 0.929672 0.263710
O O16 0.500000 0.000000 0.500000
#
# Coordination Sequence:
#
# PCOD9112027 Si02
#       7
#     2   2   2   2   2   2   2
#     4  12  24  43  70  94 134 179 217 269 335 382
#     4  12  25  43  65  96 139 172 218 276 326 389
#     4  11  22  42  69  98 131 172 226 267 322 394
#     4  11  21  39  70  94 132 180 209 268 338 383
#     4   9  20  34  65  99 124 167 216 261 326 380
#     4  11  25  42  66 100 132 170 224 274 320 395
#     4  10  20  44  67  96 134 164 219 278 317 389
#
# _framework density 21.637259
#
# number of rings (size 3 to 8) (size 9 to 14) (size 15 to 20)
#    0.000    1.143    5.714    1.286    0.000    3.429 
#    2.571    0.714    0.000    0.000    0.000    0.000 
#    0.000    0.000    0.000    0.000    0.000    0.000 
#
# Total GULP energy -77983.437096 kJ/mol
# GULP energy per Si atom -5570.245507 kJ/mol
# Density = 2.158801 g / cm^3
# Si number density = 21.637259 Si / 1000 Ang^3
#
#
#
# Elastic Constant Matrix: (Units=GPa)
#
#
# Indices 1 2 3 4 5 6 
#
# 1 87.1146 19.8949 18.6613 12.9227 5.2152 -28.1335
# 2 19.8949 82.1298 22.5225 1.9102 -4.2726 -13.2987
# 3 18.6613 22.5225 28.9808 13.3193 0.5476 -15.6908
# 4 12.9227 1.9102 13.3193 38.3390 2.4777 -9.1915
# 5 5.2152 -4.2726 0.5476 2.4777 31.2216 2.4715
# 6 -28.1335 -13.2987 -15.6908 -9.1915 2.4715 45.7872
#
#
#
# Elastic Compliance Matrix: (Units=1/GPa)
#
#
# Indices 1 2 3 4 5 6 
#
# 1 0.015580 -0.001644 -0.003719 -0.001841 -0.003220 0.007625
# 2 -0.001644 0.016347 -0.013819 0.004321 0.002432 -0.000262
# 3 -0.003719 -0.013819 0.061546 -0.016538 -0.001954 0.011578
# 4 -0.001841 0.004321 -0.016538 0.032588 -0.001483 0.001078
# 5 -0.003220 0.002432 -0.001954 -0.001483 0.033371 -0.004040
# 6 0.007625 -0.000262 0.011578 0.001078 -0.004040 0.030851
#
#
# Mechanical properties :
#
#
# Convention : Reuss Voigt Hill
#
# Bulk Modulus (GPa) = 18.14599 35.59808 26.87204
# Shear Modulus (GPa) = 20.24143 32.21265 26.22704
#
# Velocity S-wave (km/s) = 3.06190 3.86263 3.48533
# Velocity P-wave (km/s) = 4.57219 6.03168 5.35192
#
# Compressibility (1/GPa) = 0.05510858
#
# Stress axis : x y z
#
# Youngs Moduli (GPa) = 64.18646 61.17175 16.24798
#
# Poissons Ratio (x) = 0.10058 0.06042
# Poissons Ratio (y) = 0.10553 0.22453
# Poissons Ratio (z) = 0.23870 0.84535
#
# Static dielectric constant tensor:
#      x y z
#    x 1.842850 0.040130 -0.012580 
#    y 0.040130 1.919100 -0.078920 
#    z -0.012580 -0.078920 1.898010 
# 
# From -- ./inp_files/521779.got.cif
#   From: 2010.05.17/outbox.cif.g08.bks.cpg/sg2_261_cif.got.tgz:521779.got - 2010.06.03 11:33:40.
