data_PCOD9112890
_publ_section_title
;
Structure prediction by ZEFSAII (Michael W. Deem and Ramdas Pophale) SiO2 
 PCOD9112890
Probable space group: P 2
;
_chemical_formula_sum "Si O2"
_cell_formula_units_Z 11
_cell_length_a 10.675428
_cell_length_b 8.773760
_cell_length_c 6.633399
_cell_angle_alpha 90.000000
_cell_angle_beta 69.546320
_cell_angle_gamma 90.000000
_cell_volume 582.137936
_symmetry_space_group_name_H-M "P 2"
_symmetry_group_IT_number 3
_symmetry_cell_setting 'monoclinic'
loop_
_space_group_symop_operation_xyz
x,y,z
-x,y,-z
loop_
_atom_site_type_symbol
_atom_site_label
_atom_site_fract_x
_atom_site_fract_y
_atom_site_fract_z
Si Si1 0.631874 0.618120 0.059482
Si Si2 0.371605 0.255212 0.931263
Si Si3 0.866468 0.032451 0.953741
Si Si4 0.500000 0.084429 0.500000
Si Si5 0.136604 0.754012 0.341529
Si Si6 0.305366 0.839579 0.625823
O O1 0.640132 0.436447 0.077452
O O2 0.625882 0.711282 0.272547
O O3 0.500000 0.654438 0.000000
O O4 0.767005 0.667020 0.867510
O O5 0.233684 0.167301 0.061827
O O6 0.416395 0.188171 0.693292
O O7 0.500000 0.219918 0.000000
O O8 0.783352 0.934327 0.164821
O O9 0.896257 0.914957 0.753428
O O10 0.000000 0.082671 0.000000
O O11 0.398913 0.962823 0.460191
O O12 0.219319 0.770152 0.498831
O O13 0.000000 0.680998 0.500000
#
# Coordination Sequence:
#
# PCOD9112890 Si02
#       6
#     2   2   2   1   2   2
#     4  10  23  39  59  88 124 157 193 248 297 352
#     4  10  22  40  59  86 124 156 194 243 301 356
#     4  10  20  38  59  87 119 155 196 250 294 347
#     4  10  20  34  62  88 108 150 200 242 288 348
#     4  11  21  37  62  86 117 157 199 245 294 351
#     4  10  20  36  61  87 113 152 200 244 290 352
#
# _framework density 18.895866000000002
#
# number of rings (size 3 to 8) (size 9 to 14) (size 15 to 20)
#    0.000    1.818    1.818    2.182    0.000    8.727 
#    3.273    0.909    0.000    0.000    0.000    0.000 
#    0.000    0.000    0.000    0.000    0.000    0.000 
#
# Total GULP energy -61274.165928 kJ/mol
# GULP energy per Si atom -5570.378721 kJ/mol
# Density = 1.885286 g / cm^3
# Si number density = 18.895866 Si / 1000 Ang^3
#
#
#
# Elastic Constant Matrix: (Units=GPa)
#
#
# Indices 1 2 3 4 5 6 
#
# 1 122.7051 58.3918 20.6826 0.0000 6.4156 0.0000
# 2 58.3918 86.2354 30.1104 0.0000 5.0179 0.0000
# 3 20.6826 30.1104 61.6373 0.0000 -2.2132 0.0000
# 4 0.0000 0.0000 0.0000 29.4112 0.0000 10.4037
# 5 6.4156 5.0179 -2.2132 0.0000 40.9654 0.0000
# 6 0.0000 0.0000 0.0000 10.4037 0.0000 24.2717
#
#
#
# Elastic Compliance Matrix: (Units=1/GPa)
#
#
# Indices 1 2 3 4 5 6 
#
# 1 0.012057 -0.008063 -0.000140 0.000000 -0.000908 0.000000
# 2 -0.008063 0.019552 -0.006900 0.000000 -0.001505 0.000000
# 3 -0.000140 -0.006900 0.019711 0.000000 0.001932 0.000000
# 4 0.000000 0.000000 0.000000 0.040077 0.000000 -0.017179
# 5 -0.000908 -0.001505 0.001932 0.000000 0.024842 0.000000
# 6 0.000000 0.000000 0.000000 -0.017179 0.000000 0.048564
#
#
# Mechanical properties :
#
#
# Convention : Reuss Voigt Hill
#
# Bulk Modulus (GPa) = 47.35831 54.32748 50.84290
# Shear Modulus (GPa) = 24.74666 29.68921 27.21794
#
# Velocity S-wave (km/s) = 3.62281 3.96814 3.79940
# Velocity P-wave (km/s) = 6.52816 7.05750 6.79798
#
# Compressibility (1/GPa) = 0.02111562
#
# Stress axis : x y z
#
# Youngs Moduli (GPa) = 82.93612 51.14456 50.73309
#
# Poissons Ratio (x) = 0.41236 0.00709
# Poissons Ratio (y) = 0.66869 0.35006
# Poissons Ratio (z) = 0.01160 0.35290
#
# Static dielectric constant tensor:
#      x y z
#    x 1.627150 0.000000 -0.045690 
#    y 0.000000 1.634080 0.000000 
#    z -0.045690 0.000000 1.657170 
# 
# From -- ./inp_files/1987.got.cif
#   From: 2010.05.17/outbox.cif.g08.bks.cpg/sg3_1_cif.got.tgz:1987.got - 2010.06.03 18:33:08.
