data_PCOD9112795
_publ_section_title
;
Structure prediction by ZEFSAII (Michael W. Deem and Ramdas Pophale) SiO2 
 PCOD9112795
Probable space group: P 2
;
_chemical_formula_sum "Si O2"
_cell_formula_units_Z 15
_cell_length_a 10.328164
_cell_length_b 9.393817
_cell_length_c 8.591068
_cell_angle_alpha 90.000000
_cell_angle_beta 55.234963
_cell_angle_gamma 90.000000
_cell_volume 684.728693
_symmetry_space_group_name_H-M "P 2"
_symmetry_group_IT_number 3
_symmetry_cell_setting 'monoclinic'
loop_
_space_group_symop_operation_xyz
x,y,z
-x,y,-z
loop_
_atom_site_type_symbol
_atom_site_label
_atom_site_fract_x
_atom_site_fract_y
_atom_site_fract_z
Si Si1 0.203554 0.273790 0.947928
Si Si2 0.329306 0.367553 0.538041
Si Si3 0.280727 0.813755 0.800340
Si Si4 0.101009 0.576858 0.092548
Si Si5 0.000000 0.039957 0.000000
Si Si6 0.540832 0.178897 0.808022
Si Si7 0.797649 0.661054 0.464194
Si Si8 0.416718 0.857869 0.212176
O O1 0.214815 0.327948 0.759612
O O2 0.366754 0.188970 0.854122
O O3 0.176610 0.420374 0.060856
O O4 0.070785 0.155390 0.072810
O O5 0.500000 0.393148 0.500000
O O6 0.347754 0.247329 0.396399
O O7 0.278929 0.506324 0.478625
O O8 0.273621 0.729527 0.644583
O O9 0.453188 0.858975 0.738096
O O10 0.222463 0.701831 0.970916
O O11 0.149176 0.937471 0.868451
O O12 0.981549 0.630891 0.306850
O O13 0.000000 0.567678 0.000000
O O14 0.612114 0.024810 0.796995
O O15 0.500000 0.254158 0.000000
O O16 0.734754 0.765902 0.639249
O O17 0.500000 0.800895 0.000000
#
# Coordination Sequence:
#
# PCOD9112795 Si02
#       8
#     2   2   2   2   1   2   2   2
#     4  11  20  37  64  91 125 160 206 261 312 377
#     4  10  20  34  59  90 116 156 205 258 304 355
#     4  11  21  38  63  93 120 157 201 259 314 365
#     4  10  19  37  60  91 126 150 196 259 317 354
#     4  12  20  32  64  96 114 154 210 248 318 366
#     4  10  24  40  57  87 128 168 209 256 308 370
#     4  11  21  38  63  93 120 158 202 262 308 362
#     4  11  25  42  60  88 128 167 207 253 306 369
#
# _framework density 21.906488
#
# number of rings (size 3 to 8) (size 9 to 14) (size 15 to 20)
#    0.000    1.333    6.667    1.200    3.733    1.600 
#    0.000    0.667    0.000    4.000    0.000    0.000 
#    0.000    0.000    0.000    0.000    0.000    0.000 
#
# Total GULP energy -83604.528421 kJ/mol
# GULP energy per Si atom -5573.635228 kJ/mol
# Density = 2.185663 g / cm^3
# Si number density = 21.906488 Si / 1000 Ang^3
#
#
#
# Elastic Constant Matrix: (Units=GPa)
#
#
# Indices 1 2 3 4 5 6 
#
# 1 20.4548 13.4349 5.6323 0.0000 -9.1403 0.0000
# 2 13.4349 92.0464 39.0699 0.0000 -14.9297 0.0000
# 3 5.6323 39.0699 112.5561 0.0000 -7.3532 0.0000
# 4 0.0000 0.0000 0.0000 28.8035 0.0000 -0.4375
# 5 -9.1403 -14.9297 -7.3532 0.0000 21.6499 0.0000
# 6 0.0000 0.0000 0.0000 -0.4375 0.0000 -17.1941
#
#
#
# Elastic Compliance Matrix: (Units=1/GPa)
#
#
# Indices 1 2 3 4 5 6 
#
# 1 0.062611 -0.005581 0.000286 0.000000 0.022682 0.000000
# 2 -0.005581 0.014533 -0.004361 0.000000 0.006184 0.000000
# 3 0.000286 -0.004361 0.010427 0.000000 0.000655 0.000000
# 4 0.000000 0.000000 0.000000 0.034705 0.000000 -0.000883
# 5 0.022682 0.006184 0.000655 0.000000 0.060252 0.000000
# 6 0.000000 0.000000 0.000000 -0.000883 0.000000 -0.058137
#
#
# Mechanical properties :
#
#
# Convention : Reuss Voigt Hill
#
# Bulk Modulus (GPa) = 14.65037 37.92573 26.28805
# Shear Modulus (GPa) = 30.03805 17.77987 23.90896
#
# Velocity S-wave (km/s) = 3.70698 2.85199 3.30723
# Velocity P-wave (km/s) = 5.00245 5.30993 5.15848
#
# Compressibility (1/GPa) = 0.06825765
#
# Stress axis : x y z
#
# Youngs Moduli (GPa) = 15.97176 68.80914 95.90676
#
# Poissons Ratio (x) = 0.38402 -0.02743
# Poissons Ratio (y) = 0.08914 0.41828
# Poissons Ratio (z) = -0.00457 0.30010
#
# Static dielectric constant tensor:
#      x y z
#    x 1.868670 0.000000 -0.009270 
#    y 0.000000 1.822290 0.000000 
#    z -0.009270 0.000000 1.814030 
# 
# From -- ./inp_files/5585.got.cif
#   From: 2010.05.17/outbox.cif.g08.bks.cpg/sg3_3_cif.got.tgz:5585.got - 2010.06.03 18:33:08.
