data_PCOD9112285
_publ_section_title
;
Structure prediction by ZEFSAII (Michael W. Deem and Ramdas Pophale) SiO2 
 PCOD9112285
Probable space group: P -1
;
_chemical_formula_sum "Si O2"
_cell_formula_units_Z 14
_cell_length_a 16.977148
_cell_length_b 20.429420
_cell_length_c 11.026768
_cell_angle_alpha 151.740910
_cell_angle_beta 24.412746
_cell_angle_gamma 160.199165
_cell_volume 527.488394
_symmetry_space_group_name_H-M "P -1"
_symmetry_group_IT_number 2
_symmetry_cell_setting 'triclinic'
loop_
_space_group_symop_operation_xyz
x,y,z
-x,-y,-z
loop_
_atom_site_type_symbol
_atom_site_label
_atom_site_fract_x
_atom_site_fract_y
_atom_site_fract_z
Si Si1 0.871874 0.178452 0.860326
Si Si2 0.665854 0.577576 0.018619
Si Si3 0.397446 0.726753 0.262777
Si Si4 0.607719 0.643176 0.465777
Si Si5 0.638182 0.018614 0.593908
Si Si6 0.805635 0.382686 0.899393
Si Si7 0.011201 0.994818 0.784316
O O1 0.901302 0.069093 0.546104
O O2 0.075391 0.229117 0.763324
O O3 0.991295 0.386752 0.983436
O O4 0.576656 0.058659 0.127113
O O5 0.521616 0.562413 0.318394
O O6 0.912635 0.809196 0.031503
O O7 0.500000 0.500000 0.000000
O O8 0.727099 0.451366 0.762616
O O9 0.236741 0.647034 0.233492
O O10 0.459678 0.898901 0.528879
O O11 0.694286 0.823733 0.968032
O O12 0.500000 0.500000 0.500000
O O13 0.481326 0.724784 0.810582
O O14 0.854319 0.252429 0.660501
O O15 0.801570 0.963309 0.300798
#
# Coordination Sequence:
#
# PCOD9112285 Si02
#       7
#     2   2   2   2   2   2   2
#     4  11  24  45  73 106 143 186 252 300 355 438
#     4  12  25  44  76 107 143 189 246 301 360 428
#     4  12  25  50  71 107 146 196 248 294 365 447
#     4  10  20  45  75 105 135 193 246 291 354 437
#     4  12  28  42  68 112 150 187 240 305 374 421
#     4  11  24  47  77 102 144 192 244 303 359 433
#     4  12  27  46  75 104 148 197 246 294 368 442
#
# _framework density 26.540869000000001
#
# number of rings (size 3 to 8) (size 9 to 14) (size 15 to 20)
#    0.000    0.571    5.714    3.000    2.000    4.571 
#    0.000    0.000    0.000    0.000    0.000    0.000 
#    0.000    0.000    0.000    0.000    0.000    0.000 
#
# Total GULP energy -78426.479646 kJ/mol
# GULP energy per Si atom -5601.891403 kJ/mol
# Density = 2.648046 g / cm^3
# Si number density = 26.540869 Si / 1000 Ang^3
#
#
#
# Elastic Constant Matrix: (Units=GPa)
#
#
# Indices 1 2 3 4 5 6 
#
# 1 118.1109 26.9788 22.9701 -7.0764 28.8130 -2.3436
# 2 26.9788 136.5680 44.1361 13.6723 -16.2057 -15.4287
# 3 22.9701 44.1361 107.6381 -17.8202 23.2515 -2.2812
# 4 -7.0764 13.6723 -17.8202 57.1496 1.1209 -3.9646
# 5 28.8130 -16.2057 23.2515 1.1209 47.5907 16.6188
# 6 -2.3436 -15.4287 -2.2812 -3.9646 16.6188 26.1217
#
#
#
# Elastic Compliance Matrix: (Units=1/GPa)
#
#
# Indices 1 2 3 4 5 6 
#
# 1 0.012704 -0.004667 0.003072 0.004474 -0.013696 0.008044
# 2 -0.004667 0.012574 -0.007826 -0.006410 0.011844 -0.002184
# 3 0.003072 -0.007826 0.016863 0.008417 -0.015948 0.008549
# 4 0.004474 -0.006410 0.008417 0.023076 -0.012657 0.008905
# 5 -0.013696 0.011844 -0.015948 -0.012657 0.052159 -0.030730
# 6 0.008044 -0.002184 0.008549 0.008905 -0.030730 0.059363
#
#
# Mechanical properties :
#
#
# Convention : Reuss Voigt Hill
#
# Bulk Modulus (GPa) = 42.91815 61.16522 52.04168
# Shear Modulus (GPa) = 24.58847 44.05453 34.32150
#
# Velocity S-wave (km/s) = 3.04705 4.07858 3.59995
# Velocity P-wave (km/s) = 5.34650 6.72870 6.07702
#
# Compressibility (1/GPa) = 0.02330016
#
# Stress axis : x y z
#
# Youngs Moduli (GPa) = 78.71568 79.52870 59.30014
#
# Poissons Ratio (x) = 0.37116 -0.18219
# Poissons Ratio (y) = 0.36736 0.46409
# Poissons Ratio (z) = -0.24185 0.62240
#
# Static dielectric constant tensor:
#      x y z
#    x 2.168840 0.041610 0.002110 
#    y 0.041610 2.101110 0.013350 
#    z 0.002110 0.013350 2.058170 
# 
# From -- ./inp_files/391017.got.cif
#   From: 2010.05.17/outbox.cif.g08.bks.cpg/sg2_196_cif.got.tgz:391017.got - 2010.06.03 11:33:40.
