data_PCOD9112853
_publ_section_title
;
Structure prediction by ZEFSAII (Michael W. Deem and Ramdas Pophale) SiO2 
 PCOD9112853
Probable space group: P 2
;
_chemical_formula_sum "Si O2"
_cell_formula_units_Z 14
_cell_length_a 10.969746
_cell_length_b 7.506438
_cell_length_c 12.081767
_cell_angle_alpha 90.000000
_cell_angle_beta 142.896233
_cell_angle_gamma 90.000000
_cell_volume 600.158229
_symmetry_space_group_name_H-M "P 2"
_symmetry_group_IT_number 3
_symmetry_cell_setting 'monoclinic'
loop_
_space_group_symop_operation_xyz
x,y,z
-x,y,-z
loop_
_atom_site_type_symbol
_atom_site_label
_atom_site_fract_x
_atom_site_fract_y
_atom_site_fract_z
Si Si1 0.300575 0.474350 0.191191
Si Si2 0.948608 0.432673 0.777773
Si Si3 0.684392 0.682176 0.217886
Si Si4 0.209936 0.895889 0.095914
Si Si5 0.010672 0.826890 0.736492
Si Si6 0.625441 0.984172 0.353353
Si Si7 0.726507 0.362979 0.407063
O O1 0.215995 0.400018 0.245514
O O2 0.254924 0.687626 0.156636
O O3 0.532276 0.436183 0.334692
O O4 0.163667 0.397665 0.991526
O O5 0.901824 0.346970 0.625845
O O6 0.944124 0.643280 0.746588
O O7 0.867384 0.771715 0.284080
O O8 0.610763 0.820133 0.257866
O O9 0.755840 0.504146 0.331362
O O10 0.500000 0.645037 0.000000
O O11 0.416102 0.998929 0.268498
O O12 0.162626 0.917286 0.931812
O O13 0.000000 0.949779 0.000000
O O14 0.812597 0.937639 0.567190
O O15 0.673426 0.167326 0.326723
#
# Coordination Sequence:
#
# PCOD9112853 Si02
#       7
#     2   2   2   2   2   2   2
#     4  10  19  42  72 101 137 185 231 286 351 411
#     4  10  20  41  70 101 137 184 233 287 345 416
#     4  12  24  49  77  96 141 191 237 294 349 412
#     4  11  21  45  76 103 136 186 233 287 355 416
#     4  11  22  45  73 101 136 186 235 286 350 414
#     4  12  27  45  69 106 144 179 232 293 353 419
#     4  12  26  44  70 106 139 185 235 285 355 425
#
# _framework density 23.327179999999998
#
# number of rings (size 3 to 8) (size 9 to 14) (size 15 to 20)
#    0.000    0.857    7.143    1.714    0.000    2.286 
#   12.857    0.000    0.000    0.000    0.000    0.000 
#    0.000    0.000    0.000    0.000    0.000    0.000 
#
# Total GULP energy -78355.211530 kJ/mol
# GULP energy per Si atom -5596.800824 kJ/mol
# Density = 2.327409 g / cm^3
# Si number density = 23.327180 Si / 1000 Ang^3
#
#
#
# Elastic Constant Matrix: (Units=GPa)
#
#
# Indices 1 2 3 4 5 6 
#
# 1 62.7699 5.4374 8.7474 0.0000 21.2112 0.0000
# 2 5.4374 80.1029 19.7349 0.0000 -2.7740 0.0000
# 3 8.7474 19.7349 100.3902 0.0000 8.5969 0.0000
# 4 0.0000 0.0000 0.0000 6.7561 0.0000 5.4296
# 5 21.2112 -2.7740 8.5969 0.0000 35.6640 0.0000
# 6 0.0000 0.0000 0.0000 5.4296 0.0000 6.3869
#
#
#
# Elastic Compliance Matrix: (Units=1/GPa)
#
#
# Indices 1 2 3 4 5 6 
#
# 1 0.020206 -0.001691 -0.000396 0.000000 -0.012054 0.000000
# 2 -0.001691 0.013360 -0.002710 0.000000 0.002698 0.000000
# 3 -0.000396 -0.002710 0.010748 0.000000 -0.002566 0.000000
# 4 0.000000 0.000000 0.000000 0.467230 0.000000 -0.397202
# 5 -0.012054 0.002698 -0.002566 0.000000 0.036037 0.000000
# 6 0.000000 0.000000 0.000000 -0.397202 0.000000 0.494240
#
#
# Mechanical properties :
#
#
# Convention : Reuss Voigt Hill
#
# Bulk Modulus (GPa) = 28.80243 34.56693 31.68468
# Shear Modulus (GPa) = 4.70372 23.71763 14.21067
#
# Velocity S-wave (km/s) = 1.42154 3.19209 2.47085
# Velocity P-wave (km/s) = 3.88180 5.33258 4.66394
#
# Compressibility (1/GPa) = 0.03471929
#
# Stress axis : x y z
#
# Youngs Moduli (GPa) = 49.49010 74.85099 93.03953
#
# Poissons Ratio (x) = 0.12661 0.03683
# Poissons Ratio (y) = 0.08371 0.25214
# Poissons Ratio (z) = 0.01959 0.20285
#
# Static dielectric constant tensor:
#      x y z
#    x 1.907040 0.000000 0.016930 
#    y 0.000000 1.865880 0.000000 
#    z 0.016930 0.000000 1.886020 
# 
# From -- ./inp_files/11604.got.cif
#   From: 2010.05.17/outbox.cif.g08.bks.cpg/sg3_6_cif.got.tgz:11604.got - 2010.06.03 18:33:08.
