data_PCOD9112474
_publ_section_title
;
Structure prediction by ZEFSAII (Michael W. Deem and Ramdas Pophale) SiO2 
 PCOD9112474
Probable space group: P 2
;
_chemical_formula_sum "Si O2"
_cell_formula_units_Z 13
_cell_length_a 7.213109
_cell_length_b 5.592442
_cell_length_c 13.319025
_cell_angle_alpha 90.000000
_cell_angle_beta 76.830348
_cell_angle_gamma 90.000000
_cell_volume 523.144257
_symmetry_space_group_name_H-M "P 2"
_symmetry_group_IT_number 3
_symmetry_cell_setting 'monoclinic'
loop_
_space_group_symop_operation_xyz
x,y,z
-x,y,-z
loop_
_atom_site_type_symbol
_atom_site_label
_atom_site_fract_x
_atom_site_fract_y
_atom_site_fract_z
Si Si1 0.732178 0.107650 0.299878
Si Si2 0.183650 0.577233 0.402646
Si Si3 0.949107 0.610241 0.232196
Si Si4 0.512608 0.994684 0.139043
Si Si5 0.500000 0.377664 0.000000
Si Si6 0.224809 0.745461 0.036103
Si Si7 0.765347 0.083463 0.528070
O O1 0.562760 0.040969 0.245544
O O2 0.697350 0.117290 0.422569
O O3 0.825872 0.363548 0.254330
O O4 0.857563 0.865008 0.273964
O O5 0.107523 0.575455 0.298984
O O6 0.290014 0.327907 0.408655
O O7 0.000000 0.570966 0.500000
O O8 0.286738 0.824149 0.420180
O O9 0.029525 0.671941 0.111068
O O10 0.421588 0.228033 0.102006
O O11 0.364902 0.799691 0.115429
O O12 0.711105 0.947560 0.051630
O O13 0.321636 0.515086 0.977443
O O14 0.000000 0.079292 0.500000
#
# Coordination Sequence:
#
# PCOD9112474 Si02
#       7
#     2   2   2   2   1   2   2
#     4  12  23  35  61  96 120 150 203 257 305 347
#     4  10  16  33  52  82 120 158 182 234 302 371
#     4  12  23  35  61  96 120 150 203 257 305 347
#     4   9  22  42  60  81 116 167 206 239 307 373
#     4   8  18  44  62  70 110 168 200 236 294 380
#     4   9  22  42  60  81 116 167 206 239 307 373
#     4  10  16  33  52  82 120 158 182 234 302 371
#
# _framework density 24.849744000000001
#
# number of rings (size 3 to 8) (size 9 to 14) (size 15 to 20)
#    0.000    2.154    6.154    0.000    8.615    0.615 
#    0.000    0.000    0.000    0.923    0.000    0.000 
#    0.000    0.000    0.000    0.000    0.000    0.000 
#
# Total GULP energy -72447.657219 kJ/mol
# GULP energy per Si atom -5572.896709 kJ/mol
# Density = 2.479318 g / cm^3
# Si number density = 24.849744 Si / 1000 Ang^3
#
#
#
# Elastic Constant Matrix: (Units=GPa)
#
#
# Indices 1 2 3 4 5 6 
#
# 1 47.5214 19.4442 36.7748 0.0000 7.7348 0.0000
# 2 19.4442 182.7656 26.2342 0.0000 -14.2856 0.0000
# 3 36.7748 26.2342 99.1755 0.0000 -0.1145 0.0000
# 4 0.0000 0.0000 0.0000 22.2521 0.0000 5.7407
# 5 7.7348 -14.2856 -0.1145 0.0000 45.7054 0.0000
# 6 0.0000 0.0000 0.0000 5.7407 0.0000 17.6078
#
#
#
# Elastic Compliance Matrix: (Units=1/GPa)
#
#
# Indices 1 2 3 4 5 6 
#
# 1 0.031544 -0.002235 -0.011113 0.000000 -0.006065 0.000000
# 2 -0.002235 0.005993 -0.000754 0.000000 0.002250 0.000000
# 3 -0.011113 -0.000754 0.014405 0.000000 0.001681 0.000000
# 4 0.000000 0.000000 0.000000 0.049067 0.000000 -0.015997
# 5 -0.006065 0.002250 0.001681 0.000000 0.023613 0.000000
# 6 0.000000 0.000000 0.000000 -0.015997 0.000000 0.062009
#
#
# Mechanical properties :
#
#
# Convention : Reuss Voigt Hill
#
# Bulk Modulus (GPa) = 42.12363 54.92988 48.52675
# Shear Modulus (GPa) = 22.44696 33.58034 28.01365
#
# Velocity S-wave (km/s) = 3.00877 3.68004 3.36120
# Velocity P-wave (km/s) = 5.39058 6.34111 5.88507
#
# Compressibility (1/GPa) = 0.02373965
#
# Stress axis : x y z
#
# Youngs Moduli (GPa) = 31.70145 166.85212 69.41958
#
# Poissons Ratio (x) = 0.37290 0.77143
# Poissons Ratio (y) = 0.07085 0.05235
# Poissons Ratio (z) = 0.35229 0.12582
#
# Static dielectric constant tensor:
#      x y z
#    x 2.086390 0.000000 -0.024740 
#    y 0.000000 2.012210 0.000000 
#    z -0.024740 0.000000 1.969860 
# 
# From -- ./inp_files/1614.got.cif
#   From: 2010.05.17/outbox.cif.g08.bks.cpg/sg3_1_cif.got.tgz:1614.got - 2010.06.03 18:33:08.
