data_PCOD9112801
_publ_section_title
;
Structure prediction by ZEFSAII (Michael W. Deem and Ramdas Pophale) SiO2 
 PCOD9112801
Probable space group: P 2
;
_chemical_formula_sum "Si O2"
_cell_formula_units_Z 10
_cell_length_a 13.817578
_cell_length_b 5.067668
_cell_length_c 6.491956
_cell_angle_alpha 90.000000
_cell_angle_beta 87.817911
_cell_angle_gamma 90.000000
_cell_volume 454.255937
_symmetry_space_group_name_H-M "P 2"
_symmetry_group_IT_number 3
_symmetry_cell_setting 'monoclinic'
loop_
_space_group_symop_operation_xyz
x,y,z
-x,y,-z
loop_
_atom_site_type_symbol
_atom_site_label
_atom_site_fract_x
_atom_site_fract_y
_atom_site_fract_z
Si Si1 0.421426 0.864980 0.679860
Si Si2 0.887254 0.849715 0.008883
Si Si3 0.224021 0.092976 0.626944
Si Si4 0.202515 0.346670 0.203257
Si Si5 0.632924 0.353473 0.087111
O O1 0.500000 0.815009 0.500000
O O2 0.318654 0.913936 0.572429
O O3 0.408834 0.632079 0.844914
O O4 0.436570 0.128952 0.814383
O O5 0.830281 0.629922 0.880698
O O6 0.862924 0.126798 0.903119
O O7 0.849214 0.904007 0.244205
O O8 0.000000 0.786533 0.000000
O O9 0.188761 0.265660 0.440819
O O10 0.270356 0.299792 0.784522
O O11 0.318229 0.323196 0.139650
#
# Coordination Sequence:
#
# PCOD9112801 Si02
#       5
#     2   2   2   2   2
#     4  10  19  37  63  85 127 168 208 264 325 376
#     4  11  24  42  62  95 130 166 217 277 326 389
#     4   9  23  38  65  89 128 167 215 259 327 391
#     4  11  21  40  67  86 127 174 211 267 332 390
#     4   9  19  37  57  87 122 161 211 262 318 378
#
# _framework density 22.014021
#
# number of rings (size 3 to 8) (size 9 to 14) (size 15 to 20)
#    1.200    0.800    2.000    1.200    2.800    0.800 
#    0.000    3.000    0.000    0.000    0.000    0.000 
#    0.000    0.000    0.000    0.000    0.000    0.000 
#
# Total GULP energy -55714.813090 kJ/mol
# GULP energy per Si atom -5571.481309 kJ/mol
# Density = 2.196392 g / cm^3
# Si number density = 22.014021 Si / 1000 Ang^3
#
#
#
# Elastic Constant Matrix: (Units=GPa)
#
#
# Indices 1 2 3 4 5 6 
#
# 1 75.0043 -0.7663 41.8789 0.0000 -24.7070 0.0000
# 2 -0.7663 97.2041 16.5773 0.0000 -2.2575 0.0000
# 3 41.8789 16.5773 112.6849 0.0000 -12.1432 0.0000
# 4 0.0000 0.0000 0.0000 2.6374 0.0000 -35.4501
# 5 -24.7070 -2.2575 -12.1432 0.0000 26.6204 0.0000
# 6 0.0000 0.0000 0.0000 -35.4501 0.0000 -16.3283
#
#
#
# Elastic Compliance Matrix: (Units=1/GPa)
#
#
# Indices 1 2 3 4 5 6 
#
# 1 0.023383 0.001802 -0.006941 0.000000 0.018689 0.000000
# 2 0.001802 0.010692 -0.002066 0.000000 0.001637 0.000000
# 3 -0.006941 -0.002066 0.011616 0.000000 -0.001319 0.000000
# 4 0.000000 0.000000 0.000000 0.012562 0.000000 -0.027274
# 5 0.018689 0.001637 -0.001319 0.000000 0.054448 0.000000
# 6 0.000000 0.000000 0.000000 -0.027274 0.000000 -0.002029
#
#
# Mechanical properties :
#
#
# Convention : Reuss Voigt Hill
#
# Bulk Modulus (GPa) = 31.96936 44.47480 38.22208
# Shear Modulus (GPa) = 36.89771 17.73280 27.31526
#
# Velocity S-wave (km/s) = 4.09846 2.84125 3.52634
# Velocity P-wave (km/s) = 6.07868 5.56870 5.82927
#
# Compressibility (1/GPa) = 0.03127995
#
# Stress axis : x y z
#
# Youngs Moduli (GPa) = 42.76625 93.52571 86.08905
#
# Poissons Ratio (x) = -0.16855 0.59757
# Poissons Ratio (y) = -0.07707 0.17789
# Poissons Ratio (z) = 0.29686 0.19326
#
# Static dielectric constant tensor:
#      x y z
#    x 1.821110 0.000000 -0.001840 
#    y 0.000000 1.791570 0.000000 
#    z -0.001840 0.000000 1.893160 
# 
# From -- ./inp_files/2626.got.cif
#   From: 2010.05.17/outbox.cif.g08.bks.cpg/sg3_2_cif.got.tgz:2626.got - 2010.06.03 18:33:08.
