data_PCOD9112878
_publ_section_title
;
Structure prediction by ZEFSAII (Michael W. Deem and Ramdas Pophale) SiO2 
 PCOD9112878
Probable space group: P 2
;
_chemical_formula_sum "Si O2"
_cell_formula_units_Z 16
_cell_length_a 8.442916
_cell_length_b 19.382815
_cell_length_c 9.482182
_cell_angle_alpha 90.000000
_cell_angle_beta 32.470284
_cell_angle_gamma 90.000000
_cell_volume 833.067834
_symmetry_space_group_name_H-M "P 2"
_symmetry_group_IT_number 3
_symmetry_cell_setting 'monoclinic'
loop_
_space_group_symop_operation_xyz
x,y,z
-x,y,-z
loop_
_atom_site_type_symbol
_atom_site_label
_atom_site_fract_x
_atom_site_fract_y
_atom_site_fract_z
Si Si1 0.150217 0.198210 0.238325
Si Si2 0.885229 0.328888 0.928213
Si Si3 0.348731 0.548942 0.264114
Si Si4 0.650737 0.702099 0.735790
Si Si5 0.352442 0.832583 0.456182
Si Si6 0.737368 0.402731 0.579917
Si Si7 0.147529 0.913308 0.043567
Si Si8 0.849319 0.042275 0.762063
O O1 0.054238 0.120238 0.271299
O O2 0.000000 0.216029 0.500000
O O3 0.500000 0.197500 0.000000
O O4 0.082481 0.255899 0.174795
O O5 0.544720 0.354402 0.176781
O O6 0.000000 0.323622 0.000000
O O7 0.098197 0.381409 0.685618
O O8 0.447552 0.625056 0.238385
O O9 0.385266 0.480976 0.330083
O O10 0.000000 0.554223 0.500000
O O11 0.500000 0.535015 0.000000
O O12 0.598800 0.761147 0.660616
O O13 0.000000 0.701291 0.500000
O O14 0.500000 0.715908 0.000000
O O15 0.500000 0.829549 0.500000
O O16 0.018213 0.855488 0.737925
O O17 0.518242 0.890601 0.238226
O O18 0.000000 0.397910 0.500000
O O19 0.098748 0.985162 0.158715
O O20 0.000000 0.915737 0.000000
O O21 0.000000 0.024614 0.500000
O O22 0.500000 0.043931 0.000000
#
# Coordination Sequence:
#
# PCOD9112878 Si02
#       8
#     2   2   2   2   2   2   2   2
#     4  10  21  38  58  79 107 145 183 217 267 333
#     4  12  24  37  56  87 118 143 182 236 278 320
#     4   9  18  33  55  82 106 135 181 227 266 318
#     4  10  20  34  55  81 106 135 178 228 268 308
#     4  10  21  36  52  76 108 143 177 212 262 326
#     4  11  21  38  62  82 108 152 191 223 274 338
#     4  10  21  36  54  75 106 143 177 213 263 324
#     4  10  21  36  56  82 107 134 177 228 266 309
#
# _framework density 19.206118
#
# number of rings (size 3 to 8) (size 9 to 14) (size 15 to 20)
#    0.000    1.750    0.000    5.625    0.000    3.500 
#    0.000    1.250    0.000    9.000    0.000    0.000 
#    0.000    0.000    0.000    0.000    0.000    0.000 
#
# Total GULP energy -89302.923278 kJ/mol
# GULP energy per Si atom -5581.432705 kJ/mol
# Density = 1.916240 g / cm^3
# Si number density = 19.206118 Si / 1000 Ang^3
#
#
#
# Elastic Constant Matrix: (Units=GPa)
#
#
# Indices 1 2 3 4 5 6 
#
# 1 37.7297 54.7624 40.7293 0.0000 19.5324 0.0000
# 2 54.7624 143.1086 51.7157 0.0000 34.6717 0.0000
# 3 40.7293 51.7157 162.7398 0.0000 16.4969 0.0000
# 4 0.0000 0.0000 0.0000 37.1605 0.0000 -1.9936
# 5 19.5324 34.6717 16.4969 0.0000 28.2342 0.0000
# 6 0.0000 0.0000 0.0000 -1.9936 0.0000 -10.8280
#
#
#
# Elastic Compliance Matrix: (Units=1/GPa)
#
#
# Indices 1 2 3 4 5 6 
#
# 1 0.082713 -0.021765 -0.011366 0.000000 -0.023852 0.000000
# 2 -0.021765 0.016358 0.000807 0.000000 -0.005502 0.000000
# 3 -0.011366 0.000807 0.008542 0.000000 0.001881 0.000000
# 4 0.000000 0.000000 0.000000 0.026647 0.000000 -0.004906
# 5 -0.023852 -0.005502 0.001881 0.000000 0.057576 0.000000
# 6 0.000000 0.000000 0.000000 -0.004906 0.000000 -0.091450
#
#
# Mechanical properties :
#
#
# Convention : Reuss Voigt Hill
#
# Bulk Modulus (GPa) = 23.27546 70.88810 47.08178
# Shear Modulus (GPa) = 27.87751 24.00472 25.94112
#
# Velocity S-wave (km/s) = 3.81398 3.53915 3.67913
# Velocity P-wave (km/s) = 5.61608 7.32735 6.52803
#
# Compressibility (1/GPa) = 0.04296371
#
# Stress axis : x y z
#
# Youngs Moduli (GPa) = 12.09007 61.13316 117.06311
#
# Poissons Ratio (x) = 1.33055 1.33058
# Poissons Ratio (y) = 0.26314 -0.09443
# Poissons Ratio (z) = 0.13742 -0.04931
#
# Static dielectric constant tensor:
#      x y z
#    x 1.629140 0.000000 -0.023150 
#    y 0.000000 1.722170 0.000000 
#    z -0.023150 0.000000 1.626750 
# 
# From -- ./inp_files/6316.got.cif
#   From: 2010.05.17/outbox.cif.g08.bks.cpg/sg3_4_cif.got.tgz:6316.got - 2010.06.03 18:33:08.
