data_PCOD9112440
_publ_section_title
;
Structure prediction by ZEFSAII (Michael W. Deem and Ramdas Pophale) SiO2 
 PCOD9112440
Probable space group: P -1
;
_chemical_formula_sum "Si O2"
_cell_formula_units_Z 12
_cell_length_a 17.340065
_cell_length_b 14.576911
_cell_length_c 7.132092
_cell_angle_alpha 122.008062
_cell_angle_beta 68.537895
_cell_angle_gamma 161.677075
_cell_volume 411.952186
_symmetry_space_group_name_H-M "P -1"
_symmetry_group_IT_number 2
_symmetry_cell_setting 'triclinic'
loop_
_space_group_symop_operation_xyz
x,y,z
-x,-y,-z
loop_
_atom_site_type_symbol
_atom_site_label
_atom_site_fract_x
_atom_site_fract_y
_atom_site_fract_z
Si Si1 0.357288 0.647326 0.690544
Si Si2 0.290458 0.788340 0.740124
Si Si3 0.857342 0.145729 0.688884
Si Si4 0.490512 0.417256 0.107463
Si Si5 0.016551 0.095314 0.903173
Si Si6 0.036233 0.356911 0.187303
O O1 0.436588 0.854763 0.729491
O O2 0.212958 0.272308 0.779708
O O3 0.508521 0.865945 0.991050
O O4 0.520989 0.750105 0.571653
O O5 0.201066 0.659609 0.467321
O O6 0.013578 0.431357 0.734070
O O7 0.013827 0.231132 0.567339
O O8 0.967049 0.288153 0.958704
O O9 0.500000 0.500000 0.000000
O O10 0.300790 0.254589 0.241206
O O11 0.263791 0.036598 0.863381
O O12 0.165831 0.397945 0.142653
O O13 0.000000 0.000000 0.000000
#
# Coordination Sequence:
#
# PCOD9112440 Si02
#       6
#     2   2   2   2   2   2
#     4   9  21  40  52  73 117 145 163 228 270 299
#     4   9  21  38  55  78 108 143 182 211 266 318
#     4  10  21  37  53  80 108 140 177 224 261 305
#     4   8  16  30  48  76 103 131 168 211 264 307
#     4   8  16  31  49  76 104 133 169 211 266 311
#     4  10  21  32  61  83 100 142 184 217 256 321
#
# _framework density 29.129591999999999
#
# number of rings (size 3 to 8) (size 9 to 14) (size 15 to 20)
#    2.000    1.000    0.000    0.500    2.333    2.667 
#    0.000    0.000    0.000    2.000    0.000    0.000 
#    0.000    0.000    0.000    0.000    0.000    0.000 
#
# Total GULP energy -66935.257526 kJ/mol
# GULP energy per Si atom -5577.938127 kJ/mol
# Density = 2.906329 g / cm^3
# Si number density = 29.129592 Si / 1000 Ang^3
#
#
#
# Elastic Constant Matrix: (Units=GPa)
#
#
# Indices 1 2 3 4 5 6 
#
# 1 191.4210 75.4057 57.3739 20.1432 8.2804 70.8886
# 2 75.4057 154.4496 28.7750 5.7074 19.5092 52.1705
# 3 57.3739 28.7750 89.3313 -9.6709 2.0102 3.0104
# 4 20.1432 5.7074 -9.6709 3.1368 -15.5050 22.9213
# 5 8.2804 19.5092 2.0102 -15.5050 38.4928 8.9896
# 6 70.8886 52.1705 3.0104 22.9213 8.9896 94.9892
#
#
#
# Elastic Compliance Matrix: (Units=1/GPa)
#
#
# Indices 1 2 3 4 5 6 
#
# 1 0.009238 -0.001786 -0.004399 0.007212 0.003894 -0.007882
# 2 -0.001786 0.009197 -0.001548 0.000723 -0.003075 -0.003552
# 3 -0.004399 -0.001548 0.012975 -0.013180 -0.006000 0.007470
# 4 0.007212 0.000723 -0.013180 -0.079159 -0.037145 0.017255
# 5 0.003894 -0.003075 -0.006000 -0.037145 0.010428 0.006949
# 6 -0.007882 -0.003552 0.007470 0.017255 0.006949 0.013303
#
#
# Mechanical properties :
#
#
# Convention : Reuss Voigt Hill
#
# Bulk Modulus (GPa) = 62.72426 84.25678 73.49052
# Shear Modulus (GPa) = -1544.23031 45.56692 -749.33169
#
# Velocity S-wave (km/s) = -23.04941 3.95939 -16.05613
# Velocity P-wave (km/s) = 26.20663 7.06328 17.84513
#
# Compressibility (1/GPa) = 0.01594279
#
# Stress axis : x y z
#
# Youngs Moduli (GPa) = 108.24880 108.73343 77.07405
#
# Poissons Ratio (x) = 0.19425 0.33904
# Poissons Ratio (y) = 0.19338 0.11930
# Poissons Ratio (z) = 0.47618 0.16831
#
# Static dielectric constant tensor:
#      x y z
#    x 2.248670 0.110610 0.059640 
#    y 0.110610 2.310890 0.047650 
#    z 0.059640 0.047650 2.248500 
# 
# From -- ./inp_files/375637.got.cif
#   From: 2010.05.17/outbox.cif.g08.bks.cpg/sg2_188_cif.got.tgz:375637.got - 2010.06.03 11:33:40.
