data_PCOD9112522
_publ_section_title
;
Structure prediction by ZEFSAII (Michael W. Deem and Ramdas Pophale) SiO2 
 PCOD9112522
Probable space group: P 2
;
_chemical_formula_sum "Si O2"
_cell_formula_units_Z 12
_cell_length_a 7.474528
_cell_length_b 8.325195
_cell_length_c 11.916223
_cell_angle_alpha 90.000000
_cell_angle_beta 136.465757
_cell_angle_gamma 90.000000
_cell_volume 510.742933
_symmetry_space_group_name_H-M "P 2"
_symmetry_group_IT_number 3
_symmetry_cell_setting 'monoclinic'
loop_
_space_group_symop_operation_xyz
x,y,z
-x,y,-z
loop_
_atom_site_type_symbol
_atom_site_label
_atom_site_fract_x
_atom_site_fract_y
_atom_site_fract_z
Si Si1 0.127881 0.021720 0.387834
Si Si2 0.621928 0.518569 0.300935
Si Si3 0.148389 0.049656 0.956149
Si Si4 0.739158 0.411083 0.032890
Si Si5 0.368408 0.892608 0.708583
Si Si6 0.895991 0.396531 0.622883
O O1 0.182499 0.211110 0.406990
O O2 0.346168 0.941159 0.566474
O O3 0.861717 0.988311 0.334584
O O4 0.044395 0.973102 0.223595
O O5 0.342940 0.466742 0.127310
O O6 0.678218 0.703715 0.302777
O O7 0.674564 0.487844 0.455103
O O8 0.840061 0.414136 0.333117
O O9 0.258560 0.217333 0.958915
O O10 0.374250 0.936378 0.105514
O O11 0.000000 0.101013 0.000000
O O12 0.500000 0.475122 0.000000
O O13 0.006608 0.461122 0.213201
#
# Coordination Sequence:
#
# PCOD9112522 Si02
#       6
#     2   2   2   2   2   2
#     4  10  20  36  61  84 108 141 184 231 268 318
#     4  10  18  29  52  83 111 133 167 224 279 322
#     4  11  23  38  56  78 110 150 188 224 266 322
#     4   9  18  34  56  79 104 137 179 227 268 315
#     4  11  21  34  57  87 113 141 178 226 278 324
#     4   9  16  29  50  79 106 132 170 220 269 311
#
# _framework density 23.495183999999998
#
# number of rings (size 3 to 8) (size 9 to 14) (size 15 to 20)
#    0.000    2.000    0.000    8.500    0.000    6.000 
#    0.000    0.833    0.000    4.000    0.000    0.000 
#    0.000    0.000    0.000    0.000    0.000    0.000 
#
# Total GULP energy -66982.090756 kJ/mol
# GULP energy per Si atom -5581.840896 kJ/mol
# Density = 2.344171 g / cm^3
# Si number density = 23.495184 Si / 1000 Ang^3
#
#
#
# Elastic Constant Matrix: (Units=GPa)
#
#
# Indices 1 2 3 4 5 6 
#
# 1 46.0658 -8.9643 28.9261 0.0000 -5.8659 0.0000
# 2 -8.9643 48.2605 29.2920 0.0000 5.1821 0.0000
# 3 28.9261 29.2920 239.6617 0.0000 -24.6739 0.0000
# 4 0.0000 0.0000 0.0000 -43.1410 0.0000 -10.1431
# 5 -5.8659 5.1821 -24.6739 0.0000 26.2227 0.0000
# 6 0.0000 0.0000 0.0000 -10.1431 0.0000 -9.3947
#
#
#
# Elastic Compliance Matrix: (Units=1/GPa)
#
#
# Indices 1 2 3 4 5 6 
#
# 1 0.025601 0.007036 -0.003879 0.000000 0.000686 0.000000
# 2 0.007036 0.025833 -0.004839 0.000000 -0.008084 0.000000
# 3 -0.003879 -0.004839 0.005803 0.000000 0.005549 0.000000
# 4 0.000000 0.000000 0.000000 -0.031066 0.000000 0.033540
# 5 0.000686 -0.008084 0.005549 0.000000 0.045107 0.000000
# 6 0.000000 0.000000 0.000000 0.033540 0.000000 -0.142655
#
#
# Mechanical properties :
#
#
# Convention : Reuss Voigt Hill
#
# Bulk Modulus (GPa) = 18.56221 48.05505 33.30863
# Shear Modulus (GPa) = -99.89098 13.71967 -43.08565
#
# Velocity S-wave (km/s) = -6.52747 2.41910 -4.28694
# Velocity P-wave (km/s) = 6.99234 5.31980 3.20878
#
# Compressibility (1/GPa) = 0.05387288
#
# Stress axis : x y z
#
# Youngs Moduli (GPa) = 39.06172 38.71039 172.31067
#
# Poissons Ratio (x) = -0.27237 0.66842
# Poissons Ratio (y) = -0.27484 0.83379
# Poissons Ratio (z) = 0.15153 0.18731
#
# Static dielectric constant tensor:
#      x y z
#    x 1.901970 0.000000 -0.024660 
#    y 0.000000 1.782040 0.000000 
#    z -0.024660 0.000000 1.998750 
# 
# From -- ./inp_files/5400.got.cif
#   From: 2010.05.17/outbox.cif.g08.bks.cpg/sg3_3_cif.got.tgz:5400.got - 2010.06.03 18:33:08.
