data_PCOD9112855
_publ_section_title
;
Structure prediction by ZEFSAII (Michael W. Deem and Ramdas Pophale) SiO2 
 PCOD9112855
Probable space group: P 2
;
_chemical_formula_sum "Si O2"
_cell_formula_units_Z 15
_cell_length_a 12.356075
_cell_length_b 13.300278
_cell_length_c 5.130616
_cell_angle_alpha 90.000000
_cell_angle_beta 96.369995
_cell_angle_gamma 90.000000
_cell_volume 837.955949
_symmetry_space_group_name_H-M "P 2"
_symmetry_group_IT_number 3
_symmetry_cell_setting 'monoclinic'
loop_
_space_group_symop_operation_xyz
x,y,z
-x,y,-z
loop_
_atom_site_type_symbol
_atom_site_label
_atom_site_fract_x
_atom_site_fract_y
_atom_site_fract_z
Si Si1 0.576067 0.148300 0.265030
Si Si2 0.576548 0.381672 0.267843
Si Si3 0.374243 0.839750 0.208809
Si Si4 0.500000 0.684984 0.500000
Si Si5 0.281512 0.564455 0.570754
Si Si6 0.804466 0.671193 0.938599
Si Si7 0.300371 0.953710 0.705065
Si Si8 0.070022 0.848884 0.781122
O O1 0.500000 0.138788 0.500000
O O2 0.608118 0.265113 0.239349
O O3 0.677494 0.072372 0.305712
O O4 0.500000 0.122300 0.000000
O O5 0.500000 0.387004 0.500000
O O6 0.680837 0.450749 0.359266
O O7 0.500000 0.413747 0.000000
O O8 0.473972 0.763643 0.265833
O O9 0.274146 0.762048 0.165820
O O10 0.349615 0.904875 0.458051
O O11 0.370177 0.911361 0.963248
O O12 0.395673 0.618104 0.526989
O O13 0.197913 0.597253 0.315886
O O14 0.243127 0.609373 0.833426
O O15 0.898558 0.738394 0.098137
O O16 0.178351 0.912577 0.731814
O O17 0.000000 0.838819 0.500000
O O18 0.000000 0.896669 0.000000
#
# Coordination Sequence:
#
# PCOD9112855 Si02
#       8
#     2   2   2   1   2   2   2   2
#     4  10  22  37  54  76 109 150 186 222 267 314
#     4  10  20  35  52  75 103 147 198 224 253 307
#     4  10  21  31  46  70 110 137 178 212 252 315
#     4  10  20  28  44  72  98 152 172 206 254 288
#     4  11  20  32  51  72 111 141 181 223 253 306
#     4  10  21  35  47  78 106 134 172 222 270 320
#     4  11  22  37  51  78 108 140 188 219 266 328
#     4  11  21  37  59  78 108 143 179 229 276 329
#
# _framework density 17.900703
#
# number of rings (size 3 to 8) (size 9 to 14) (size 15 to 20)
#    0.000    1.600    0.667    7.200    4.667    2.133 
#    0.000    0.000    0.000    0.000    0.000    3.733 
#    0.000    2.133    0.000    0.000    0.000    0.000 
#
# Total GULP energy -83583.654209 kJ/mol
# GULP energy per Si atom -5572.243614 kJ/mol
# Density = 1.785996 g / cm^3
# Si number density = 17.900703 Si / 1000 Ang^3
#
#
#
# Elastic Constant Matrix: (Units=GPa)
#
#
# Indices 1 2 3 4 5 6 
#
# 1 53.1913 37.7886 14.7060 0.0000 11.8765 0.0000
# 2 37.7886 110.5287 33.2261 0.0000 9.1397 0.0000
# 3 14.7060 33.2261 140.6609 0.0000 11.3869 0.0000
# 4 0.0000 0.0000 0.0000 -30.5312 0.0000 21.0311
# 5 11.8765 9.1397 11.3869 0.0000 22.3039 0.0000
# 6 0.0000 0.0000 0.0000 21.0311 0.0000 5.1371
#
#
#
# Elastic Compliance Matrix: (Units=1/GPa)
#
#
# Indices 1 2 3 4 5 6 
#
# 1 0.027235 -0.008406 0.000035 0.000000 -0.011075 0.000000
# 2 -0.008406 0.012522 -0.002113 0.000000 0.000424 0.000000
# 3 0.000035 -0.002113 0.007861 0.000000 -0.003166 0.000000
# 4 0.000000 0.000000 0.000000 -0.008574 0.000000 0.035102
# 5 -0.011075 0.000424 -0.003166 0.000000 0.052175 0.000000
# 6 0.000000 0.000000 0.000000 0.035102 0.000000 0.050958
#
#
# Mechanical properties :
#
#
# Convention : Reuss Voigt Hill
#
# Bulk Modulus (GPa) = 37.52494 52.86917 45.19706
# Shear Modulus (GPa) = 29.06487 13.95931 21.51209
#
# Velocity S-wave (km/s) = 4.03385 2.79555 3.47038
# Velocity P-wave (km/s) = 6.53485 6.32605 6.43130
#
# Compressibility (1/GPa) = 0.02664894
#
# Stress axis : x y z
#
# Youngs Moduli (GPa) = 36.71706 79.86210 127.20830
#
# Poissons Ratio (x) = 0.67133 -0.00443
# Poissons Ratio (y) = 0.30865 0.26882
# Poissons Ratio (z) = -0.00128 0.16877
#
# Static dielectric constant tensor:
#      x y z
#    x 1.671740 0.000000 0.031320 
#    y 0.000000 1.630330 0.000000 
#    z 0.031320 0.000000 1.680200 
# 
# From -- ./inp_files/2430.got.cif
#   From: 2010.05.17/outbox.cif.g08.bks.cpg/sg3_2_cif.got.tgz:2430.got - 2010.06.03 18:33:08.
