data_PCOD9112825
_publ_section_title
;
Structure prediction by ZEFSAII (Michael W. Deem and Ramdas Pophale) SiO2 
 PCOD9112825
Probable space group: P 2
;
_chemical_formula_sum "Si O2"
_cell_formula_units_Z 14
_cell_length_a 18.677698
_cell_length_b 6.944490
_cell_length_c 7.968145
_cell_angle_alpha 90.000000
_cell_angle_beta 138.213399
_cell_angle_gamma 90.000000
_cell_volume 688.697691
_symmetry_space_group_name_H-M "P 2"
_symmetry_group_IT_number 3
_symmetry_cell_setting 'monoclinic'
loop_
_space_group_symop_operation_xyz
x,y,z
-x,y,-z
loop_
_atom_site_type_symbol
_atom_site_label
_atom_site_fract_x
_atom_site_fract_y
_atom_site_fract_z
Si Si1 0.737083 0.807080 0.976070
Si Si2 0.530404 0.956001 0.735854
Si Si3 0.903745 0.062491 0.452694
Si Si4 0.100352 0.778702 0.288621
Si Si5 0.381656 0.267654 0.848150
Si Si6 0.697019 0.943400 0.539034
Si Si7 0.809888 0.477220 0.300118
O O1 0.784564 0.594414 0.084754
O O2 0.800348 0.943387 0.214054
O O3 0.615487 0.796792 0.829605
O O4 0.740360 0.919388 0.805557
O O5 0.500000 0.047018 0.500000
O O6 0.426225 0.876211 0.649581
O O7 0.586256 0.108919 0.955322
O O8 0.875173 0.283439 0.387528
O O9 0.000000 0.008284 0.500000
O O10 0.930540 0.983937 0.682748
O O11 0.216845 0.817061 0.409973
O O12 0.119718 0.618701 0.462728
O O13 0.000000 0.720372 0.000000
O O14 0.298228 0.415274 0.786969
O O15 0.322256 0.147645 0.592318
O O16 0.500000 0.345118 0.000000
#
# Coordination Sequence:
#
# PCOD9112825 Si02
#       7
#     2   2   2   2   2   2   2
#     4  10  21  40  64  90 127 165 217 261 319 390
#     4   9  18  36  66  92 126 172 211 254 319 395
#     4  11  23  42  65  84 120 172 212 266 331 382
#     4  11  24  42  63  92 131 163 217 268 323 387
#     4  10  19  38  65  96 130 168 212 269 323 385
#     4  10  20  39  65  93 124 173 211 257 326 380
#     4  11  23  41  62  95 126 166 217 267 323 389
#
# _framework density 20.328220999999999
#
# number of rings (size 3 to 8) (size 9 to 14) (size 15 to 20)
#    0.000    1.714    2.857    1.714    0.000    5.143 
#    5.143    2.143    0.000    0.000    0.000    0.000 
#    0.000    0.000    0.000    0.000    0.000    0.000 
#
# Total GULP energy -77958.913475 kJ/mol
# GULP energy per Si atom -5568.493820 kJ/mol
# Density = 2.028195 g / cm^3
# Si number density = 20.328221 Si / 1000 Ang^3
#
#
#
# Elastic Constant Matrix: (Units=GPa)
#
#
# Indices 1 2 3 4 5 6 
#
# 1 72.1650 -7.0809 14.7333 0.0000 7.5316 0.0000
# 2 -7.0809 57.0465 32.8170 0.0000 -8.3309 0.0000
# 3 14.7333 32.8170 98.6544 0.0000 -11.4234 0.0000
# 4 0.0000 0.0000 0.0000 18.2595 0.0000 5.3277
# 5 7.5316 -8.3309 -11.4234 0.0000 30.3318 0.0000
# 6 0.0000 0.0000 0.0000 5.3277 0.0000 13.9492
#
#
#
# Elastic Compliance Matrix: (Units=1/GPa)
#
#
# Indices 1 2 3 4 5 6 
#
# 1 0.015485 0.003593 -0.004014 0.000000 -0.004370 0.000000
# 2 0.003593 0.022849 -0.007857 0.000000 0.002425 0.000000
# 3 -0.004014 -0.007857 0.013817 0.000000 0.004043 0.000000
# 4 0.000000 0.000000 0.000000 0.061635 0.000000 -0.023540
# 5 -0.004370 0.002425 0.004043 0.000000 0.036242 0.000000
# 6 0.000000 0.000000 0.000000 -0.023540 0.000000 0.080680
#
#
# Mechanical properties :
#
#
# Convention : Reuss Voigt Hill
#
# Bulk Modulus (GPa) = 28.09222 34.31164 31.20193
# Shear Modulus (GPa) = 19.29544 25.00120 22.14832
#
# Velocity S-wave (km/s) = 3.08424 3.51076 3.30439
# Velocity P-wave (km/s) = 5.15099 5.77489 5.47184
#
# Compressibility (1/GPa) = 0.03559704
#
# Stress axis : x y z
#
# Youngs Moduli (GPa) = 64.57780 43.76520 72.37275
#
# Poissons Ratio (x) = -0.15724 0.29049
# Poissons Ratio (y) = -0.23202 0.56860
# Poissons Ratio (z) = 0.25920 0.34384
#
# Static dielectric constant tensor:
#      x y z
#    x 1.776310 0.000000 -0.001030 
#    y 0.000000 1.694870 0.000000 
#    z -0.001030 0.000000 1.769470 
# 
# From -- ./inp_files/8941.got.cif
#   From: 2010.05.17/outbox.cif.g08.bks.cpg/sg3_5_cif.got.tgz:8941.got - 2010.06.03 18:33:08.
