data_PCOD9112186
_publ_section_title
;
Structure prediction by ZEFSAII (Michael W. Deem and Ramdas Pophale) SiO2 
 PCOD9112186
Probable space group: P -1
;
_chemical_formula_sum "Si O2"
_cell_formula_units_Z 13
_cell_length_a 9.283140
_cell_length_b 11.522970
_cell_length_c 8.905919
_cell_angle_alpha 59.166952
_cell_angle_beta 39.838047
_cell_angle_gamma 74.201962
_cell_volume 511.135000
_symmetry_space_group_name_H-M "P -1"
_symmetry_group_IT_number 2
_symmetry_cell_setting 'triclinic'
loop_
_space_group_symop_operation_xyz
x,y,z
-x,-y,-z
loop_
_atom_site_type_symbol
_atom_site_label
_atom_site_fract_x
_atom_site_fract_y
_atom_site_fract_z
Si Si1 0.254665 0.278664 0.970211
Si Si2 0.586960 0.925568 0.839434
Si Si3 0.107044 0.689051 0.003739
Si Si4 0.260427 0.438789 0.148948
Si Si5 0.510514 0.840169 0.412364
Si Si6 0.081569 0.811532 0.245955
Si Si7 0.000000 0.000000 0.000000
O O1 0.425179 0.244712 0.726846
O O2 0.047721 0.312321 0.016597
O O3 0.224076 0.150617 0.196895
O O4 0.322954 0.402752 0.952672
O O5 0.632483 0.048658 0.602688
O O6 0.349630 0.813189 0.059093
O O7 0.500000 0.000000 0.000000
O O8 0.094600 0.548181 0.196552
O O9 0.053178 0.802908 0.088915
O O10 0.366263 0.733902 0.713468
O O11 0.103057 0.306024 0.447840
O O12 0.500000 0.500000 0.000000
O O13 0.723615 0.927762 0.273470
O O14 0.038640 0.964546 0.181831
#
# Coordination Sequence:
#
# PCOD9112186 Si02
#       7
#     2   2   2   2   2   2   1
#     4  11  25  47  70 104 140 184 234 294 345 416
#     4   9  22  44  70 105 142 181 225 293 354 424
#     4  12  26  46  73 104 139 191 233 293 346 417
#     4  12  28  48  71 100 142 194 237 288 350 416
#     4  10  23  45  72 107 143 177 237 283 362 411
#     4  11  24  46  71 104 141 180 240 284 355 420
#     4  10  20  44  74 106 136 184 226 296 344 426
#
# _framework density 25.433592000000001
#
# number of rings (size 3 to 8) (size 9 to 14) (size 15 to 20)
#    0.000    1.231    1.538    2.769    4.308    4.923 
#    0.000    0.000    0.000    0.000    0.000    0.000 
#    0.000    0.000    0.000    0.000    0.000    0.000 
#
# Total GULP energy -72464.385851 kJ/mol
# GULP energy per Si atom -5574.183527 kJ/mol
# Density = 2.537570 g / cm^3
# Si number density = 25.433592 Si / 1000 Ang^3
#
#
#
# Elastic Constant Matrix: (Units=GPa)
#
#
# Indices 1 2 3 4 5 6 
#
# 1 180.4439 44.8422 28.0978 -14.6440 -6.9979 0.8328
# 2 44.8422 88.9505 21.8837 10.4657 -1.7920 4.2144
# 3 28.0978 21.8837 118.1002 -20.9011 16.3831 0.6762
# 4 -14.6440 10.4657 -20.9011 35.3355 -1.1365 16.2511
# 5 -6.9979 -1.7920 16.3831 -1.1365 20.6705 -3.6929
# 6 0.8328 4.2144 0.6762 16.2511 -3.6929 61.1600
#
#
#
# Elastic Compliance Matrix: (Units=1/GPa)
#
#
# Indices 1 2 3 4 5 6 
#
# 1 0.007013 -0.003783 -0.000598 0.004107 0.002610 -0.000762
# 2 -0.003783 0.015160 -0.003925 -0.009033 0.002938 0.001628
# 3 -0.000598 -0.003925 0.012447 0.009303 -0.010425 -0.002960
# 4 0.004107 -0.009033 0.009303 0.043221 -0.006428 -0.011409
# 5 0.002610 0.002938 -0.010425 -0.006428 0.058339 0.005108
# 6 -0.000762 0.001628 -0.002960 -0.011409 0.005108 0.019621
#
#
# Mechanical properties :
#
#
# Convention : Reuss Voigt Hill
#
# Bulk Modulus (GPa) = 55.53268 64.12688 59.82978
# Shear Modulus (GPa) = 28.02457 42.94459 35.48458
#
# Velocity S-wave (km/s) = 3.32305 4.11359 3.73927
# Velocity P-wave (km/s) = 6.05023 6.91595 6.49753
#
# Compressibility (1/GPa) = 0.01800741
#
# Stress axis : x y z
#
# Youngs Moduli (GPa) = 142.58738 65.96428 80.34355
#
# Poissons Ratio (x) = 0.24954 0.04808
# Poissons Ratio (y) = 0.53939 0.31533
# Poissons Ratio (z) = 0.08533 0.25889
#
# Static dielectric constant tensor:
#      x y z
#    x 2.425780 -1.180860 0.174430 
#    y -1.180860 5.720830 -0.599170 
#    z 0.174430 -0.599170 2.087090 
# 
# From -- ./inp_files/20586.got.cif
#   From: 2010.05.17/outbox.cif.g08.bks.cpg/sg2_11_cif.got.tgz:20586.got - 2010.06.03 11:33:40.
