data_PCOD9112758
_publ_section_title
;
Structure prediction by ZEFSAII (Michael W. Deem and Ramdas Pophale) SiO2 
 PCOD9112758
Probable space group: P 2
;
_chemical_formula_sum "Si O2"
_cell_formula_units_Z 14
_cell_length_a 5.353393
_cell_length_b 7.435433
_cell_length_c 17.250537
_cell_angle_alpha 90.000000
_cell_angle_beta 125.556634
_cell_angle_gamma 90.000000
_cell_volume 558.621340
_symmetry_space_group_name_H-M "P 2"
_symmetry_group_IT_number 3
_symmetry_cell_setting 'monoclinic'
loop_
_space_group_symop_operation_xyz
x,y,z
-x,y,-z
loop_
_atom_site_type_symbol
_atom_site_label
_atom_site_fract_x
_atom_site_fract_y
_atom_site_fract_z
Si Si1 0.177592 0.912640 0.736256
Si Si2 0.814476 0.080589 0.531055
Si Si3 0.332887 0.322409 0.097559
Si Si4 0.122650 0.586863 0.259206
Si Si5 0.779818 0.724586 0.889463
Si Si6 0.001550 0.212158 0.811314
Si Si7 0.663267 0.676698 0.451465
O O1 0.530615 0.875324 0.822422
O O2 0.057393 0.020681 0.640502
O O3 0.047226 0.712134 0.710292
O O4 0.000777 0.017904 0.773180
O O5 0.500000 0.171560 0.500000
O O6 0.691684 0.893769 0.468807
O O7 0.000000 0.185483 0.500000
O O8 0.377451 0.538508 0.109397
O O9 0.629874 0.242160 0.108239
O O10 0.254343 0.246758 0.169247
O O11 0.000000 0.291853 0.000000
O O12 0.051564 0.653295 0.158388
O O13 0.472363 0.630838 0.340921
O O14 0.058425 0.377822 0.257560
O O15 0.000000 0.784024 0.000000
O O16 0.500000 0.610317 0.500000
O O17 0.000000 0.607389 0.500000
#
# Coordination Sequence:
#
# PCOD9112758 Si02
#       7
#     2   2   2   2   2   2   2
#     4  12  24  42  70  98 139 182 226 292 345 412
#     4  10  20  36  64  95 125 171 220 270 341 400
#     4  10  22  46  67  94 137 186 230 291 338 405
#     4  11  23  44  68  97 142 180 226 291 344 410
#     4  10  23  42  71  98 137 188 236 278 348 413
#     4  11  26  41  68 101 134 180 231 278 355 404
#     4  10  19  35  66  95 122 173 222 266 340 404
#
# _framework density 25.061698
#
# number of rings (size 3 to 8) (size 9 to 14) (size 15 to 20)
#    0.000    1.429    4.286    2.143    2.000    1.143 
#    2.571    0.714    0.000    3.429    0.000    0.000 
#    0.000    0.000    0.000    0.000    0.000    0.000 
#
# Total GULP energy -78192.427750 kJ/mol
# GULP energy per Si atom -5585.173411 kJ/mol
# Density = 2.500466 g / cm^3
# Si number density = 25.061698 Si / 1000 Ang^3
#
#
#
# Elastic Constant Matrix: (Units=GPa)
#
#
# Indices 1 2 3 4 5 6 
#
# 1 143.2495 7.5339 38.4235 0.0000 7.4787 0.0000
# 2 7.5339 92.0937 4.2066 0.0000 3.2773 0.0000
# 3 38.4235 4.2066 114.5906 0.0000 13.5788 0.0000
# 4 0.0000 0.0000 0.0000 -11.0950 0.0000 6.7360
# 5 7.4787 3.2773 13.5788 0.0000 33.1559 0.0000
# 6 0.0000 0.0000 0.0000 6.7360 0.0000 11.1355
#
#
#
# Elastic Compliance Matrix: (Units=1/GPa)
#
#
# Indices 1 2 3 4 5 6 
#
# 1 0.007709 -0.000493 -0.002487 0.000000 -0.000671 0.000000
# 2 -0.000493 0.010937 -0.000127 0.000000 -0.000918 0.000000
# 3 -0.002487 -0.000127 0.009982 0.000000 -0.003514 0.000000
# 4 0.000000 0.000000 0.000000 -0.065921 0.000000 0.039877
# 5 -0.000671 -0.000918 -0.003514 0.000000 0.031842 0.000000
# 6 0.000000 0.000000 0.000000 0.039877 0.000000 0.065681
#
#
# Mechanical properties :
#
#
# Convention : Reuss Voigt Hill
#
# Bulk Modulus (GPa) = 44.61782 50.02911 47.32346
# Shear Modulus (GPa) = 67.64392 26.62394 47.13393
#
# Velocity S-wave (km/s) = 5.20092 3.26289 4.34143
# Velocity P-wave (km/s) = 7.34220 5.84816 6.63735
#
# Compressibility (1/GPa) = 0.02241257
#
# Stress axis : x y z
#
# Youngs Moduli (GPa) = 129.71914 91.43003 100.18185
#
# Poissons Ratio (x) = 0.04509 0.24918
# Poissons Ratio (y) = 0.06397 0.01276
# Poissons Ratio (z) = 0.32264 0.01165
#
# Static dielectric constant tensor:
#      x y z
#    x 2.119600 0.000000 0.002100 
#    y 0.000000 1.936410 0.000000 
#    z 0.002100 0.000000 2.061420 
# 
# From -- ./inp_files/14677.got.cif
#   From: 2010.05.17/outbox.cif.g08.bks.cpg/sg3_8_cif.got.tgz:14677.got - 2010.06.03 18:33:08.
