data_PCOD9112555
_publ_section_title
;
Structure prediction by ZEFSAII (Michael W. Deem and Ramdas Pophale) SiO2 
 PCOD9112555
Probable space group: P 2
;
_chemical_formula_sum "Si O2"
_cell_formula_units_Z 15
_cell_length_a 11.640655
_cell_length_b 8.423714
_cell_length_c 11.369572
_cell_angle_alpha 90.000000
_cell_angle_beta 48.899871
_cell_angle_gamma 90.000000
_cell_volume 840.125346
_symmetry_space_group_name_H-M "P 2"
_symmetry_group_IT_number 3
_symmetry_cell_setting 'monoclinic'
loop_
_space_group_symop_operation_xyz
x,y,z
-x,y,-z
loop_
_atom_site_type_symbol
_atom_site_label
_atom_site_fract_x
_atom_site_fract_y
_atom_site_fract_z
Si Si1 0.639983 0.187740 0.750975
Si Si2 0.500000 0.257514 0.500000
Si Si3 0.420478 0.492261 0.942225
Si Si4 0.695455 0.549092 0.442357
Si Si5 0.087699 0.349207 0.561452
Si Si6 0.196761 0.220244 0.123692
Si Si7 0.610197 0.695748 0.265796
Si Si8 0.368177 0.055762 0.801134
O O1 0.539218 0.349824 0.830327
O O2 0.780005 0.232543 0.573879
O O3 0.708728 0.141941 0.831577
O O4 0.523851 0.063784 0.773223
O O5 0.610532 0.379179 0.492276
O O6 0.406506 0.157253 0.658517
O O7 0.383764 0.605591 0.860833
O O8 0.500000 0.574050 0.000000
O O9 0.267779 0.397066 0.074345
O O10 0.841225 0.503641 0.421638
O O11 0.711109 0.608713 0.297874
O O12 0.568902 0.671335 0.577941
O O13 0.000000 0.395390 0.500000
O O14 0.976407 0.249174 0.721663
O O15 0.240011 0.133595 0.972667
O O16 0.659045 0.876364 0.218625
#
# Coordination Sequence:
#
# PCOD9112555 Si02
#       8
#     2   1   2   2   2   2   2   2
#     4   9  16  33  56  80 108 142 191 239 274 328
#     4  10  18  32  58  76 104 146 192 246 268 314
#     4   9  16  31  51  78 109 144 193 237 270 320
#     4  10  18  35  56  84 105 141 197 236 274 329
#     4  10  18  33  61  86 110 143 188 241 282 331
#     4   9  19  31  56  83 110 143 188 238 279 326
#     4  10  20  31  55  83 115 145 187 239 282 331
#     4  11  19  33  53  86 114 145 187 232 288 335
#
# _framework density 17.854478
#
# number of rings (size 3 to 8) (size 9 to 14) (size 15 to 20)
#    0.000    2.400    2.667    4.400    0.000    1.067 
#    0.000    2.667    2.933    2.400    0.000    0.000 
#    0.000    0.000    0.000    0.000    0.000    0.000 
#
# Total GULP energy -83502.855417 kJ/mol
# GULP energy per Si atom -5566.857028 kJ/mol
# Density = 1.781384 g / cm^3
# Si number density = 17.854478 Si / 1000 Ang^3
#
#
#
# Elastic Constant Matrix: (Units=GPa)
#
#
# Indices 1 2 3 4 5 6 
#
# 1 65.5860 16.7481 22.7756 0.0000 11.5227 0.0000
# 2 16.7481 52.1984 16.6688 0.0000 12.0979 0.0000
# 3 22.7756 16.6688 106.7135 0.0000 5.6491 0.0000
# 4 0.0000 0.0000 0.0000 14.1046 0.0000 -1.7128
# 5 11.5227 12.0979 5.6491 0.0000 31.1377 0.0000
# 6 0.0000 0.0000 0.0000 -1.7128 0.0000 5.8615
#
#
#
# Elastic Compliance Matrix: (Units=1/GPa)
#
#
# Indices 1 2 3 4 5 6 
#
# 1 0.018078 -0.003749 -0.003025 0.000000 -0.004685 0.000000
# 2 -0.003749 0.022748 -0.002382 0.000000 -0.007019 0.000000
# 3 -0.003025 -0.002382 0.010380 0.000000 0.000162 0.000000
# 4 0.000000 0.000000 0.000000 0.073507 0.000000 0.021480
# 5 -0.004685 -0.007019 0.000162 0.000000 0.036547 0.000000
# 6 0.000000 0.000000 0.000000 0.021480 0.000000 0.176880
#
#
# Mechanical properties :
#
#
# Convention : Reuss Voigt Hill
#
# Bulk Modulus (GPa) = 30.39943 37.43144 33.91543
# Shear Modulus (GPa) = 13.60857 21.44111 17.52484
#
# Velocity S-wave (km/s) = 2.76378 3.46913 3.13635
# Velocity P-wave (km/s) = 5.21995 6.08743 5.67030
#
# Compressibility (1/GPa) = 0.03289535
#
# Stress axis : x y z
#
# Youngs Moduli (GPa) = 55.31631 43.96039 96.33994
#
# Poissons Ratio (x) = 0.16479 0.29141
# Poissons Ratio (y) = 0.20736 0.22944
# Poissons Ratio (z) = 0.16732 0.10470
#
# Static dielectric constant tensor:
#      x y z
#    x 1.735460 0.000000 0.040970 
#    y 0.000000 1.588170 0.000000 
#    z 0.040970 0.000000 1.683000 
# 
# From -- ./inp_files/10426.got.cif
#   From: 2010.05.17/outbox.cif.g08.bks.cpg/sg3_6_cif.got.tgz:10426.got - 2010.06.03 18:33:08.
