data_PCOD9112253
_publ_section_title
;
Structure prediction by ZEFSAII (Michael W. Deem and Ramdas Pophale) SiO2 
 PCOD9112253
Probable space group: P -1
;
_chemical_formula_sum "Si O2"
_cell_formula_units_Z 16
_cell_length_a 23.048834
_cell_length_b 5.074219
_cell_length_c 7.418993
_cell_angle_alpha 107.345768
_cell_angle_beta 59.444212
_cell_angle_gamma 119.936809
_cell_volume 646.352883
_symmetry_space_group_name_H-M "P -1"
_symmetry_group_IT_number 2
_symmetry_cell_setting 'triclinic'
loop_
_space_group_symop_operation_xyz
x,y,z
-x,-y,-z
loop_
_atom_site_type_symbol
_atom_site_label
_atom_site_fract_x
_atom_site_fract_y
_atom_site_fract_z
Si Si1 0.034770 0.915988 0.605000
Si Si2 0.118634 0.663347 0.202029
Si Si3 0.920512 0.501998 0.144620
Si Si4 0.776642 0.348657 0.489025
Si Si5 0.263085 0.572370 0.059257
Si Si6 0.412477 0.109728 0.010142
Si Si7 0.711938 0.645224 0.380724
Si Si8 0.571916 0.256003 0.751663
O O1 0.106792 0.896579 0.401254
O O2 0.964012 0.614750 0.716150
O O3 0.058118 0.140855 0.783590
O O4 0.000000 0.000000 0.500000
O O5 0.186748 0.593276 0.134858
O O6 0.125099 0.718684 0.990103
O O7 0.861615 0.387021 0.378569
O O8 0.000000 0.500000 0.000000
O O9 0.747745 0.493448 0.724896
O O10 0.768191 0.524009 0.361295
O O11 0.728655 0.985714 0.484254
O O12 0.335658 0.890352 0.996397
O O13 0.277695 0.356988 0.850602
O O14 0.418369 0.448418 0.084613
O O15 0.416470 0.979674 0.178599
O O16 0.486064 0.118191 0.798723
O O17 0.632534 0.397142 0.528131
#
# Coordination Sequence:
#
# PCOD9112253 Si02
#       8
#     2   2   2   2   2   2   2   2
#     4  11  24  45  69  96 133 181 237 297 361 428
#     4  11  26  44  66 103 136 183 240 298 363 440
#     4  12  26  45  70  99 139 190 239 305 365 429
#     4  12  29  48  69 110 145 190 237 312 359 430
#     4  12  26  45  74 106 145 196 240 299 371 434
#     4  10  22  41  75 104 147 192 234 295 363 424
#     4  12  26  47  74 107 149 188 246 294 366 431
#     4  10  20  45  70 107 146 189 240 294 355 431
#
# _framework density 24.754279
#
# number of rings (size 3 to 8) (size 9 to 14) (size 15 to 20)
#    0.000    0.750    5.000    1.125    5.250    3.500 
#    2.250    0.000    0.000    6.000    0.000    0.000 
#    0.000    0.000    0.000    0.000    0.000    0.000 
#
# Total GULP energy -89381.891484 kJ/mol
# GULP energy per Si atom -5586.368218 kJ/mol
# Density = 2.469794 g / cm^3
# Si number density = 24.754279 Si / 1000 Ang^3
#
#
#
# Elastic Constant Matrix: (Units=GPa)
#
#
# Indices 1 2 3 4 5 6 
#
# 1 39.9544 10.0243 34.3031 2.3369 -10.6060 5.4476
# 2 10.0243 97.4183 27.0816 -9.9784 -5.7716 10.4704
# 3 34.3031 27.0816 150.5737 -1.4216 -18.2045 14.9615
# 4 2.3369 -9.9784 -1.4216 32.1016 5.2579 -8.7396
# 5 -10.6060 -5.7716 -18.2045 5.2579 45.8558 -13.7547
# 6 5.4476 10.4704 14.9615 -8.7396 -13.7547 41.5257
#
#
#
# Elastic Compliance Matrix: (Units=1/GPa)
#
#
# Indices 1 2 3 4 5 6 
#
# 1 0.032713 -0.001604 -0.006520 -0.004198 0.005031 -0.000755
# 2 -0.001604 0.011329 -0.001535 0.003213 -0.000386 -0.001545
# 3 -0.006520 -0.001535 0.008711 -0.000245 0.001333 -0.001506
# 4 -0.004198 0.003213 -0.000245 0.034584 -0.002773 0.006189
# 5 0.005031 -0.000386 0.001333 -0.002773 0.025850 0.006936
# 6 -0.000755 -0.001545 -0.001506 0.006189 0.006936 0.028713
#
#
# Mechanical properties :
#
#
# Convention : Reuss Voigt Hill
#
# Bulk Modulus (GPa) = 29.90968 47.86269 38.88619
# Shear Modulus (GPa) = 29.00834 38.33245 33.67039
#
# Velocity S-wave (km/s) = 3.42695 3.93939 3.69207
# Velocity P-wave (km/s) = 5.26948 6.32999 5.82393
#
# Compressibility (1/GPa) = 0.03343399
#
# Stress axis : x y z
#
# Youngs Moduli (GPa) = 30.56880 88.26854 114.79286
#
# Poissons Ratio (x) = 0.14161 0.74850
# Poissons Ratio (y) = 0.04904 0.17620
# Poissons Ratio (z) = 0.19932 0.13549
#
# Static dielectric constant tensor:
#      x y z
#    x 2.049290 0.012410 0.032990 
#    y 0.012410 2.005220 -0.024680 
#    z 0.032990 -0.024680 2.041620 
# 
# From -- ./inp_files/355930.got.cif
#   From: 2010.05.17/outbox.cif.g08.bks.cpg/sg2_178_cif.got.tgz:355930.got - 2010.06.03 11:33:40.
