data_PCOD9112970
_publ_section_title
;
Structure prediction by ZEFSAII (Michael W. Deem and Ramdas Pophale) SiO2 
 PCOD9112970
Probable space group: P 2
;
_chemical_formula_sum "Si O2"
_cell_formula_units_Z 15
_cell_length_a 8.095296
_cell_length_b 9.267904
_cell_length_c 13.066650
_cell_angle_alpha 90.000000
_cell_angle_beta 127.644776
_cell_angle_gamma 90.000000
_cell_volume 776.248753
_symmetry_space_group_name_H-M "P 2"
_symmetry_group_IT_number 3
_symmetry_cell_setting 'monoclinic'
loop_
_space_group_symop_operation_xyz
x,y,z
-x,y,-z
loop_
_atom_site_type_symbol
_atom_site_label
_atom_site_fract_x
_atom_site_fract_y
_atom_site_fract_z
Si Si1 0.958372 0.528350 0.184673
Si Si2 0.979008 0.318712 0.374448
Si Si3 0.471664 0.213335 0.868639
Si Si4 0.264977 0.097359 0.375966
Si Si5 0.912211 0.849219 0.808454
Si Si6 0.830590 0.278467 0.863847
Si Si7 0.345092 0.894938 0.084458
Si Si8 0.500000 0.652692 0.000000
O O1 0.010168 0.454757 0.312097
O O2 0.064541 0.682168 0.209055
O O3 0.048939 0.416945 0.135071
O O4 0.710458 0.558883 0.084053
O O5 0.757604 0.251731 0.256517
O O6 0.000000 0.358271 0.500000
O O7 0.147741 0.196288 0.413041
O O8 0.633897 0.304859 0.861890
O O9 0.531289 0.045129 0.873782
O O10 0.500000 0.240148 0.000000
O O11 0.500000 0.078184 0.500000
O O12 0.241221 0.183243 0.259229
O O13 0.155370 0.945878 0.312311
O O14 0.744747 0.867242 0.836455
O O15 0.138419 0.901301 0.934683
O O16 0.000000 0.198617 0.000000
O O17 0.477047 0.761533 0.088344
#
# Coordination Sequence:
#
# PCOD9112970 Si02
#       8
#     2   2   2   2   2   2   2   1
#     4  10  25  42  64  96 136 180 217 268 336 404
#     4  11  26  44  64  95 134 179 219 281 331 388
#     4  12  22  38  67 102 129 170 223 278 332 385
#     4  11  23  44  66  94 128 176 228 276 326 396
#     4  10  21  41  64  95 134 171 219 270 336 399
#     4  11  23  39  65  97 133 173 219 272 329 395
#     4  10  20  36  66  98 131 167 208 280 338 381
#     4  10  22  40  62 100 140 168 216 272 338 392
#
# _framework density 19.323702999999998
#
# number of rings (size 3 to 8) (size 9 to 14) (size 15 to 20)
#    0.000    1.333    2.000    4.000    8.400    0.000 
#    0.000    6.000    0.000    0.000    0.000    0.000 
#    0.000    0.000    0.000    0.000    0.000    0.000 
#
# Total GULP energy -83859.495034 kJ/mol
# GULP energy per Si atom -5590.633002 kJ/mol
# Density = 1.927972 g / cm^3
# Si number density = 19.323703 Si / 1000 Ang^3
#
#
#
# Elastic Constant Matrix: (Units=GPa)
#
#
# Indices 1 2 3 4 5 6 
#
# 1 75.5181 33.3850 10.0513 0.0000 -11.0187 0.0000
# 2 33.3850 126.6130 39.8342 0.0000 -1.6323 0.0000
# 3 10.0513 39.8342 81.3517 0.0000 -10.1396 0.0000
# 4 0.0000 0.0000 0.0000 -69.4446 0.0000 63.9496
# 5 -11.0187 -1.6323 -10.1396 0.0000 33.5871 0.0000
# 6 0.0000 0.0000 0.0000 63.9496 0.0000 -4.4164
#
#
#
# Elastic Compliance Matrix: (Units=1/GPa)
#
#
# Indices 1 2 3 4 5 6 
#
# 1 0.015825 -0.004368 0.000836 0.000000 0.005232 0.000000
# 2 -0.004368 0.010572 -0.004937 0.000000 -0.002410 0.000000
# 3 0.000836 -0.004937 0.015182 0.000000 0.004618 0.000000
# 4 0.000000 0.000000 0.000000 0.001167 0.000000 0.016905
# 5 0.005232 -0.002410 0.004618 0.000000 0.032766 0.000000
# 6 0.000000 0.000000 0.000000 0.016905 0.000000 0.018358
#
#
# Mechanical properties :
#
#
# Convention : Reuss Voigt Hill
#
# Bulk Modulus (GPa) = 40.58485 50.00264 45.29375
# Shear Modulus (GPa) = 42.00837 5.29272 23.65055
#
# Velocity S-wave (km/s) = 4.66760 1.65678 3.50224
# Velocity P-wave (km/s) = 7.07791 5.43989 6.31226
#
# Compressibility (1/GPa) = 0.02463974
#
# Stress axis : x y z
#
# Youngs Moduli (GPa) = 63.19102 94.58800 65.86679
#
# Poissons Ratio (x) = 0.41318 -0.05505
# Poissons Ratio (y) = 0.27603 0.32521
# Poissons Ratio (z) = -0.05281 0.46701
#
# Static dielectric constant tensor:
#      x y z
#    x 1.702930 0.000000 -0.007390 
#    y 0.000000 1.682070 0.000000 
#    z -0.007390 0.000000 1.759400 
# 
# From -- ./inp_files/5605.got.cif
#   From: 2010.05.17/outbox.cif.g08.bks.cpg/sg3_3_cif.got.tgz:5605.got - 2010.06.03 18:33:08.
