data_PCOD9112361
_publ_section_title
;
Structure prediction by ZEFSAII (Michael W. Deem and Ramdas Pophale) SiO2 
 PCOD9112361
Probable space group: P -1
;
_chemical_formula_sum "Si O2"
_cell_formula_units_Z 15
_cell_length_a 14.470486
_cell_length_b 9.887712
_cell_length_c 11.531980
_cell_angle_alpha 141.017647
_cell_angle_beta 50.028851
_cell_angle_gamma 111.363999
_cell_volume 763.616593
_symmetry_space_group_name_H-M "P -1"
_symmetry_group_IT_number 2
_symmetry_cell_setting 'triclinic'
loop_
_space_group_symop_operation_xyz
x,y,z
-x,-y,-z
loop_
_atom_site_type_symbol
_atom_site_label
_atom_site_fract_x
_atom_site_fract_y
_atom_site_fract_z
Si Si1 0.971599 0.442178 0.113710
Si Si2 0.554429 0.798951 0.912941
Si Si3 0.000000 0.500000 0.500000
Si Si4 0.400047 0.948217 0.731748
Si Si5 0.252688 0.733122 0.884305
Si Si6 0.199208 0.334783 0.025958
Si Si7 0.825134 0.783928 0.636291
Si Si8 0.608390 0.547499 0.212945
O O1 0.872016 0.299084 0.093816
O O2 0.903389 0.672892 0.388297
O O3 0.095980 0.317318 0.001436
O O4 0.000000 0.500000 0.000000
O O5 0.699604 0.702186 0.693822
O O6 0.474813 0.622561 0.854216
O O7 0.500000 0.000000 0.000000
O O8 0.556055 0.896954 0.106177
O O9 0.883889 0.540610 0.717370
O O10 0.910121 0.689864 0.615514
O O11 0.343391 0.785848 0.749140
O O12 0.515007 0.795377 0.465269
O O13 0.289778 0.101669 0.844564
O O14 0.320851 0.522601 0.768166
O O15 0.217052 0.948661 0.141849
O O16 0.289693 0.461084 0.974563
#
# Coordination Sequence:
#
# PCOD9112361 Si02
#       8
#     2   2   1   2   2   2   2   2
#     4  11  24  42  66  96 131 172 221 277 329 384
#     4  11  22  40  69  98 129 174 219 265 335 393
#     4  10  20  48  64  86 138 176 204 288 318 382
#     4  11  24  44  67  98 135 173 221 275 332 398
#     4  11  22  42  68  98 128 177 224 266 338 395
#     4  11  24  46  67  98 138 173 224 281 328 394
#     4  10  22  42  67  91 132 170 225 267 324 399
#     4  12  24  41  69 100 135 173 219 278 334 390
#
# _framework density 19.643366
#
# number of rings (size 3 to 8) (size 9 to 14) (size 15 to 20)
#    0.000    1.067    6.667    1.600    1.867    1.600 
#    2.400    0.000    0.000    0.000    0.000    0.000 
#    0.000    0.000    0.000    0.000    0.000    0.000 
#
# Total GULP energy -83517.945056 kJ/mol
# GULP energy per Si atom -5567.863004 kJ/mol
# Density = 1.959866 g / cm^3
# Si number density = 19.643366 Si / 1000 Ang^3
#
#
#
# Elastic Constant Matrix: (Units=GPa)
#
#
# Indices 1 2 3 4 5 6 
#
# 1 82.6358 6.1169 51.5287 7.6778 -17.9196 2.4044
# 2 6.1169 57.5366 35.8170 -8.8585 -12.1207 -7.7321
# 3 51.5287 35.8170 85.9471 -13.2967 -20.6958 -4.1276
# 4 7.6778 -8.8585 -13.2967 19.4740 -6.2795 -2.7736
# 5 -17.9196 -12.1207 -20.6958 -6.2795 37.0797 3.8487
# 6 2.4044 -7.7321 -4.1276 -2.7736 3.8487 23.5304
#
#
#
# Elastic Compliance Matrix: (Units=1/GPa)
#
#
# Indices 1 2 3 4 5 6 
#
# 1 0.030958 0.007560 -0.026999 -0.028953 -0.001652 -0.008558
# 2 0.007560 0.027430 -0.014380 0.001829 0.004362 0.005221
# 3 -0.026999 -0.014380 0.043042 0.038508 0.011949 0.008168
# 4 -0.028953 0.001829 0.038508 0.099956 0.023126 0.018314
# 5 -0.001652 0.004362 0.011949 0.023126 0.038163 0.000182
# 6 -0.008558 0.005221 0.008168 0.018314 0.000182 0.048650
#
#
# Mechanical properties :
#
#
# Convention : Reuss Voigt Hill
#
# Bulk Modulus (GPa) = 29.59229 45.89384 37.74307
# Shear Modulus (GPa) = 13.62024 24.86062 19.24043
#
# Velocity S-wave (km/s) = 2.63606 3.56138 3.13307
# Velocity P-wave (km/s) = 4.93584 6.35024 5.68718
#
# Compressibility (1/GPa) = 0.03379258
#
# Stress axis : x y z
#
# Youngs Moduli (GPa) = 32.30146 36.45641 23.23317
#
# Poissons Ratio (x) = -0.27563 0.62728
# Poissons Ratio (y) = -0.24421 0.33409
# Poissons Ratio (z) = 0.87212 0.52424
#
# Static dielectric constant tensor:
#      x y z
#    x 1.703750 0.006070 0.003520 
#    y 0.006070 1.668380 -0.006570 
#    z 0.003520 -0.006570 1.686780 
# 
# From -- ./inp_files/260741.got.cif
#   From: 2010.05.17/outbox.cif.g08.bks.cpg/sg2_131_cif.got.tgz:260741.got - 2010.06.03 11:33:40.
