data_PCOD9112965
_publ_section_title
;
Structure prediction by ZEFSAII (Michael W. Deem and Ramdas Pophale) SiO2 
 PCOD9112965
Probable space group: P 2
;
_chemical_formula_sum "Si O2"
_cell_formula_units_Z 11
_cell_length_a 5.341779
_cell_length_b 12.267064
_cell_length_c 7.210772
_cell_angle_alpha 90.000000
_cell_angle_beta 102.020329
_cell_angle_gamma 90.000000
_cell_volume 462.146772
_symmetry_space_group_name_H-M "P 2"
_symmetry_group_IT_number 3
_symmetry_cell_setting 'monoclinic'
loop_
_space_group_symop_operation_xyz
x,y,z
-x,y,-z
loop_
_atom_site_type_symbol
_atom_site_label
_atom_site_fract_x
_atom_site_fract_y
_atom_site_fract_z
Si Si1 0.238868 0.547290 0.176340
Si Si2 0.417277 0.747539 0.701856
Si Si3 0.707757 0.311638 0.883041
Si Si4 0.415509 0.996167 0.778032
Si Si5 0.905205 0.103036 0.767782
Si Si6 0.000000 0.601232 0.500000
O O1 0.382865 0.662686 0.178361
O O2 0.390077 0.434033 0.170810
O O3 0.166251 0.535356 0.381892
O O4 0.000000 0.549918 0.000000
O O5 0.500000 0.760260 0.500000
O O6 0.367851 0.867055 0.769728
O O7 0.159126 0.679323 0.657663
O O8 0.766393 0.221275 0.734132
O O9 0.500000 0.267385 0.000000
O O10 0.000000 0.327179 0.000000
O O11 0.672445 0.019603 0.701349
O O12 0.500000 0.022995 0.000000
O O13 0.161946 0.067773 0.699351
O O14 0.000000 0.097299 0.000000
#
# Coordination Sequence:
#
# PCOD9112965 Si02
#       6
#     2   2   2   2   2   1
#     4  10  24  39  69  99 131 177 223 273 337 405
#     4  10  24  41  60  90 131 176 216 276 335 394
#     4  10  20  36  64  97 129 168 215 273 332 398
#     4  10  21  34  63  90 123 161 215 267 320 390
#     4   9  18  35  56  93 124 159 207 270 322 381
#     4  10  24  44  60  92 140 176 214 280 330 400
#
# _framework density 23.801964000000002
#
# number of rings (size 3 to 8) (size 9 to 14) (size 15 to 20)
#    0.000    2.182    0.000    2.727   12.727    0.727 
#    0.000    0.000    4.000    0.000    0.000    0.000 
#    0.000    0.000    0.000    0.000    0.000    0.000 
#
# Total GULP energy -61325.017468 kJ/mol
# GULP energy per Si atom -5575.001588 kJ/mol
# Density = 2.374779 g / cm^3
# Si number density = 23.801964 Si / 1000 Ang^3
#
#
#
# Elastic Constant Matrix: (Units=GPa)
#
#
# Indices 1 2 3 4 5 6 
#
# 1 124.7080 43.1383 23.0761 0.0000 -12.7863 0.0000
# 2 43.1383 162.5932 25.8053 0.0000 -3.7440 0.0000
# 3 23.0761 25.8053 49.7381 0.0000 -1.5995 0.0000
# 4 0.0000 0.0000 0.0000 -9.7576 0.0000 -70.3854
# 5 -12.7863 -3.7440 -1.5995 0.0000 40.8157 0.0000
# 6 0.0000 0.0000 0.0000 -70.3854 0.0000 -48.3504
#
#
#
# Elastic Compliance Matrix: (Units=1/GPa)
#
#
# Indices 1 2 3 4 5 6 
#
# 1 0.009590 -0.001950 -0.003351 0.000000 0.002694 0.000000
# 2 -0.001950 0.007108 -0.002785 0.000000 -0.000068 0.000000
# 3 -0.003351 -0.002785 0.023092 0.000000 -0.000400 0.000000
# 4 0.000000 0.000000 0.000000 0.010787 0.000000 -0.015703
# 5 0.002694 -0.000068 -0.000400 0.000000 0.025322 0.000000
# 6 0.000000 0.000000 0.000000 -0.015703 0.000000 0.002177
#
#
# Mechanical properties :
#
#
# Convention : Reuss Voigt Hill
#
# Bulk Modulus (GPa) = 42.34160 57.89762 50.11961
# Shear Modulus (GPa) = 48.96156 12.87619 30.91888
#
# Velocity S-wave (km/s) = 4.54038 2.32840 3.60808
# Velocity P-wave (km/s) = 6.73160 5.62193 6.20164
#
# Compressibility (1/GPa) = 0.02361744
#
# Stress axis : x y z
#
# Youngs Moduli (GPa) = 104.27946 140.68111 43.30508
#
# Poissons Ratio (x) = 0.27439 0.14510
# Poissons Ratio (y) = 0.20339 0.12061
# Poissons Ratio (z) = 0.34939 0.39183
#
# Static dielectric constant tensor:
#      x y z
#    x 1.900280 0.000000 -0.036030 
#    y 0.000000 1.918330 0.000000 
#    z -0.036030 0.000000 2.003590 
# 
# From -- ./inp_files/4265.got.cif
#   From: 2010.05.17/outbox.cif.g08.bks.cpg/sg3_3_cif.got.tgz:4265.got - 2010.06.03 18:33:08.
