data_PCOD9112689
_publ_section_title
;
Structure prediction by ZEFSAII (Michael W. Deem and Ramdas Pophale) SiO2 
 PCOD9112689
Probable space group: P 2
;
_chemical_formula_sum "Si O2"
_cell_formula_units_Z 15
_cell_length_a 12.613907
_cell_length_b 7.893667
_cell_length_c 8.163295
_cell_angle_alpha 90.000000
_cell_angle_beta 56.941747
_cell_angle_gamma 90.000000
_cell_volume 681.237041
_symmetry_space_group_name_H-M "P 2"
_symmetry_group_IT_number 3
_symmetry_cell_setting 'monoclinic'
loop_
_space_group_symop_operation_xyz
x,y,z
-x,y,-z
loop_
_atom_site_type_symbol
_atom_site_label
_atom_site_fract_x
_atom_site_fract_y
_atom_site_fract_z
Si Si1 0.175461 0.118870 0.318332
Si Si2 0.874453 0.443980 0.793389
Si Si3 0.077123 0.813009 0.199089
Si Si4 0.000000 0.253515 0.000000
Si Si5 0.427326 0.128322 0.899395
Si Si6 0.423981 0.507705 0.895985
Si Si7 0.344320 0.822344 0.773341
Si Si8 0.825536 0.981221 0.322320
O O1 0.120440 0.306589 0.354631
O O2 0.205947 0.062217 0.475204
O O3 0.094156 0.970338 0.306286
O O4 0.287745 0.136158 0.093005
O O5 0.930919 0.628336 0.717282
O O6 0.942061 0.362413 0.898070
O O7 0.724898 0.482698 0.943280
O O8 0.206076 0.813735 0.982176
O O9 0.944136 0.853202 0.227635
O O10 0.115934 0.133678 0.838846
O O11 0.470211 0.317087 0.810926
O O12 0.422955 0.983480 0.770002
O O13 0.500000 0.071763 0.000000
O O14 0.421314 0.654260 0.760240
O O15 0.500000 0.554664 0.000000
O O16 0.295170 0.875594 0.636975
#
# Coordination Sequence:
#
# PCOD9112689 Si02
#       8
#     2   2   2   1   2   2   2   2
#     4  10  21  40  55  84 120 150 192 240 290 353
#     4  10  22  37  59  84 114 158 202 233 300 353
#     4  10  20  37  55  78 117 155 196 229 288 356
#     4  12  22  36  60  84 118 164 196 244 290 356
#     4   9  18  37  62  83 109 149 196 243 291 345
#     4   9  18  33  58  87 112 144 198 251 285 340
#     4  10  19  33  56  85 112 150 195 237 292 346
#     4  12  21  37  56  81 126 155 187 248 289 349
#
# _framework density 22.018765999999999
#
# number of rings (size 3 to 8) (size 9 to 14) (size 15 to 20)
#    0.000    1.867    2.667    2.400    3.733    0.000 
#    4.800    0.667    0.000    0.000    0.000   28.000 
#    0.000    0.000    0.000    0.000    0.000    0.000 
#
# Total GULP energy -83587.937778 kJ/mol
# GULP energy per Si atom -5572.529185 kJ/mol
# Density = 2.196865 g / cm^3
# Si number density = 22.018766 Si / 1000 Ang^3
#
#
#
# Elastic Constant Matrix: (Units=GPa)
#
#
# Indices 1 2 3 4 5 6 
#
# 1 124.4123 59.7188 -5.5022 0.0000 25.5075 0.0000
# 2 59.7188 139.8655 2.0104 0.0000 17.8061 0.0000
# 3 -5.5022 2.0104 26.3561 0.0000 2.9770 0.0000
# 4 0.0000 0.0000 0.0000 -46.8861 0.0000 -21.9604
# 5 25.5075 17.8061 2.9770 0.0000 26.0106 0.0000
# 6 0.0000 0.0000 0.0000 -21.9604 0.0000 10.2370
#
#
#
# Elastic Compliance Matrix: (Units=1/GPa)
#
#
# Indices 1 2 3 4 5 6 
#
# 1 0.012093 -0.004002 0.003910 0.000000 -0.009567 0.000000
# 2 -0.004002 0.009156 -0.001286 0.000000 -0.002197 0.000000
# 3 0.003910 -0.001286 0.039703 0.000000 -0.007499 0.000000
# 4 0.000000 0.000000 0.000000 -0.010639 0.000000 -0.022822
# 5 -0.009567 -0.002197 -0.007499 0.000000 0.050190 0.000000
# 6 0.000000 0.000000 0.000000 -0.022822 0.000000 0.048726
#
#
# Mechanical properties :
#
#
# Convention : Reuss Voigt Hill
#
# Bulk Modulus (GPa) = 17.18238 44.78756 30.98497
# Shear Modulus (GPa) = 29.17424 13.49943 21.33683
#
# Velocity S-wave (km/s) = 3.64396 2.47875 3.11630
# Velocity P-wave (km/s) = 5.05224 5.34575 5.20106
#
# Compressibility (1/GPa) = 0.05819914
#
# Stress axis : x y z
#
# Youngs Moduli (GPa) = 82.69207 109.21233 25.18684
#
# Poissons Ratio (x) = 0.43703 -0.09849
# Poissons Ratio (y) = 0.33090 0.03238
# Poissons Ratio (z) = -0.32336 0.14041
#
# Static dielectric constant tensor:
#      x y z
#    x 1.865160 0.000000 0.022490 
#    y 0.000000 1.835760 0.000000 
#    z 0.022490 0.000000 1.800790 
# 
# From -- ./inp_files/7133.got.cif
#   From: 2010.05.17/outbox.cif.g08.bks.cpg/sg3_4_cif.got.tgz:7133.got - 2010.06.03 18:33:08.
