data_PCOD9112661
_publ_section_title
;
Structure prediction by ZEFSAII (Michael W. Deem and Ramdas Pophale) SiO2 
 PCOD9112661
Probable space group: P 2
;
_chemical_formula_sum "Si O2"
_cell_formula_units_Z 12
_cell_length_a 14.192136
_cell_length_b 8.313364
_cell_length_c 13.860055
_cell_angle_alpha 90.000000
_cell_angle_beta 159.116059
_cell_angle_gamma 90.000000
_cell_volume 582.934805
_symmetry_space_group_name_H-M "P 2"
_symmetry_group_IT_number 3
_symmetry_cell_setting 'monoclinic'
loop_
_space_group_symop_operation_xyz
x,y,z
-x,y,-z
loop_
_atom_site_type_symbol
_atom_site_label
_atom_site_fract_x
_atom_site_fract_y
_atom_site_fract_z
Si Si1 0.259231 0.482420 0.196429
Si Si2 0.455511 0.162581 0.343984
Si Si3 0.728075 0.583384 0.996673
Si Si4 0.439736 0.939307 0.152020
Si Si5 0.975039 0.068111 0.588248
Si Si6 0.759778 0.373619 0.478062
O O1 0.500000 0.479082 0.500000
O O2 0.225067 0.297780 0.127323
O O3 0.321057 0.590326 0.164993
O O4 0.000000 0.540086 0.000000
O O5 0.500000 0.122329 0.500000
O O6 0.406866 0.009210 0.229452
O O7 0.674601 0.268511 0.492309
O O8 0.503032 0.458405 0.813796
O O9 0.670109 0.762255 0.974962
O O10 0.017573 0.507748 0.288122
O O11 0.746825 0.956877 0.417677
O O12 0.254730 0.051084 0.909011
O O13 0.873107 0.247409 0.510885
O O14 0.000000 0.031710 0.500000
#
# Coordination Sequence:
#
# PCOD9112661 Si02
#       6
#     2   2   2   2   2   2
#     4  10  19  32  53  79 112 160 205 237 276 334
#     4   9  19  36  60  87 120 161 205 239 281 347
#     4  11  21  38  57  86 124 152 188 248 299 345
#     4  11  24  39  62  92 125 156 190 245 307 354
#     4  11  23  44  66  87 114 155 202 247 296 358
#     4  10  21  39  64  85 114 158 203 242 287 346
#
# _framework density 20.585491999999999
#
# number of rings (size 3 to 8) (size 9 to 14) (size 15 to 20)
#    0.000    1.667    0.000    7.500    0.000    3.333 
#    0.000    7.500    0.000    0.000    0.000    0.000 
#    0.000    0.000    0.000    0.000    0.000    0.000 
#
# Total GULP energy -66925.364132 kJ/mol
# GULP energy per Si atom -5577.113678 kJ/mol
# Density = 2.053864 g / cm^3
# Si number density = 20.585492 Si / 1000 Ang^3
#
#
#
# Elastic Constant Matrix: (Units=GPa)
#
#
# Indices 1 2 3 4 5 6 
#
# 1 57.5438 0.8242 -7.4668 0.0000 -8.2079 0.0000
# 2 0.8242 69.0781 0.6771 0.0000 5.5846 0.0000
# 3 -7.4668 0.6771 66.5873 0.0000 5.7594 0.0000
# 4 0.0000 0.0000 0.0000 27.6838 0.0000 1.3869
# 5 -8.2079 5.5846 5.7594 0.0000 18.5507 0.0000
# 6 0.0000 0.0000 0.0000 1.3869 0.0000 5.0504
#
#
#
# Elastic Compliance Matrix: (Units=1/GPa)
#
#
# Indices 1 2 3 4 5 6 
#
# 1 0.018732 -0.000894 0.001407 0.000000 0.008120 0.000000
# 2 -0.000894 0.014884 0.000175 0.000000 -0.004931 0.000000
# 3 0.001407 0.000175 0.015542 0.000000 -0.004255 0.000000
# 4 0.000000 0.000000 0.000000 0.036626 0.000000 -0.010058
# 5 0.008120 -0.004931 -0.004255 0.000000 0.060305 0.000000
# 6 0.000000 0.000000 0.000000 -0.010058 0.000000 0.200764
#
#
# Mechanical properties :
#
#
# Convention : Reuss Voigt Hill
#
# Bulk Modulus (GPa) = 19.78855 20.14203 19.96529
# Shear Modulus (GPa) = 13.79993 23.53530 18.66761
#
# Velocity S-wave (km/s) = 2.59196 3.38493 3.01463
# Velocity P-wave (km/s) = 4.31178 5.00828 4.67302
#
# Compressibility (1/GPa) = 0.05053428
#
# Stress axis : x y z
#
# Youngs Moduli (GPa) = 53.38537 67.18657 64.34202
#
# Poissons Ratio (x) = 0.06005 -0.09054
# Poissons Ratio (y) = 0.04771 -0.01125
# Poissons Ratio (z) = -0.07513 -0.01175
#
# Static dielectric constant tensor:
#      x y z
#    x 1.744770 0.000000 0.008850 
#    y 0.000000 1.772040 0.000000 
#    z 0.008850 0.000000 1.727980 
# 
# From -- ./inp_files/3918.got.cif
#   From: 2010.05.17/outbox.cif.g08.bks.cpg/sg3_2_cif.got.tgz:3918.got - 2010.06.03 18:33:08.
