data_PCOD9112488
_publ_section_title
;
Structure prediction by ZEFSAII (Michael W. Deem and Ramdas Pophale) SiO2 
 PCOD9112488
Probable space group: P 2
;
_chemical_formula_sum "Si O2"
_cell_formula_units_Z 16
_cell_length_a 5.374920
_cell_length_b 7.240893
_cell_length_c 18.821135
_cell_angle_alpha 90.000000
_cell_angle_beta 115.284902
_cell_angle_gamma 90.000000
_cell_volume 662.326465
_symmetry_space_group_name_H-M "P 2"
_symmetry_group_IT_number 3
_symmetry_cell_setting 'monoclinic'
loop_
_space_group_symop_operation_xyz
x,y,z
-x,y,-z
loop_
_atom_site_type_symbol
_atom_site_label
_atom_site_fract_x
_atom_site_fract_y
_atom_site_fract_z
Si Si1 0.129943 0.003750 0.297954
Si Si2 0.207904 0.575958 0.287150
Si Si3 0.686386 0.079276 0.954114
Si Si4 0.678531 0.525468 0.955264
Si Si5 0.398364 0.583780 0.774111
Si Si6 0.780184 0.043003 0.523911
Si Si7 0.683324 0.628371 0.457449
Si Si8 0.539361 0.011092 0.229542
O O1 0.142756 0.997609 0.385619
O O2 0.374797 0.084721 0.278821
O O3 0.837197 0.097258 0.250116
O O4 0.130316 0.792637 0.270663
O O5 0.335006 0.493409 0.231213
O O6 0.483100 0.575027 0.369052
O O7 0.908879 0.502811 0.274949
O O8 0.679837 0.302417 0.953318
O O9 0.606193 0.020870 0.864302
O O10 0.500000 0.022665 0.000000
O O11 0.000000 0.017583 0.000000
O O12 0.495293 0.588819 0.866575
O O13 0.500000 0.587253 0.000000
O O14 0.000000 0.582603 0.000000
O O15 0.396219 0.795392 0.746243
O O16 0.500000 0.152635 0.500000
O O17 0.000000 0.136883 0.500000
O O18 0.708882 0.853152 0.471398
O O19 0.500000 0.565652 0.500000
O O20 0.000000 0.566584 0.500000
#
# Coordination Sequence:
#
# PCOD9112488 Si02
#       8
#     2   2   2   2   2   2   2   2
#     4  10  18  30  43  69 108 142 167 203 263 306
#     4  10  18  30  43  69 108 142 167 203 263 306
#     4  10  21  38  58  77  99 132 178 222 257 307
#     4  10  21  38  58  77  99 132 178 222 257 307
#     4  10  21  32  50  75 107 140 162 213 262 319
#     4  10  17  24  41  63  95 144 171 204 238 304
#     4  10  17  24  41  63  95 144 171 204 238 304
#     4  10  21  32  50  75 107 140 162 213 262 319
#
# _framework density 24.157271000000001
#
# number of rings (size 3 to 8) (size 9 to 14) (size 15 to 20)
#    0.000    2.000    2.500    3.000    7.000    1.000 
#    0.000    0.000    0.000    0.000    0.000    0.000 
#    0.000   15.000    0.000    0.000    0.000    0.000 
#
# Total GULP energy -89145.320198 kJ/mol
# GULP energy per Si atom -5571.582512 kJ/mol
# Density = 2.410229 g / cm^3
# Si number density = 24.157271 Si / 1000 Ang^3
#
#
#
# Elastic Constant Matrix: (Units=GPa)
#
#
# Indices 1 2 3 4 5 6 
#
# 1 282.2747 3.7120 69.4500 0.0000 1.0656 0.0000
# 2 3.7120 86.1249 -20.5939 0.0000 1.2694 0.0000
# 3 69.4500 -20.5939 118.9803 0.0000 -1.2820 0.0000
# 4 0.0000 0.0000 0.0000 28.3887 0.0000 18.3845
# 5 1.0656 1.2694 -1.2820 0.0000 53.9518 0.0000
# 6 0.0000 0.0000 0.0000 18.3845 0.0000 -50.8578
#
#
#
# Elastic Compliance Matrix: (Units=1/GPa)
#
#
# Indices 1 2 3 4 5 6 
#
# 1 0.004190 -0.000797 -0.002585 0.000000 -0.000125 0.000000
# 2 -0.000797 0.012267 0.002586 0.000000 -0.000211 0.000000
# 3 -0.002585 0.002586 0.010364 0.000000 0.000236 0.000000
# 4 0.000000 0.000000 0.000000 0.028543 0.000000 0.010318
# 5 -0.000125 -0.000211 0.000236 0.000000 0.018548 0.000000
# 6 0.000000 0.000000 0.000000 0.010318 0.000000 -0.015933
#
#
# Mechanical properties :
#
#
# Convention : Reuss Voigt Hill
#
# Bulk Modulus (GPa) = 39.63678 65.83514 52.73596
# Shear Modulus (GPa) = 73.55176 35.28399 54.41788
#
# Velocity S-wave (km/s) = 5.52387 3.82592 4.75136
# Velocity P-wave (km/s) = 7.55828 6.84315 7.20959
#
# Compressibility (1/GPa) = 0.02522909
#
# Stress axis : x y z
#
# Youngs Moduli (GPa) = 238.68958 81.52040 96.49112
#
# Poissons Ratio (x) = 0.06495 0.24940
# Poissons Ratio (y) = 0.19018 -0.24953
# Poissons Ratio (z) = 0.61695 -0.21081
#
# Static dielectric constant tensor:
#      x y z
#    x 2.065770 0.000000 -0.106790 
#    y 0.000000 1.969930 0.000000 
#    z -0.106790 0.000000 2.086060 
# 
# From -- ./inp_files/14700.got.cif
#   From: 2010.05.17/outbox.cif.g08.bks.cpg/sg3_8_cif.got.tgz:14700.got - 2010.06.03 18:33:08.
