data_PCOD9112046
_publ_section_title
;
Structure prediction by ZEFSAII (Michael W. Deem and Ramdas Pophale) SiO2 
 PCOD9112046
Probable space group: P -1
;
_chemical_formula_sum "Si O2"
_cell_formula_units_Z 16
_cell_length_a 9.591635
_cell_length_b 12.587249
_cell_length_c 16.013454
_cell_angle_alpha 24.332311
_cell_angle_beta 83.048946
_cell_angle_gamma 72.620629
_cell_volume 701.822759
_symmetry_space_group_name_H-M "P -1"
_symmetry_group_IT_number 2
_symmetry_cell_setting 'triclinic'
loop_
_space_group_symop_operation_xyz
x,y,z
-x,-y,-z
loop_
_atom_site_type_symbol
_atom_site_label
_atom_site_fract_x
_atom_site_fract_y
_atom_site_fract_z
Si Si1 0.647106 0.189860 0.222151
Si Si2 0.413587 0.808051 0.117048
Si Si3 0.322677 0.749011 0.338872
Si Si4 0.721926 0.785198 0.656304
Si Si5 0.252121 0.832577 0.938252
Si Si6 0.039454 0.666850 0.446874
Si Si7 0.696598 0.144789 0.557540
Si Si8 0.026657 0.158249 0.498923
O O1 0.626436 0.009461 0.428351
O O2 0.675094 0.058473 0.220955
O O3 0.822142 0.152181 0.263809
O O4 0.500000 0.500000 0.000000
O O5 0.296221 0.859237 0.167389
O O6 0.549714 0.472160 0.333377
O O7 0.313746 0.883854 0.984681
O O8 0.500000 0.000000 0.000000
O O9 0.500000 0.500000 0.500000
O O10 0.219117 0.591767 0.483333
O O11 0.295375 0.952028 0.276474
O O12 0.902494 0.734722 0.658345
O O13 0.679283 0.931000 0.645568
O O14 0.704319 0.499036 0.845895
O O15 0.064951 0.003512 0.812868
O O16 0.000000 0.500000 0.500000
O O17 0.991765 0.641484 0.562368
O O18 0.859910 0.153079 0.512338
#
# Coordination Sequence:
#
# PCOD9112046 Si02
#       8
#     2   2   2   2   2   2   2   2
#     4   9  20  40  63  95 133 170 216 271 333 393
#     4  11  26  42  63 100 131 174 231 279 336 403
#     4   9  22  43  65  98 131 177 230 273 337 395
#     4  10  22  42  70  99 131 173 220 273 335 407
#     4  11  25  43  65 102 132 169 233 277 340 404
#     4  10  22  41  71  94 137 181 221 283 338 397
#     4  10  20  44  68  91 138 175 215 275 338 399
#     4   8  20  38  65  97 130 175 216 271 338 397
#
# _framework density 22.797777
#
# number of rings (size 3 to 8) (size 9 to 14) (size 15 to 20)
#    0.750    1.500    0.000    1.125    7.000    3.500 
#    6.750    5.625    0.000    0.000    0.000    0.000 
#    0.000    0.000    0.000    0.000    0.000    0.000 
#
# Total GULP energy -89117.493722 kJ/mol
# GULP energy per Si atom -5569.843358 kJ/mol
# Density = 2.274589 g / cm^3
# Si number density = 22.797777 Si / 1000 Ang^3
#
#
#
# Elastic Constant Matrix: (Units=GPa)
#
#
# Indices 1 2 3 4 5 6 
#
# 1 70.4224 45.8235 0.4145 -1.8645 11.4111 -7.0081
# 2 45.8235 195.3486 32.7623 23.8075 -19.5383 20.3321
# 3 0.4145 32.7623 56.9842 -3.2291 1.3096 3.7430
# 4 -1.8645 23.8075 -3.2291 37.1981 2.4597 2.8213
# 5 11.4111 -19.5383 1.3096 2.4597 21.1926 -4.9028
# 6 -7.0081 20.3321 3.7430 2.8213 -4.9028 44.7285
#
#
#
# Elastic Compliance Matrix: (Units=1/GPa)
#
#
# Indices 1 2 3 4 5 6 
#
# 1 0.027347 -0.012337 0.007775 0.011274 -0.026588 0.005616
# 2 -0.012337 0.013088 -0.008197 -0.010658 0.019436 -0.004394
# 3 0.007775 -0.008197 0.022942 0.008475 -0.013922 0.000964
# 4 0.011274 -0.010658 0.008475 0.036243 -0.020305 0.001390
# 5 -0.026588 0.019436 -0.013922 -0.020305 0.082283 -0.001536
# 6 0.005616 -0.004394 0.000964 0.001390 -0.001536 0.024898
#
#
# Mechanical properties :
#
#
# Convention : Reuss Voigt Hill
#
# Bulk Modulus (GPa) = 26.41351 53.41732 39.91541
# Shear Modulus (GPa) = 20.41333 36.87417 28.64375
#
# Velocity S-wave (km/s) = 2.99558 4.02611 3.54846
# Velocity P-wave (km/s) = 4.85550 6.71525 5.85963
#
# Compressibility (1/GPa) = 0.03785942
#
# Stress axis : x y z
#
# Youngs Moduli (GPa) = 36.56654 76.40687 43.58845
#
# Poissons Ratio (x) = 0.94261 -0.33890
# Poissons Ratio (y) = 0.45111 0.35730
# Poissons Ratio (z) = -0.28430 0.62631
#
# Static dielectric constant tensor:
#      x y z
#    x 1.839340 -0.012220 0.034890 
#    y -0.012220 1.885840 0.015840 
#    z 0.034890 0.015840 1.932050 
# 
# From -- ./inp_files/499681.got.cif
#   From: 2010.05.17/outbox.cif.g08.bks.cpg/sg2_250_cif.got.tgz:499681.got - 2010.06.03 11:33:40.
