data_PCOD9112464
_publ_section_title
;
Structure prediction by ZEFSAII (Michael W. Deem and Ramdas Pophale) SiO2 
 PCOD9112464
Probable space group: P 2
;
_chemical_formula_sum "Si O2"
_cell_formula_units_Z 16
_cell_length_a 15.261088
_cell_length_b 5.581676
_cell_length_c 7.090090
_cell_angle_alpha 90.000000
_cell_angle_beta 114.285171
_cell_angle_gamma 90.000000
_cell_volume 550.507433
_symmetry_space_group_name_H-M "P 2"
_symmetry_group_IT_number 3
_symmetry_cell_setting 'monoclinic'
loop_
_space_group_symop_operation_xyz
x,y,z
-x,y,-z
loop_
_atom_site_type_symbol
_atom_site_label
_atom_site_fract_x
_atom_site_fract_y
_atom_site_fract_z
Si Si1 0.065656 0.294500 0.242175
Si Si2 0.602815 0.794500 0.852949
Si Si3 0.178405 0.794500 0.010408
Si Si4 0.101355 0.794500 0.362760
Si Si5 0.723960 0.294500 0.501382
Si Si6 0.441200 0.294500 0.143712
Si Si7 0.789757 0.294500 0.134739
Si Si8 0.676940 0.794500 0.357011
O O1 0.051197 0.540484 0.343896
O O2 0.051197 0.048516 0.343896
O O3 0.181240 0.294500 0.284143
O O4 0.000000 0.294500 0.000000
O O5 0.706811 0.794500 0.849838
O O6 0.544903 0.555389 0.757693
O O7 0.544903 0.033611 0.757693
O O8 0.628276 0.794500 0.105301
O O9 0.121626 0.794500 0.154437
O O10 0.163969 0.543224 0.890714
O O11 0.163969 0.045777 0.890714
O O12 0.205715 0.794500 0.552350
O O13 0.776547 0.294501 0.345927
O O14 0.663452 0.538267 0.447276
O O15 0.663452 0.050733 0.447276
O O16 0.676125 0.294500 0.976697
O O17 0.500000 0.294500 0.000000
#
# Coordination Sequence:
#
# PCOD9112464 Si02
#       8
#     2   2   2   2   2   2   2   2
#     4  10  21  35  53  73 102 130 158 202 250 294
#     4  10  17  30  48  70  99 127 163 200 250 278
#     4  10  18  30  49  75 100 126 157 212 240 285
#     4  10  21  32  53  78  98 124 168 204 243 289
#     4  10  16  30  51  72  91 124 169 198 238 283
#     4  10  18  27  44  74 103 126 159 202 243 286
#     4  10  17  30  50  71  98 129 162 201 248 283
#     4  10  16  30  48  75  92 120 167 209 235 274
#
# _framework density 29.064093
#
# number of rings (size 3 to 8) (size 9 to 14) (size 15 to 20)
#    0.000    2.000    5.000    1.500    0.000    0.000 
#    0.000    0.000    0.000    4.500    0.000   21.000 
#    0.000    0.000    0.000    0.000    0.000    0.000 
#
# Total GULP energy -89616.501655 kJ/mol
# GULP energy per Si atom -5601.031353 kJ/mol
# Density = 2.899794 g / cm^3
# Si number density = 29.064093 Si / 1000 Ang^3
#
#
#
# Elastic Constant Matrix: (Units=GPa)
#
#
# Indices 1 2 3 4 5 6 
#
# 1 136.7319 38.0967 32.0190 0.0000 22.7337 0.0000
# 2 38.0967 364.2448 47.5084 0.0000 -0.0761 0.0000
# 3 32.0190 47.5084 120.9593 0.0000 29.4227 0.0000
# 4 0.0000 0.0000 0.0000 57.8824 0.0000 -30.1302
# 5 22.7337 -0.0761 29.4227 0.0000 55.8564 0.0000
# 6 0.0000 0.0000 0.0000 -30.1302 0.0000 -6.1086
#
#
#
# Elastic Compliance Matrix: (Units=1/GPa)
#
#
# Indices 1 2 3 4 5 6 
#
# 1 0.008251 -0.000700 -0.001252 0.000000 -0.002699 0.000000
# 2 -0.000700 0.002977 -0.001209 0.000000 0.000926 0.000000
# 3 -0.001252 -0.001209 0.010265 0.000000 -0.004899 0.000000
# 4 0.000000 0.000000 0.000000 0.004843 0.000000 -0.023886
# 5 -0.002699 0.000926 -0.004899 0.000000 0.021584 0.000000
# 6 0.000000 0.000000 0.000000 -0.023886 0.000000 -0.045887
#
#
# Mechanical properties :
#
#
# Convention : Reuss Voigt Hill
#
# Bulk Modulus (GPa) = 65.92189 95.24271 80.58230
# Shear Modulus (GPa) = 372.81750 55.14684 213.98217
#
# Velocity S-wave (km/s) = 11.33811 4.36067 8.58977
# Velocity P-wave (km/s) = 13.93321 7.62856 11.23230
#
# Compressibility (1/GPa) = 0.01516947
#
# Stress axis : x y z
#
# Youngs Moduli (GPa) = 121.20110 335.96384 97.41546
#
# Poissons Ratio (x) = 0.23523 0.12201
# Poissons Ratio (y) = 0.08486 0.11777
# Poissons Ratio (z) = 0.15180 0.40616
#
# Static dielectric constant tensor:
#      x y z
#    x 2.201040 0.000000 0.019490 
#    y 0.000000 2.380950 0.000000 
#    z 0.019490 0.000000 2.266630 
# 
# From -- ./inp_files/8925.got.cif
#   From: 2010.05.17/outbox.cif.g08.bks.cpg/sg3_5_cif.got.tgz:8925.got - 2010.06.03 18:33:08.
