data_PCOD9112282
_publ_section_title
;
Structure prediction by ZEFSAII (Michael W. Deem and Ramdas Pophale) SiO2 
 PCOD9112282
Probable space group: P -1
;
_chemical_formula_sum "Si O2"
_cell_formula_units_Z 12
_cell_length_a 9.531176
_cell_length_b 9.230362
_cell_length_c 13.852233
_cell_angle_alpha 50.121313
_cell_angle_beta 37.197128
_cell_angle_gamma 67.790188
_cell_volume 541.758597
_symmetry_space_group_name_H-M "P -1"
_symmetry_group_IT_number 2
_symmetry_cell_setting 'triclinic'
loop_
_space_group_symop_operation_xyz
x,y,z
-x,-y,-z
loop_
_atom_site_type_symbol
_atom_site_label
_atom_site_fract_x
_atom_site_fract_y
_atom_site_fract_z
Si Si1 0.962214 0.926398 0.741859
Si Si2 0.883931 0.296012 0.703562
Si Si3 0.501574 0.969056 0.665783
Si Si4 0.839891 0.787745 0.221905
Si Si5 0.004726 0.678645 0.991486
Si Si6 0.432418 0.284418 0.082200
O O1 0.833493 0.781470 0.789617
O O2 0.894440 0.820440 0.926719
O O3 0.875461 0.120729 0.708861
O O4 0.250330 0.987166 0.546922
O O5 0.045266 0.266348 0.719975
O O6 0.000000 0.500000 0.500000
O O7 0.622741 0.287243 0.892057
O O8 0.281992 0.799029 0.811667
O O9 0.544846 0.876757 0.783518
O O10 0.411469 0.163809 0.641844
O O11 0.861909 0.639661 0.187621
O O12 0.000000 0.000000 0.000000
O O13 0.000000 0.500000 0.000000
O O14 0.500000 0.500000 0.000000
#
# Coordination Sequence:
#
# PCOD9112282 Si02
#       6
#     2   2   2   2   2   2
#     4  12  25  43  72 105 141 190 236 292 356 421
#     4  12  25  45  74 104 142 187 241 291 355 423
#     4  11  22  45  72  99 144 187 236 286 355 423
#     4  10  20  45  74  96 140 191 228 294 355 410
#     4  11  22  42  72 101 140 186 237 288 353 418
#     4  12  25  46  70 100 147 187 235 297 357 421
#
# _framework density 22.150086999999999
#
# number of rings (size 3 to 8) (size 9 to 14) (size 15 to 20)
#    0.000    0.667    6.667    3.500    0.000    0.000 
#    0.000    2.500    0.000    0.000    0.000    0.000 
#    0.000    0.000    0.000    0.000    0.000    0.000 
#
# Total GULP energy -67133.799791 kJ/mol
# GULP energy per Si atom -5594.483316 kJ/mol
# Density = 2.209967 g / cm^3
# Si number density = 22.150087 Si / 1000 Ang^3
#
#
#
# Elastic Constant Matrix: (Units=GPa)
#
#
# Indices 1 2 3 4 5 6 
#
# 1 103.9040 12.6996 15.6149 -14.4394 5.5109 13.3201
# 2 12.6996 135.5967 27.9720 16.3648 -15.3129 17.7386
# 3 15.6149 27.9720 56.7410 10.7833 8.9723 -2.0324
# 4 -14.4394 16.3648 10.7833 31.4827 -13.9746 0.5115
# 5 5.5109 -15.3129 8.9723 -13.9746 38.2169 -2.5878
# 6 13.3201 17.7386 -2.0324 0.5115 -2.5878 39.3590
#
#
#
# Elastic Compliance Matrix: (Units=1/GPa)
#
#
# Indices 1 2 3 4 5 6 
#
# 1 0.012066 -0.000260 -0.005326 0.008561 0.002252 -0.004204
# 2 -0.000260 0.009708 -0.005311 -0.001323 0.004403 -0.004255
# 3 -0.005326 -0.005311 0.026618 -0.014455 -0.012561 0.004933
# 4 0.008561 -0.001323 -0.014455 0.050160 0.019808 -0.002397
# 5 0.002252 0.004403 -0.012561 0.019808 0.037719 -0.001172
# 6 -0.004204 -0.004255 0.004933 -0.002397 -0.001172 0.028956
#
#
# Mechanical properties :
#
#
# Convention : Reuss Voigt Hill
#
# Bulk Modulus (GPa) = 37.59855 45.42388 41.51121
# Shear Modulus (GPa) = 25.52475 37.80874 31.66674
#
# Velocity S-wave (km/s) = 3.39832 4.13599 3.78517
# Velocity P-wave (km/s) = 5.69292 6.58486 6.15507
#
# Compressibility (1/GPa) = 0.02659677
#
# Stress axis : x y z
#
# Youngs Moduli (GPa) = 82.87922 103.00365 37.56862
#
# Poissons Ratio (x) = 0.02681 0.20009
# Poissons Ratio (y) = 0.02157 0.19955
# Poissons Ratio (z) = 0.44140 0.54710
#
# Static dielectric constant tensor:
#      x y z
#    x 1.822500 0.005090 0.002160 
#    y 0.005090 1.863120 0.003570 
#    z 0.002160 0.003570 1.832310 
# 
# From -- ./inp_files/156101.got.cif
#   From: 2010.05.17/outbox.cif.g08.bks.cpg/sg2_79_cif.got.tgz:156101.got - 2010.06.03 11:33:40.
