data_PCOD9112943
_publ_section_title
;
Structure prediction by ZEFSAII (Michael W. Deem and Ramdas Pophale) SiO2 
 PCOD9112943
Probable space group: P 2
;
_chemical_formula_sum "Si O2"
_cell_formula_units_Z 15
_cell_length_a 8.818327
_cell_length_b 10.287143
_cell_length_c 9.450514
_cell_angle_alpha 90.000000
_cell_angle_beta 46.078407
_cell_angle_gamma 90.000000
_cell_volume 617.509487
_symmetry_space_group_name_H-M "P 2"
_symmetry_group_IT_number 3
_symmetry_cell_setting 'monoclinic'
loop_
_space_group_symop_operation_xyz
x,y,z
-x,y,-z
loop_
_atom_site_type_symbol
_atom_site_label
_atom_site_fract_x
_atom_site_fract_y
_atom_site_fract_z
Si Si1 0.500000 0.879150 0.500000
Si Si2 0.420413 0.469860 0.256081
Si Si3 0.785117 0.591851 0.845241
Si Si4 0.054267 0.207467 0.109238
Si Si5 0.857570 0.016551 0.455782
Si Si6 0.798787 0.476704 0.317381
Si Si7 0.462479 0.194688 0.176809
Si Si8 0.229033 0.720803 0.878038
O O1 0.415806 0.794514 0.684278
O O2 0.717437 0.940022 0.426710
O O3 0.290206 0.585176 0.265548
O O4 0.388807 0.462383 0.445142
O O5 0.337762 0.331221 0.253574
O O6 0.640735 0.492463 0.031758
O O7 0.021563 0.547512 0.706543
O O8 0.750580 0.716145 0.965647
O O9 0.005818 0.117663 0.274686
O O10 0.904406 0.336835 0.212137
O O11 0.302621 0.232075 0.927860
O O12 0.000000 0.133743 0.000000
O O13 0.666980 0.098750 0.645588
O O14 0.000000 0.964332 0.500000
O O15 0.776996 0.578908 0.200652
O O16 0.500000 0.136490 0.000000
O O17 0.000000 0.778252 0.000000
#
# Coordination Sequence:
#
# PCOD9112943 Si02
#       8
#     1   2   2   2   2   2   2   2
#     4  12  28  56  76 104 144 200 278 338 360 424
#     4  11  20  32  61  99 149 183 217 281 356 460
#     4  10  20  36  59  98 130 185 226 275 372 449
#     4  12  24  41  68 111 159 192 241 306 386 478
#     4  12  28  50  79 109 148 204 264 314 390 452
#     4  11  21  37  65 102 143 185 226 291 381 461
#     4  12  22  40  68 105 151 193 228 301 374 452
#     4  10  24  47  72  96 141 192 247 317 375 436
#
# _framework density 24.291124
#
# number of rings (size 3 to 8) (size 9 to 14) (size 15 to 20)
#    0.000    0.800    5.333    3.200    0.000    1.600 
#    0.000    8.000    0.000    0.000    0.000    0.000 
#    0.000    0.000    0.000    0.000    0.000    0.000 
#
# Total GULP energy -83526.748872 kJ/mol
# GULP energy per Si atom -5568.449925 kJ/mol
# Density = 2.423584 g / cm^3
# Si number density = 24.291124 Si / 1000 Ang^3
#
#
#
# Elastic Constant Matrix: (Units=GPa)
#
#
# Indices 1 2 3 4 5 6 
#
# 1 98.8651 20.0186 17.2450 0.0000 15.9463 0.0000
# 2 20.0186 26.0861 10.5544 0.0000 -3.4176 0.0000
# 3 17.2450 10.5544 134.7626 0.0000 12.8226 0.0000
# 4 0.0000 0.0000 0.0000 -66.4013 0.0000 -20.3037
# 5 15.9463 -3.4176 12.8226 0.0000 50.4285 0.0000
# 6 0.0000 0.0000 0.0000 -20.3037 0.0000 5.2117
#
#
#
# Elastic Compliance Matrix: (Units=1/GPa)
#
#
# Indices 1 2 3 4 5 6 
#
# 1 0.013074 -0.010493 -0.000400 0.000000 -0.004744 0.000000
# 2 -0.010493 0.048643 -0.003173 0.000000 0.007422 0.000000
# 3 -0.000400 -0.003173 0.007920 0.000000 -0.002102 0.000000
# 4 0.000000 0.000000 0.000000 -0.006873 0.000000 -0.026775
# 5 -0.004744 0.007422 -0.002102 0.000000 0.022368 0.000000
# 6 0.000000 0.000000 0.000000 -0.026775 0.000000 0.087565
#
#
# Mechanical properties :
#
#
# Convention : Reuss Voigt Hill
#
# Bulk Modulus (GPa) = 24.09310 39.48334 31.78822
# Shear Modulus (GPa) = 23.29208 11.97415 17.63312
#
# Velocity S-wave (km/s) = 3.09993 2.22264 2.69719
# Velocity P-wave (km/s) = 4.76998 4.78292 4.77646
#
# Compressibility (1/GPa) = 0.04150566
#
# Stress axis : x y z
#
# Youngs Moduli (GPa) = 76.48554 20.55789 126.25953
#
# Poissons Ratio (x) = 0.21571 0.05049
# Poissons Ratio (y) = 0.80257 0.40063
# Poissons Ratio (z) = 0.03059 0.06523
#
# Static dielectric constant tensor:
#      x y z
#    x 2.292250 0.000000 0.118040 
#    y 0.000000 1.982030 0.000000 
#    z 0.118040 0.000000 1.976450 
# 
# From -- ./inp_files/5962.got.cif
#   From: 2010.05.17/outbox.cif.g08.bks.cpg/sg3_3_cif.got.tgz:5962.got - 2010.06.03 18:33:08.
