data_PCOD9112591
_publ_section_title
;
Structure prediction by ZEFSAII (Michael W. Deem and Ramdas Pophale) SiO2 
 PCOD9112591
Probable space group: P 2
;
_chemical_formula_sum "Si O2"
_cell_formula_units_Z 16
_cell_length_a 10.938633
_cell_length_b 6.991682
_cell_length_c 9.529914
_cell_angle_alpha 90.000000
_cell_angle_beta 85.048416
_cell_angle_gamma 90.000000
_cell_volume 726.122472
_symmetry_space_group_name_H-M "P 2"
_symmetry_group_IT_number 3
_symmetry_cell_setting 'monoclinic'
loop_
_space_group_symop_operation_xyz
x,y,z
-x,y,-z
loop_
_atom_site_type_symbol
_atom_site_label
_atom_site_fract_x
_atom_site_fract_y
_atom_site_fract_z
Si Si1 0.559546 0.978420 0.352104
Si Si2 0.300371 0.822415 0.924494
Si Si3 0.092453 0.083823 0.833670
Si Si4 0.050004 0.526448 0.630755
Si Si5 0.145256 0.212903 0.243052
Si Si6 0.128329 0.521067 0.907054
Si Si7 0.402182 0.136797 0.118510
Si Si8 0.797676 0.161416 0.455320
O O1 0.500000 0.890604 0.500000
O O2 0.621924 0.840733 0.228325
O O3 0.465606 0.094884 0.261984
O O4 0.663498 0.118004 0.407800
O O5 0.248834 0.612928 0.961694
O O6 0.176114 0.939377 0.906935
O O7 0.365761 0.936611 0.043853
O O8 0.140889 0.296572 0.870610
O O9 0.116506 0.055902 0.665010
O O10 0.054211 0.096480 0.149626
O O11 0.107985 0.623552 0.758446
O O12 0.154080 0.379251 0.564251
O O13 0.000000 0.633956 0.500000
O O14 0.937623 0.397235 0.706243
O O15 0.275488 0.247243 0.157961
O O16 0.178560 0.108715 0.386160
O O17 0.000000 0.545574 0.000000
O O18 0.500000 0.226857 0.000000
#
# Coordination Sequence:
#
# PCOD9112591 Si02
#       8
#     2   2   2   2   2   2   2   2
#     4  10  18  35  57  81 109 156 206 243 286 338
#     4  10  23  37  55  84 118 150 193 245 287 347
#     4   9  20  34  59  87 115 147 185 234 302 354
#     4   8  17  34  56  86 118 153 184 244 310 349
#     4   9  15  28  55  81 115 147 181 234 294 345
#     4  10  21  35  55  84 117 152 183 231 298 355
#     4  10  21  32  50  80 119 157 197 242 283 338
#     4   8  14  30  54  83 111 142 186 239 286 340
#
# _framework density 22.034848
#
# number of rings (size 3 to 8) (size 9 to 14) (size 15 to 20)
#    0.000    3.000    1.250    1.125    5.250    0.000 
#    0.000    3.750    0.000   22.500    0.000    0.000 
#    0.000    0.000    0.000    0.000    0.000    0.000 
#
# Total GULP energy -89079.045279 kJ/mol
# GULP energy per Si atom -5567.440330 kJ/mol
# Density = 2.198470 g / cm^3
# Si number density = 22.034848 Si / 1000 Ang^3
#
#
#
# Elastic Constant Matrix: (Units=GPa)
#
#
# Indices 1 2 3 4 5 6 
#
# 1 129.0879 30.2360 25.2143 0.0000 2.2953 0.0000
# 2 30.2360 46.1017 23.9835 0.0000 1.8380 0.0000
# 3 25.2143 23.9835 93.6169 0.0000 -1.6440 0.0000
# 4 0.0000 0.0000 0.0000 11.8727 0.0000 10.5772
# 5 2.2953 1.8380 -1.6440 0.0000 47.4083 0.0000
# 6 0.0000 0.0000 0.0000 10.5772 0.0000 14.3339
#
#
#
# Elastic Compliance Matrix: (Units=1/GPa)
#
#
# Indices 1 2 3 4 5 6 
#
# 1 0.009250 -0.005489 -0.001090 0.000000 -0.000273 0.000000
# 2 -0.005489 0.028351 -0.005803 0.000000 -0.001035 0.000000
# 3 -0.001090 -0.005803 0.012475 0.000000 0.000710 0.000000
# 4 0.000000 0.000000 0.000000 0.245840 0.000000 -0.181408
# 5 -0.000273 -0.001035 0.000710 0.000000 0.021171 0.000000
# 6 0.000000 0.000000 0.000000 -0.181408 0.000000 0.203628
#
#
# Mechanical properties :
#
#
# Convention : Reuss Voigt Hill
#
# Bulk Modulus (GPa) = 39.50678 47.51935 43.51306
# Shear Modulus (GPa) = 9.02663 27.34782 18.18722
#
# Velocity S-wave (km/s) = 2.02618 3.52677 2.87607
# Velocity P-wave (km/s) = 4.84170 6.18033 5.55151
#
# Compressibility (1/GPa) = 0.02531211
#
# Stress axis : x y z
#
# Youngs Moduli (GPa) = 108.10766 35.27190 80.16316
#
# Poissons Ratio (x) = 0.19360 0.08738
# Poissons Ratio (y) = 0.59338 0.46519
# Poissons Ratio (z) = 0.11784 0.20469
#
# Static dielectric constant tensor:
#      x y z
#    x 1.853060 0.000000 -0.038110 
#    y 0.000000 1.830840 0.000000 
#    z -0.038110 0.000000 1.910910 
# 
# From -- ./inp_files/7164.got.cif
#   From: 2010.05.17/outbox.cif.g08.bks.cpg/sg3_4_cif.got.tgz:7164.got - 2010.06.03 18:33:08.
