data_PCOD9112469
_publ_section_title
;
Structure prediction by ZEFSAII (Michael W. Deem and Ramdas Pophale) SiO2 
 PCOD9112469
Probable space group: P 2
;
_chemical_formula_sum "Si O2"
_cell_formula_units_Z 14
_cell_length_a 8.312508
_cell_length_b 8.797721
_cell_length_c 7.884111
_cell_angle_alpha 90.000000
_cell_angle_beta 100.792700
_cell_angle_gamma 90.000000
_cell_volume 566.374968
_symmetry_space_group_name_H-M "P 2"
_symmetry_group_IT_number 3
_symmetry_cell_setting 'monoclinic'
loop_
_space_group_symop_operation_xyz
x,y,z
-x,y,-z
loop_
_atom_site_type_symbol
_atom_site_label
_atom_site_fract_x
_atom_site_fract_y
_atom_site_fract_z
Si Si1 0.241639 0.589200 0.536889
Si Si2 0.074246 0.106274 0.201248
Si Si3 0.645178 0.209778 0.925511
Si Si4 0.500000 0.803072 0.000000
Si Si5 0.599352 0.544004 0.765263
Si Si6 0.887749 0.385914 0.200403
Si Si7 0.151209 0.856400 0.747890
Si Si8 0.000000 0.647210 0.000000
O O1 0.425767 0.566613 0.638760
O O2 0.252029 0.567997 0.337880
O O3 0.147887 0.464124 0.629605
O O4 0.180398 0.753058 0.587831
O O5 0.268158 0.100827 0.196017
O O6 0.050048 0.284605 0.236551
O O7 0.958394 0.007232 0.298680
O O8 0.000000 0.076534 0.000000
O O9 0.593796 0.371730 0.833726
O O10 0.500000 0.133912 0.000000
O O11 0.762171 0.262915 0.102526
O O12 0.406456 0.685844 0.108397
O O13 0.664735 0.870751 0.131220
O O14 0.879284 0.517228 0.056133
O O15 0.030614 0.763772 0.851537
#
# Coordination Sequence:
#
# PCOD9112469 Si02
#       8
#     2   2   2   1   2   2   2   1
#     4   9  19  32  60  91 123 158 201 255 320 368
#     4  10  21  36  56  86 125 165 204 251 311 374
#     4  11  18  33  61  92 124 153 212 265 297 368
#     4  10  20  34  64  94 122 152 212 270 300 366
#     4  10  17  33  59 100 121 148 206 269 312 360
#     4  10  18  34  55  86 118 163 200 250 312 363
#     4  10  20  37  57  89 123 168 205 255 312 372
#     4  10  16  30  56  80 118 154 198 252 304 354
#
# _framework density 24.718609000000001
#
# number of rings (size 3 to 8) (size 9 to 14) (size 15 to 20)
#    0.000    2.000    5.000    1.714    0.000    0.000 
#    5.143    0.714    0.000   13.714    0.000    0.000 
#    0.000    0.000    0.000    0.000    0.000    0.000 
#
# Total GULP energy -77945.218844 kJ/mol
# GULP energy per Si atom -5567.515632 kJ/mol
# Density = 2.466235 g / cm^3
# Si number density = 24.718609 Si / 1000 Ang^3
#
#
#
# Elastic Constant Matrix: (Units=GPa)
#
#
# Indices 1 2 3 4 5 6 
#
# 1 131.8148 47.3604 42.7399 0.0000 -12.6660 0.0000
# 2 47.3604 107.8616 37.4360 0.0000 -6.8019 0.0000
# 3 42.7399 37.4360 101.9790 0.0000 -32.6510 0.0000
# 4 0.0000 0.0000 0.0000 13.2677 0.0000 -8.1563
# 5 -12.6660 -6.8019 -32.6510 0.0000 40.2171 0.0000
# 6 0.0000 0.0000 0.0000 -8.1563 0.0000 50.4542
#
#
#
# Elastic Compliance Matrix: (Units=1/GPa)
#
#
# Indices 1 2 3 4 5 6 
#
# 1 0.009687 -0.003273 -0.002782 0.000000 0.000239 0.000000
# 2 -0.003273 0.011834 -0.003596 0.000000 -0.001949 0.000000
# 3 -0.002782 -0.003596 0.015967 0.000000 0.011479 0.000000
# 4 0.000000 0.000000 0.000000 0.083688 0.000000 0.013529
# 5 0.000239 -0.001949 0.011479 0.000000 0.033930 0.000000
# 6 0.000000 0.000000 0.000000 0.013529 0.000000 0.022007
#
#
# Mechanical properties :
#
#
# Convention : Reuss Voigt Hill
#
# Bulk Modulus (GPa) = 54.98915 66.30311 60.64613
# Shear Modulus (GPa) = 24.69404 35.06239 29.87821
#
# Velocity S-wave (km/s) = 3.16413 3.77033 3.48046
# Velocity P-wave (km/s) = 5.97020 6.77017 6.38273
#
# Compressibility (1/GPa) = 0.01818541
#
# Stress axis : x y z
#
# Youngs Moduli (GPa) = 103.22733 84.50560 62.62734
#
# Poissons Ratio (x) = 0.27658 0.17424
# Poissons Ratio (y) = 0.33785 0.22524
# Poissons Ratio (z) = 0.28719 0.30392
#
# Static dielectric constant tensor:
#      x y z
#    x 2.157570 0.000000 0.034610 
#    y 0.000000 2.014360 0.000000 
#    z 0.034610 0.000000 2.002860 
# 
# From -- ./inp_files/5583.got.cif
#   From: 2010.05.17/outbox.cif.g08.bks.cpg/sg3_3_cif.got.tgz:5583.got - 2010.06.03 18:33:08.
