data_PCOD9112736
_publ_section_title
;
Structure prediction by ZEFSAII (Michael W. Deem and Ramdas Pophale) SiO2 
 PCOD9112736
Probable space group: P 2
;
_chemical_formula_sum "Si O2"
_cell_formula_units_Z 15
_cell_length_a 10.866961
_cell_length_b 10.904053
_cell_length_c 10.461816
_cell_angle_alpha 90.000000
_cell_angle_beta 41.060845
_cell_angle_gamma 90.000000
_cell_volume 814.284250
_symmetry_space_group_name_H-M "P 2"
_symmetry_group_IT_number 3
_symmetry_cell_setting 'monoclinic'
loop_
_space_group_symop_operation_xyz
x,y,z
-x,y,-z
loop_
_atom_site_type_symbol
_atom_site_label
_atom_site_fract_x
_atom_site_fract_y
_atom_site_fract_z
Si Si1 0.826618 0.256660 0.049718
Si Si2 0.873242 0.029121 0.478053
Si Si3 0.533300 0.419801 0.612680
Si Si4 0.500389 0.891499 0.848135
Si Si5 0.086736 0.302974 0.620919
Si Si6 0.597576 0.608084 0.792996
Si Si7 0.000000 0.520715 0.500000
Si Si8 0.112661 0.978542 0.033036
O O1 0.815255 0.110666 0.076327
O O2 0.905264 0.273165 0.846208
O O3 0.637913 0.329045 0.222081
O O4 0.000000 0.302729 0.000000
O O5 0.862287 0.177819 0.492839
O O6 0.000000 0.988480 0.500000
O O7 0.973534 0.997115 0.263991
O O8 0.669541 0.967532 0.650888
O O9 0.500000 0.478310 0.500000
O O10 0.723524 0.340374 0.454805
O O11 0.552200 0.518107 0.711143
O O12 0.540123 0.746686 0.809318
O O13 0.500000 0.924897 0.000000
O O14 0.299176 0.915068 0.941020
O O15 0.032602 0.424873 0.588029
O O16 0.817363 0.602502 0.650455
O O17 0.500000 0.564906 0.000000
O O18 0.000000 0.922094 0.000000
#
# Coordination Sequence:
#
# PCOD9112736 Si02
#       8
#     2   2   2   2   2   2   1   2
#     4  10  19  35  58  84 122 152 183 236 305 360
#     4  11  21  38  65  93 120 157 203 253 307 366
#     4  11  21  38  60  87 117 155 201 241 296 359
#     4  11  23  41  64  89 121 164 213 253 297 359
#     4  10  20  35  58  89 120 145 188 246 301 358
#     4  10  24  41  61  82 119 158 204 248 294 347
#     4  10  20  36  58  86 112 150 190 242 298 346
#     4  10  23  41  61  92 125 158 200 251 312 368
#
# _framework density 18.421085999999999
#
# number of rings (size 3 to 8) (size 9 to 14) (size 15 to 20)
#    0.000    1.600    3.333    1.600    0.933    0.533 
#    2.400    1.333    0.000    0.000    0.000    0.000 
#    0.000    0.000    0.000    0.000    0.000    0.000 
#
# Total GULP energy -83625.996199 kJ/mol
# GULP energy per Si atom -5575.066413 kJ/mol
# Density = 1.837916 g / cm^3
# Si number density = 18.421086 Si / 1000 Ang^3
#
#
#
# Elastic Constant Matrix: (Units=GPa)
#
#
# Indices 1 2 3 4 5 6 
#
# 1 144.7742 39.0210 58.1703 0.0000 -13.8398 0.0000
# 2 39.0210 59.1350 38.9599 0.0000 -9.3540 0.0000
# 3 58.1703 38.9599 95.5378 0.0000 -5.4954 0.0000
# 4 0.0000 0.0000 0.0000 24.2393 0.0000 -5.5316
# 5 -13.8398 -9.3540 -5.4954 0.0000 31.0538 0.0000
# 6 0.0000 0.0000 0.0000 -5.5316 0.0000 21.4959
#
#
#
# Elastic Compliance Matrix: (Units=1/GPa)
#
#
# Indices 1 2 3 4 5 6 
#
# 1 0.009824 -0.003039 -0.004590 0.000000 0.002651 0.000000
# 2 -0.003039 0.024978 -0.008063 0.000000 0.004742 0.000000
# 3 -0.004590 -0.008063 0.016460 0.000000 -0.001561 0.000000
# 4 0.000000 0.000000 0.000000 0.043829 0.000000 0.011279
# 5 0.002651 0.004742 -0.001561 0.000000 0.034536 0.000000
# 6 0.000000 0.000000 0.000000 0.011279 0.000000 0.049423
#
#
# Mechanical properties :
#
#
# Convention : Reuss Voigt Hill
#
# Bulk Modulus (GPa) = 50.30561 63.52772 56.91666
# Shear Modulus (GPa) = 23.03521 26.24418 24.63969
#
# Velocity S-wave (km/s) = 3.54005 3.77859 3.66126
# Velocity P-wave (km/s) = 6.63907 7.32108 6.98840
#
# Compressibility (1/GPa) = 0.01987850
#
# Stress axis : x y z
#
# Youngs Moduli (GPa) = 101.79121 40.03505 60.75472
#
# Poissons Ratio (x) = 0.12168 0.27884
# Poissons Ratio (y) = 0.30939 0.48984
# Poissons Ratio (z) = 0.46718 0.32278
#
# Static dielectric constant tensor:
#      x y z
#    x 1.661830 0.000000 0.035170 
#    y 0.000000 1.612300 0.000000 
#    z 0.035170 0.000000 1.640560 
# 
# From -- ./inp_files/3310.got.cif
#   From: 2010.05.17/outbox.cif.g08.bks.cpg/sg3_2_cif.got.tgz:3310.got - 2010.06.03 18:33:08.
