data_PCOD9112815
_publ_section_title
;
Structure prediction by ZEFSAII (Michael W. Deem and Ramdas Pophale) SiO2 
 PCOD9112815
Probable space group: P 2
;
_chemical_formula_sum "Si O2"
_cell_formula_units_Z 13
_cell_length_a 11.355185
_cell_length_b 6.386694
_cell_length_c 14.647261
_cell_angle_alpha 90.000000
_cell_angle_beta 40.612071
_cell_angle_gamma 90.000000
_cell_volume 691.454822
_symmetry_space_group_name_H-M "P 2"
_symmetry_group_IT_number 3
_symmetry_cell_setting 'monoclinic'
loop_
_space_group_symop_operation_xyz
x,y,z
-x,y,-z
loop_
_atom_site_type_symbol
_atom_site_label
_atom_site_fract_x
_atom_site_fract_y
_atom_site_fract_z
Si Si1 0.124045 0.396990 0.565975
Si Si2 0.012598 0.020150 0.242496
Si Si3 0.327624 0.027066 0.354648
Si Si4 0.332961 0.776564 0.531877
Si Si5 0.500000 0.533184 0.000000
Si Si6 0.603481 0.131528 0.032343
Si Si7 0.172277 0.728508 0.302693
O O1 0.214323 0.237078 0.441416
O O2 0.264871 0.562640 0.525127
O O3 0.051199 0.249678 0.690349
O O4 0.957515 0.528367 0.623813
O O5 0.078239 0.904785 0.296137
O O6 0.196165 0.038117 0.076961
O O7 0.839565 0.883597 0.315240
O O8 0.483767 0.082044 0.190608
O O9 0.383924 0.936229 0.419763
O O10 0.215182 0.840504 0.372486
O O11 0.500000 0.744135 0.500000
O O12 0.607786 0.379048 0.006112
O O13 0.356748 0.656570 0.145008
O O14 0.500000 0.056495 0.000000
#
# Coordination Sequence:
#
# PCOD9112815 Si02
#       7
#     2   2   2   2   1   2   2
#     4  10  23  40  57  89 128 166 202 254 304 368
#     4  10  20  40  65  90 126 164 199 246 311 371
#     4  11  24  38  63  93 128 163 200 254 307 366
#     4  10  25  44  65  87 114 165 220 266 305 350
#     4  10  20  34  60  86 142 170 188 232 294 392
#     4  10  19  38  58  93 136 161 192 234 310 378
#     4  11  20  36  59  93 130 165 198 238 307 382
#
# _framework density 18.800937999999999
#
# number of rings (size 3 to 8) (size 9 to 14) (size 15 to 20)
#    0.462    1.231    3.077    0.923    2.154    9.231 
#    0.000    0.769    0.000    0.000    0.000    0.000 
#    0.000    0.000    0.000    0.000    0.000    0.000 
#
# Total GULP energy -72546.485572 kJ/mol
# GULP energy per Si atom -5580.498890 kJ/mol
# Density = 1.875815 g / cm^3
# Si number density = 18.800938 Si / 1000 Ang^3
#
#
#
# Elastic Constant Matrix: (Units=GPa)
#
#
# Indices 1 2 3 4 5 6 
#
# 1 92.1690 44.1354 46.6337 0.0000 -17.8691 0.0000
# 2 44.1354 119.9548 56.1958 0.0000 -6.5672 0.0000
# 3 46.6337 56.1958 154.9186 0.0000 -17.6950 0.0000
# 4 0.0000 0.0000 0.0000 36.6763 0.0000 -1.3537
# 5 -17.8691 -6.5672 -17.6950 0.0000 21.4952 0.0000
# 6 0.0000 0.0000 0.0000 -1.3537 0.0000 14.5104
#
#
#
# Elastic Compliance Matrix: (Units=1/GPa)
#
#
# Indices 1 2 3 4 5 6 
#
# 1 0.015958 -0.004347 -0.002057 0.000000 0.010245 0.000000
# 2 -0.004347 0.011227 -0.003074 0.000000 -0.002714 0.000000
# 3 -0.002057 -0.003074 0.008705 0.000000 0.004517 0.000000
# 4 0.000000 0.000000 0.000000 0.027360 0.000000 0.002552
# 5 0.010245 -0.002714 0.004517 0.000000 0.057928 0.000000
# 6 0.000000 0.000000 0.000000 0.002552 0.000000 0.069154
#
#
# Mechanical properties :
#
#
# Convention : Reuss Voigt Hill
#
# Bulk Modulus (GPa) = 59.04968 73.44136 66.24552
# Shear Modulus (GPa) = 23.26302 29.20822 26.23562
#
# Velocity S-wave (km/s) = 3.52139 3.94579 3.73961
# Velocity P-wave (km/s) = 6.92890 7.73992 7.34561
#
# Compressibility (1/GPa) = 0.01693489
#
# Stress axis : x y z
#
# Youngs Moduli (GPa) = 62.66433 89.06705 114.87401
#
# Poissons Ratio (x) = 0.38719 0.23625
# Poissons Ratio (y) = 0.27241 0.35314
# Poissons Ratio (z) = 0.12888 0.27381
#
# Static dielectric constant tensor:
#      x y z
#    x 1.615140 0.000000 -0.020730 
#    y 0.000000 1.699440 0.000000 
#    z -0.020730 0.000000 1.689950 
# 
# From -- ./inp_files/12100.got.cif
#   From: 2010.05.17/outbox.cif.g08.bks.cpg/sg3_7_cif.got.tgz:12100.got - 2010.06.03 18:33:08.
