data_PCOD9112985
_publ_section_title
;
Structure prediction by ZEFSAII (Michael W. Deem and Ramdas Pophale) SiO2 
 PCOD9112985
Probable space group: P 2
;
_chemical_formula_sum "Si O2"
_cell_formula_units_Z 13
_cell_length_a 18.632491
_cell_length_b 5.301839
_cell_length_c 4.909158
_cell_angle_alpha 90.000000
_cell_angle_beta 82.630804
_cell_angle_gamma 90.000000
_cell_volume 480.952749
_symmetry_space_group_name_H-M "P 2"
_symmetry_group_IT_number 3
_symmetry_cell_setting 'monoclinic'
loop_
_space_group_symop_operation_xyz
x,y,z
-x,y,-z
loop_
_atom_site_type_symbol
_atom_site_label
_atom_site_fract_x
_atom_site_fract_y
_atom_site_fract_z
Si Si1 0.500000 0.603370 0.000000
Si Si2 0.392003 0.917155 0.417296
Si Si3 0.083110 0.710392 0.548881
Si Si4 0.774918 0.357292 0.152739
Si Si5 0.081320 0.210422 0.869960
Si Si6 0.230275 0.852363 0.495158
Si Si7 0.617815 0.236008 0.055233
O O1 0.454088 0.757814 0.245025
O O2 0.557984 0.442473 0.145988
O O3 0.312756 0.817441 0.359255
O O4 0.391147 0.997658 0.734189
O O5 0.397976 0.177785 0.250512
O O6 0.088988 0.418731 0.627325
O O7 0.157546 0.791628 0.357572
O O8 0.000000 0.749014 0.500000
O O9 0.087121 0.918653 0.788725
O O10 0.851340 0.291660 0.975002
O O11 0.775369 0.636941 0.270889
O O12 0.700561 0.320261 0.033404
O O13 0.772252 0.136297 0.385928
O O14 0.000000 0.254847 0.000000
#
# Coordination Sequence:
#
# PCOD9112985 Si02
#       7
#     1   2   2   2   2   2   2
#     4  12  30  50  80 112 152 202 258 330 394 470
#     4  11  28  51  74 109 149 195 251 315 384 461
#     4  10  20  37  61  97 138 182 233 296 357 432
#     4   9  21  43  68  96 142 191 245 299 368 445
#     4  10  20  37  61  97 138 182 233 296 357 432
#     4   9  21  43  68  96 142 191 245 299 368 445
#     4  11  28  51  74 109 149 195 251 315 384 461
#
# _framework density 27.029684
#
# number of rings (size 3 to 8) (size 9 to 14) (size 15 to 20)
#    0.000    1.846    0.000    1.385    8.615    4.923 
#    2.769    0.000    0.000    0.000    0.000    0.000 
#    0.000    0.000    0.000    0.000    0.000    0.000 
#
# Total GULP energy -72648.475107 kJ/mol
# GULP energy per Si atom -5588.344239 kJ/mol
# Density = 2.696816 g / cm^3
# Si number density = 27.029684 Si / 1000 Ang^3
#
#
#
# Elastic Constant Matrix: (Units=GPa)
#
#
# Indices 1 2 3 4 5 6 
#
# 1 238.3127 42.7830 24.1562 0.0000 -24.5471 0.0000
# 2 42.7830 127.0448 31.5298 0.0000 1.9836 0.0000
# 3 24.1562 31.5298 80.6583 0.0000 -6.7765 0.0000
# 4 0.0000 0.0000 0.0000 32.8582 0.0000 -2.8815
# 5 -24.5471 1.9836 -6.7765 0.0000 41.4986 0.0000
# 6 0.0000 0.0000 0.0000 -2.8815 0.0000 66.0467
#
#
#
# Elastic Compliance Matrix: (Units=1/GPa)
#
#
# Indices 1 2 3 4 5 6 
#
# 1 0.004821 -0.001515 -0.000614 0.000000 0.002824 0.000000
# 2 -0.001515 0.009233 -0.003313 0.000000 -0.001879 0.000000
# 3 -0.000614 -0.003313 0.014053 0.000000 0.002090 0.000000
# 4 0.000000 0.000000 0.000000 0.030551 0.000000 0.001333
# 5 0.002824 -0.001879 0.002090 0.000000 0.026199 0.000000
# 6 0.000000 0.000000 0.000000 0.001333 0.000000 0.015199
#
#
# Mechanical properties :
#
#
# Convention : Reuss Voigt Hill
#
# Bulk Modulus (GPa) = 58.06740 71.43934 64.75337
# Shear Modulus (GPa) = 42.85156 51.25049 47.05103
#
# Velocity S-wave (km/s) = 3.98597 4.35913 4.17672
# Velocity P-wave (km/s) = 6.53555 7.19884 6.87520
#
# Compressibility (1/GPa) = 0.01722137
#
# Stress axis : x y z
#
# Youngs Moduli (GPa) = 207.41101 108.30563 71.16044
#
# Poissons Ratio (x) = 0.16411 0.04372
# Poissons Ratio (y) = 0.31428 0.23578
# Poissons Ratio (z) = 0.12743 0.35885
#
# Static dielectric constant tensor:
#      x y z
#    x 2.212960 0.000000 -0.010900 
#    y 0.000000 2.078890 0.000000 
#    z -0.010900 0.000000 2.154870 
# 
# From -- ./inp_files/3437.got.cif
#   From: 2010.05.17/outbox.cif.g08.bks.cpg/sg3_2_cif.got.tgz:3437.got - 2010.06.03 18:33:08.
