data_PCOD9112401
_publ_section_title
;
Structure prediction by ZEFSAII (Michael W. Deem and Ramdas Pophale) SiO2 
 PCOD9112401
Probable space group: P -1
;
_chemical_formula_sum "Si O2"
_cell_formula_units_Z 16
_cell_length_a 15.262717
_cell_length_b 15.760781
_cell_length_c 5.424687
_cell_angle_alpha 83.351886
_cell_angle_beta 113.799839
_cell_angle_gamma 139.910115
_cell_volume 726.495913
_symmetry_space_group_name_H-M "P -1"
_symmetry_group_IT_number 2
_symmetry_cell_setting 'triclinic'
loop_
_space_group_symop_operation_xyz
x,y,z
-x,-y,-z
loop_
_atom_site_type_symbol
_atom_site_label
_atom_site_fract_x
_atom_site_fract_y
_atom_site_fract_z
Si Si1 0.912094 0.124289 0.424877
Si Si2 0.913770 0.357379 0.768556
Si Si3 0.560518 0.140947 0.532481
Si Si4 0.988589 0.594859 0.645797
Si Si5 0.752297 0.542163 0.295654
Si Si6 0.432809 0.051083 0.919276
Si Si7 0.005517 0.103706 0.037304
Si Si8 0.661468 0.562920 0.683122
O O1 0.074110 0.292070 0.551244
O O2 0.931593 0.074006 0.230456
O O3 0.751700 0.063189 0.228065
O O4 0.915125 0.084926 0.713491
O O5 0.744857 0.263365 0.702733
O O6 0.011270 0.511343 0.767803
O O7 0.905295 0.311615 0.502492
O O8 0.985145 0.348761 0.067410
O O9 0.492035 0.132699 0.703947
O O10 0.500000 0.000000 0.500000
O O11 0.504920 0.142319 0.215341
O O12 0.811036 0.486408 0.395853
O O13 0.670185 0.512587 0.462240
O O14 0.671379 0.514827 0.962651
O O15 0.500000 0.000000 0.000000
O O16 0.184131 0.266899 0.191059
O O17 0.000000 0.000000 0.000000
O O18 0.500000 0.500000 0.500000
#
# Coordination Sequence:
#
# PCOD9112401 Si02
#       8
#     2   2   2   2   2   2   2   2
#     4  10  21  36  59  87 120 148 208 240 282 365
#     4  10  21  36  53  79 111 157 195 241 277 343
#     4  10  21  32  51  76 110 153 195 225 289 328
#     4  10  21  36  57  78 110 149 199 238 289 323
#     4  10  21  35  61  87 110 150 193 249 288 349
#     4  10  21  35  51  83 116 158 188 234 289 327
#     4  10  21  40  63  88 118 155 192 245 310 362
#     4  10  21  40  61  90 115 144 193 242 303 371
#
# _framework density 22.023524999999999
#
# number of rings (size 3 to 8) (size 9 to 14) (size 15 to 20)
#    0.000    2.000    0.000    3.000    7.000    0.000 
#    0.000    3.750    0.000    0.000    0.000    0.000 
#    0.000    0.000    0.000    0.000    0.000    0.000 
#
# Total GULP energy -89209.547671 kJ/mol
# GULP energy per Si atom -5575.596729 kJ/mol
# Density = 2.197340 g / cm^3
# Si number density = 22.023525 Si / 1000 Ang^3
#
#
#
# Elastic Constant Matrix: (Units=GPa)
#
#
# Indices 1 2 3 4 5 6 
#
# 1 108.1959 23.9602 54.8396 -5.4271 -3.9310 34.8421
# 2 23.9602 36.0814 41.3014 1.6659 -11.4112 14.0226
# 3 54.8396 41.3014 192.1246 -24.9495 -5.7902 32.4827
# 4 -5.4271 1.6659 -24.9495 33.7296 17.8540 -3.9924
# 5 -3.9310 -11.4112 -5.7902 17.8540 48.3550 -6.1644
# 6 34.8421 14.0226 32.4827 -3.9924 -6.1644 35.2549
#
#
#
# Elastic Compliance Matrix: (Units=1/GPa)
#
#
# Indices 1 2 3 4 5 6 
#
# 1 0.014606 -0.004659 -0.001033 0.001533 -0.002110 -0.011826
# 2 -0.004659 0.052647 -0.011435 -0.022025 0.018156 -0.005119
# 3 -0.001033 -0.011435 0.009650 0.010236 -0.005812 -0.003179
# 4 0.001533 -0.022025 0.010236 0.050424 -0.022518 -0.000414
# 5 -0.002110 0.018156 -0.005812 -0.022518 0.032847 0.003412
# 6 -0.011826 -0.005119 -0.003179 -0.000414 0.003412 0.045567
#
#
# Mechanical properties :
#
#
# Convention : Reuss Voigt Hill
#
# Bulk Modulus (GPa) = 23.44748 64.06712 43.75730
# Shear Modulus (GPa) = 19.66868 37.88795 28.77832
#
# Velocity S-wave (km/s) = 2.99168 4.15220 3.61876
# Velocity P-wave (km/s) = 4.75428 7.22088 6.11328
#
# Compressibility (1/GPa) = 0.04264850
#
# Stress axis : x y z
#
# Youngs Moduli (GPa) = 68.46426 18.99440 103.63168
#
# Poissons Ratio (x) = 0.08850 0.10701
# Poissons Ratio (y) = 0.31901 1.18504
# Poissons Ratio (z) = 0.07069 0.21720
#
# Static dielectric constant tensor:
#      x y z
#    x 1.920070 -0.070260 -0.034820 
#    y -0.070260 1.853550 -0.062040 
#    z -0.034820 -0.062040 1.882740 
# 
# From -- ./inp_files/99368.got.cif
#   From: 2010.05.17/outbox.cif.g08.bks.cpg/sg2_50_cif.got.tgz:99368.got - 2010.06.03 11:33:40.
