data_PCOD9112049
_publ_section_title
;
Structure prediction by ZEFSAII (Michael W. Deem and Ramdas Pophale) SiO2 
 PCOD9112049
Probable space group: P -1
;
_chemical_formula_sum "Si O2"
_cell_formula_units_Z 16
_cell_length_a 8.948970
_cell_length_b 9.221208
_cell_length_c 18.500573
_cell_angle_alpha 140.722444
_cell_angle_beta 87.450848
_cell_angle_gamma 113.456736
_cell_volume 789.998913
_symmetry_space_group_name_H-M "P -1"
_symmetry_group_IT_number 2
_symmetry_cell_setting 'triclinic'
loop_
_space_group_symop_operation_xyz
x,y,z
-x,-y,-z
loop_
_atom_site_type_symbol
_atom_site_label
_atom_site_fract_x
_atom_site_fract_y
_atom_site_fract_z
Si Si1 0.315692 0.708809 0.906045
Si Si2 0.948972 0.951885 0.770739
Si Si3 0.783382 0.145685 0.734570
Si Si4 0.041355 0.266415 0.644345
Si Si5 0.997864 0.207816 0.024469
Si Si6 0.505872 0.151787 0.668250
Si Si7 0.216162 0.627180 0.383806
Si Si8 0.633006 0.636828 0.120481
O O1 0.243538 0.482390 0.755277
O O2 0.164501 0.769564 0.940278
O O3 0.334359 0.583809 0.930904
O O4 0.500000 0.000000 0.000000
O O5 0.835582 0.620188 0.656235
O O6 0.836965 0.040234 0.760684
O O7 0.159062 0.094550 0.795737
O O8 0.967755 0.072167 0.895811
O O9 0.580380 0.993104 0.648864
O O10 0.909997 0.149785 0.671571
O O11 0.838871 0.463797 0.862107
O O12 0.969592 0.421239 0.660448
O O13 0.000000 0.000000 0.500000
O O14 0.000000 0.000000 0.000000
O O15 0.661480 0.344177 0.677614
O O16 0.455375 0.293932 0.785032
O O17 0.331557 0.922590 0.536686
O O18 0.500000 0.500000 0.000000
#
# Coordination Sequence:
#
# PCOD9112049 Si02
#       8
#     2   2   2   2   2   2   2   2
#     4  11  26  42  64 105 131 172 232 279 333 401
#     4  12  24  42  66 100 130 179 218 274 354 398
#     4  10  22  41  64  93 134 170 219 277 339 396
#     4  10  20  44  68  93 133 183 222 274 336 412
#     4  11  23  42  68  91 133 181 222 271 330 419
#     4  10  23  47  66  97 132 176 230 278 328 410
#     4  10  24  42  75  95 127 181 232 271 339 413
#     4  12  27  42  66  98 142 172 216 286 345 396
#
# _framework density 20.253193
#
# number of rings (size 3 to 8) (size 9 to 14) (size 15 to 20)
#    0.000    1.250    2.500    4.125    8.750    1.000 
#    0.000    0.000    0.000    0.000    0.000    0.000 
#    0.000    0.000    0.000    0.000    0.000    0.000 
#
# Total GULP energy -89257.781607 kJ/mol
# GULP energy per Si atom -5578.611350 kJ/mol
# Density = 2.020710 g / cm^3
# Si number density = 20.253193 Si / 1000 Ang^3
#
#
#
# Elastic Constant Matrix: (Units=GPa)
#
#
# Indices 1 2 3 4 5 6 
#
# 1 94.3468 53.7229 31.8891 1.9797 12.2035 -25.7870
# 2 53.7229 106.6327 25.3932 5.1842 -5.0036 -34.5062
# 3 31.8891 25.3932 75.7986 -3.7676 -4.0311 -0.5107
# 4 1.9797 5.1842 -3.7676 31.7908 -0.0240 4.8868
# 5 12.2035 -5.0036 -4.0311 -0.0240 36.5349 -2.8843
# 6 -25.7870 -34.5062 -0.5107 4.8868 -2.8843 40.9531
#
#
#
# Elastic Compliance Matrix: (Units=1/GPa)
#
#
# Indices 1 2 3 4 5 6 
#
# 1 0.019065 -0.006306 -0.006355 -0.001888 -0.007436 0.006314
# 2 -0.006306 0.017535 -0.003103 -0.004626 0.005084 0.011676
# 3 -0.006355 -0.003103 0.017222 0.003968 0.003075 -0.006658
# 4 -0.001888 -0.004626 0.003968 0.034202 -0.000264 -0.009137
# 5 -0.007436 0.005084 0.003075 -0.000264 0.031037 0.001857
# 6 0.006314 0.011676 -0.006658 -0.009137 0.001857 0.039370
#
#
# Mechanical properties :
#
#
# Convention : Reuss Voigt Hill
#
# Bulk Modulus (GPa) = 44.85190 55.42091 50.13640
# Shear Modulus (GPa) = 25.33064 32.90727 29.11896
#
# Velocity S-wave (km/s) = 3.54036 4.03525 3.79588
# Velocity P-wave (km/s) = 6.23746 7.00959 6.63477
#
# Compressibility (1/GPa) = 0.02229560
#
# Stress axis : x y z
#
# Youngs Moduli (GPa) = 52.45228 57.02744 58.06593
#
# Poissons Ratio (x) = 0.35960 0.36901
# Poissons Ratio (y) = 0.33075 0.18015
# Poissons Ratio (z) = 0.33334 0.17693
#
# Static dielectric constant tensor:
#      x y z
#    x 1.876840 0.069900 0.090230 
#    y 0.069900 1.755830 0.048150 
#    z 0.090230 0.048150 1.786420 
# 
# From -- ./inp_files/277856.got.cif
#   From: 2010.05.17/outbox.cif.g08.bks.cpg/sg2_139_cif.got.tgz:277856.got - 2010.06.03 11:33:40.
