data_PCOD9112952
_publ_section_title
;
Structure prediction by ZEFSAII (Michael W. Deem and Ramdas Pophale) SiO2 
 PCOD9112952
Probable space group: P 2
;
_chemical_formula_sum "Si O2"
_cell_formula_units_Z 14
_cell_length_a 9.636134
_cell_length_b 5.339719
_cell_length_c 29.300411
_cell_angle_alpha 90.000000
_cell_angle_beta 21.108038
_cell_angle_gamma 90.000000
_cell_volume 542.939526
_symmetry_space_group_name_H-M "P 2"
_symmetry_group_IT_number 3
_symmetry_cell_setting 'monoclinic'
loop_
_space_group_symop_operation_xyz
x,y,z
-x,y,-z
loop_
_atom_site_type_symbol
_atom_site_label
_atom_site_fract_x
_atom_site_fract_y
_atom_site_fract_z
Si Si1 0.806650 0.323930 0.441796
Si Si2 0.565720 0.274638 0.349222
Si Si3 0.400131 0.574643 0.799341
Si Si4 0.532564 0.875780 0.909783
Si Si5 0.468744 0.071279 0.191744
Si Si6 0.526576 0.367855 0.940371
Si Si7 0.672209 0.772098 0.278378
O O1 0.500000 0.430188 0.500000
O O2 0.603735 0.221888 0.549238
O O3 0.139704 0.523948 0.350606
O O4 0.040920 0.108761 0.343109
O O5 0.434382 0.552433 0.375812
O O6 0.030272 0.310541 0.208158
O O7 0.485394 0.049274 0.338224
O O8 0.346725 0.823811 0.844594
O O9 0.254258 0.648234 0.793493
O O10 0.322641 0.322288 0.853194
O O11 0.557188 0.013169 0.853700
O O12 0.373309 0.592533 0.955942
O O13 0.938243 0.816699 0.811137
O O14 0.328035 0.094491 0.001641
O O15 0.500000 0.459485 0.000000
#
# Coordination Sequence:
#
# PCOD9112952 Si02
#       7
#     2   2   2   2   2   2   2
#     4  10  23  37  56  84 124 163 205 249 301 359
#     4  10  22  36  60  82 119 165 198 253 304 365
#     4  10  23  38  56  83 124 166 203 252 291 370
#     4  10  20  37  65  88 121 159 195 258 314 368
#     4  10  22  38  57  86 120 163 204 245 304 361
#     4  10  20  36  60  95 120 148 200 263 317 359
#     4  10  21  38  56  83 118 164 206 242 302 364
#
# _framework density 25.785561999999999
#
# number of rings (size 3 to 8) (size 9 to 14) (size 15 to 20)
#    0.857    1.143    0.000    3.857    6.000    1.143 
#    0.000    0.000    0.000    0.000    0.000   60.000 
#    0.000    0.000    0.000    0.000    0.000    0.000 
#
# Total GULP energy -78135.372438 kJ/mol
# GULP energy per Si atom -5581.098031 kJ/mol
# Density = 2.572687 g / cm^3
# Si number density = 25.785562 Si / 1000 Ang^3
#
#
#
# Elastic Constant Matrix: (Units=GPa)
#
#
# Indices 1 2 3 4 5 6 
#
# 1 168.0575 71.1872 47.3571 0.0182 7.7805 0.0024
# 2 71.1872 252.6495 31.3526 0.0515 5.8204 0.0142
# 3 47.3571 31.3526 88.7579 0.0880 8.6403 0.0298
# 4 0.0182 0.0515 0.0880 -9.4742 0.0317 -3.7266
# 5 7.7805 5.8204 8.6403 0.0317 47.8186 0.0101
# 6 0.0024 0.0142 0.0298 -3.7266 0.0101 46.9328
#
#
#
# Elastic Compliance Matrix: (Units=1/GPa)
#
#
# Indices 1 2 3 4 5 6 
#
# 1 0.007670 -0.001724 -0.003443 -0.000028 -0.000416 0.000000
# 2 -0.001724 0.004530 -0.000665 0.000015 -0.000151 0.000000
# 3 -0.003443 -0.000665 0.013514 0.000109 -0.001801 0.000001
# 4 -0.000028 0.000015 0.000109 -0.102352 0.000053 -0.008127
# 5 -0.000416 -0.000151 -0.001801 0.000053 0.021324 0.000001
# 6 0.000000 0.000000 0.000001 -0.008127 0.000001 0.020662
#
#
# Mechanical properties :
#
#
# Convention : Reuss Voigt Hill
#
# Bulk Modulus (GPa) = 71.18131 89.91764 80.54948
# Shear Modulus (GPa) = -273.15863 41.02666 -116.06599
#
# Velocity S-wave (km/s) = -10.30363 3.99315 -6.71638
# Velocity P-wave (km/s) = 10.67183 7.49716 5.37031
#
# Compressibility (1/GPa) = 0.01404863
#
# Stress axis : x y z
#
# Youngs Moduli (GPa) = 130.37508 220.75274 73.99854
#
# Poissons Ratio (x) = 0.38065 0.25476
# Poissons Ratio (y) = 0.22481 0.04924
# Poissons Ratio (z) = 0.44886 0.14691
#
# Static dielectric constant tensor:
#      x y z
#    x 2.148330 0.000050 -0.126800 
#    y 0.000050 2.113070 -0.000020 
#    z -0.126800 -0.000020 2.115020 
# 
# From -- ./inp_files/16472.got.cif
#   From: 2010.05.17/outbox.cif.g08.bks.cpg/sg3_9_cif.got.tgz:16472.got - 2010.06.03 18:33:08.
