data_PCOD9112986
_publ_section_title
;
Structure prediction by ZEFSAII (Michael W. Deem and Ramdas Pophale) SiO2 
 PCOD9112986
Probable space group: P 2
;
_chemical_formula_sum "Si O2"
_cell_formula_units_Z 14
_cell_length_a 8.808124
_cell_length_b 6.489821
_cell_length_c 15.251636
_cell_angle_alpha 90.000000
_cell_angle_beta 128.686360
_cell_angle_gamma 90.000000
_cell_volume 680.533584
_symmetry_space_group_name_H-M "P 2"
_symmetry_group_IT_number 3
_symmetry_cell_setting 'monoclinic'
loop_
_space_group_symop_operation_xyz
x,y,z
-x,y,-z
loop_
_atom_site_type_symbol
_atom_site_label
_atom_site_fract_x
_atom_site_fract_y
_atom_site_fract_z
Si Si1 0.110941 0.107510 0.310575
Si Si2 0.787043 0.760357 0.410350
Si Si3 0.565179 0.080523 0.707207
Si Si4 0.542307 0.140302 0.894989
Si Si5 0.757095 0.787002 0.201084
Si Si6 0.779161 0.368239 0.131423
Si Si7 0.350084 0.400746 0.520743
O O1 0.268486 0.016914 0.300597
O O2 0.220818 0.217725 0.430944
O O3 0.997393 0.295554 0.223641
O O4 0.943518 0.939657 0.266956
O O5 0.766083 0.690119 0.301778
O O6 0.769474 0.580034 0.475749
O O7 0.000000 0.858005 0.500000
O O8 0.611364 0.919298 0.358887
O O9 0.628712 0.114013 0.830029
O O10 0.481971 0.295413 0.642017
O O11 0.355718 0.291532 0.836007
O O12 0.438610 0.922365 0.879123
O O13 0.690270 0.242269 0.017332
O O14 0.766597 0.613316 0.130208
O O15 0.500000 0.477409 0.500000
#
# Coordination Sequence:
#
# PCOD9112986 Si02
#       7
#     2   2   2   2   2   2   2
#     4  10  22  38  60  88 122 159 198 246 299 357
#     4  11  22  35  60  90 119 155 200 245 294 358
#     4  10  22  40  59  85 121 157 194 244 299 354
#     4   9  21  38  60  88 118 154 202 250 296 350
#     4  10  21  39  62  91 120 157 204 248 300 356
#     4  10  20  37  62  86 117 157 198 249 298 352
#     4  10  22  38  57  84 120 157 195 244 298 354
#
# _framework density 20.572092000000001
#
# number of rings (size 3 to 8) (size 9 to 14) (size 15 to 20)
#    0.000    2.000    0.000    2.571    0.000   13.143 
#    0.000    0.000    0.000    5.143    0.000    0.000 
#    0.000    0.000    0.000    0.000    0.000    0.000 
#
# Total GULP energy -78090.068857 kJ/mol
# GULP energy per Si atom -5577.862061 kJ/mol
# Density = 2.052527 g / cm^3
# Si number density = 20.572092 Si / 1000 Ang^3
#
#
#
# Elastic Constant Matrix: (Units=GPa)
#
#
# Indices 1 2 3 4 5 6 
#
# 1 76.6701 25.9952 33.5374 0.0000 -14.0917 0.0000
# 2 25.9952 71.6945 36.2766 0.0000 -16.7717 0.0000
# 3 33.5374 36.2766 101.7213 0.0000 -16.5145 0.0000
# 4 0.0000 0.0000 0.0000 23.4427 0.0000 -1.5108
# 5 -14.0917 -16.7717 -16.5145 0.0000 28.2975 0.0000
# 6 0.0000 0.0000 0.0000 -1.5108 0.0000 25.1876
#
#
#
# Elastic Compliance Matrix: (Units=1/GPa)
#
#
# Indices 1 2 3 4 5 6 
#
# 1 0.016472 -0.003153 -0.003621 0.000000 0.004221 0.000000
# 2 -0.003153 0.019076 -0.004621 0.000000 0.007039 0.000000
# 3 -0.003621 -0.004621 0.013184 0.000000 0.003152 0.000000
# 4 0.000000 0.000000 0.000000 0.042823 0.000000 0.002569
# 5 0.004221 0.007039 0.003152 0.000000 0.043453 0.000000
# 6 0.000000 0.000000 0.000000 0.002569 0.000000 0.039856
#
#
# Mechanical properties :
#
#
# Convention : Reuss Voigt Hill
#
# Bulk Modulus (GPa) = 38.54627 49.07827 43.81227
# Shear Modulus (GPa) = 24.23654 25.67067 24.95360
#
# Velocity S-wave (km/s) = 3.43611 3.53631 3.48657
# Velocity P-wave (km/s) = 5.87540 6.37044 6.12792
#
# Compressibility (1/GPa) = 0.02594285
#
# Stress axis : x y z
#
# Youngs Moduli (GPa) = 60.71078 52.42190 75.84761
#
# Poissons Ratio (x) = 0.16527 0.27465
# Poissons Ratio (y) = 0.19140 0.35047
# Poissons Ratio (z) = 0.21984 0.24223
#
# Static dielectric constant tensor:
#      x y z
#    x 1.751950 0.000000 -0.021010 
#    y 0.000000 1.743010 0.000000 
#    z -0.021010 0.000000 1.758320 
# 
# From -- ./inp_files/8048.got.cif
#   From: 2010.05.17/outbox.cif.g08.bks.cpg/sg3_5_cif.got.tgz:8048.got - 2010.06.03 18:33:08.
