data_PCOD9112827
_publ_section_title
;
Structure prediction by ZEFSAII (Michael W. Deem and Ramdas Pophale) SiO2 
 PCOD9112827
Probable space group: P 2
;
_chemical_formula_sum "Si O2"
_cell_formula_units_Z 15
_cell_length_a 10.059577
_cell_length_b 9.065632
_cell_length_c 10.242759
_cell_angle_alpha 90.000000
_cell_angle_beta 131.238954
_cell_angle_gamma 90.000000
_cell_volume 702.414533
_symmetry_space_group_name_H-M "P 2"
_symmetry_group_IT_number 3
_symmetry_cell_setting 'monoclinic'
loop_
_space_group_symop_operation_xyz
x,y,z
-x,y,-z
loop_
_atom_site_type_symbol
_atom_site_label
_atom_site_fract_x
_atom_site_fract_y
_atom_site_fract_z
Si Si1 0.292873 0.175020 0.877736
Si Si2 0.018313 0.294389 0.167827
Si Si3 0.200336 0.980509 0.266942
Si Si4 0.078252 0.538662 0.408592
Si Si5 0.000000 0.057788 0.500000
Si Si6 0.922855 0.711030 0.079341
Si Si7 0.626526 0.915528 0.885579
Si Si8 0.268385 0.839280 0.555827
O O1 0.158273 0.153230 0.667803
O O2 0.179399 0.278147 0.900928
O O3 0.500000 0.222830 0.000000
O O4 0.308651 0.013830 0.953582
O O5 0.116147 0.137288 0.245730
O O6 0.118454 0.405657 0.333505
O O7 0.000000 0.321249 0.000000
O O8 0.042248 0.859650 0.157697
O O9 0.303163 0.998125 0.197995
O O10 0.325104 0.901385 0.452429
O O11 0.943017 0.628526 0.228249
O O12 0.225797 0.665893 0.528150
O O13 0.000000 0.497186 0.500000
O O14 0.096956 0.940767 0.468914
O O15 0.000000 0.632071 0.000000
O O16 0.722853 0.759296 0.935959
O O17 0.419624 0.887042 0.752704
#
# Coordination Sequence:
#
# PCOD9112827 Si02
#       8
#     2   2   2   2   1   2   2   2
#     4  12  24  40  68 109 141 176 235 304 361 416
#     4  12  23  43  71  95 136 193 239 281 351 435
#     4  10  19  38  68  99 129 172 232 294 355 410
#     4  11  25  41  63  95 136 191 234 275 355 430
#     4  12  22  38  66 102 136 174 218 302 370 408
#     4   9  18  38  66  93 127 171 231 291 347 416
#     4  11  20  37  69 104 132 168 233 301 350 412
#     4  11  22  39  66 101 140 171 230 293 360 417
#
# _framework density 21.354911000000001
#
# number of rings (size 3 to 8) (size 9 to 14) (size 15 to 20)
#    0.000    1.067    6.000    2.000    0.933    0.000 
#    0.000    1.333    0.000    8.000    0.000    0.000 
#    0.000    0.000    0.000    0.000    0.000    0.000 
#
# Total GULP energy -83552.381023 kJ/mol
# GULP energy per Si atom -5570.158735 kJ/mol
# Density = 2.130631 g / cm^3
# Si number density = 21.354911 Si / 1000 Ang^3
#
#
#
# Elastic Constant Matrix: (Units=GPa)
#
#
# Indices 1 2 3 4 5 6 
#
# 1 107.2859 27.0637 36.0619 0.0000 -9.2306 0.0000
# 2 27.0637 107.8779 27.7494 0.0000 -8.6113 0.0000
# 3 36.0619 27.7494 104.6479 0.0000 -8.8405 0.0000
# 4 0.0000 0.0000 0.0000 12.1130 0.0000 -6.6239
# 5 -9.2306 -8.6113 -8.8405 0.0000 44.8500 0.0000
# 6 0.0000 0.0000 0.0000 -6.6239 0.0000 13.0485
#
#
#
# Elastic Compliance Matrix: (Units=1/GPa)
#
#
# Indices 1 2 3 4 5 6 
#
# 1 0.010963 -0.001829 -0.003185 0.000000 0.001277 0.000000
# 2 -0.001829 0.010342 -0.002010 0.000000 0.001213 0.000000
# 3 -0.003185 -0.002010 0.011286 0.000000 0.001183 0.000000
# 4 0.000000 0.000000 0.000000 0.114280 0.000000 0.058013
# 5 0.001277 0.001213 0.001183 0.000000 0.023026 0.000000
# 6 0.000000 0.000000 0.000000 0.058013 0.000000 0.106086
#
#
# Mechanical properties :
#
#
# Convention : Reuss Voigt Hill
#
# Bulk Modulus (GPa) = 53.92547 55.72907 54.82727
# Shear Modulus (GPa) = 16.87982 29.26474 23.07228
#
# Velocity S-wave (km/s) = 2.81453 3.70591 3.29054
# Velocity P-wave (km/s) = 5.98907 6.66820 6.33774
#
# Compressibility (1/GPa) = 0.01854411
#
# Stress axis : x y z
#
# Youngs Moduli (GPa) = 91.21842 96.68940 88.60354
#
# Poissons Ratio (x) = 0.17685 0.28219
# Poissons Ratio (y) = 0.16684 0.17807
# Poissons Ratio (z) = 0.29052 0.19432
#
# Static dielectric constant tensor:
#      x y z
#    x 1.873160 0.000000 -0.070000 
#    y 0.000000 1.799460 0.000000 
#    z -0.070000 0.000000 1.923150 
# 
# From -- ./inp_files/11762.got.cif
#   From: 2010.05.17/outbox.cif.g08.bks.cpg/sg3_6_cif.got.tgz:11762.got - 2010.06.03 18:33:08.
