data_PCOD9112769
_publ_section_title
;
Structure prediction by ZEFSAII (Michael W. Deem and Ramdas Pophale) SiO2 
 PCOD9112769
Probable space group: P 2
;
_chemical_formula_sum "Si O2"
_cell_formula_units_Z 16
_cell_length_a 8.394649
_cell_length_b 5.359202
_cell_length_c 17.707691
_cell_angle_alpha 90.000000
_cell_angle_beta 62.368042
_cell_angle_gamma 90.000000
_cell_volume 705.783301
_symmetry_space_group_name_H-M "P 2"
_symmetry_group_IT_number 3
_symmetry_cell_setting 'monoclinic'
loop_
_space_group_symop_operation_xyz
x,y,z
-x,y,-z
loop_
_atom_site_type_symbol
_atom_site_label
_atom_site_fract_x
_atom_site_fract_y
_atom_site_fract_z
Si Si1 0.183176 0.906660 0.003310
Si Si2 0.336667 0.751453 0.816322
Si Si3 0.778061 0.206775 0.862858
Si Si4 0.291263 0.874665 0.338748
Si Si5 0.196003 0.250934 0.767995
Si Si6 0.486629 0.186133 0.414290
Si Si7 0.161847 0.379420 0.407697
Si Si8 0.342076 0.704925 0.095396
O O1 0.311959 0.796565 0.910778
O O2 0.169537 0.705614 0.074358
O O3 0.000000 0.956971 0.000000
O O4 0.239189 0.145070 0.042194
O O5 0.236887 0.989354 0.800912
O O6 0.542801 0.777991 0.746813
O O7 0.258311 0.488156 0.804570
O O8 0.656714 0.439085 0.867285
O O9 0.984359 0.255608 0.798852
O O10 0.702485 0.948562 0.847200
O O11 0.147975 0.651992 0.374554
O O12 0.392022 0.946496 0.395899
O O13 0.198778 0.144964 0.343821
O O14 0.323036 0.242540 0.666588
O O15 0.500000 0.166215 0.500000
O O16 0.343931 0.392207 0.417685
O O17 0.000000 0.321909 0.500000
O O18 0.500000 0.741707 0.000000
#
# Coordination Sequence:
#
# PCOD9112769 Si02
#       8
#     2   2   2   2   2   2   2   2
#     4  10  21  33  59  90 109 146 194 244 272 337
#     4  11  19  34  55  84 122 144 188 239 294 335
#     4  10  21  35  57  83 111 149 193 230 284 334
#     4   9  19  35  54  86 107 156 180 232 286 340
#     4  11  20  36  56  86 120 149 182 248 298 330
#     4   9  21  37  60  87 113 150 191 235 291 351
#     4  10  19  36  60  81 112 148 192 227 286 347
#     4  10  22  39  58  78 115 157 190 227 288 344
#
# _framework density 22.669847000000001
#
# number of rings (size 3 to 8) (size 9 to 14) (size 15 to 20)
#    1.500    0.500    2.500    2.250    1.750    1.000 
#    0.000    0.000    5.500    0.000    0.000    0.000 
#    0.000    0.000    0.000    0.000    0.000    0.000 
#
# Total GULP energy -89154.375051 kJ/mol
# GULP energy per Si atom -5572.148441 kJ/mol
# Density = 2.261825 g / cm^3
# Si number density = 22.669847 Si / 1000 Ang^3
#
#
#
# Elastic Constant Matrix: (Units=GPa)
#
#
# Indices 1 2 3 4 5 6 
#
# 1 43.6546 17.3998 14.5655 0.0000 2.5465 0.0000
# 2 17.3998 163.6864 27.7785 0.0000 -12.7321 0.0000
# 3 14.5655 27.7785 106.3294 0.0000 -16.7061 0.0000
# 4 0.0000 0.0000 0.0000 17.2414 0.0000 -15.9694
# 5 2.5465 -12.7321 -16.7061 0.0000 43.4349 0.0000
# 6 0.0000 0.0000 0.0000 -15.9694 0.0000 15.7217
#
#
#
# Elastic Compliance Matrix: (Units=1/GPa)
#
#
# Indices 1 2 3 4 5 6 
#
# 1 0.025182 -0.002374 -0.003375 0.000000 -0.003470 0.000000
# 2 -0.002374 0.006687 -0.001162 0.000000 0.001652 0.000000
# 3 -0.003375 -0.001162 0.010801 0.000000 0.004011 0.000000
# 4 0.000000 0.000000 0.000000 0.980019 0.000000 0.995462
# 5 -0.003470 0.001652 0.004011 0.000000 0.025254 0.000000
# 6 0.000000 0.000000 0.000000 0.995462 0.000000 1.074755
#
#
# Mechanical properties :
#
#
# Convention : Reuss Voigt Hill
#
# Bulk Modulus (GPa) = 34.66403 48.12868 41.39636
# Shear Modulus (GPa) = 2.32977 32.20802 17.26890
#
# Velocity S-wave (km/s) = 1.01485 3.77336 2.76299
# Velocity P-wave (km/s) = 4.08623 6.34513 5.33657
#
# Compressibility (1/GPa) = 0.02884835
#
# Stress axis : x y z
#
# Youngs Moduli (GPa) = 39.71139 149.53545 92.58495
#
# Poissons Ratio (x) = 0.35501 0.31243
# Poissons Ratio (y) = 0.09428 0.10761
# Poissons Ratio (z) = 0.13401 0.17380
#
# Static dielectric constant tensor:
#      x y z
#    x 1.930410 0.000000 -0.035380 
#    y 0.000000 1.934610 0.000000 
#    z -0.035380 0.000000 1.868470 
# 
# From -- ./inp_files/16268.got.cif
#   From: 2010.05.17/outbox.cif.g08.bks.cpg/sg3_9_cif.got.tgz:16268.got - 2010.06.03 18:33:08.
