data_PCOD9112754
_publ_section_title
;
Structure prediction by ZEFSAII (Michael W. Deem and Ramdas Pophale) SiO2 
 PCOD9112754
Probable space group: P 2
;
_chemical_formula_sum "Si O2"
_cell_formula_units_Z 14
_cell_length_a 24.315392
_cell_length_b 5.434372
_cell_length_c 7.301333
_cell_angle_alpha 90.000000
_cell_angle_beta 143.681659
_cell_angle_gamma 90.000000
_cell_volume 571.417271
_symmetry_space_group_name_H-M "P 2"
_symmetry_group_IT_number 3
_symmetry_cell_setting 'monoclinic'
loop_
_space_group_symop_operation_xyz
x,y,z
-x,y,-z
loop_
_atom_site_type_symbol
_atom_site_label
_atom_site_fract_x
_atom_site_fract_y
_atom_site_fract_z
Si Si1 0.741468 0.245800 0.340860
Si Si2 0.728158 0.547010 0.968129
Si Si3 0.925651 0.776234 0.067357
Si Si4 0.447876 0.989104 0.161793
Si Si5 0.521797 0.498666 0.339387
Si Si6 0.160226 0.286574 0.030451
Si Si7 0.870012 0.884878 0.519418
O O1 0.706524 0.456145 0.114420
O O2 0.762240 0.312693 0.603203
O O3 0.837518 0.147453 0.509679
O O4 0.661142 0.041854 0.112888
O O5 0.791919 0.782140 0.174215
O O6 0.629613 0.567932 0.606944
O O7 0.789561 0.348373 0.023800
O O8 0.911111 0.513445 0.125452
O O9 0.880169 0.744100 0.742365
O O10 0.880587 0.012877 0.048778
O O11 0.031415 0.855238 0.312959
O O12 0.500000 0.969886 0.500000
O O13 0.493394 0.230358 0.193100
O O14 0.464170 0.728602 0.111451
O O15 0.500000 0.478931 0.500000
#
# Coordination Sequence:
#
# PCOD9112754 Si02
#       7
#     2   2   2   2   2   2   2
#     4  11  23  44  69  98 135 182 230 277 347 409
#     4  12  24  42  71  99 134 182 228 277 355 406
#     4  10  24  47  65 100 140 176 231 288 335 405
#     4  10  19  35  64  92 126 165 215 275 325 391
#     4  10  20  36  62  96 125 165 218 273 323 404
#     4  11  27  44  67 101 141 172 230 289 336 409
#     4  10  23  41  75  92 134 190 228 274 350 408
#
# _framework density 24.500482999999999
#
# number of rings (size 3 to 8) (size 9 to 14) (size 15 to 20)
#    0.000    1.429    4.286    1.714    4.000    1.714 
#    0.000    0.714    0.000    3.429    0.000    0.000 
#    0.000    0.000    0.000    0.000    0.000    0.000 
#
# Total GULP energy -78248.332938 kJ/mol
# GULP energy per Si atom -5589.166638 kJ/mol
# Density = 2.444472 g / cm^3
# Si number density = 24.500483 Si / 1000 Ang^3
#
#
#
# Elastic Constant Matrix: (Units=GPa)
#
#
# Indices 1 2 3 4 5 6 
#
# 1 83.5065 15.1307 33.9863 0.0000 -9.8261 0.0000
# 2 15.1307 117.3991 10.3327 0.0000 -2.5726 0.0000
# 3 33.9863 10.3327 71.7755 0.0000 14.2438 0.0000
# 4 0.0000 0.0000 0.0000 14.9718 0.0000 9.3400
# 5 -9.8261 -2.5726 14.2438 0.0000 36.6274 0.0000
# 6 0.0000 0.0000 0.0000 9.3400 0.0000 9.4903
#
#
#
# Elastic Compliance Matrix: (Units=1/GPa)
#
#
# Indices 1 2 3 4 5 6 
#
# 1 0.017025 -0.001177 -0.009516 0.000000 0.008185 0.000000
# 2 -0.001177 0.008756 -0.000826 0.000000 0.000620 0.000000
# 3 -0.009516 -0.000826 0.020671 0.000000 -0.010649 0.000000
# 4 0.000000 0.000000 0.000000 0.173018 0.000000 -0.170277
# 5 0.008185 0.000620 -0.010649 0.000000 0.033683 0.000000
# 6 0.000000 0.000000 0.000000 -0.170277 0.000000 0.272950
#
#
# Mechanical properties :
#
#
# Convention : Reuss Voigt Hill
#
# Bulk Modulus (GPa) = 42.71317 43.50895 43.11106
# Shear Modulus (GPa) = 8.97754 26.43333 17.70543
#
# Velocity S-wave (km/s) = 1.91629 3.28821 2.69114
# Velocity P-wave (km/s) = 4.72945 5.67568 5.22403
#
# Compressibility (1/GPa) = 0.02341198
#
# Stress axis : x y z
#
# Youngs Moduli (GPa) = 58.73873 114.20754 48.37787
#
# Poissons Ratio (x) = 0.13445 0.46037
# Poissons Ratio (y) = 0.06915 0.03997
# Poissons Ratio (z) = 0.55897 0.09436
#
# Static dielectric constant tensor:
#      x y z
#    x 1.944270 0.000000 -0.014360 
#    y 0.000000 1.978640 0.000000 
#    z -0.014360 0.000000 2.006950 
# 
# From -- ./inp_files/9590.got.cif
#   From: 2010.05.17/outbox.cif.g08.bks.cpg/sg3_5_cif.got.tgz:9590.got - 2010.06.03 18:33:08.
