data_PCOD9112425
_publ_section_title
;
Structure prediction by ZEFSAII (Michael W. Deem and Ramdas Pophale) SiO2 
 PCOD9112425
Probable space group: P -1
;
_chemical_formula_sum "Si O2"
_cell_formula_units_Z 16
_cell_length_a 7.004732
_cell_length_b 10.933189
_cell_length_c 14.742957
_cell_angle_alpha 34.160137
_cell_angle_beta 98.510111
_cell_angle_gamma 114.312318
_cell_volume 535.229781
_symmetry_space_group_name_H-M "P -1"
_symmetry_group_IT_number 2
_symmetry_cell_setting 'triclinic'
loop_
_space_group_symop_operation_xyz
x,y,z
-x,-y,-z
loop_
_atom_site_type_symbol
_atom_site_label
_atom_site_fract_x
_atom_site_fract_y
_atom_site_fract_z
Si Si1 0.469559 0.510816 0.384707
Si Si2 0.345695 0.749979 0.822214
Si Si3 0.156761 0.601848 0.718111
Si Si4 0.065908 0.166583 0.214238
Si Si5 0.188102 0.956673 0.973141
Si Si6 0.997046 0.641058 0.502286
Si Si7 0.561893 0.887071 0.933561
Si Si8 0.260372 0.320799 0.313494
O O1 0.500000 0.500000 0.500000
O O2 0.706469 0.746568 0.223869
O O3 0.249053 0.538109 0.357465
O O4 0.365172 0.292806 0.431965
O O5 0.354014 0.762144 0.706174
O O6 0.151264 0.804830 0.807589
O O7 0.545784 0.915045 0.807251
O O8 0.250737 0.448445 0.019095
O O9 0.994934 0.093618 0.679802
O O10 0.178014 0.666191 0.573981
O O11 0.952119 0.641755 0.710126
O O12 0.162544 0.131604 0.338470
O O13 0.045704 0.296838 0.911429
O O14 0.373873 0.925054 0.948394
O O15 0.218701 0.963528 0.080202
O O16 0.000000 0.500000 0.500000
O O17 0.461993 0.588555 0.126314
#
# Coordination Sequence:
#
# PCOD9112425 Si02
#       8
#     2   2   2   2   2   2   2   2
#     4  10  21  32  54  89 111 142 195 242 288 324
#     4   9  17  29  56  88 107 136 192 258 282 309
#     4   9  18  33  54  81 111 147 191 232 292 331
#     4   9  17  32  54  79 113 142 186 236 287 331
#     4   9  16  30  51  79 115 143 178 239 287 337
#     4  11  24  39  53  79 125 162 181 220 294 364
#     4   8  13  24  45  76 111 133 162 226 302 323
#     4   7  14  29  47  78 106 133 176 238 286 320
#
# _framework density 29.893704
#
# number of rings (size 3 to 8) (size 9 to 14) (size 15 to 20)
#    0.000    3.000    0.000    4.500    3.500    4.500 
#    0.000    0.625    0.000    0.750    0.000   25.375 
#    0.000    0.000    0.000    0.000    0.000    0.000 
#
# Total GULP energy -89464.193426 kJ/mol
# GULP energy per Si atom -5591.512089 kJ/mol
# Density = 2.982566 g / cm^3
# Si number density = 29.893704 Si / 1000 Ang^3
#
#
#
# Elastic Constant Matrix: (Units=GPa)
#
#
# Indices 1 2 3 4 5 6 
#
# 1 133.8228 38.8467 27.4895 -20.8261 -7.2503 -8.0868
# 2 38.8467 284.0972 66.5119 56.4340 14.1995 -3.0312
# 3 27.4895 66.5119 129.8195 10.4676 12.1035 -5.4694
# 4 -20.8261 56.4340 10.4676 76.0722 -6.2184 13.3754
# 5 -7.2503 14.1995 12.1035 -6.2184 27.2222 -10.8638
# 6 -8.0868 -3.0312 -5.4694 13.3754 -10.8638 48.9588
#
#
#
# Elastic Compliance Matrix: (Units=1/GPa)
#
#
# Indices 1 2 3 4 5 6 
#
# 1 0.009606 -0.002107 -0.001846 0.004713 0.006078 0.001311
# 2 -0.002107 0.005265 -0.001535 -0.004611 -0.003569 0.000274
# 3 -0.001846 -0.001535 0.009339 -0.000986 -0.004064 0.000011
# 4 0.004713 -0.004611 -0.000986 0.019151 0.007174 -0.003257
# 5 0.006078 -0.003569 -0.004064 0.007174 0.047189 0.008840
# 6 0.001311 0.000274 0.000011 -0.003257 0.008840 0.023512
#
#
# Mechanical properties :
#
#
# Convention : Reuss Voigt Hill
#
# Bulk Modulus (GPa) = 75.56811 90.38174 82.97493
# Shear Modulus (GPa) = 38.62537 58.11008 48.36773
#
# Velocity S-wave (km/s) = 3.59847 4.41374 4.02679
# Velocity P-wave (km/s) = 6.52680 7.50165 7.03114
#
# Compressibility (1/GPa) = 0.01323309
#
# Stress axis : x y z
#
# Youngs Moduli (GPa) = 104.10698 189.94215 107.07610
#
# Poissons Ratio (x) = 0.40028 0.19764
# Poissons Ratio (y) = 0.21939 0.16436
# Poissons Ratio (z) = 0.19216 0.29156
#
# Static dielectric constant tensor:
#      x y z
#    x 2.382000 -0.003330 0.005600 
#    y -0.003330 2.396390 0.079300 
#    z 0.005600 0.079300 2.383410 
# 
# From -- ./inp_files/520172.got.cif
#   From: 2010.05.17/outbox.cif.g08.bks.cpg/sg2_261_cif.got.tgz:520172.got - 2010.06.03 11:33:40.
