data_PCOD9112194
_publ_section_title
;
Structure prediction by ZEFSAII (Michael W. Deem and Ramdas Pophale) SiO2 
 PCOD9112194
Probable space group: P -1
;
_chemical_formula_sum "Si O2"
_cell_formula_units_Z 14
_cell_length_a 11.307886
_cell_length_b 9.375239
_cell_length_c 6.844334
_cell_angle_alpha 87.247305
_cell_angle_beta 43.350364
_cell_angle_gamma 85.902322
_cell_volume 496.809649
_symmetry_space_group_name_H-M "P -1"
_symmetry_group_IT_number 2
_symmetry_cell_setting 'triclinic'
loop_
_space_group_symop_operation_xyz
x,y,z
-x,-y,-z
loop_
_atom_site_type_symbol
_atom_site_label
_atom_site_fract_x
_atom_site_fract_y
_atom_site_fract_z
Si Si1 0.066315 0.699391 0.396777
Si Si2 0.709269 0.558325 0.830142
Si Si3 0.450891 0.116679 0.283149
Si Si4 0.624823 0.581141 0.486063
Si Si5 0.480370 0.807741 0.241889
Si Si6 0.130853 0.665160 0.773889
Si Si7 0.050653 0.110771 0.766924
O O1 0.231820 0.596771 0.145667
O O2 0.065313 0.689947 0.631617
O O3 0.890392 0.626731 0.554915
O O4 0.058843 0.856812 0.301045
O O5 0.614803 0.544090 0.734683
O O6 0.623143 0.677170 0.068764
O O7 0.425029 0.249389 0.455280
O O8 0.250647 0.087436 0.477364
O O9 0.531569 0.960755 0.253416
O O10 0.540341 0.162710 0.970847
O O11 0.500000 0.500000 0.500000
O O12 0.808522 0.496313 0.230295
O O13 0.306702 0.754038 0.548824
O O14 0.998043 0.741315 0.073808
O O15 0.000000 0.000000 0.000000
#
# Coordination Sequence:
#
# PCOD9112194 Si02
#       7
#     2   2   2   2   2   2   2
#     4  10  22  46  72 110 154 197 247 313 380 455
#     4   9  20  43  77 108 147 203 250 303 384 452
#     4  10  22  44  74 103 154 195 246 312 372 449
#     4  10  22  44  71 110 149 193 250 314 367 443
#     4  10  20  44  75 106 148 194 248 308 371 451
#     4  11  26  42  75 113 147 200 254 309 382 447
#     4  12  24  46  72 112 154 196 252 313 379 456
#
# _framework density 28.179807
#
# number of rings (size 3 to 8) (size 9 to 14) (size 15 to 20)
#    0.000    1.714    4.286    0.000    0.000    9.714 
#    2.571    2.143    0.000    0.000    0.000    0.000 
#    0.000    0.000    0.000    0.000    0.000    0.000 
#
# Total GULP energy -78374.606239 kJ/mol
# GULP energy per Si atom -5598.186160 kJ/mol
# Density = 2.811567 g / cm^3
# Si number density = 28.179807 Si / 1000 Ang^3
#
#
#
# Elastic Constant Matrix: (Units=GPa)
#
#
# Indices 1 2 3 4 5 6 
#
# 1 112.9264 48.0949 25.8861 -2.2467 13.0608 -15.0691
# 2 48.0949 208.3379 41.5458 18.9424 1.7730 -22.4249
# 3 25.8861 41.5458 122.7717 23.2384 0.2512 -9.9678
# 4 -2.2467 18.9424 23.2384 66.4820 2.1671 8.0912
# 5 13.0608 1.7730 0.2512 2.1671 36.5163 3.7696
# 6 -15.0691 -22.4249 -9.9678 8.0912 3.7696 47.5438
#
#
#
# Elastic Compliance Matrix: (Units=1/GPa)
#
#
# Indices 1 2 3 4 5 6 
#
# 1 0.010909 -0.002034 -0.001687 0.001400 -0.004105 0.002232
# 2 -0.002034 0.005860 -0.001071 -0.001636 0.000326 0.002147
# 3 -0.001687 -0.001071 0.009610 -0.003313 0.000632 0.001489
# 4 0.001400 -0.001636 -0.003313 0.017218 -0.001021 -0.003872
# 5 -0.004105 0.000326 0.000632 -0.001021 0.029220 -0.003158
# 6 0.002232 0.002147 0.001489 -0.003872 -0.003158 0.023975
#
#
# Mechanical properties :
#
#
# Convention : Reuss Voigt Hill
#
# Bulk Modulus (GPa) = 59.54251 75.00994 67.27622
# Shear Modulus (GPa) = 44.65358 52.00904 48.33131
#
# Velocity S-wave (km/s) = 3.98502 4.30072 4.14587
# Velocity P-wave (km/s) = 6.50762 7.16503 6.84423
#
# Compressibility (1/GPa) = 0.01679472
#
# Stress axis : x y z
#
# Youngs Moduli (GPa) = 91.66941 170.64509 104.05912
#
# Poissons Ratio (x) = 0.34709 0.17557
# Poissons Ratio (y) = 0.18646 0.11143
# Poissons Ratio (z) = 0.15467 0.18273
#
# Static dielectric constant tensor:
#      x y z
#    x 2.291550 -0.042650 0.070020 
#    y -0.042650 2.281250 -0.062540 
#    z 0.070020 -0.062540 2.213410 
# 
# From -- ./inp_files/70226.got.cif
#   From: 2010.05.17/outbox.cif.g08.bks.cpg/sg2_36_cif.got.tgz:70226.got - 2010.06.03 11:33:40.
