data_PCOD9112002
_publ_section_title
;
Structure prediction by ZEFSAII (Michael W. Deem and Ramdas Pophale) SiO2 
 PCOD9112002
Probable space group: P -1
;
_chemical_formula_sum "Si O2"
_cell_formula_units_Z 15
_cell_length_a 11.771196
_cell_length_b 7.754871
_cell_length_c 10.844569
_cell_angle_alpha 50.347116
_cell_angle_beta 49.701742
_cell_angle_gamma 77.070609
_cell_volume 550.378987
_symmetry_space_group_name_H-M "P -1"
_symmetry_group_IT_number 2
_symmetry_cell_setting 'triclinic'
loop_
_space_group_symop_operation_xyz
x,y,z
-x,-y,-z
loop_
_atom_site_type_symbol
_atom_site_label
_atom_site_fract_x
_atom_site_fract_y
_atom_site_fract_z
Si Si1 0.768342 0.018793 0.158429
Si Si2 0.221242 0.121733 0.059088
Si Si3 0.849588 0.541063 0.751493
Si Si4 0.528550 0.369489 0.660049
Si Si5 0.919868 0.217039 0.203236
Si Si6 0.500000 0.500000 0.000000
Si Si7 0.824755 0.379100 0.571430
Si Si8 0.441041 0.990405 0.374084
O O1 0.883593 0.059858 0.174042
O O2 0.586073 0.940883 0.368442
O O3 0.803561 0.280330 0.959037
O O4 0.786661 0.880291 0.085396
O O5 0.057455 0.145338 0.208469
O O6 0.241933 0.883937 0.206046
O O7 0.383743 0.331649 0.870635
O O8 0.695176 0.612618 0.845262
O O9 0.866004 0.540585 0.590743
O O10 0.035321 0.634975 0.609045
O O11 0.500000 0.500000 0.500000
O O12 0.698887 0.474835 0.549305
O O13 0.527737 0.109134 0.736570
O O14 0.740772 0.154275 0.405872
O O15 0.000000 0.500000 0.000000
O O16 0.521433 0.732796 0.793443
#
# Coordination Sequence:
#
# PCOD9112002 Si02
#       8
#     2   2   2   2   2   1   2   2
#     4   9  21  42  66  88 138 182 231 272 332 422
#     4  10  22  42  65  95 126 183 231 276 345 411
#     4   9  20  39  67  98 123 181 221 284 333 404
#     4  11  24  44  67  98 137 180 225 291 352 411
#     4  12  24  40  65 105 144 172 228 294 356 410
#     4  10  20  44  66  94 138 172 238 268 336 414
#     4  10  21  42  67  94 133 170 242 275 338 414
#     4  10  23  44  65  98 136 184 228 274 354 408
#
# _framework density 27.253947
#
# number of rings (size 3 to 8) (size 9 to 14) (size 15 to 20)
#    0.000    1.867    0.000    3.600    3.733    0.000 
#   26.400    1.333    0.000    0.000    0.000    0.000 
#    0.000    0.000    0.000    0.000    0.000    0.000 
#
# Total GULP energy -83509.280412 kJ/mol
# GULP energy per Si atom -5567.285361 kJ/mol
# Density = 2.719192 g / cm^3
# Si number density = 27.253947 Si / 1000 Ang^3
#
#
#
# Elastic Constant Matrix: (Units=GPa)
#
#
# Indices 1 2 3 4 5 6 
#
# 1 147.8531 26.1734 60.5082 22.8418 -42.0818 -41.3570
# 2 26.1734 63.3334 38.1775 22.2670 -5.1229 4.7087
# 3 60.5082 38.1775 176.9009 17.4727 -51.3411 -19.5017
# 4 22.8418 22.2670 17.4727 54.0201 -14.0940 -3.8109
# 5 -42.0818 -5.1229 -51.3411 -14.0940 46.5239 6.7390
# 6 -41.3570 4.7087 -19.5017 -3.8109 6.7390 32.2912
#
#
#
# Elastic Compliance Matrix: (Units=1/GPa)
#
#
# Indices 1 2 3 4 5 6 
#
# 1 0.018136 -0.010226 0.002973 0.001297 0.015560 0.023421
# 2 -0.010226 0.029099 -0.008561 -0.010439 -0.015691 -0.020468
# 3 0.002973 -0.008561 0.011172 0.002861 0.013595 0.009304
# 4 0.001297 -0.010439 0.002861 0.024278 0.009703 0.005751
# 5 0.015560 -0.015691 0.013595 0.009703 0.048681 0.021413
# 6 0.023421 -0.020468 0.009304 0.005751 0.021413 0.065778
#
#
# Mechanical properties :
#
#
# Convention : Reuss Voigt Hill
#
# Bulk Modulus (GPa) = 37.34211 70.86730 54.10470
# Shear Modulus (GPa) = 21.03496 44.11561 32.57528
#
# Velocity S-wave (km/s) = 2.78117 4.02766 3.46099
# Velocity P-wave (km/s) = 4.90352 6.90568 5.98886
#
# Compressibility (1/GPa) = 0.02677942
#
# Stress axis : x y z
#
# Youngs Moduli (GPa) = 55.13747 34.36534 89.50800
#
# Poissons Ratio (x) = 0.35141 -0.26612
# Poissons Ratio (y) = 0.56383 0.76632
# Poissons Ratio (z) = -0.16393 0.29422
#
# Static dielectric constant tensor:
#      x y z
#    x 2.272440 0.114950 -0.107980 
#    y 0.114950 2.232170 0.022230 
#    z -0.107980 0.022230 2.118290 
# 
# From -- ./inp_files/416240.got.cif
#   From: 2010.05.17/outbox.cif.g08.bks.cpg/sg2_209_cif.got.tgz:416240.got - 2010.06.03 11:33:40.
