data_PCOD9112978
_publ_section_title
;
Structure prediction by ZEFSAII (Michael W. Deem and Ramdas Pophale) SiO2 
 PCOD9112978
Probable space group: P 2
;
_chemical_formula_sum "Si O2"
_cell_formula_units_Z 12
_cell_length_a 9.345684
_cell_length_b 7.705665
_cell_length_c 13.079033
_cell_angle_alpha 90.000000
_cell_angle_beta 143.437699
_cell_angle_gamma 90.000000
_cell_volume 561.076283
_symmetry_space_group_name_H-M "P 2"
_symmetry_group_IT_number 3
_symmetry_cell_setting 'monoclinic'
loop_
_space_group_symop_operation_xyz
x,y,z
-x,y,-z
loop_
_atom_site_type_symbol
_atom_site_label
_atom_site_fract_x
_atom_site_fract_y
_atom_site_fract_z
Si Si1 0.722668 0.864160 0.060147
Si Si2 0.259866 0.862245 0.149538
Si Si3 0.823730 0.352409 0.676843
Si Si4 0.360131 0.276447 0.022518
Si Si5 0.760934 0.736933 0.652207
Si Si6 0.517647 0.209643 0.337956
O O1 0.998300 0.828113 0.250254
O O2 0.690915 0.069781 0.022665
O O3 0.500000 0.805854 0.000000
O O4 0.691887 0.779754 0.931352
O O5 0.217939 0.723236 0.213129
O O6 0.456413 0.007619 0.285331
O O7 0.000000 0.959720 0.000000
O O8 0.745717 0.545697 0.599352
O O9 0.764917 0.237578 0.542457
O O10 0.673609 0.282627 0.688121
O O11 0.098618 0.360722 0.867835
O O12 0.500000 0.333159 0.000000
O O13 0.487085 0.292641 0.206821
O O14 0.500000 0.827349 0.500000
#
# Coordination Sequence:
#
# PCOD9112978 Si02
#       6
#     2   2   2   2   2   2
#     4   9  20  40  62  88 115 154 205 242 301 361
#     4   9  19  35  61  89 113 152 199 249 298 351
#     4  11  22  37  58  90 120 160 195 249 299 355
#     4  10  22  40  63  88 120 159 197 249 303 357
#     4  11  22  37  56  90 120 152 198 243 300 352
#     4  10  20  37  60  91 116 149 208 245 295 353
#
# _framework density 21.387464999999999
#
# number of rings (size 3 to 8) (size 9 to 14) (size 15 to 20)
#    0.000    2.000    1.667    3.500    4.667    5.333 
#    0.000    0.833    3.667    0.000    0.000    0.000 
#    0.000    0.000    0.000    0.000    0.000    0.000 
#
# Total GULP energy -66822.795834 kJ/mol
# GULP energy per Si atom -5568.566320 kJ/mol
# Density = 2.133879 g / cm^3
# Si number density = 21.387465 Si / 1000 Ang^3
#
#
#
# Elastic Constant Matrix: (Units=GPa)
#
#
# Indices 1 2 3 4 5 6 
#
# 1 138.1189 -1.2354 50.4179 0.0000 -4.3202 0.0000
# 2 -1.2354 24.4463 15.0524 0.0000 0.0981 0.0000
# 3 50.4179 15.0524 100.9646 0.0000 -10.9045 0.0000
# 4 0.0000 0.0000 0.0000 24.0712 0.0000 3.1501
# 5 -4.3202 0.0981 -10.9045 0.0000 33.1989 0.0000
# 6 0.0000 0.0000 0.0000 3.1501 0.0000 7.5765
#
#
#
# Elastic Compliance Matrix: (Units=1/GPa)
#
#
# Indices 1 2 3 4 5 6 
#
# 1 0.009142 0.003644 -0.005164 0.000000 -0.000517 0.000000
# 2 0.003644 0.046682 -0.009064 0.000000 -0.002641 0.000000
# 3 -0.005164 -0.009064 0.014271 0.000000 0.004042 0.000000
# 4 0.000000 0.000000 0.000000 0.043934 0.000000 -0.018266
# 5 -0.000517 -0.002641 0.004042 0.000000 0.031390 0.000000
# 6 0.000000 0.000000 0.000000 -0.018266 0.000000 0.139581
#
#
# Mechanical properties :
#
#
# Convention : Reuss Voigt Hill
#
# Bulk Modulus (GPa) = 20.43935 43.55549 31.99742
# Shear Modulus (GPa) = 15.50500 26.25567 20.88034
#
# Velocity S-wave (km/s) = 2.69542 3.50754 3.12795
# Velocity P-wave (km/s) = 4.38914 6.06737 5.29516
#
# Compressibility (1/GPa) = 0.04892523
#
# Stress axis : x y z
#
# Youngs Moduli (GPa) = 109.39001 21.42158 70.07147
#
# Poissons Ratio (x) = -0.07805 0.36185
# Poissons Ratio (y) = -0.39859 0.63515
# Poissons Ratio (z) = 0.56490 0.19417
#
# Static dielectric constant tensor:
#      x y z
#    x 1.788220 0.000000 0.005350 
#    y 0.000000 1.801460 0.000000 
#    z 0.005350 0.000000 1.920700 
# 
# From -- ./inp_files/10626.got.cif
#   From: 2010.05.17/outbox.cif.g08.bks.cpg/sg3_6_cif.got.tgz:10626.got - 2010.06.03 18:33:08.
