data_PCOD9112968
_publ_section_title
;
Structure prediction by ZEFSAII (Michael W. Deem and Ramdas Pophale) SiO2 
 PCOD9112968
Probable space group: P 2
;
_chemical_formula_sum "Si O2"
_cell_formula_units_Z 12
_cell_length_a 8.981825
_cell_length_b 5.588186
_cell_length_c 10.258631
_cell_angle_alpha 90.000000
_cell_angle_beta 64.682478
_cell_angle_gamma 90.000000
_cell_volume 465.446889
_symmetry_space_group_name_H-M "P 2"
_symmetry_group_IT_number 3
_symmetry_cell_setting 'monoclinic'
loop_
_space_group_symop_operation_xyz
x,y,z
-x,y,-z
loop_
_atom_site_type_symbol
_atom_site_label
_atom_site_fract_x
_atom_site_fract_y
_atom_site_fract_z
Si Si1 0.421769 0.934220 0.806047
Si Si2 0.201736 0.314605 0.772637
Si Si3 0.801739 0.583431 0.955073
Si Si4 0.500000 0.297655 0.000000
Si Si5 0.274055 0.976397 0.417270
Si Si6 0.016772 0.968325 0.283262
Si Si7 0.500000 0.345471 0.500000
O O1 0.322575 0.776900 0.940760
O O2 0.576664 0.805777 0.681687
O O3 0.291392 0.058624 0.760864
O O4 0.486754 0.144857 0.874189
O O5 0.164476 0.431859 0.925415
O O6 0.346352 0.456521 0.640650
O O7 0.035914 0.221999 0.763882
O O8 0.673325 0.433526 0.917888
O O9 0.064693 0.750322 0.168474
O O10 0.140368 0.892850 0.571334
O O11 0.164291 0.018311 0.329581
O O12 0.385115 0.186857 0.442607
#
# Coordination Sequence:
#
# PCOD9112968 Si02
#       7
#     2   2   2   1   2   2   1
#     4  10  20  39  63  91 129 175 231 284 334 406
#     4   9  21  40  64  95 135 180 232 284 343 413
#     4  11  22  39  69 101 138 186 229 284 354 414
#     4  10  20  36  66 102 132 172 232 288 340 412
#     4   9  18  36  69  98 133 181 224 287 354 407
#     4  10  20  38  65 102 141 179 227 285 350 418
#     4   8  16  38  68 100 132 178 236 292 344 410
#
# _framework density 25.781672
#
# number of rings (size 3 to 8) (size 9 to 14) (size 15 to 20)
#    0.000    2.333    0.000    2.500    0.000    0.667 
#    0.000   15.000    0.000   60.000    0.000    0.000 
#    0.000    0.000    0.000    0.000    0.000    0.000 
#
# Total GULP energy -66958.364915 kJ/mol
# GULP energy per Si atom -5579.863743 kJ/mol
# Density = 2.572299 g / cm^3
# Si number density = 25.781672 Si / 1000 Ang^3
#
#
#
# Elastic Constant Matrix: (Units=GPa)
#
#
# Indices 1 2 3 4 5 6 
#
# 1 184.2953 56.3248 71.6627 0.0000 -7.6464 0.0000
# 2 56.3248 70.2965 37.8754 0.0000 2.9794 0.0000
# 3 71.6627 37.8754 134.6232 0.0000 -11.4362 0.0000
# 4 0.0000 0.0000 0.0000 -43.4574 0.0000 24.4111
# 5 -7.6464 2.9794 -11.4362 0.0000 72.6833 0.0000
# 6 0.0000 0.0000 0.0000 24.4111 0.0000 28.6727
#
#
#
# Elastic Compliance Matrix: (Units=1/GPa)
#
#
# Indices 1 2 3 4 5 6 
#
# 1 0.008076 -0.004960 -0.002852 0.000000 0.000604 0.000000
# 2 -0.004960 0.019965 -0.003133 0.000000 -0.001833 0.000000
# 3 -0.002852 -0.003133 0.009946 0.000000 0.001393 0.000000
# 4 0.000000 0.000000 0.000000 -0.015567 0.000000 0.013253
# 5 0.000604 -0.001833 0.001393 0.000000 0.014116 0.000000
# 6 0.000000 0.000000 0.000000 0.013253 0.000000 0.023593
#
#
# Mechanical properties :
#
#
# Convention : Reuss Voigt Hill
#
# Bulk Modulus (GPa) = 62.11982 80.10453 71.11218
# Shear Modulus (GPa) = 57.21787 26.46985 41.84386
#
# Velocity S-wave (km/s) = 4.71608 3.20768 4.03303
# Velocity P-wave (km/s) = 7.33499 6.69752 7.02349
#
# Compressibility (1/GPa) = 0.01609792
#
# Stress axis : x y z
#
# Youngs Moduli (GPa) = 123.82282 50.08795 100.54083
#
# Poissons Ratio (x) = 0.24842 0.28678
# Poissons Ratio (y) = 0.61412 0.31495
# Poissons Ratio (z) = 0.35319 0.15690
#
# Static dielectric constant tensor:
#      x y z
#    x 2.134310 0.000000 0.021300 
#    y 0.000000 2.165890 0.000000 
#    z 0.021300 0.000000 2.231680 
# 
# From -- ./inp_files/10190.got.cif
#   From: 2010.05.17/outbox.cif.g08.bks.cpg/sg3_6_cif.got.tgz:10190.got - 2010.06.03 18:33:08.
