data_PCOD9112920
_publ_section_title
;
Structure prediction by ZEFSAII (Michael W. Deem and Ramdas Pophale) SiO2 
 PCOD9112920
Probable space group: P 2
;
_chemical_formula_sum "Si O2"
_cell_formula_units_Z 12
_cell_length_a 8.384745
_cell_length_b 9.835455
_cell_length_c 9.061948
_cell_angle_alpha 90.000000
_cell_angle_beta 121.417307
_cell_angle_gamma 90.000000
_cell_volume 637.756877
_symmetry_space_group_name_H-M "P 2"
_symmetry_group_IT_number 3
_symmetry_cell_setting 'monoclinic'
loop_
_space_group_symop_operation_xyz
x,y,z
-x,y,-z
loop_
_atom_site_type_symbol
_atom_site_label
_atom_site_fract_x
_atom_site_fract_y
_atom_site_fract_z
Si Si1 0.806182 0.196050 0.500447
Si Si2 0.525444 0.696072 0.183129
Si Si3 0.290408 0.730370 0.328926
Si Si4 0.338886 0.993648 0.803488
Si Si5 0.196726 0.507923 0.510147
Si Si6 0.956127 0.998907 0.805008
O O1 0.673847 0.103588 0.333370
O O2 0.749814 0.352089 0.493849
O O3 0.000000 0.198042 0.500000
O O4 0.845156 0.122730 0.674554
O O5 0.331709 0.702444 0.177649
O O6 0.651484 0.579904 0.313460
O O7 0.621061 0.844594 0.243878
O O8 0.500000 0.672226 0.000000
O O9 0.500000 0.747960 0.500000
O O10 0.196981 0.602995 0.365767
O O11 0.165974 0.863957 0.280913
O O12 0.500000 0.024287 0.000000
O O13 0.147193 0.987480 0.803594
O O14 0.000000 0.512096 0.500000
O O15 0.000000 0.015471 0.000000
#
# Coordination Sequence:
#
# PCOD9112920 Si02
#       6
#     2   2   2   2   2   2
#     4   9  20  37  56  79 113 149 184 225 279 336
#     4  10  20  36  55  82 112 141 184 234 275 327
#     4  10  21  37  57  84 112 146 189 228 276 334
#     4  10  20  37  60  85 111 146 187 230 280 333
#     4  10  20  37  57  79 110 151 186 225 278 331
#     4  11  21  36  58  85 112 145 186 234 280 329
#
# _framework density 18.815947000000001
#
# number of rings (size 3 to 8) (size 9 to 14) (size 15 to 20)
#    0.000    2.000    0.000    5.000    0.000    2.000 
#    0.000   18.333    0.000    0.000    0.000    0.000 
#    0.000    0.000    0.000    0.000    0.000    0.000 
#
# Total GULP energy -66987.747944 kJ/mol
# GULP energy per Si atom -5582.312329 kJ/mol
# Density = 1.877312 g / cm^3
# Si number density = 18.815947 Si / 1000 Ang^3
#
#
#
# Elastic Constant Matrix: (Units=GPa)
#
#
# Indices 1 2 3 4 5 6 
#
# 1 86.3228 49.9650 34.2282 0.0000 -14.7755 0.0000
# 2 49.9650 199.4873 92.7229 0.0000 -9.1410 0.0000
# 3 34.2282 92.7229 103.1587 0.0000 -17.3612 0.0000
# 4 0.0000 0.0000 0.0000 8.3078 0.0000 2.8600
# 5 -14.7755 -9.1410 -17.3612 0.0000 36.2333 0.0000
# 6 0.0000 0.0000 0.0000 2.8600 0.0000 10.2859
#
#
#
# Elastic Compliance Matrix: (Units=1/GPa)
#
#
# Indices 1 2 3 4 5 6 
#
# 1 0.014555 -0.002654 -0.001694 0.000000 0.004454 0.000000
# 2 -0.002654 0.009188 -0.007799 0.000000 -0.002501 0.000000
# 3 -0.001694 -0.007799 0.018294 0.000000 0.006107 0.000000
# 4 0.000000 0.000000 0.000000 0.133110 0.000000 -0.037011
# 5 0.004454 -0.002501 0.006107 0.000000 0.031710 0.000000
# 6 0.000000 0.000000 0.000000 -0.037011 0.000000 0.107511
#
#
# Mechanical properties :
#
#
# Convention : Reuss Voigt Hill
#
# Bulk Modulus (GPa) = 56.36257 82.53342 69.44800
# Shear Modulus (GPa) = 14.51060 25.10225 19.80643
#
# Velocity S-wave (km/s) = 2.78004 3.65649 3.24796
# Velocity P-wave (km/s) = 6.35016 7.86036 7.14527
#
# Compressibility (1/GPa) = 0.01774227
#
# Stress axis : x y z
#
# Youngs Moduli (GPa) = 68.70640 108.83936 54.66406
#
# Poissons Ratio (x) = 0.28884 0.09262
# Poissons Ratio (y) = 0.18234 0.42631
# Poissons Ratio (z) = 0.11641 0.84881
#
# Static dielectric constant tensor:
#      x y z
#    x 1.687910 0.000000 0.001790 
#    y 0.000000 1.628680 0.000000 
#    z 0.001790 0.000000 1.671820 
# 
# From -- ./inp_files/4953.got.cif
#   From: 2010.05.17/outbox.cif.g08.bks.cpg/sg3_3_cif.got.tgz:4953.got - 2010.06.03 18:33:08.
