data_PCOD9112877
_publ_section_title
;
Structure prediction by ZEFSAII (Michael W. Deem and Ramdas Pophale) SiO2 
 PCOD9112877
Probable space group: P 2
;
_chemical_formula_sum "Si O2"
_cell_formula_units_Z 16
_cell_length_a 11.924925
_cell_length_b 14.081964
_cell_length_c 12.112888
_cell_angle_alpha 90.000000
_cell_angle_beta 23.769638
_cell_angle_gamma 90.000000
_cell_volume 819.854350
_symmetry_space_group_name_H-M "P 2"
_symmetry_group_IT_number 3
_symmetry_cell_setting 'monoclinic'
loop_
_space_group_symop_operation_xyz
x,y,z
-x,y,-z
loop_
_atom_site_type_symbol
_atom_site_label
_atom_site_fract_x
_atom_site_fract_y
_atom_site_fract_z
Si Si1 0.802278 0.134890 0.079511
Si Si2 0.794539 0.847812 0.460470
Si Si3 0.704577 0.341906 0.715838
Si Si4 0.248726 0.171932 0.492670
Si Si5 0.211462 0.911313 0.905081
Si Si6 0.589954 0.525397 0.047349
Si Si7 0.291425 0.004347 0.288784
Si Si8 0.094560 0.646173 0.543493
O O1 0.978310 0.148054 0.808111
O O2 0.512717 0.189732 0.333156
O O3 0.000000 0.167473 0.000000
O O4 0.737847 0.023270 0.159960
O O5 0.505155 0.857387 0.652918
O O6 0.905645 0.743792 0.389770
O O7 0.734123 0.903432 0.628299
O O8 0.036847 0.900751 0.175065
O O9 0.787555 0.257622 0.559662
O O10 0.522438 0.422242 0.816626
O O11 0.000000 0.379519 0.500000
O O12 0.500000 0.309044 0.000000
O O13 0.348671 0.081218 0.331324
O O14 0.000000 0.877006 0.000000
O O15 0.406141 0.607581 0.265376
O O16 0.500000 0.523083 0.000000
O O17 0.902446 0.562576 0.766606
O O18 0.000000 0.033281 0.500000
O O19 0.500000 0.002354 0.000000
O O20 0.000000 0.660753 0.500000
#
# Coordination Sequence:
#
# PCOD9112877 Si02
#       8
#     2   2   2   2   2   2   2   2
#     4  11  22  39  59  80 110 153 203 255 290 326
#     4  12  22  37  56  83 112 154 192 234 289 345
#     4  11  21  36  58  87 120 157 193 235 286 351
#     4  12  22  38  56  85 116 156 197 237 289 348
#     4  11  22  39  58  79 108 149 201 252 287 327
#     4   9  18  34  54  78 111 147 187 234 277 324
#     4  12  23  35  50  78 121 161 187 220 273 350
#     4  10  20  34  54  82 114 147 185 229 279 345
#
# _framework density 19.51566
#
# number of rings (size 3 to 8) (size 9 to 14) (size 15 to 20)
#    0.000    1.000    2.500    6.750    0.000    3.500 
#    0.000    0.000    0.000    0.000    0.000   13.125 
#    0.000    0.000    0.000    0.000    0.000    0.000 
#
# Total GULP energy -89334.860014 kJ/mol
# GULP energy per Si atom -5583.428751 kJ/mol
# Density = 1.947124 g / cm^3
# Si number density = 19.515660 Si / 1000 Ang^3
#
#
#
# Elastic Constant Matrix: (Units=GPa)
#
#
# Indices 1 2 3 4 5 6 
#
# 1 45.6454 3.1663 3.6989 0.0000 -14.7773 0.0000
# 2 3.1663 61.0158 -4.6184 0.0000 0.8163 0.0000
# 3 3.6989 -4.6184 86.8414 0.0000 -5.5418 0.0000
# 4 0.0000 0.0000 0.0000 26.8198 0.0000 -0.6497
# 5 -14.7773 0.8163 -5.5418 0.0000 33.5347 0.0000
# 6 0.0000 0.0000 0.0000 -0.6497 0.0000 13.6553
#
#
#
# Elastic Compliance Matrix: (Units=1/GPa)
#
#
# Indices 1 2 3 4 5 6 
#
# 1 0.025705 -0.001519 -0.000455 0.000000 0.011289 0.000000
# 2 -0.001519 0.016547 0.000886 0.000000 -0.000926 0.000000
# 3 -0.000455 0.000886 0.011691 0.000000 0.001710 0.000000
# 4 0.000000 0.000000 0.000000 0.037329 0.000000 0.001776
# 5 0.011289 -0.000926 0.001710 0.000000 0.035099 0.000000
# 6 0.000000 0.000000 0.000000 0.001776 0.000000 0.073316
#
#
# Mechanical properties :
#
#
# Convention : Reuss Voigt Hill
#
# Bulk Modulus (GPa) = 19.31800 21.99957 20.65878
# Shear Modulus (GPa) = 22.81849 27.55237 25.18543
#
# Velocity S-wave (km/s) = 3.42312 3.76148 3.59628
# Velocity P-wave (km/s) = 5.05410 5.49201 5.27760
#
# Compressibility (1/GPa) = 0.05176520
#
# Stress axis : x y z
#
# Youngs Moduli (GPa) = 38.90304 60.43223 85.53697
#
# Poissons Ratio (x) = 0.09182 0.03894
# Poissons Ratio (y) = 0.05911 -0.07576
# Poissons Ratio (z) = 0.01771 -0.05352
#
# Static dielectric constant tensor:
#      x y z
#    x 1.727860 0.000000 -0.026060 
#    y 0.000000 1.700620 0.000000 
#    z -0.026060 0.000000 1.708350 
# 
# From -- ./inp_files/11936.got.cif
#   From: 2010.05.17/outbox.cif.g08.bks.cpg/sg3_6_cif.got.tgz:11936.got - 2010.06.03 18:33:08.
