data_PCOD9112143
_publ_section_title
;
Structure prediction by ZEFSAII (Michael W. Deem and Ramdas Pophale) SiO2 
 PCOD9112143
Probable space group: P -1
;
_chemical_formula_sum "Si O2"
_cell_formula_units_Z 16
_cell_length_a 16.163451
_cell_length_b 5.000806
_cell_length_c 12.876253
_cell_angle_alpha 131.603407
_cell_angle_beta 46.192640
_cell_angle_gamma 117.368026
_cell_volume 561.648313
_symmetry_space_group_name_H-M "P -1"
_symmetry_group_IT_number 2
_symmetry_cell_setting 'triclinic'
loop_
_space_group_symop_operation_xyz
x,y,z
-x,-y,-z
loop_
_atom_site_type_symbol
_atom_site_label
_atom_site_fract_x
_atom_site_fract_y
_atom_site_fract_z
Si Si1 0.888300 0.368760 0.294411
Si Si2 0.124445 0.495535 0.441670
Si Si3 0.638292 0.607813 0.119327
Si Si4 0.870263 0.247373 0.824617
Si Si5 0.702257 0.982226 0.591867
Si Si6 0.528481 0.915436 0.098206
Si Si7 0.126182 0.713457 0.936989
Si Si8 0.618013 0.667588 0.390174
O O1 0.877484 0.240078 0.388532
O O2 0.882872 0.137851 0.135376
O O3 0.789056 0.658237 0.444355
O O4 0.007467 0.576269 0.251366
O O5 0.235247 0.658155 0.332204
O O6 0.000000 0.500000 0.500000
O O7 0.146028 0.075064 0.324799
O O8 0.597505 0.880052 0.137523
O O9 0.746303 0.473748 0.226857
O O10 0.601217 0.735634 0.299714
O O11 0.594023 0.195576 0.041262
O O12 0.773171 0.543919 0.978577
O O13 0.869893 0.101481 0.905948
O O14 0.593379 0.900736 0.734676
O O15 0.648169 0.994488 0.525831
O O16 0.500000 0.500000 0.000000
O O17 0.000000 0.500000 0.000000
O O18 0.500000 0.500000 0.500000
#
# Coordination Sequence:
#
# PCOD9112143 Si02
#       8
#     2   2   2   2   2   2   2   2
#     4  10  22  42  70  97 137 182 234 301 358 428
#     4  12  25  40  67 107 139 184 236 293 365 437
#     4  11  26  47  71 106 142 196 237 304 358 436
#     4  10  21  43  70  96 143 180 239 294 361 434
#     4  11  25  43  69 100 140 182 237 299 361 430
#     4  12  27  45  70 103 148 189 244 292 365 431
#     4   8  18  38  67  95 132 179 229 294 360 427
#     4  10  20  44  72 100 138 184 245 299 363 430
#
# _framework density 28.487577000000002
#
# number of rings (size 3 to 8) (size 9 to 14) (size 15 to 20)
#    0.000    1.500    2.500    1.500    3.500    1.500 
#    6.750    0.625    0.000    0.000    0.000    0.000 
#    0.000    0.000    0.000    0.000    0.000    0.000 
#
# Total GULP energy -89466.398319 kJ/mol
# GULP energy per Si atom -5591.649895 kJ/mol
# Density = 2.842274 g / cm^3
# Si number density = 28.487577 Si / 1000 Ang^3
#
#
#
# Elastic Constant Matrix: (Units=GPa)
#
#
# Indices 1 2 3 4 5 6 
#
# 1 143.7584 56.7642 54.2409 -16.5947 -19.5475 19.0848
# 2 56.7642 108.9076 20.6293 -10.2139 -15.7253 25.2884
# 3 54.2409 20.6293 111.1374 -8.2874 -9.4326 4.6255
# 4 -16.5947 -10.2139 -8.2874 38.3657 2.3909 0.7452
# 5 -19.5475 -15.7253 -9.4326 2.3909 78.2950 -5.8205
# 6 19.0848 25.2884 4.6255 0.7452 -5.8205 56.8949
#
#
#
# Elastic Compliance Matrix: (Units=1/GPa)
#
#
# Indices 1 2 3 4 5 6 
#
# 1 0.010788 -0.004100 -0.004150 0.002631 0.001188 -0.001372
# 2 -0.004100 0.012583 0.000054 0.001596 0.001155 -0.004125
# 3 -0.004150 0.000054 0.011064 0.000579 0.000327 0.000494
# 4 0.002631 0.001596 0.000579 0.027789 0.000050 -0.001998
# 5 0.001188 0.001155 0.000327 0.000050 0.013370 0.000429
# 6 -0.001372 -0.004125 0.000494 -0.001998 0.000429 0.019900
#
#
# Mechanical properties :
#
#
# Convention : Reuss Voigt Hill
#
# Bulk Modulus (GPa) = 55.42370 69.67471 62.54920
# Shear Modulus (GPa) = 42.40878 50.18906 46.29892
#
# Velocity S-wave (km/s) = 3.86252 4.20192 4.03579
# Velocity P-wave (km/s) = 6.27612 6.93199 6.61220
#
# Compressibility (1/GPa) = 0.01804282
#
# Stress axis : x y z
#
# Youngs Moduli (GPa) = 92.69341 79.47181 90.38624
#
# Poissons Ratio (x) = 0.32584 0.37511
# Poissons Ratio (y) = 0.38005 -0.00489
# Poissons Ratio (z) = 0.38469 -0.00430
#
# Static dielectric constant tensor:
#      x y z
#    x 2.210040 0.003520 0.052250 
#    y 0.003520 2.298610 -0.058080 
#    z 0.052250 -0.058080 2.389770 
# 
# From -- ./inp_files/411031.got.cif
#   From: 2010.05.17/outbox.cif.g08.bks.cpg/sg2_206_cif.got.tgz:411031.got - 2010.06.03 11:33:40.
