data_PCOD9112976
_publ_section_title
;
Structure prediction by ZEFSAII (Michael W. Deem and Ramdas Pophale) SiO2 
 PCOD9112976
Probable space group: P 2
;
_chemical_formula_sum "Si O2"
_cell_formula_units_Z 14
_cell_length_a 16.101924
_cell_length_b 6.911231
_cell_length_c 6.330824
_cell_angle_alpha 90.000000
_cell_angle_beta 105.855058
_cell_angle_gamma 90.000000
_cell_volume 677.717322
_symmetry_space_group_name_H-M "P 2"
_symmetry_group_IT_number 3
_symmetry_cell_setting 'monoclinic'
loop_
_space_group_symop_operation_xyz
x,y,z
-x,y,-z
loop_
_atom_site_type_symbol
_atom_site_label
_atom_site_fract_x
_atom_site_fract_y
_atom_site_fract_z
Si Si1 0.845737 0.095510 0.665118
Si Si2 0.500000 0.045408 0.500000
Si Si3 0.209787 0.671437 0.261181
Si Si4 0.550851 0.418724 0.278832
Si Si5 0.121374 0.374729 0.929148
Si Si6 0.000000 0.238830 0.500000
Si Si7 0.261218 0.381876 0.663935
Si Si8 0.600388 0.671139 0.720458
O O1 0.762687 0.203030 0.506406
O O2 0.922470 0.116590 0.548065
O O3 0.819843 0.881919 0.700862
O O4 0.875254 0.201999 0.899712
O O5 0.524728 0.200855 0.333680
O O6 0.568749 0.889619 0.642984
O O7 0.230230 0.559860 0.494737
O O8 0.297064 0.674467 0.178445
O O9 0.135589 0.562942 0.080285
O O10 0.638530 0.392737 0.208444
O O11 0.588623 0.536569 0.505672
O O12 0.532879 0.555760 0.824735
O O13 0.039722 0.363830 0.718566
O O14 0.203012 0.362222 0.829395
#
# Coordination Sequence:
#
# PCOD9112976 Si02
#       8
#     2   1   2   2   2   1   2   2
#     4  10  21  39  62  87 116 148 189 239 290 349
#     4   8  12  22  44  76 108 146 190 234 270 312
#     4  10  20  37  60  86 114 153 193 233 288 341
#     4   8  14  26  48  78 109 152 195 227 272 325
#     4  10  22  40  60  84 115 148 185 237 292 351
#     4  10  22  44  62  82 116 146 182 240 300 356
#     4   9  19  36  58  84 118 156 194 234 281 337
#     4   8  15  26  46  78 113 145 190 236 270 323
#
# _framework density 20.657578000000001
#
# number of rings (size 3 to 8) (size 9 to 14) (size 15 to 20)
#    0.000    3.143    0.000    1.286    0.000    3.429 
#    0.000   17.857    0.000    0.000    0.000    0.000 
#    0.000    0.000    0.000    0.000    0.000    0.000 
#
# Total GULP energy -77946.519558 kJ/mol
# GULP energy per Si atom -5567.608540 kJ/mol
# Density = 2.061056 g / cm^3
# Si number density = 20.657578 Si / 1000 Ang^3
#
#
#
# Elastic Constant Matrix: (Units=GPa)
#
#
# Indices 1 2 3 4 5 6 
#
# 1 114.3995 45.3632 31.9371 0.0000 -1.8808 0.0000
# 2 45.3632 177.4450 41.6748 0.0000 15.0586 0.0000
# 3 31.9371 41.6748 84.5969 0.0000 9.2484 0.0000
# 4 0.0000 0.0000 0.0000 -12.9006 0.0000 -5.1465
# 5 -1.8808 15.0586 9.2484 0.0000 34.7035 0.0000
# 6 0.0000 0.0000 0.0000 -5.1465 0.0000 10.3865
#
#
#
# Elastic Compliance Matrix: (Units=1/GPa)
#
#
# Indices 1 2 3 4 5 6 
#
# 1 0.010514 -0.002142 -0.003170 0.000000 0.002344 0.000000
# 2 -0.002142 0.006945 -0.002339 0.000000 -0.002507 0.000000
# 3 -0.003170 -0.002339 0.014500 0.000000 -0.003021 0.000000
# 4 0.000000 0.000000 0.000000 -0.064722 0.000000 -0.032070
# 5 0.002344 -0.002507 -0.003021 0.000000 0.030835 0.000000
# 6 0.000000 0.000000 0.000000 -0.032070 0.000000 0.080388
#
#
# Mechanical properties :
#
#
# Convention : Reuss Voigt Hill
#
# Bulk Modulus (GPa) = 60.03459 68.26572 64.15016
# Shear Modulus (GPa) = 50.34427 23.60230 36.97328
#
# Velocity S-wave (km/s) = 4.94204 3.38383 4.23521
# Velocity P-wave (km/s) = 7.85429 6.95594 7.41873
#
# Compressibility (1/GPa) = 0.01665706
#
# Stress axis : x y z
#
# Youngs Moduli (GPa) = 95.10759 143.98460 68.96569
#
# Poissons Ratio (x) = 0.30846 0.21864
# Poissons Ratio (y) = 0.20375 0.16128
# Poissons Ratio (z) = 0.30152 0.33672
#
# Static dielectric constant tensor:
#      x y z
#    x 1.817490 0.000000 -0.019640 
#    y 0.000000 1.696210 0.000000 
#    z -0.019640 0.000000 1.793140 
# 
# From -- ./inp_files/3562.got.cif
#   From: 2010.05.17/outbox.cif.g08.bks.cpg/sg3_2_cif.got.tgz:3562.got - 2010.06.03 18:33:08.
