data_PCOD9112453
_publ_section_title
;
Structure prediction by ZEFSAII (Michael W. Deem and Ramdas Pophale) SiO2 
 PCOD9112453
Probable space group: P 2
;
_chemical_formula_sum "Si O2"
_cell_formula_units_Z 12
_cell_length_a 5.389913
_cell_length_b 7.044295
_cell_length_c 14.096076
_cell_angle_alpha 90.000000
_cell_angle_beta 86.711781
_cell_angle_gamma 90.000000
_cell_volume 534.320608
_symmetry_space_group_name_H-M "P 2"
_symmetry_group_IT_number 3
_symmetry_cell_setting 'monoclinic'
loop_
_space_group_symop_operation_xyz
x,y,z
-x,y,-z
loop_
_atom_site_type_symbol
_atom_site_label
_atom_site_fract_x
_atom_site_fract_y
_atom_site_fract_z
Si Si1 0.107809 0.069980 0.821871
Si Si2 0.240706 0.451078 0.555095
Si Si3 0.301810 0.459001 0.773310
Si Si4 0.252362 0.031383 0.480033
Si Si5 0.619188 0.116336 0.734403
Si Si6 0.251332 0.746272 0.943453
O O1 0.119571 0.297876 0.820775
O O2 0.343781 0.024937 0.747424
O O3 0.829649 0.021331 0.795278
O O4 0.187438 0.961974 0.914294
O O5 0.500000 0.504822 0.500000
O O6 0.232404 0.504580 0.666003
O O7 0.242051 0.218434 0.547130
O O8 0.000000 0.506506 0.500000
O O9 0.558165 0.335945 0.761477
O O10 0.299617 0.631123 0.845376
O O11 0.500000 0.922543 0.500000
O O12 0.275316 0.102655 0.372714
O O13 0.000000 0.922354 0.500000
O O14 0.500000 0.735192 0.000000
O O15 0.000000 0.673356 0.000000
#
# Coordination Sequence:
#
# PCOD9112453 Si02
#       6
#     2   2   2   2   2   2
#     4  10  22  42  65  91 127 169 220 282 340 393
#     4  10  17  30  57  97 133 168 211 260 321 394
#     4  10  24  40  73  95 135 176 226 272 337 403
#     4  10  15  26  51  93 129 162 211 254 309 385
#     4  10  19  37  64  98 125 175 222 258 326 404
#     4  12  29  47  68  98 133 177 233 292 349 401
#
# _framework density 22.458425999999999
#
# number of rings (size 3 to 8) (size 9 to 14) (size 15 to 20)
#    1.000    0.667    3.333    4.000    2.333    1.333 
#    0.000    0.000    0.000   12.000    0.000    0.000 
#    0.000    0.000    0.000    0.000    0.000    0.000 
#
# Total GULP energy -66890.154827 kJ/mol
# GULP energy per Si atom -5574.179569 kJ/mol
# Density = 2.240731 g / cm^3
# Si number density = 22.458426 Si / 1000 Ang^3
#
#
#
# Elastic Constant Matrix: (Units=GPa)
#
#
# Indices 1 2 3 4 5 6 
#
# 1 212.8618 28.4467 59.6748 0.0000 12.5257 0.0000
# 2 28.4467 67.2870 49.0360 0.0000 3.0120 0.0000
# 3 59.6748 49.0360 136.3994 0.0000 15.4764 0.0000
# 4 0.0000 0.0000 0.0000 -79.2175 0.0000 17.1187
# 5 12.5257 3.0120 15.4764 0.0000 36.5323 0.0000
# 6 0.0000 0.0000 0.0000 17.1187 0.0000 -8.6469
#
#
#
# Elastic Compliance Matrix: (Units=1/GPa)
#
#
# Indices 1 2 3 4 5 6 
#
# 1 0.005414 -0.000812 -0.001969 0.000000 -0.000956 0.000000
# 2 -0.000812 0.020335 -0.007140 0.000000 0.001627 0.000000
# 3 -0.001969 -0.007140 0.011152 0.000000 -0.003461 0.000000
# 4 0.000000 0.000000 0.000000 -0.022062 0.000000 -0.043677
# 5 -0.000956 0.001627 -0.003461 0.000000 0.029033 0.000000
# 6 0.000000 0.000000 0.000000 -0.043677 0.000000 -0.202118
#
#
# Mechanical properties :
#
#
# Convention : Reuss Voigt Hill
#
# Bulk Modulus (GPa) = 58.61173 76.76258 67.68716
# Shear Modulus (GPa) = -37.67420 8.35962 -14.65729
#
# Velocity S-wave (km/s) = -4.10018 1.93141 -2.55746
# Velocity P-wave (km/s) = 1.93370 6.26321 4.63503
#
# Compressibility (1/GPa) = 0.01706143
#
# Stress axis : x y z
#
# Youngs Moduli (GPa) = 184.69014 49.17523 89.66792
#
# Poissons Ratio (x) = 0.03991 0.17652
# Poissons Ratio (y) = 0.14990 0.64024
# Poissons Ratio (z) = 0.36359 0.35112
#
# Static dielectric constant tensor:
#      x y z
#    x 1.941000 0.000000 -0.006240 
#    y 0.000000 1.839400 0.000000 
#    z -0.006240 0.000000 1.814890 
# 
# From -- ./inp_files/9831.got.cif
#   From: 2010.05.17/outbox.cif.g08.bks.cpg/sg3_5_cif.got.tgz:9831.got - 2010.06.03 18:33:08.
