data_PCOD9112840
_publ_section_title
;
Structure prediction by ZEFSAII (Michael W. Deem and Ramdas Pophale) SiO2 
 PCOD9112840
Probable space group: P 2
;
_chemical_formula_sum "Si O2"
_cell_formula_units_Z 14
_cell_length_a 9.517765
_cell_length_b 5.290240
_cell_length_c 10.273870
_cell_angle_alpha 90.000000
_cell_angle_beta 73.678914
_cell_angle_gamma 90.000000
_cell_volume 496.456029
_symmetry_space_group_name_H-M "P 2"
_symmetry_group_IT_number 3
_symmetry_cell_setting 'monoclinic'
loop_
_space_group_symop_operation_xyz
x,y,z
-x,y,-z
loop_
_atom_site_type_symbol
_atom_site_label
_atom_site_fract_x
_atom_site_fract_y
_atom_site_fract_z
Si Si1 0.392247 0.941600 0.780272
Si Si2 0.078183 0.055163 0.313557
Si Si3 0.500000 0.113325 0.000000
Si Si4 0.500000 0.199747 0.500000
Si Si5 0.668310 0.709710 0.811411
Si Si6 0.871881 0.587869 0.190236
Si Si7 0.837984 0.379685 0.934564
Si Si8 0.187148 0.302106 0.529117
O O1 0.234007 0.813717 0.823587
O O2 0.418797 0.040232 0.630010
O O3 0.517782 0.727422 0.771668
O O4 0.443057 0.162612 0.867716
O O5 0.193886 0.828209 0.303099
O O6 0.090501 0.153808 0.163659
O O7 0.134028 0.286635 0.392883
O O8 0.906695 0.051318 0.397095
O O9 0.365024 0.920189 0.069864
O O10 0.361185 0.330259 0.471015
O O11 0.692654 0.458405 0.891830
O O12 0.847993 0.493547 0.343727
O O13 0.046412 0.608754 0.126230
O O14 0.832835 0.376564 0.090255
#
# Coordination Sequence:
#
# PCOD9112840 Si02
#       8
#     2   2   1   1   2   2   2   2
#     4  10  21  39  58  88 119 160 203 252 310 376
#     4  10  22  42  64  89 125 170 216 251 309 392
#     4   8  18  38  58  86 118 158 204 246 308 378
#     4  12  24  38  56  92 120 160 210 254 320 364
#     4  10  19  40  64  87 125 164 207 261 301 387
#     4  10  21  41  61  93 129 155 206 272 313 374
#     4  10  21  39  67  95 120 162 212 257 321 373
#     4  10  23  43  58  88 130 165 206 262 314 374
#
# _framework density 28.199878999999999
#
# number of rings (size 3 to 8) (size 9 to 14) (size 15 to 20)
#    0.857    1.143    2.857    0.000    2.000    4.000 
#    0.000    3.571    0.000    0.000    0.000    0.000 
#    0.000    0.000    0.000    0.000    0.000    0.000 
#
# Total GULP energy -78003.428122 kJ/mol
# GULP energy per Si atom -5571.673437 kJ/mol
# Density = 2.813569 g / cm^3
# Si number density = 28.199879 Si / 1000 Ang^3
#
#
#
# Elastic Constant Matrix: (Units=GPa)
#
#
# Indices 1 2 3 4 5 6 
#
# 1 160.0737 15.4264 11.6507 0.0000 19.1742 0.0000
# 2 15.4264 86.8833 27.4691 0.0000 9.9937 0.0000
# 3 11.6507 27.4691 136.3099 0.0000 22.1268 0.0000
# 4 0.0000 0.0000 0.0000 16.2348 0.0000 15.6923
# 5 19.1742 9.9937 22.1268 0.0000 46.8136 0.0000
# 6 0.0000 0.0000 0.0000 15.6923 0.0000 17.6971
#
#
#
# Elastic Compliance Matrix: (Units=1/GPa)
#
#
# Indices 1 2 3 4 5 6 
#
# 1 0.006636 -0.000894 0.000025 0.000000 -0.002539 0.000000
# 2 -0.000894 0.012521 -0.002245 0.000000 -0.001246 0.000000
# 3 0.000025 -0.002245 0.008351 0.000000 -0.003478 0.000000
# 4 0.000000 0.000000 0.000000 0.430988 0.000000 -0.382162
# 5 -0.002539 -0.001246 -0.003478 0.000000 0.024311 0.000000
# 6 0.000000 0.000000 0.000000 -0.382162 0.000000 0.395375
#
#
# Mechanical properties :
#
#
# Convention : Reuss Voigt Hill
#
# Bulk Modulus (GPa) = 46.99059 54.70658 50.84858
# Shear Modulus (GPa) = 5.60851 38.06382 21.83617
#
# Velocity S-wave (km/s) = 1.41179 3.67793 2.78571
# Velocity P-wave (km/s) = 4.39967 6.12192 5.33081
#
# Compressibility (1/GPa) = 0.02128086
#
# Stress axis : x y z
#
# Youngs Moduli (GPa) = 150.70297 79.86317 119.74564
#
# Poissons Ratio (x) = 0.07140 -0.00301
# Poissons Ratio (y) = 0.13474 0.26879
# Poissons Ratio (z) = -0.00379 0.17926
#
# Static dielectric constant tensor:
#      x y z
#    x 2.303460 0.000000 -0.025200 
#    y 0.000000 2.299250 0.000000 
#    z -0.025200 0.000000 2.304890 
# 
# From -- ./inp_files/5309.got.cif
#   From: 2010.05.17/outbox.cif.g08.bks.cpg/sg3_3_cif.got.tgz:5309.got - 2010.06.03 18:33:08.
