data_PCOD9112526
_publ_section_title
;
Structure prediction by ZEFSAII (Michael W. Deem and Ramdas Pophale) SiO2 
 PCOD9112526
Probable space group: P 2
;
_chemical_formula_sum "Si O2"
_cell_formula_units_Z 15
_cell_length_a 10.944401
_cell_length_b 14.626551
_cell_length_c 11.100317
_cell_angle_alpha 90.000000
_cell_angle_beta 26.125614
_cell_angle_gamma 90.000000
_cell_volume 782.452579
_symmetry_space_group_name_H-M "P 2"
_symmetry_group_IT_number 3
_symmetry_cell_setting 'monoclinic'
loop_
_space_group_symop_operation_xyz
x,y,z
-x,y,-z
loop_
_atom_site_type_symbol
_atom_site_label
_atom_site_fract_x
_atom_site_fract_y
_atom_site_fract_z
Si Si1 0.797238 0.984570 0.062514
Si Si2 0.524401 0.593202 0.278617
Si Si3 0.378630 0.296394 0.470928
Si Si4 0.113543 0.192055 0.037220
Si Si5 0.700652 0.734305 0.712519
Si Si6 0.956210 0.475042 0.182609
Si Si7 0.500000 0.727463 0.500000
Si Si8 0.754521 0.869937 0.445993
O O1 0.959114 0.922917 0.822866
O O2 0.499107 0.940261 0.348558
O O3 0.000000 0.981715 0.000000
O O4 0.774696 0.090315 0.045523
O O5 0.420455 0.649595 0.256520
O O6 0.643608 0.666455 0.269120
O O7 0.268807 0.550905 0.580266
O O8 0.744666 0.515698 0.047112
O O9 0.500000 0.301246 0.500000
O O10 0.651190 0.269638 0.154733
O O11 0.186588 0.385953 0.631852
O O12 0.162572 0.213902 0.644976
O O13 0.000000 0.197854 0.000000
O O14 0.728678 0.818119 0.595026
O O15 0.000000 0.710420 0.500000
O O16 0.500000 0.756722 0.000000
O O17 0.000000 0.458792 0.000000
O O18 0.716805 0.792069 0.377512
#
# Coordination Sequence:
#
# PCOD9112526 Si02
#       8
#     2   2   2   2   2   2   1   2
#     4  11  19  33  51  84 116 146 185 230 272 332
#     4  11  23  35  56  80 111 147 191 235 279 339
#     4  10  18  30  46  70 109 161 185 208 258 332
#     4   9  18  29  46  69 110 156 187 207 259 331
#     4  11  24  44  58  76 108 151 197 242 284 330
#     4  12  20  33  51  82 116 146 186 232 274 333
#     4  10  20  36  48  82 108 142 180 224 294 320
#     4  11  22  34  58  80 111 147 191 234 277 340
#
# _framework density 19.170491999999999
#
# number of rings (size 3 to 8) (size 9 to 14) (size 15 to 20)
#    0.000    1.333    2.667    5.200    0.000    6.400 
#    0.000    0.000    0.000    0.000    0.000    0.000 
#    0.000   59.733    0.000    0.267    0.000    0.000 
#
# Total GULP energy -83684.792849 kJ/mol
# GULP energy per Si atom -5578.986190 kJ/mol
# Density = 1.912686 g / cm^3
# Si number density = 19.170492 Si / 1000 Ang^3
#
#
#
# Elastic Constant Matrix: (Units=GPa)
#
#
# Indices 1 2 3 4 5 6 
#
# 1 62.3876 26.5881 17.4523 0.0000 1.2275 0.0000
# 2 26.5881 82.1135 24.4437 0.0000 4.0719 0.0000
# 3 17.4523 24.4437 105.1195 0.0000 -3.0300 0.0000
# 4 0.0000 0.0000 0.0000 31.3662 0.0000 -9.9150
# 5 1.2275 4.0719 -3.0300 0.0000 20.3388 0.0000
# 6 0.0000 0.0000 0.0000 -9.9150 0.0000 15.0768
#
#
#
# Elastic Compliance Matrix: (Units=1/GPa)
#
#
# Indices 1 2 3 4 5 6 
#
# 1 0.018924 -0.005559 -0.001858 0.000000 -0.000306 0.000000
# 2 -0.005559 0.014913 -0.002632 0.000000 -0.003042 0.000000
# 3 -0.001858 -0.002632 0.010497 0.000000 0.002203 0.000000
# 4 0.000000 0.000000 0.000000 0.040248 0.000000 0.026469
# 5 -0.000306 -0.003042 0.002203 0.000000 0.050123 0.000000
# 6 0.000000 0.000000 0.000000 0.026469 0.000000 0.083734
#
#
# Mechanical properties :
#
#
# Convention : Reuss Voigt Hill
#
# Bulk Modulus (GPa) = 41.26348 42.95431 42.10890
# Shear Modulus (GPa) = 20.27443 25.43212 22.85327
#
# Velocity S-wave (km/s) = 3.25558 3.64624 3.45644
# Velocity P-wave (km/s) = 5.97520 6.33892 6.15974
#
# Compressibility (1/GPa) = 0.02423450
#
# Stress axis : x y z
#
# Youngs Moduli (GPa) = 52.84358 67.05647 95.26467
#
# Poissons Ratio (x) = 0.37278 0.17699
# Poissons Ratio (y) = 0.29377 0.25078
# Poissons Ratio (z) = 0.09818 0.17652
#
# Static dielectric constant tensor:
#      x y z
#    x 1.646420 0.000000 -0.003700 
#    y 0.000000 1.728080 0.000000 
#    z -0.003700 0.000000 1.666290 
# 
# From -- ./inp_files/11937.got.cif
#   From: 2010.05.17/outbox.cif.g08.bks.cpg/sg3_6_cif.got.tgz:11937.got - 2010.06.03 18:33:08.
