data_PCOD9112476
_publ_section_title
;
Structure prediction by ZEFSAII (Michael W. Deem and Ramdas Pophale) SiO2 
 PCOD9112476
Probable space group: P 2
;
_chemical_formula_sum "Si O2"
_cell_formula_units_Z 14
_cell_length_a 4.983355
_cell_length_b 7.105856
_cell_length_c 16.486685
_cell_angle_alpha 90.000000
_cell_angle_beta 88.458590
_cell_angle_gamma 90.000000
_cell_volume 583.598798
_symmetry_space_group_name_H-M "P 2"
_symmetry_group_IT_number 3
_symmetry_cell_setting 'monoclinic'
loop_
_space_group_symop_operation_xyz
x,y,z
-x,y,-z
loop_
_atom_site_type_symbol
_atom_site_label
_atom_site_fract_x
_atom_site_fract_y
_atom_site_fract_z
Si Si1 0.906942 0.061090 0.919994
Si Si2 0.737875 0.883369 0.761210
Si Si3 0.268907 0.894598 0.651918
Si Si4 0.000000 0.873402 0.500000
Si Si5 0.791949 0.450166 0.742172
Si Si6 0.697683 0.342390 0.160814
Si Si7 0.500000 0.364032 0.000000
Si Si8 0.398452 0.566842 0.418248
O O1 0.724921 0.230847 0.956754
O O2 0.163654 0.153378 0.873700
O O3 0.750165 0.949071 0.853140
O O4 0.000000 0.952135 0.000000
O O5 0.522231 0.966808 0.700083
O O6 0.693293 0.659941 0.763506
O O7 0.024374 0.907234 0.715719
O O8 0.172082 0.980674 0.566954
O O9 0.353775 0.680394 0.625261
O O10 0.201831 0.736839 0.448507
O O11 0.580245 0.319825 0.789913
O O12 0.752780 0.439560 0.645934
O O13 0.083632 0.423397 0.778339
O O14 0.636301 0.458843 0.077802
O O15 0.500000 0.472606 0.500000
#
# Coordination Sequence:
#
# PCOD9112476 Si02
#       8
#     2   2   2   1   2   2   1   2
#     4  10  24  45  68  86 119 169 220 247 307 393
#     4  11  23  38  61  96 127 153 206 270 313 356
#     4  10  19  33  55  88 128 159 197 247 308 363
#     4  10  16  34  52  88 130 172 188 238 306 396
#     4  11  21  38  61  98 125 153 202 267 313 349
#     4  11  23  41  65  86 122 164 212 245 309 382
#     4  10  22  48  64  86 112 172 210 246 294 408
#     4   9  19  32  57  89 129 162 199 242 311 373
#
# _framework density 23.989083999999998
#
# number of rings (size 3 to 8) (size 9 to 14) (size 15 to 20)
#    0.000    1.714    4.286    1.714    6.000    0.000 
#    2.571    0.000    0.000    0.000    7.429    0.000 
#    0.000    0.000    0.000    0.000    0.000    0.000 
#
# Total GULP energy -78160.527282 kJ/mol
# GULP energy per Si atom -5582.894806 kJ/mol
# Density = 2.393448 g / cm^3
# Si number density = 23.989084 Si / 1000 Ang^3
#
#
#
# Elastic Constant Matrix: (Units=GPa)
#
#
# Indices 1 2 3 4 5 6 
#
# 1 138.2955 -3.1910 61.9591 0.0000 16.4793 0.0000
# 2 -3.1910 18.3930 22.2045 0.0000 9.9103 0.0000
# 3 61.9591 22.2045 231.8027 0.0000 60.8140 0.0000
# 4 0.0000 0.0000 0.0000 35.3296 0.0000 5.1162
# 5 16.4793 9.9103 60.8140 0.0000 64.9832 0.0000
# 6 0.0000 0.0000 0.0000 5.1162 0.0000 5.2373
#
#
#
# Elastic Compliance Matrix: (Units=1/GPa)
#
#
# Indices 1 2 3 4 5 6 
#
# 1 0.008585 0.004930 -0.002649 0.000000 -0.000450 0.000000
# 2 0.004930 0.065622 -0.006163 0.000000 -0.005490 0.000000
# 3 -0.002649 -0.006163 0.006878 0.000000 -0.004825 0.000000
# 4 0.000000 0.000000 0.000000 0.032969 0.000000 -0.032207
# 5 -0.000450 -0.005490 -0.004825 0.000000 0.020856 0.000000
# 6 0.000000 0.000000 0.000000 -0.032207 0.000000 0.222401
#
#
# Mechanical properties :
#
#
# Convention : Reuss Voigt Hill
#
# Bulk Modulus (GPa) = 13.63877 61.15960 37.39918
# Shear Modulus (GPa) = 12.83643 41.61127 27.22385
#
# Velocity S-wave (km/s) = 2.31572 4.16936 3.37240
# Velocity P-wave (km/s) = 3.58439 6.98056 5.54870
#
# Compressibility (1/GPa) = 0.07332042
#
# Stress axis : x y z
#
# Youngs Moduli (GPa) = 116.48230 15.23875 145.38312
#
# Poissons Ratio (x) = -0.07512 0.38510
# Poissons Ratio (y) = -0.57421 0.89604
# Poissons Ratio (z) = 0.30855 0.09392
#
# Static dielectric constant tensor:
#      x y z
#    x 1.977580 0.000000 0.057110 
#    y 0.000000 1.974440 0.000000 
#    z 0.057110 0.000000 1.991690 
# 
# From -- ./inp_files/12920.got.cif
#   From: 2010.05.17/outbox.cif.g08.bks.cpg/sg3_7_cif.got.tgz:12920.got - 2010.06.03 18:33:08.
