data_PCOD9112075
_publ_section_title
;
Structure prediction by ZEFSAII (Michael W. Deem and Ramdas Pophale) SiO2 
 PCOD9112075
Probable space group: P -1
;
_chemical_formula_sum "Si O2"
_cell_formula_units_Z 16
_cell_length_a 29.466169
_cell_length_b 9.264629
_cell_length_c 5.719246
_cell_angle_alpha 63.263924
_cell_angle_beta 103.801928
_cell_angle_gamma 148.766545
_cell_volume 686.097950
_symmetry_space_group_name_H-M "P -1"
_symmetry_group_IT_number 2
_symmetry_cell_setting 'triclinic'
loop_
_space_group_symop_operation_xyz
x,y,z
-x,-y,-z
loop_
_atom_site_type_symbol
_atom_site_label
_atom_site_fract_x
_atom_site_fract_y
_atom_site_fract_z
Si Si1 0.764600 0.814472 0.626087
Si Si2 0.952830 0.322215 0.322023
Si Si3 0.910495 0.842673 0.487498
Si Si4 0.529410 0.751422 0.972320
Si Si5 0.345127 0.318526 0.082694
Si Si6 0.363052 0.692579 0.555233
Si Si7 0.785110 0.557646 0.159820
Si Si8 0.279049 0.840519 0.007672
O O1 0.738619 0.889861 0.696633
O O2 0.678802 0.512830 0.578223
O O3 0.852952 0.110175 0.358790
O O4 0.786897 0.719525 0.874104
O O5 0.000000 0.500000 0.500000
O O6 0.934777 0.077953 0.479260
O O7 0.000000 0.500000 0.000000
O O8 0.882484 0.816641 0.212305
O O9 0.815253 0.484565 0.732260
O O10 0.000000 0.000000 0.500000
O O11 0.545267 0.938651 0.664786
O O12 0.632018 0.017313 0.993162
O O13 0.500000 0.500000 0.000000
O O14 0.438441 0.529582 0.166795
O O15 0.315764 0.112044 0.983615
O O16 0.369844 0.571039 0.837474
O O17 0.289895 0.606186 0.623317
O O18 0.754357 0.296938 0.196409
#
# Coordination Sequence:
#
# PCOD9112075 Si02
#       8
#     2   2   2   2   2   2   2   2
#     4  11  23  45  71 100 145 187 239 305 371 439
#     4  12  27  48  77 107 146 196 252 308 384 453
#     4  12  27  46  69 103 139 184 244 304 375 441
#     4  10  20  44  69 101 146 190 239 297 365 446
#     4  10  26  40  71 108 143 183 247 302 362 442
#     4  11  21  43  70 100 140 189 238 295 367 435
#     4  11  20  45  75  93 140 192 240 299 376 442
#     4  11  23  47  69 100 144 190 235 301 369 437
#
# _framework density 23.320285999999999
#
# number of rings (size 3 to 8) (size 9 to 14) (size 15 to 20)
#    0.000    1.000    5.000    1.125    3.500    2.000 
#    2.250    1.250    0.000    0.000    0.000    0.000 
#    0.000    0.000    0.000    0.000    0.000    0.000 
#
# Total GULP energy -89255.545967 kJ/mol
# GULP energy per Si atom -5578.471623 kJ/mol
# Density = 2.326721 g / cm^3
# Si number density = 23.320286 Si / 1000 Ang^3
#
#
#
# Elastic Constant Matrix: (Units=GPa)
#
#
# Indices 1 2 3 4 5 6 
#
# 1 164.8766 49.1529 37.7765 -4.3949 -30.4619 13.6444
# 2 49.1529 105.7989 35.4401 -8.8602 -11.0648 -2.2385
# 3 37.7765 35.4401 50.0193 -0.1337 -7.4129 0.9064
# 4 -4.3949 -8.8602 -0.1337 34.6682 -5.3351 -2.7847
# 5 -30.4619 -11.0648 -7.4129 -5.3351 21.4786 4.6118
# 6 13.6444 -2.2385 0.9064 -2.7847 4.6118 47.2645
#
#
#
# Elastic Compliance Matrix: (Units=1/GPa)
#
#
# Indices 1 2 3 4 5 6 
#
# 1 0.010739 -0.001806 -0.004624 0.002737 0.014315 -0.004333
# 2 -0.001806 0.013503 -0.007876 0.003651 0.002304 0.001302
# 3 -0.004624 -0.007876 0.028842 -0.002673 -0.001408 0.000389
# 4 0.002737 0.003651 -0.002673 0.032090 0.012794 0.000076
# 5 0.014315 0.002304 -0.001408 0.012794 0.072963 -0.010362
# 6 -0.004333 0.001302 0.000389 0.000076 -0.010362 0.023478
#
#
# Mechanical properties :
#
#
# Convention : Reuss Voigt Hill
#
# Bulk Modulus (GPa) = 40.86138 62.82597 51.84368
# Shear Modulus (GPa) = 22.89537 33.90395 28.39966
#
# Velocity S-wave (km/s) = 3.13673 3.81706 3.49350
# Velocity P-wave (km/s) = 5.53883 6.81363 6.20904
#
# Compressibility (1/GPa) = 0.02447298
#
# Stress axis : x y z
#
# Youngs Moduli (GPa) = 93.11769 74.05519 34.67174
#
# Poissons Ratio (x) = 0.13373 0.16032
# Poissons Ratio (y) = 0.16815 0.27308
# Poissons Ratio (z) = 0.43057 0.58327
#
# Static dielectric constant tensor:
#      x y z
#    x 1.888540 0.050250 -0.021960 
#    y 0.050250 1.880370 -0.005800 
#    z -0.021960 -0.005800 1.994110 
# 
# From -- ./inp_files/90807.got.cif
#   From: 2010.05.17/outbox.cif.g08.bks.cpg/sg2_46_cif.got.tgz:90807.got - 2010.06.03 11:33:40.
