data_PCOD9112449
_publ_section_title
;
Structure prediction by ZEFSAII (Michael W. Deem and Ramdas Pophale) SiO2 
 PCOD9112449
Probable space group: P 2
;
_chemical_formula_sum "Si O2"
_cell_formula_units_Z 15
_cell_length_a 16.735916
_cell_length_b 5.604400
_cell_length_c 12.286265
_cell_angle_alpha 90.000000
_cell_angle_beta 150.599941
_cell_angle_gamma 90.000000
_cell_volume 565.712320
_symmetry_space_group_name_H-M "P 2"
_symmetry_group_IT_number 3
_symmetry_cell_setting 'monoclinic'
loop_
_space_group_symop_operation_xyz
x,y,z
-x,y,-z
loop_
_atom_site_type_symbol
_atom_site_label
_atom_site_fract_x
_atom_site_fract_y
_atom_site_fract_z
Si Si1 0.356082 0.505340 0.090064
Si Si2 0.301994 0.089107 0.735817
Si Si3 0.008274 0.052675 0.839329
Si Si4 0.500000 0.047495 0.500000
Si Si5 0.629950 0.593635 0.255107
Si Si6 0.773417 0.669524 0.851335
Si Si7 0.766496 0.280393 0.698699
Si Si8 0.807794 0.018290 0.163583
O O1 0.534047 0.556499 0.253726
O O2 0.299603 0.489475 0.147580
O O3 0.257619 0.747504 0.935500
O O4 0.312356 0.246579 0.991242
O O5 0.285573 0.850750 0.643463
O O6 0.181429 0.030965 0.693261
O O7 0.269865 0.356519 0.655203
O O8 0.500000 0.095472 0.000000
O O9 0.062688 0.077436 0.778679
O O10 0.050878 0.775995 0.914033
O O11 0.839918 0.163406 0.679455
O O12 0.123108 0.184436 0.067621
O O13 0.641856 0.877811 0.710152
O O14 0.584793 0.193640 0.505483
O O15 0.500000 0.608201 0.000000
O O16 0.770091 0.560249 0.727854
#
# Coordination Sequence:
#
# PCOD9112449 Si02
#       8
#     2   2   2   1   2   2   2   2
#     4  11  18  28  46  69 101 133 176 204 256 310
#     4  10  15  23  40  59  98 139 166 188 247 313
#     4   9  21  32  51  78 102 134 176 217 262 319
#     4  10  22  38  54  72  96 140 178 222 266 318
#     4  10  15  24  38  64  94 139 162 197 243 312
#     4  10  21  36  54  75 103 141 174 226 263 315
#     4  10  19  37  53  71 101 136 177 217 271 311
#     4  11  17  29  42  71 101 139 168 204 253 315
#
# _framework density 26.515243000000002
#
# number of rings (size 3 to 8) (size 9 to 14) (size 15 to 20)
#    0.000    1.867    6.667    0.400    0.000    4.267 
#    0.000    0.000    0.000    0.000    0.000    0.000 
#    0.000    1.067    0.267    1.067    0.000    0.000 
#
# Total GULP energy -83698.319977 kJ/mol
# GULP energy per Si atom -5579.887998 kJ/mol
# Density = 2.645489 g / cm^3
# Si number density = 26.515243 Si / 1000 Ang^3
#
#
#
# Elastic Constant Matrix: (Units=GPa)
#
#
# Indices 1 2 3 4 5 6 
#
# 1 206.0172 50.0172 50.6751 0.0000 42.7841 0.0000
# 2 50.0172 136.2045 28.9302 0.0000 18.6628 0.0000
# 3 50.6751 28.9302 60.0431 0.0000 14.3707 0.0000
# 4 0.0000 0.0000 0.0000 18.5333 0.0000 1.3659
# 5 42.7841 18.6628 14.3707 0.0000 57.5415 0.0000
# 6 0.0000 0.0000 0.0000 1.3659 0.0000 47.6185
#
#
#
# Elastic Compliance Matrix: (Units=1/GPa)
#
#
# Indices 1 2 3 4 5 6 
#
# 1 0.006999 -0.001108 -0.004482 0.000000 -0.003725 0.000000
# 2 -0.001108 0.008528 -0.002882 0.000000 -0.001223 0.000000
# 3 -0.004482 -0.002882 0.022127 0.000000 -0.001259 0.000000
# 4 0.000000 0.000000 0.000000 0.054071 0.000000 -0.001551
# 5 -0.003725 -0.001223 -0.001259 0.000000 0.020860 0.000000
# 6 0.000000 0.000000 0.000000 -0.001551 0.000000 0.021045
#
#
# Mechanical properties :
#
#
# Convention : Reuss Voigt Hill
#
# Bulk Modulus (GPa) = 48.28060 73.50111 60.89085
# Shear Modulus (GPa) = 31.75097 42.91482 37.33290
#
# Velocity S-wave (km/s) = 3.46419 4.02742 3.75637
# Velocity P-wave (km/s) = 5.85226 7.02903 6.46747
#
# Compressibility (1/GPa) = 0.02071225
#
# Stress axis : x y z
#
# Youngs Moduli (GPa) = 142.87890 117.25679 45.19406
#
# Poissons Ratio (x) = 0.12990 0.20254
# Poissons Ratio (y) = 0.15828 0.13023
# Poissons Ratio (z) = 0.64032 0.33788
#
# Static dielectric constant tensor:
#      x y z
#    x 2.083680 0.000000 -0.071880 
#    y 0.000000 2.157720 0.000000 
#    z -0.071880 0.000000 2.249480 
# 
# From -- ./inp_files/15429.got.cif
#   From: 2010.05.17/outbox.cif.g08.bks.cpg/sg3_8_cif.got.tgz:15429.got - 2010.06.03 18:33:08.
