data_PCOD9112644
_publ_section_title
;
Structure prediction by ZEFSAII (Michael W. Deem and Ramdas Pophale) SiO2 
 PCOD9112644
Probable space group: P 2
;
_chemical_formula_sum "Si O2"
_cell_formula_units_Z 14
_cell_length_a 16.529637
_cell_length_b 11.746028
_cell_length_c 13.886748
_cell_angle_alpha 90.000000
_cell_angle_beta 163.813866
_cell_angle_gamma 90.000000
_cell_volume 751.594049
_symmetry_space_group_name_H-M "P 2"
_symmetry_group_IT_number 3
_symmetry_cell_setting 'monoclinic'
loop_
_space_group_symop_operation_xyz
x,y,z
-x,y,-z
loop_
_atom_site_type_symbol
_atom_site_label
_atom_site_fract_x
_atom_site_fract_y
_atom_site_fract_z
Si Si1 0.324806 0.324810 0.396280
Si Si2 0.689124 0.744697 0.433025
Si Si3 0.017821 0.731306 0.627393
Si Si4 0.361690 0.102924 0.234281
Si Si5 0.255493 0.481030 0.499885
Si Si6 0.857937 0.964608 0.731829
Si Si7 0.927260 0.465654 0.312939
O O1 0.500000 0.364406 0.500000
O O2 0.539173 0.228259 0.684805
O O3 0.253184 0.418545 0.394566
O O4 0.000000 0.276398 0.000000
O O5 0.802324 0.615967 0.580231
O O6 0.842351 0.837786 0.674048
O O7 0.780257 0.776847 0.428796
O O8 0.340270 0.744372 0.039743
O O9 0.955419 0.595705 0.547809
O O10 0.000000 0.779564 0.500000
O O11 0.500000 0.101070 0.500000
O O12 0.534063 0.011022 0.369966
O O13 0.038973 0.056904 0.877198
O O14 0.054483 0.427608 0.354494
O O15 0.582834 0.471494 0.912105
O O16 0.000000 0.962298 0.000000
O O17 0.000000 0.410538 0.500000
#
# Coordination Sequence:
#
# PCOD9112644 Si02
#       7
#     2   2   2   2   2   2   2
#     4  11  21  35  53  75 106 140 176 216 256 303
#     4  10  19  31  48  75 105 132 165 203 255 317
#     4   9  17  30  48  70  99 133 168 207 246 294
#     4   9  18  33  51  69  91 127 176 219 244 276
#     4  10  20  32  49  77 107 136 170 205 257 322
#     4  10  19  32  50  72  99 129 165 209 251 294
#     4   9  17  31  50  72 101 135 172 213 251 296
#
# _framework density 18.627077
#
# number of rings (size 3 to 8) (size 9 to 14) (size 15 to 20)
#    0.000    2.286    0.000    4.714    0.000    4.000 
#    0.000    2.143    0.000    0.000    0.000   15.000 
#    0.000    0.000    0.000    0.000    0.000    0.000 
#
# Total GULP energy -77945.033049 kJ/mol
# GULP energy per Si atom -5567.502361 kJ/mol
# Density = 1.858468 g / cm^3
# Si number density = 18.627077 Si / 1000 Ang^3
#
#
#
# Elastic Constant Matrix: (Units=GPa)
#
#
# Indices 1 2 3 4 5 6 
#
# 1 108.4330 39.8930 14.6953 0.0000 14.2051 0.0000
# 2 39.8930 70.3805 8.6040 0.0000 -6.9428 0.0000
# 3 14.6953 8.6040 24.7625 0.0000 6.4414 0.0000
# 4 0.0000 0.0000 0.0000 10.0664 0.0000 12.7850
# 5 14.2051 -6.9428 6.4414 0.0000 24.8245 0.0000
# 6 0.0000 0.0000 0.0000 12.7850 0.0000 2.7922
#
#
#
# Elastic Compliance Matrix: (Units=1/GPa)
#
#
# Indices 1 2 3 4 5 6 
#
# 1 0.014023 -0.008558 -0.002829 0.000000 -0.009683 0.000000
# 2 -0.008558 0.020909 -0.005342 0.000000 0.012131 0.000000
# 3 -0.002829 -0.005342 0.047063 0.000000 -0.012087 0.000000
# 4 0.000000 0.000000 0.000000 -0.020629 0.000000 0.094459
# 5 -0.009683 0.012131 -0.012087 0.000000 0.052353 0.000000
# 6 0.000000 0.000000 0.000000 0.094459 0.000000 -0.074373
#
#
# Mechanical properties :
#
#
# Convention : Reuss Voigt Hill
#
# Bulk Modulus (GPa) = 20.60309 36.66229 28.63269
# Shear Modulus (GPa) = 56.19123 16.89551 36.54337
#
# Velocity S-wave (km/s) = 5.49836 3.01498 4.43407
# Velocity P-wave (km/s) = 7.16896 5.64315 6.45132
#
# Compressibility (1/GPa) = 0.04853640
#
# Stress axis : x y z
#
# Youngs Moduli (GPa) = 71.31300 47.82673 21.24810
#
# Poissons Ratio (x) = 0.40928 0.06012
# Poissons Ratio (y) = 0.61027 0.11351
# Poissons Ratio (z) = 0.20178 0.25549
#
# Static dielectric constant tensor:
#      x y z
#    x 1.712780 0.000000 -0.011430 
#    y 0.000000 1.674600 0.000000 
#    z -0.011430 0.000000 1.647340 
# 
# From -- ./inp_files/3064.got.cif
#   From: 2010.05.17/outbox.cif.g08.bks.cpg/sg3_2_cif.got.tgz:3064.got - 2010.06.03 18:33:08.
