data_PCOD9112493
_publ_section_title
;
Structure prediction by ZEFSAII (Michael W. Deem and Ramdas Pophale) SiO2 
 PCOD9112493
Probable space group: P 2
;
_chemical_formula_sum "Si O2"
_cell_formula_units_Z 16
_cell_length_a 13.247278
_cell_length_b 7.834611
_cell_length_c 9.044494
_cell_angle_alpha 90.000000
_cell_angle_beta 111.194607
_cell_angle_gamma 90.000000
_cell_volume 875.207414
_symmetry_space_group_name_H-M "P 2"
_symmetry_group_IT_number 3
_symmetry_cell_setting 'monoclinic'
loop_
_space_group_symop_operation_xyz
x,y,z
-x,y,-z
loop_
_atom_site_type_symbol
_atom_site_label
_atom_site_fract_x
_atom_site_fract_y
_atom_site_fract_z
Si Si1 0.761148 0.449080 0.084302
Si Si2 0.416977 0.962775 0.824524
Si Si3 0.404409 0.078353 0.290624
Si Si4 0.573886 0.451543 0.745491
Si Si5 0.124397 0.755343 0.021848
Si Si6 0.233335 0.066580 0.929607
Si Si7 0.308314 0.751207 0.363414
Si Si8 0.348564 0.596201 0.696177
O O1 0.809034 0.259187 0.100078
O O2 0.733402 0.508108 0.234686
O O3 0.646812 0.445081 0.932915
O O4 0.835797 0.587852 0.044322
O O5 0.403381 0.759908 0.803678
O O6 0.477794 0.035939 0.714166
O O7 0.300856 0.031993 0.815337
O O8 0.500000 0.003210 0.000000
O O9 0.401803 0.277215 0.329762
O O10 0.364873 0.935979 0.383994
O O11 0.320648 0.058390 0.109439
O O12 0.612795 0.618453 0.679057
O O13 0.447506 0.470168 0.711728
O O14 0.199187 0.762287 0.208893
O O15 0.000000 0.749799 0.000000
O O16 0.150860 0.917907 0.930964
O O17 0.296332 0.675277 0.520469
#
# Coordination Sequence:
#
# PCOD9112493 Si02
#       8
#     2   2   2   2   2   2   2   2
#     4  10  20  35  58  82 109 141 184 225 268 327
#     4  10  17  29  52  78 108 146 180 208 249 315
#     4   9  18  33  52  74 113 154 182 214 256 314
#     4  10  19  34  53  78 112 154 188 211 252 323
#     4  10  21  40  63  80  97 138 187 240 283 325
#     4   9  18  34  56  84 104 134 188 233 262 319
#     4  10  22  37  49  80 117 141 185 225 271 320
#     4  12  20  32  51  83 116 151 172 217 268 325
#
# _framework density 18.281379999999999
#
# number of rings (size 3 to 8) (size 9 to 14) (size 15 to 20)
#    0.000    2.000    2.500    2.250    0.000    2.500 
#    6.750    0.625    0.000    0.000    3.250    0.000 
#    0.000    0.000    0.000    0.000    0.000    0.000 
#
# Total GULP energy -89268.255317 kJ/mol
# GULP energy per Si atom -5579.265957 kJ/mol
# Density = 1.823977 g / cm^3
# Si number density = 18.281380 Si / 1000 Ang^3
#
#
#
# Elastic Constant Matrix: (Units=GPa)
#
#
# Indices 1 2 3 4 5 6 
#
# 1 118.6214 56.6746 37.9829 0.0000 -5.3190 0.0000
# 2 56.6746 144.8789 25.8966 0.0000 -7.7295 0.0000
# 3 37.9829 25.8966 67.1162 0.0000 -11.2486 0.0000
# 4 0.0000 0.0000 0.0000 10.2697 0.0000 -0.1854
# 5 -5.3190 -7.7295 -11.2486 0.0000 9.3891 0.0000
# 6 0.0000 0.0000 0.0000 -0.1854 0.0000 9.0966
#
#
#
# Elastic Compliance Matrix: (Units=1/GPa)
#
#
# Indices 1 2 3 4 5 6 
#
# 1 0.011985 -0.003819 -0.005878 0.000000 -0.003397 0.000000
# 2 -0.003819 0.008716 -0.000453 0.000000 0.004469 0.000000
# 3 -0.005878 -0.000453 0.022247 0.000000 0.022951 0.000000
# 4 0.000000 0.000000 0.000000 0.097410 0.000000 0.001985
# 5 -0.003397 0.004469 0.022951 0.000000 0.135758 0.000000
# 6 0.000000 0.000000 0.000000 0.001985 0.000000 0.109971
#
#
# Mechanical properties :
#
#
# Convention : Reuss Voigt Hill
#
# Bulk Modulus (GPa) = 44.15365 63.52495 53.83930
# Shear Modulus (GPa) = 12.07917 19.75524 15.91720
#
# Velocity S-wave (km/s) = 2.57327 3.29085 2.95393
# Velocity P-wave (km/s) = 5.74749 7.01879 6.41471
#
# Compressibility (1/GPa) = 0.02264818
#
# Stress axis : x y z
#
# Youngs Moduli (GPa) = 83.44047 114.73804 44.94904
#
# Poissons Ratio (x) = 0.43815 0.26422
# Poissons Ratio (y) = 0.31863 0.02035
# Poissons Ratio (z) = 0.49049 0.05194
#
# Static dielectric constant tensor:
#      x y z
#    x 1.596050 0.000000 -0.007020 
#    y 0.000000 1.651360 0.000000 
#    z -0.007020 0.000000 1.673960 
# 
# From -- ./inp_files/7221.got.cif
#   From: 2010.05.17/outbox.cif.g08.bks.cpg/sg3_4_cif.got.tgz:7221.got - 2010.06.03 18:33:08.
