data_PCOD9112621
_publ_section_title
;
Structure prediction by ZEFSAII (Michael W. Deem and Ramdas Pophale) SiO2 
 PCOD9112621
Probable space group: P 2
;
_chemical_formula_sum "Si O2"
_cell_formula_units_Z 12
_cell_length_a 11.162531
_cell_length_b 8.418650
_cell_length_c 8.007232
_cell_angle_alpha 90.000000
_cell_angle_beta 53.306277
_cell_angle_gamma 90.000000
_cell_volume 603.359095
_symmetry_space_group_name_H-M "P 2"
_symmetry_group_IT_number 3
_symmetry_cell_setting 'monoclinic'
loop_
_space_group_symop_operation_xyz
x,y,z
-x,y,-z
loop_
_atom_site_type_symbol
_atom_site_label
_atom_site_fract_x
_atom_site_fract_y
_atom_site_fract_z
Si Si1 0.873808 0.252370 0.995305
Si Si2 0.848028 0.987240 0.448786
Si Si3 0.096980 0.366987 0.576109
Si Si4 0.676170 0.472417 0.380207
Si Si5 0.807834 0.953992 0.850314
Si Si6 0.672511 0.829414 0.299144
O O1 0.749828 0.332520 0.210486
O O2 0.000000 0.160103 0.000000
O O3 0.978075 0.385747 0.825151
O O4 0.806600 0.138994 0.910440
O O5 0.870888 0.176999 0.456385
O O6 0.769047 0.932061 0.687629
O O7 0.758709 0.942630 0.357659
O O8 0.014593 0.914109 0.292986
O O9 0.251696 0.449360 0.496062
O O10 0.000000 0.418320 0.500000
O O11 0.500000 0.459999 0.500000
O O12 0.721220 0.647761 0.285352
O O13 0.710832 0.872225 0.075617
O O14 0.500000 0.840365 0.500000
#
# Coordination Sequence:
#
# PCOD9112621 Si02
#       6
#     2   2   2   2   2   2
#     4   9  17  33  61  86 109 147 193 242 293 347
#     4  10  20  38  64  92 113 150 195 252 300 346
#     4  10  18  38  62  88 115 141 193 253 295 343
#     4  10  23  40  56  82 121 163 197 233 292 356
#     4  10  19  37  63  89 117 145 199 250 294 346
#     4  11  24  40  56  83 127 164 193 237 292 357
#
# _framework density 19.888653000000001
#
# number of rings (size 3 to 8) (size 9 to 14) (size 15 to 20)
#    0.000    2.000    3.333    3.500    0.000    7.333 
#    6.000    0.833    0.000    0.000    0.000    0.000 
#    0.000    0.000    0.000    0.000    0.000    0.000 
#
# Total GULP energy -66821.329644 kJ/mol
# GULP energy per Si atom -5568.444137 kJ/mol
# Density = 1.984339 g / cm^3
# Si number density = 19.888653 Si / 1000 Ang^3
#
#
#
# Elastic Constant Matrix: (Units=GPa)
#
#
# Indices 1 2 3 4 5 6 
#
# 1 87.8496 19.3606 36.6287 0.0000 8.5856 0.0000
# 2 19.3606 51.0946 29.6871 0.0000 -6.2119 0.0000
# 3 36.6287 29.6871 108.5178 0.0000 23.1120 0.0000
# 4 0.0000 0.0000 0.0000 27.8499 0.0000 -13.7907
# 5 8.5856 -6.2119 23.1120 0.0000 29.2964 0.0000
# 6 0.0000 0.0000 0.0000 -13.7907 0.0000 19.8818
#
#
#
# Elastic Compliance Matrix: (Units=1/GPa)
#
#
# Indices 1 2 3 4 5 6 
#
# 1 0.013725 -0.003661 -0.003136 0.000000 -0.002324 0.000000
# 2 -0.003661 0.028353 -0.009651 0.000000 0.014699 0.000000
# 3 -0.003136 -0.009651 0.015811 0.000000 -0.013600 0.000000
# 4 0.000000 0.000000 0.000000 0.054692 0.000000 0.037936
# 5 -0.002324 0.014699 -0.013600 0.000000 0.048661 0.000000
# 6 0.000000 0.000000 0.000000 0.037936 0.000000 0.076611
#
#
# Mechanical properties :
#
#
# Convention : Reuss Voigt Hill
#
# Bulk Modulus (GPa) = 40.01323 46.53498 43.27410
# Shear Modulus (GPa) = 17.91597 26.19133 22.05365
#
# Velocity S-wave (km/s) = 3.00461 3.63285 3.33356
# Velocity P-wave (km/s) = 5.67444 6.40666 6.05163
#
# Compressibility (1/GPa) = 0.02499173
#
# Stress axis : x y z
#
# Youngs Moduli (GPa) = 72.86174 35.26905 63.24909
#
# Poissons Ratio (x) = 0.12912 0.19835
# Poissons Ratio (y) = 0.26675 0.61045
# Poissons Ratio (z) = 0.22849 0.34040
#
# Static dielectric constant tensor:
#      x y z
#    x 1.796540 0.000000 0.061920 
#    y 0.000000 1.720590 0.000000 
#    z 0.061920 0.000000 1.748580 
# 
# From -- ./inp_files/5325.got.cif
#   From: 2010.05.17/outbox.cif.g08.bks.cpg/sg3_3_cif.got.tgz:5325.got - 2010.06.03 18:33:08.
