data_PCOD9112593
_publ_section_title
;
Structure prediction by ZEFSAII (Michael W. Deem and Ramdas Pophale) SiO2 
 PCOD9112593
Probable space group: P 2
;
_chemical_formula_sum "Si O2"
_cell_formula_units_Z 16
_cell_length_a 12.607017
_cell_length_b 4.925115
_cell_length_c 26.141450
_cell_angle_alpha 90.000000
_cell_angle_beta 24.068537
_cell_angle_gamma 90.000000
_cell_volume 661.967445
_symmetry_space_group_name_H-M "P 2"
_symmetry_group_IT_number 3
_symmetry_cell_setting 'monoclinic'
loop_
_space_group_symop_operation_xyz
x,y,z
-x,y,-z
loop_
_atom_site_type_symbol
_atom_site_label
_atom_site_fract_x
_atom_site_fract_y
_atom_site_fract_z
Si Si1 0.421702 0.059900 0.318642
Si Si2 0.749526 0.391177 0.701570
Si Si3 0.818560 0.268839 0.419028
Si Si4 0.508744 0.889785 0.860428
Si Si5 0.063998 0.771038 0.916628
Si Si6 0.503587 0.565759 0.655591
Si Si7 0.385285 0.887544 0.605363
Si Si8 0.941863 0.764671 0.739106
O O1 0.274307 0.234864 0.341203
O O2 0.440560 0.253670 0.359099
O O3 0.715725 0.000300 0.169244
O O4 0.327789 0.770080 0.381932
O O5 0.627618 0.687532 0.763927
O O6 0.593430 0.194595 0.809373
O O7 0.045066 0.395524 0.591196
O O8 0.515785 0.186537 0.551479
O O9 0.939527 0.970627 0.355917
O O10 0.944088 0.465046 0.321038
O O11 0.640765 0.788899 0.855536
O O12 0.201072 0.869050 0.991867
O O13 0.218622 0.591505 0.808048
O O14 0.000000 0.642433 0.000000
O O15 0.474844 0.707822 0.613419
O O16 0.500000 0.785691 0.500000
O O17 0.075519 0.872765 0.732152
#
# Coordination Sequence:
#
# PCOD9112593 Si02
#       8
#     2   2   2   2   2   2   2   2
#     4  10  21  36  54  87 129 160 198 251 306 364
#     4  10  18  35  57  88 124 160 201 252 306 378
#     4   9  20  35  61  90 113 153 211 254 311 372
#     4  10  19  32  58  89 125 155 209 246 306 379
#     4  10  20  35  59  90 124 170 197 242 313 378
#     4  10  24  36  56  93 123 156 218 257 294 381
#     4  10  22  42  65  85 117 165 212 264 319 355
#     4   9  20  36  58  93 114 156 206 264 300 371
#
# _framework density 24.170373000000001
#
# number of rings (size 3 to 8) (size 9 to 14) (size 15 to 20)
#    0.750    1.500    1.250    1.500    1.750    9.000 
#    0.000    1.250    0.000    1.500    3.250    0.000 
#    0.000    0.000    0.000    0.000    0.000    0.000 
#
# Total GULP energy -89169.718699 kJ/mol
# GULP energy per Si atom -5573.107419 kJ/mol
# Density = 2.411536 g / cm^3
# Si number density = 24.170373 Si / 1000 Ang^3
#
#
#
# Elastic Constant Matrix: (Units=GPa)
#
#
# Indices 1 2 3 4 5 6 
#
# 1 104.9654 10.9142 -1.2585 0.0000 -32.1254 0.0000
# 2 10.9142 115.7199 1.4500 0.0000 0.6866 0.0000
# 3 -1.2585 1.4500 41.9326 0.0000 -14.3334 0.0000
# 4 0.0000 0.0000 0.0000 7.1488 0.0000 -3.1639
# 5 -32.1254 0.6866 -14.3334 0.0000 45.5521 0.0000
# 6 0.0000 0.0000 0.0000 -3.1639 0.0000 35.8814
#
#
#
# Elastic Compliance Matrix: (Units=1/GPa)
#
#
# Indices 1 2 3 4 5 6 
#
# 1 0.012881 -0.001326 0.003972 0.000000 0.010354 0.000000
# 2 -0.001326 0.008784 -0.000794 0.000000 -0.001317 0.000000
# 3 0.003972 -0.000794 0.027964 0.000000 0.011612 0.000000
# 4 0.000000 0.000000 0.000000 0.145565 0.000000 0.012835
# 5 0.010354 -0.001317 0.011612 0.000000 0.032929 0.000000
# 6 0.000000 0.000000 0.000000 0.012835 0.000000 0.029001
#
#
# Mechanical properties :
#
#
# Convention : Reuss Voigt Hill
#
# Bulk Modulus (GPa) = 18.75008 31.64770 25.19889
# Shear Modulus (GPa) = 18.43664 34.48394 26.46029
#
# Velocity S-wave (km/s) = 2.76484 3.78127 3.31228
# Velocity P-wave (km/s) = 4.23872 5.67327 5.00763
#
# Compressibility (1/GPa) = 0.05333311
#
# Stress axis : x y z
#
# Youngs Moduli (GPa) = 77.63085 113.83822 35.76062
#
# Poissons Ratio (x) = 0.15096 -0.14203
# Poissons Ratio (y) = 0.10295 0.02839
# Poissons Ratio (z) = -0.30833 0.09038
#
# Static dielectric constant tensor:
#      x y z
#    x 2.060800 0.000000 -0.031230 
#    y 0.000000 1.907590 0.000000 
#    z -0.031230 0.000000 2.016010 
# 
# From -- ./inp_files/16516.got.cif
#   From: 2010.05.17/outbox.cif.g08.bks.cpg/sg3_9_cif.got.tgz:16516.got - 2010.06.03 18:33:08.
