data_PCOD9112364
_publ_section_title
;
Structure prediction by ZEFSAII (Michael W. Deem and Ramdas Pophale) SiO2 
 PCOD9112364
Probable space group: P -1
;
_chemical_formula_sum "Si O2"
_cell_formula_units_Z 13
_cell_length_a 11.432375
_cell_length_b 11.358311
_cell_length_c 4.759458
_cell_angle_alpha 99.275261
_cell_angle_beta 87.431228
_cell_angle_gamma 48.445138
_cell_volume 446.699003
_symmetry_space_group_name_H-M "P -1"
_symmetry_group_IT_number 2
_symmetry_cell_setting 'triclinic'
loop_
_space_group_symop_operation_xyz
x,y,z
-x,-y,-z
loop_
_atom_site_type_symbol
_atom_site_label
_atom_site_fract_x
_atom_site_fract_y
_atom_site_fract_z
Si Si1 0.462691 0.274066 0.350613
Si Si2 0.206947 0.180152 0.149286
Si Si3 0.878856 0.011889 0.826252
Si Si4 0.500000 0.000000 0.500000
Si Si5 0.372023 0.640668 0.289142
Si Si6 0.077091 0.685036 0.413575
Si Si7 0.250852 0.388999 0.908917
O O1 0.544592 0.099654 0.399262
O O2 0.549384 0.332468 0.468735
O O3 0.411166 0.303987 0.043896
O O4 0.293085 0.380177 0.580278
O O5 0.359150 0.083840 0.299781
O O6 0.226399 0.266858 0.939811
O O7 0.040159 0.316412 0.386596
O O8 0.187787 0.055552 0.022319
O O9 0.741728 0.192414 0.808121
O O10 0.969018 0.880229 0.512004
O O11 0.000000 0.000000 0.000000
O O12 0.249853 0.627747 0.427400
O O13 0.500000 0.500000 0.000000
O O14 0.120267 0.572588 0.100474
#
# Coordination Sequence:
#
# PCOD9112364 Si02
#       7
#     2   2   2   1   2   2   2
#     4  11  25  44  74 106 152 193 262 300 386 438
#     4   9  22  43  71 101 151 189 258 302 388 441
#     4  10  24  44  68 109 151 201 251 318 382 458
#     4  10  20  48  70 104 146 202 242 318 364 464
#     4  12  24  45  72 108 151 202 258 308 385 453
#     4  10  23  44  72 104 153 190 258 307 389 442
#     4  11  24  47  71 113 143 202 246 321 366 465
#
# _framework density 29.102371999999999
#
# number of rings (size 3 to 8) (size 9 to 14) (size 15 to 20)
#    0.923    0.615    3.077    0.923    2.154    4.308 
#    8.308    3.846    0.000    0.000    0.000    0.000 
#    0.000    0.000    0.000    0.000    0.000    0.000 
#
# Total GULP energy -72655.432257 kJ/mol
# GULP energy per Si atom -5588.879404 kJ/mol
# Density = 2.903613 g / cm^3
# Si number density = 29.102372 Si / 1000 Ang^3
#
#
#
# Elastic Constant Matrix: (Units=GPa)
#
#
# Indices 1 2 3 4 5 6 
#
# 1 244.7620 58.0705 58.8161 -18.1673 8.2936 14.3299
# 2 58.0705 182.8607 55.0383 37.3710 1.8002 3.6290
# 3 58.8161 55.0383 100.2162 -7.1515 1.1710 -5.4146
# 4 -18.1673 37.3710 -7.1515 -15.5887 -0.3754 30.8162
# 5 8.2936 1.8002 1.1710 -0.3754 56.5090 -3.3927
# 6 14.3299 3.6290 -5.4146 30.8162 -3.3927 56.4590
#
#
#
# Elastic Compliance Matrix: (Units=1/GPa)
#
#
# Indices 1 2 3 4 5 6 
#
# 1 0.004534 0.000090 -0.002916 -0.003187 -0.000613 0.000267
# 2 0.000090 0.005121 -0.002651 0.005849 -0.000312 -0.003818
# 3 -0.002916 -0.002651 0.013166 -0.002241 0.000430 0.003422
# 4 -0.003187 0.005849 -0.002241 -0.021581 0.000908 0.012052
# 5 -0.000613 -0.000312 0.000430 0.000908 0.017841 0.000793
# 6 0.000267 -0.003818 0.003422 0.012052 0.000793 0.011687
#
#
# Mechanical properties :
#
#
# Convention : Reuss Voigt Hill
#
# Bulk Modulus (GPa) = 84.26676 96.85430 90.56053
# Shear Modulus (GPa) = 109.46565 43.20347 76.33456
#
# Velocity S-wave (km/s) = 6.13968 3.85715 5.12705
# Velocity P-wave (km/s) = 8.90388 7.29312 8.13845
#
# Compressibility (1/GPa) = 0.01186708
#
# Stress axis : x y z
#
# Youngs Moduli (GPa) = 220.57957 195.26354 75.95591
#
# Poissons Ratio (x) = -0.01760 0.22149
# Poissons Ratio (y) = -0.01988 0.20134
# Poissons Ratio (z) = 0.64322 0.51759
#
# Static dielectric constant tensor:
#      x y z
#    x 2.312140 -0.132440 -0.151170 
#    y -0.132440 2.489620 0.196040 
#    z -0.151170 0.196040 2.328020 
# 
# From -- ./inp_files/62480.got.cif
#   From: 2010.05.17/outbox.cif.g08.bks.cpg/sg2_32_cif.got.tgz:62480.got - 2010.06.03 11:33:40.
