data_PCOD9112436
_publ_section_title
;
Structure prediction by ZEFSAII (Michael W. Deem and Ramdas Pophale) SiO2 
 PCOD9112436
Probable space group: P -1
;
_chemical_formula_sum "Si O2"
_cell_formula_units_Z 14
_cell_length_a 14.392978
_cell_length_b 15.459356
_cell_length_c 11.243113
_cell_angle_alpha 156.563403
_cell_angle_beta 141.271308
_cell_angle_gamma 40.939324
_cell_volume 614.551023
_symmetry_space_group_name_H-M "P -1"
_symmetry_group_IT_number 2
_symmetry_cell_setting 'triclinic'
loop_
_space_group_symop_operation_xyz
x,y,z
-x,-y,-z
loop_
_atom_site_type_symbol
_atom_site_label
_atom_site_fract_x
_atom_site_fract_y
_atom_site_fract_z
Si Si1 0.766799 0.244865 0.108160
Si Si2 0.297977 0.970768 0.459600
Si Si3 0.047253 0.238836 0.705859
Si Si4 0.670079 0.803866 0.447213
Si Si5 0.151058 0.097547 0.891556
Si Si6 0.424900 0.302950 0.529321
Si Si7 0.031093 0.489652 0.657923
O O1 0.629847 0.444697 0.246947
O O2 0.918487 0.334543 0.404802
O O3 0.745906 0.006229 0.834014
O O4 0.772036 0.191468 0.904241
O O5 0.168438 0.145672 0.608901
O O6 0.397143 0.086712 0.605982
O O7 0.407241 0.827069 0.480797
O O8 0.130280 0.140962 0.785822
O O9 0.893059 0.136065 0.413004
O O10 0.000000 0.500000 0.000000
O O11 0.595448 0.698847 0.349559
O O12 0.799458 0.617662 0.293487
O O13 0.306031 0.163906 0.176662
O O14 0.018215 0.272948 0.037698
O O15 0.000000 0.500000 0.500000
#
# Coordination Sequence:
#
# PCOD9112436 Si02
#       7
#     2   2   2   2   2   2   2
#     4   9  21  33  59  92 122 159 187 242 305 351
#     4  10  23  38  62  87 126 163 192 242 300 356
#     4  11  24  46  61  85 117 156 213 252 287 352
#     4  10  21  32  58  90 127 155 193 232 302 353
#     4  10  24  39  65  86 115 162 198 253 298 342
#     4  11  21  41  58  94 127 151 198 243 302 366
#     4  11  17  35  60  91 119 151 193 250 297 350
#
# _framework density 22.780857999999998
#
# number of rings (size 3 to 8) (size 9 to 14) (size 15 to 20)
#    0.857    0.857    2.857    3.000    0.000    2.857 
#    0.000    0.714    0.000    0.000    0.000    0.000 
#    0.000    0.000    0.000    0.000    0.000    0.000 
#
# Total GULP energy -78140.431955 kJ/mol
# GULP energy per Si atom -5581.459425 kJ/mol
# Density = 2.272901 g / cm^3
# Si number density = 22.780858 Si / 1000 Ang^3
#
#
#
# Elastic Constant Matrix: (Units=GPa)
#
#
# Indices 1 2 3 4 5 6 
#
# 1 55.8816 0.0729 18.8593 6.1325 0.2550 12.0881
# 2 0.0729 65.4434 16.5715 9.5674 -5.3950 -15.7585
# 3 18.8593 16.5715 125.3896 19.0971 13.3029 -9.1657
# 4 6.1325 9.5674 19.0971 39.3457 6.0594 -4.6418
# 5 0.2550 -5.3950 13.3029 6.0594 33.8715 1.7650
# 6 12.0881 -15.7585 -9.1657 -4.6418 1.7650 27.7666
#
#
#
# Elastic Compliance Matrix: (Units=1/GPa)
#
#
# Indices 1 2 3 4 5 6 
#
# 1 0.022197 -0.001395 -0.003836 -0.003076 0.002313 -0.012382
# 2 -0.001395 0.018814 -0.001463 -0.003013 0.003596 0.010069
# 3 -0.003836 -0.001463 0.009854 -0.002791 -0.003776 0.003866
# 4 -0.003076 -0.003013 -0.002791 0.029178 -0.004783 0.003889
# 5 0.002313 0.003596 -0.003776 -0.004783 0.032578 -0.003083
# 6 -0.012382 0.010069 0.003866 0.003889 -0.003083 0.049242
#
#
# Mechanical properties :
#
#
# Convention : Reuss Voigt Hill
#
# Bulk Modulus (GPa) = 26.68339 35.30245 30.99292
# Shear Modulus (GPa) = 26.63200 34.27747 30.45473
#
# Velocity S-wave (km/s) = 3.42285 3.88320 3.66027
# Velocity P-wave (km/s) = 5.23065 5.96958 5.61229
#
# Compressibility (1/GPa) = 0.03747650
#
# Stress axis : x y z
#
# Youngs Moduli (GPa) = 45.05117 53.15158 101.48271
#
# Poissons Ratio (x) = 0.07413 0.38932
# Poissons Ratio (y) = 0.06283 0.14850
# Poissons Ratio (z) = 0.17283 0.07778
#
# Static dielectric constant tensor:
#      x y z
#    x 1.952510 -0.043140 0.012290 
#    y -0.043140 1.925440 0.038220 
#    z 0.012290 0.038220 1.875070 
# 
# From -- ./inp_files/456883.got.cif
#   From: 2010.05.17/outbox.cif.g08.bks.cpg/sg2_229_cif.got.tgz:456883.got - 2010.06.03 11:33:40.
