data_PCOD9112540
_publ_section_title
;
Structure prediction by ZEFSAII (Michael W. Deem and Ramdas Pophale) SiO2 
 PCOD9112540
Probable space group: P 2
;
_chemical_formula_sum "Si O2"
_cell_formula_units_Z 16
_cell_length_a 9.674402
_cell_length_b 11.726190
_cell_length_c 7.112394
_cell_angle_alpha 90.000000
_cell_angle_beta 124.464720
_cell_angle_gamma 90.000000
_cell_volume 665.233710
_symmetry_space_group_name_H-M "P 2"
_symmetry_group_IT_number 3
_symmetry_cell_setting 'monoclinic'
loop_
_space_group_symop_operation_xyz
x,y,z
-x,y,-z
loop_
_atom_site_type_symbol
_atom_site_label
_atom_site_fract_x
_atom_site_fract_y
_atom_site_fract_z
Si Si1 0.221310 0.069450 0.991844
Si Si2 0.514324 0.480857 0.795631
Si Si3 0.671285 0.818525 0.886336
Si Si4 0.189961 0.591647 0.486920
Si Si5 0.855456 0.080919 0.616618
Si Si6 0.842137 0.576339 0.107427
Si Si7 0.286039 0.836528 0.531715
Si Si8 0.536926 0.217303 0.305032
O O1 0.052469 0.106286 0.755178
O O2 0.182420 0.077966 0.186654
O O3 0.389259 0.143627 0.094600
O O4 0.254258 0.936053 0.977153
O O5 0.376710 0.552861 0.575981
O O6 0.470399 0.348758 0.754757
O O7 0.500000 0.523681 0.000000
O O8 0.708449 0.498679 0.896845
O O9 0.470798 0.822529 0.763065
O O10 0.692303 0.826164 0.676959
O O11 0.767744 0.704430 0.023389
O O12 0.166458 0.542448 0.677742
O O13 0.181441 0.727077 0.507788
O O14 0.040504 0.564885 0.229459
O O15 0.722015 0.166552 0.423869
O O16 0.803627 0.955935 0.503579
O O17 0.500000 0.210411 0.500000
#
# Coordination Sequence:
#
# PCOD9112540 Si02
#       8
#     2   2   2   2   2   2   2   2
#     4   9  17  31  52  78 108 137 164 205 261 309
#     4  10  22  39  54  72 102 139 175 218 267 306
#     4  10  18  31  55  84 111 138 169 209 259 314
#     4  10  21  37  56  77 104 140 177 213 260 315
#     4   9  17  31  52  78 108 137 164 205 261 309
#     4  10  21  37  56  77 104 140 177 213 260 315
#     4  10  18  31  55  84 111 138 169 209 259 314
#     4  10  20  35  54  76 100 133 179 218 249 302
#
# _framework density 24.051697000000001
#
# number of rings (size 3 to 8) (size 9 to 14) (size 15 to 20)
#    0.000    2.250    2.500    0.750    0.000    3.500 
#    0.000    1.250    0.000    1.500    0.000    0.000 
#    0.000    0.000    0.000    0.000    0.000    0.000 
#
# Total GULP energy -89456.474503 kJ/mol
# GULP energy per Si atom -5591.029656 kJ/mol
# Density = 2.399695 g / cm^3
# Si number density = 24.051697 Si / 1000 Ang^3
#
#
#
# Elastic Constant Matrix: (Units=GPa)
#
#
# Indices 1 2 3 4 5 6 
#
# 1 70.1724 7.4610 60.1799 0.0000 23.3531 0.0000
# 2 7.4610 121.9579 56.2550 0.0000 40.2752 0.0000
# 3 60.1799 56.2550 201.7086 0.0000 46.2465 0.0000
# 4 0.0000 0.0000 0.0000 23.5211 0.0000 -6.9330
# 5 23.3531 40.2752 46.2465 0.0000 65.3843 0.0000
# 6 0.0000 0.0000 0.0000 -6.9330 0.0000 10.9886
#
#
#
# Elastic Compliance Matrix: (Units=1/GPa)
#
#
# Indices 1 2 3 4 5 6 
#
# 1 0.020659 0.003146 -0.005854 0.000000 -0.005176 0.000000
# 2 0.003146 0.011280 -0.002666 0.000000 -0.006186 0.000000
# 3 -0.005854 -0.002666 0.007868 0.000000 -0.001832 0.000000
# 4 0.000000 0.000000 0.000000 0.052228 0.000000 0.032952
# 5 -0.005176 -0.006186 -0.001832 0.000000 0.022249 0.000000
# 6 0.000000 0.000000 0.000000 0.032952 0.000000 0.111793
#
#
# Mechanical properties :
#
#
# Convention : Reuss Voigt Hill
#
# Bulk Modulus (GPa) = 34.41463 71.29229 52.85346
# Shear Modulus (GPa) = 20.28302 37.97501 29.12901
#
# Velocity S-wave (km/s) = 2.90713 3.97784 3.48386
# Velocity P-wave (km/s) = 5.06045 7.12764 6.18108
#
# Compressibility (1/GPa) = 0.02905741
#
# Stress axis : x y z
#
# Youngs Moduli (GPa) = 48.40421 88.65489 127.09986
#
# Poissons Ratio (x) = -0.27889 0.74409
# Poissons Ratio (y) = -0.15227 0.33886
# Poissons Ratio (z) = 0.28338 0.23636
#
# Static dielectric constant tensor:
#      x y z
#    x 2.002770 0.000000 -0.008710 
#    y 0.000000 1.833380 0.000000 
#    z -0.008710 0.000000 1.946810 
# 
# From -- ./inp_files/7774.got.cif
#   From: 2010.05.17/outbox.cif.g08.bks.cpg/sg3_4_cif.got.tgz:7774.got - 2010.06.03 18:33:08.
