data_PCOD9112837
_publ_section_title
;
Structure prediction by ZEFSAII (Michael W. Deem and Ramdas Pophale) SiO2 
 PCOD9112837
Probable space group: P 2
;
_chemical_formula_sum "Si O2"
_cell_formula_units_Z 13
_cell_length_a 9.870086
_cell_length_b 4.930192
_cell_length_c 18.710533
_cell_angle_alpha 90.000000
_cell_angle_beta 36.413087
_cell_angle_gamma 90.000000
_cell_volume 540.464048
_symmetry_space_group_name_H-M "P 2"
_symmetry_group_IT_number 3
_symmetry_cell_setting 'monoclinic'
loop_
_space_group_symop_operation_xyz
x,y,z
-x,y,-z
loop_
_atom_site_type_symbol
_atom_site_label
_atom_site_fract_x
_atom_site_fract_y
_atom_site_fract_z
Si Si1 0.163917 0.473110 0.280161
Si Si2 0.470359 0.243325 0.356657
Si Si3 0.956676 0.926918 0.864512
Si Si4 0.525813 0.942522 0.868808
Si Si5 0.329504 0.749489 0.801056
Si Si6 0.168865 0.425794 0.698119
Si Si7 0.000000 0.433047 0.500000
O O1 0.286342 0.722264 0.189651
O O2 0.933918 0.386628 0.336741
O O3 0.109747 0.572433 0.383902
O O4 0.342283 0.224187 0.200594
O O5 0.607870 0.438721 0.242302
O O6 0.572914 0.351506 0.388336
O O7 0.206981 0.271887 0.448530
O O8 0.532548 0.933496 0.315066
O O9 0.087665 0.724801 0.755032
O O10 0.071344 0.828789 0.890426
O O11 0.028991 0.225293 0.809821
O O12 0.685706 0.937121 0.987292
O O13 0.416558 0.840857 0.840633
#
# Coordination Sequence:
#
# PCOD9112837 Si02
#       7
#     2   2   2   2   2   2   1
#     4  12  27  39  66  89 132 157 219 248 315 352
#     4  10  22  39  68  85 127 155 215 247 318 351
#     4  10  22  38  69  87 136 163 201 242 325 355
#     4  12  22  40  62 101 122 169 203 258 293 387
#     4  10  19  40  59  98 122 163 199 262 293 381
#     4  10  23  44  58  99 124 168 195 259 299 393
#     4  12  24  46  66  94 112 176 198 282 298 358
#
# _framework density 24.053402999999999
#
# number of rings (size 3 to 8) (size 9 to 14) (size 15 to 20)
#    0.000    1.231    3.077    2.308    0.000    6.769 
#    0.000    6.154    0.000    7.385    0.000    0.000 
#    0.000    0.000    0.000    0.000    0.000    0.000 
#
# Total GULP energy -72599.789094 kJ/mol
# GULP energy per Si atom -5584.599161 kJ/mol
# Density = 2.399866 g / cm^3
# Si number density = 24.053403 Si / 1000 Ang^3
#
#
#
# Elastic Constant Matrix: (Units=GPa)
#
#
# Indices 1 2 3 4 5 6 
#
# 1 172.7792 -7.1120 36.6846 0.0000 -17.9224 0.0000
# 2 -7.1120 71.1401 6.0156 0.0000 -10.6476 0.0000
# 3 36.6846 6.0156 93.0902 0.0000 -32.7860 0.0000
# 4 0.0000 0.0000 0.0000 2.2086 0.0000 -10.7643
# 5 -17.9224 -10.6476 -32.7860 0.0000 39.6970 0.0000
# 6 0.0000 0.0000 0.0000 -10.7643 0.0000 16.7164
#
#
#
# Elastic Compliance Matrix: (Units=1/GPa)
#
#
# Indices 1 2 3 4 5 6 
#
# 1 0.006424 0.001037 -0.002086 0.000000 0.001456 0.000000
# 2 0.001037 0.014837 0.000281 0.000000 0.004680 0.000000
# 3 -0.002086 0.000281 0.015852 0.000000 0.012226 0.000000
# 4 0.000000 0.000000 0.000000 -0.211734 0.000000 -0.136343
# 5 0.001456 0.004680 0.012226 0.000000 0.037201 0.000000
# 6 0.000000 0.000000 0.000000 -0.136343 0.000000 -0.027975
#
#
# Mechanical properties :
#
#
# Convention : Reuss Voigt Hill
#
# Bulk Modulus (GPa) = 28.10871 45.35398 36.73135
# Shear Modulus (GPa) = -32.89499 31.81914 -0.53792
#
# Velocity S-wave (km/s) = -3.70209 3.64105 -0.47342
# Velocity P-wave (km/s) = 2.56177 6.04755 3.87364
#
# Compressibility (1/GPa) = 0.03557617
#
# Stress axis : x y z
#
# Youngs Moduli (GPa) = 155.65926 67.39896 63.08332
#
# Poissons Ratio (x) = -0.06986 0.13159
# Poissons Ratio (y) = -0.16134 -0.01772
# Poissons Ratio (z) = 0.32470 -0.01893
#
# Static dielectric constant tensor:
#      x y z
#    x 2.012150 0.000000 0.007660 
#    y 0.000000 1.830470 0.000000 
#    z 0.007660 0.000000 1.958410 
# 
# From -- ./inp_files/14806.got.cif
#   From: 2010.05.17/outbox.cif.g08.bks.cpg/sg3_8_cif.got.tgz:14806.got - 2010.06.03 18:33:08.
