data_PCOD9112823
_publ_section_title
;
Structure prediction by ZEFSAII (Michael W. Deem and Ramdas Pophale) SiO2 
 PCOD9112823
Probable space group: P 2
;
_chemical_formula_sum "Si O2"
_cell_formula_units_Z 12
_cell_length_a 19.506013
_cell_length_b 7.548471
_cell_length_c 12.855855
_cell_angle_alpha 90.000000
_cell_angle_beta 161.082800
_cell_angle_gamma 90.000000
_cell_volume 613.681981
_symmetry_space_group_name_H-M "P 2"
_symmetry_group_IT_number 3
_symmetry_cell_setting 'monoclinic'
loop_
_space_group_symop_operation_xyz
x,y,z
-x,y,-z
loop_
_atom_site_type_symbol
_atom_site_label
_atom_site_fract_x
_atom_site_fract_y
_atom_site_fract_z
Si Si1 0.274216 0.458700 0.230551
Si Si2 0.209195 0.315814 0.734765
Si Si3 0.251876 0.971647 0.670042
Si Si4 0.975337 0.147593 0.850497
Si Si5 0.855990 0.598093 0.531839
Si Si6 0.649561 0.467227 0.428761
O O1 0.500000 0.459317 0.500000
O O2 0.297217 0.533547 0.380234
O O3 0.182843 0.257735 0.112327
O O4 0.095745 0.569201 0.913672
O O5 0.203679 0.425679 0.619794
O O6 0.000000 0.352009 0.500000
O O7 0.216988 0.111168 0.712377
O O8 0.415802 0.386973 0.089570
O O9 0.181291 0.771556 0.589770
O O10 0.116228 0.030905 0.373934
O O11 0.500000 0.978911 0.000000
O O12 0.807602 0.304967 0.631177
O O13 0.000000 0.059136 0.000000
O O14 0.703015 0.603701 0.413288
#
# Coordination Sequence:
#
# PCOD9112823 Si02
#       6
#     2   2   2   2   2   2
#     4  10  20  38  64  91 125 165 205 257 317 368
#     4  12  23  39  63  90 127 166 204 262 318 367
#     4  12  22  40  65  92 125 162 212 259 308 375
#     4   9  19  35  60  88 118 156 211 255 300 369
#     4  11  23  40  64  91 124 164 214 254 304 377
#     4  10  19  38  63  88 118 165 213 248 306 367
#
# _framework density 19.554103999999999
#
# number of rings (size 3 to 8) (size 9 to 14) (size 15 to 20)
#    0.000    1.333    5.000    4.000    0.000    2.000 
#    0.000    2.500    0.000    0.000    0.000    0.000 
#    0.000    0.000    0.000    0.000    0.000    0.000 
#
# Total GULP energy -67000.925210 kJ/mol
# GULP energy per Si atom -5583.410434 kJ/mol
# Density = 1.950960 g / cm^3
# Si number density = 19.554104 Si / 1000 Ang^3
#
#
#
# Elastic Constant Matrix: (Units=GPa)
#
#
# Indices 1 2 3 4 5 6 
#
# 1 26.2508 -5.3573 8.1763 0.0000 11.5420 0.0000
# 2 -5.3573 55.1783 4.5474 0.0000 2.5511 0.0000
# 3 8.1763 4.5474 91.0858 0.0000 12.1586 0.0000
# 4 0.0000 0.0000 0.0000 22.2698 0.0000 -4.8899
# 5 11.5420 2.5511 12.1586 0.0000 39.2680 0.0000
# 6 0.0000 0.0000 0.0000 -4.8899 0.0000 11.0425
#
#
#
# Elastic Compliance Matrix: (Units=1/GPa)
#
#
# Indices 1 2 3 4 5 6 
#
# 1 0.045681 0.005251 -0.002634 0.000000 -0.012953 0.000000
# 2 0.005251 0.018835 -0.001087 0.000000 -0.002430 0.000000
# 3 -0.002634 -0.001087 0.011638 0.000000 -0.002759 0.000000
# 4 0.000000 0.000000 0.000000 0.049740 0.000000 0.022026
# 5 -0.012953 -0.002430 -0.002759 0.000000 0.030285 0.000000
# 6 0.000000 0.000000 0.000000 0.022026 0.000000 0.100313
#
#
# Mechanical properties :
#
#
# Convention : Reuss Voigt Hill
#
# Bulk Modulus (GPa) = 12.62408 20.80530 16.71469
# Shear Modulus (GPa) = 17.86762 25.52596 21.69679
#
# Velocity S-wave (km/s) = 3.02611 3.61695 3.33465
# Velocity P-wave (km/s) = 4.32201 5.30152 4.83663
#
# Compressibility (1/GPa) = 0.07921372
#
# Stress axis : x y z
#
# Youngs Moduli (GPa) = 21.89094 53.09303 85.92848
#
# Poissons Ratio (x) = -0.27880 0.22631
# Poissons Ratio (y) = -0.11495 0.09343
# Poissons Ratio (z) = 0.05765 0.05773
#
# Static dielectric constant tensor:
#      x y z
#    x 1.702350 0.000000 -0.030210 
#    y 0.000000 1.689290 0.000000 
#    z -0.030210 0.000000 1.700530 
# 
# From -- ./inp_files/5230.got.cif
#   From: 2010.05.17/outbox.cif.g08.bks.cpg/sg3_3_cif.got.tgz:5230.got - 2010.06.03 18:33:08.
