data_PCOD9112643
_publ_section_title
;
Structure prediction by ZEFSAII (Michael W. Deem and Ramdas Pophale) SiO2 
 PCOD9112643
Probable space group: P 2
;
_chemical_formula_sum "Si O2"
_cell_formula_units_Z 16
_cell_length_a 7.272072
_cell_length_b 20.268194
_cell_length_c 8.543838
_cell_angle_alpha 90.000000
_cell_angle_beta 143.141867
_cell_angle_gamma 90.000000
_cell_volume 755.367949
_symmetry_space_group_name_H-M "P 2"
_symmetry_group_IT_number 3
_symmetry_cell_setting 'monoclinic'
loop_
_space_group_symop_operation_xyz
x,y,z
-x,y,-z
loop_
_atom_site_type_symbol
_atom_site_label
_atom_site_fract_x
_atom_site_fract_y
_atom_site_fract_z
Si Si1 0.368303 0.229990 0.234378
Si Si2 0.366908 0.945875 0.233104
Si Si3 0.089864 0.726389 0.382170
Si Si4 0.631609 0.088536 0.765577
Si Si5 0.319543 0.804656 0.122210
Si Si6 0.634310 0.372673 0.765936
Si Si7 0.341646 0.509767 0.059039
Si Si8 0.166806 0.579222 0.440835
O O1 0.500000 0.229800 0.500000
O O2 0.458716 0.159248 0.221570
O O3 0.464614 0.301160 0.232118
O O4 0.000000 0.229975 0.000000
O O5 0.500000 0.937229 0.500000
O O6 0.466797 0.017312 0.233969
O O7 0.434920 0.879883 0.181783
O O8 0.000000 0.949724 0.000000
O O9 0.127114 0.652220 0.344648
O O10 0.000000 0.718461 0.500000
O O11 0.809164 0.765442 0.113423
O O12 0.410758 0.765627 0.606501
O O13 0.500000 0.088286 0.500000
O O14 0.000000 0.088879 0.000000
O O15 0.000000 0.808647 0.000000
O O16 0.500000 0.379228 0.500000
O O17 0.571393 0.436881 0.825371
O O18 0.000000 0.370710 0.000000
O O19 0.487635 0.560408 0.281548
O O20 0.500000 0.520896 0.000000
O O21 0.990607 0.525767 0.780210
O O22 0.000000 0.576868 0.500000
#
# Coordination Sequence:
#
# PCOD9112643 Si02
#       8
#     2   2   2   2   2   2   2   2
#     4   8  14  24  39  61  91 123 152 187 230 275
#     4   9  16  27  44  67  98 130 157 194 242 287
#     4  11  22  38  57  75  97 133 174 209 247 303
#     4   8  13  22  38  61  89 122 158 189 224 275
#     4  11  21  35  53  78 108 132 160 208 263 302
#     4  10  19  31  47  70 101 127 150 192 246 288
#     4  10  19  34  53  71  91 123 163 200 237 287
#     4   9  19  35  54  71  91 122 165 207 239 279
#
# _framework density 21.181730999999999
#
# number of rings (size 3 to 8) (size 9 to 14) (size 15 to 20)
#    0.000    2.500    0.000    3.750    0.000    2.000 
#    0.000    6.250    0.000    0.000    0.000    1.750 
#    0.000    2.000    0.000    0.000    0.000    0.250 
#
# Total GULP energy -89113.722933 kJ/mol
# GULP energy per Si atom -5569.607683 kJ/mol
# Density = 2.113352 g / cm^3
# Si number density = 21.181731 Si / 1000 Ang^3
#
#
#
# Elastic Constant Matrix: (Units=GPa)
#
#
# Indices 1 2 3 4 5 6 
#
# 1 18.3276 -6.7856 5.7837 0.0000 4.0708 0.0000
# 2 -6.7856 193.1077 49.8175 0.0000 -14.8184 0.0000
# 3 5.7837 49.8175 160.3314 0.0000 6.1996 0.0000
# 4 0.0000 0.0000 0.0000 35.0139 0.0000 -9.4847
# 5 4.0708 -14.8184 6.1996 0.0000 16.8301 0.0000
# 6 0.0000 0.0000 0.0000 -9.4847 0.0000 48.3920
#
#
#
# Elastic Compliance Matrix: (Units=1/GPa)
#
#
# Indices 1 2 3 4 5 6 
#
# 1 0.058516 0.001711 -0.002185 0.000000 -0.011842 0.000000
# 2 0.001711 0.006272 -0.002240 0.000000 0.005933 0.000000
# 3 -0.002185 -0.002240 0.007170 0.000000 -0.004085 0.000000
# 4 0.000000 0.000000 0.000000 0.030161 0.000000 0.005912
# 5 -0.011842 0.005933 -0.004085 0.000000 0.069011 0.000000
# 6 0.000000 0.000000 0.000000 0.005912 0.000000 0.021823
#
#
# Mechanical properties :
#
#
# Convention : Reuss Voigt Hill
#
# Bulk Modulus (GPa) = 15.03073 52.15533 33.59303
# Shear Modulus (GPa) = 22.66994 41.57727 32.12361
#
# Velocity S-wave (km/s) = 3.27503 4.43525 3.89854
# Velocity P-wave (km/s) = 4.62737 7.13476 6.01321
#
# Compressibility (1/GPa) = 0.06653036
#
# Stress axis : x y z
#
# Youngs Moduli (GPa) = 17.08942 159.44602 139.47388
#
# Poissons Ratio (x) = -0.27281 0.30469
# Poissons Ratio (y) = -0.02924 0.31240
# Poissons Ratio (z) = 0.03733 0.35714
#
# Static dielectric constant tensor:
#      x y z
#    x 1.782080 0.000000 -0.044400 
#    y 0.000000 1.887450 0.000000 
#    z -0.044400 0.000000 1.779590 
# 
# From -- ./inp_files/6328.got.cif
#   From: 2010.05.17/outbox.cif.g08.bks.cpg/sg3_4_cif.got.tgz:6328.got - 2010.06.03 18:33:08.
