data_PCOD9112431
_publ_section_title
;
Structure prediction by ZEFSAII (Michael W. Deem and Ramdas Pophale) SiO2 
 PCOD9112431
Probable space group: P -1
;
_chemical_formula_sum "Si O2"
_cell_formula_units_Z 16
_cell_length_a 9.685639
_cell_length_b 14.573700
_cell_length_c 19.815907
_cell_angle_alpha 17.169102
_cell_angle_beta 57.319504
_cell_angle_gamma 51.697923
_cell_volume 631.278030
_symmetry_space_group_name_H-M "P -1"
_symmetry_group_IT_number 2
_symmetry_cell_setting 'triclinic'
loop_
_space_group_symop_operation_xyz
x,y,z
-x,-y,-z
loop_
_atom_site_type_symbol
_atom_site_label
_atom_site_fract_x
_atom_site_fract_y
_atom_site_fract_z
Si Si1 0.325066 0.740129 0.998324
Si Si2 0.405290 0.452932 0.716728
Si Si3 0.728054 0.169660 0.273921
Si Si4 0.267986 0.911567 0.309766
Si Si5 0.214619 0.379342 0.178826
Si Si6 0.386491 0.184795 0.549314
Si Si7 0.876110 0.370275 0.215544
Si Si8 0.342324 0.210373 0.766826
O O1 0.339803 0.001917 0.753720
O O2 0.275992 0.950582 0.932519
O O3 0.524879 0.427346 0.170602
O O4 0.193602 0.592839 0.103110
O O5 0.299147 0.806394 0.453093
O O6 0.292934 0.483984 0.791398
O O7 0.387883 0.197810 0.843429
O O8 0.592192 0.479799 0.666685
O O9 0.728902 0.837585 0.468933
O O10 0.853214 0.125038 0.337036
O O11 0.769895 0.385918 0.051774
O O12 0.221108 0.612411 0.501084
O O13 0.465826 0.858249 0.269777
O O14 0.141413 0.292695 0.058308
O O15 0.411006 0.068957 0.349332
O O16 0.053183 0.274112 0.281007
#
# Coordination Sequence:
#
# PCOD9112431 Si02
#       8
#     2   2   2   2   2   2   2   2
#     4   9  14  34  59  78  99 143 185 214 261 312
#     4  10  21  32  56  83 109 137 177 221 263 322
#     4   9  18  31  55  77 107 139 182 220 255 313
#     4   9  18  34  54  78 108 134 177 220 261 313
#     4   9  20  31  55  80 109 144 177 213 268 320
#     4   9  16  34  53  79 103 142 183 216 256 314
#     4  12  21  34  51  88 111 138 173 220 271 317
#     4   9  16  35  57  77 101 146 172 223 265 307
#
# _framework density 25.345407999999999
#
# number of rings (size 3 to 8) (size 9 to 14) (size 15 to 20)
#    0.750    1.750    2.500    2.625    0.000    1.500 
#    0.000    1.250    0.000    1.500    0.000    0.000 
#    0.000    0.000    0.000    0.000    0.000    0.000 
#
# Total GULP energy -89409.451812 kJ/mol
# GULP energy per Si atom -5588.090738 kJ/mol
# Density = 2.528772 g / cm^3
# Si number density = 25.345408 Si / 1000 Ang^3
#
#
#
# Elastic Constant Matrix: (Units=GPa)
#
#
# Indices 1 2 3 4 5 6 
#
# 1 158.7058 45.5986 46.4342 -4.2672 -35.9300 56.5079
# 2 45.5986 84.5969 29.9112 -4.8800 -14.5406 46.5521
# 3 46.4342 29.9112 86.8171 -4.6203 -19.6654 30.8599
# 4 -4.2672 -4.8800 -4.6203 29.8829 18.8215 -10.3002
# 5 -35.9300 -14.5406 -19.6654 18.8215 45.6111 -9.1279
# 6 56.5079 46.5521 30.8599 -10.3002 -9.1279 51.6700
#
#
#
# Elastic Compliance Matrix: (Units=1/GPa)
#
#
# Indices 1 2 3 4 5 6 
#
# 1 0.015982 0.005897 0.000554 -0.014878 0.016200 -0.023226
# 2 0.005897 0.027512 0.001108 -0.013941 0.013172 -0.032349
# 3 0.000554 0.001108 0.016319 -0.006192 0.008150 -0.011145
# 4 -0.014878 -0.013941 -0.006192 0.065482 -0.038079 0.038855
# 5 0.016200 0.013172 0.008150 -0.038079 0.051520 -0.032941
# 6 -0.023226 -0.032349 -0.011145 0.038855 -0.032941 0.082482
#
#
# Mechanical properties :
#
#
# Convention : Reuss Voigt Hill
#
# Bulk Modulus (GPa) = 13.34585 63.77864 38.56224
# Shear Modulus (GPa) = 18.57663 39.31119 28.94391
#
# Velocity S-wave (km/s) = 2.71022 3.94257 3.38298
# Velocity P-wave (km/s) = 3.88211 6.77817 5.52333
#
# Compressibility (1/GPa) = 0.07492965
#
# Stress axis : x y z
#
# Youngs Moduli (GPa) = 62.57129 36.34824 61.27986
#
# Poissons Ratio (x) = -0.21433 -0.03395
# Poissons Ratio (y) = -0.36896 -0.06791
# Poissons Ratio (z) = -0.03467 -0.04028
#
# Static dielectric constant tensor:
#      x y z
#    x 2.030100 0.034030 -0.015550 
#    y 0.034030 1.987980 -0.059530 
#    z -0.015550 -0.059530 2.165240 
# 
# From -- ./inp_files/590392.got.cif
#   From: 2010.05.17/outbox.cif.g08.bks.cpg/sg2_296_cif.got.tgz:590392.got - 2010.06.03 11:33:40.
