data_PCOD9112001
_publ_section_title
;
Structure prediction by ZEFSAII (Michael W. Deem and Ramdas Pophale) SiO2 
 PCOD9112001
Probable space group: P -1
;
_chemical_formula_sum "Si O2"
_cell_formula_units_Z 14
_cell_length_a 15.589257
_cell_length_b 19.101639
_cell_length_c 12.650533
_cell_angle_alpha 151.463456
_cell_angle_beta 33.491892
_cell_angle_gamma 161.550208
_cell_volume 569.523243
_symmetry_space_group_name_H-M "P -1"
_symmetry_group_IT_number 2
_symmetry_cell_setting 'triclinic'
loop_
_space_group_symop_operation_xyz
x,y,z
-x,-y,-z
loop_
_atom_site_type_symbol
_atom_site_label
_atom_site_fract_x
_atom_site_fract_y
_atom_site_fract_z
Si Si1 0.905729 0.534675 0.904021
Si Si2 0.585466 0.188938 0.357841
Si Si3 0.088249 0.060701 0.167835
Si Si4 0.477321 0.136333 0.648790
Si Si5 0.031065 0.700382 0.319270
Si Si6 0.419744 0.596184 0.755382
Si Si7 0.158443 0.299046 0.227282
O O1 0.699968 0.393157 0.829179
O O2 0.901461 0.375153 0.764363
O O3 0.195781 0.749324 0.835636
O O4 0.803597 0.572682 0.145432
O O5 0.563974 0.181673 0.498482
O O6 0.681199 0.429106 0.555987
O O7 0.291404 0.908456 0.251942
O O8 0.297643 0.135456 0.125639
O O9 0.255242 0.255414 0.154644
O O10 0.986842 0.136535 0.421127
O O11 0.857506 0.780488 0.979984
O O12 0.500000 0.000000 0.500000
O O13 0.160545 0.927599 0.715681
O O14 0.739914 0.444164 0.226939
O O15 0.500000 0.500000 0.500000
#
# Coordination Sequence:
#
# PCOD9112001 Si02
#       7
#     2   2   2   2   2   2   2
#     4  12  23  42  70  97 132 175 221 280 329 392
#     4  12  23  38  68 104 137 167 221 270 341 395
#     4  10  20  44  66  94 133 177 219 270 328 392
#     4  12  21  40  64 103 136 170 216 270 339 402
#     4  11  23  44  66  96 132 178 225 271 326 390
#     4  10  24  44  74  90 127 184 228 268 331 388
#     4  11  22  38  68  95 137 173 212 276 337 391
#
# _framework density 24.581965
#
# number of rings (size 3 to 8) (size 9 to 14) (size 15 to 20)
#    0.000    0.857    7.143    0.857    0.000    1.143 
#    0.000    0.714    3.143    0.000    0.000    0.000 
#    0.000    0.000    0.000    0.000    0.000    0.000 
#
# Total GULP energy -77968.622894 kJ/mol
# GULP energy per Si atom -5569.187350 kJ/mol
# Density = 2.452602 g / cm^3
# Si number density = 24.581965 Si / 1000 Ang^3
#
#
#
# Elastic Constant Matrix: (Units=GPa)
#
#
# Indices 1 2 3 4 5 6 
#
# 1 88.3084 37.1729 12.5899 -3.5190 -9.7539 24.2327
# 2 37.1729 88.3155 37.5442 -17.5484 -23.5219 15.3613
# 3 12.5899 37.5442 139.9728 -22.1902 -5.2236 2.6229
# 4 -3.5190 -17.5484 -22.1902 36.9844 2.5358 -1.9389
# 5 -9.7539 -23.5219 -5.2236 2.5358 27.3667 0.6488
# 6 24.2327 15.3613 2.6229 -1.9389 0.6488 40.7930
#
#
#
# Elastic Compliance Matrix: (Units=1/GPa)
#
#
# Indices 1 2 3 4 5 6 
#
# 1 0.015655 -0.005188 -0.000061 -0.001496 0.001424 -0.007436
# 2 -0.005188 0.021048 -0.003566 0.006079 0.015106 -0.004566
# 3 -0.000061 -0.003566 0.008596 0.003638 -0.001808 0.001028
# 4 -0.001496 0.006079 0.003638 0.031787 0.002444 -0.000162
# 5 0.001424 0.015106 -0.001808 0.002444 0.049629 -0.007091
# 6 -0.007436 -0.004566 0.001028 -0.000162 -0.007091 0.030690
#
#
# Mechanical properties :
#
#
# Convention : Reuss Voigt Hill
#
# Bulk Modulus (GPa) = 36.14223 54.57897 45.36060
# Shear Modulus (GPa) = 27.13598 36.31481 31.72539
#
# Velocity S-wave (km/s) = 3.32610 3.84773 3.59638
# Velocity P-wave (km/s) = 5.43003 6.48005 5.97814
#
# Compressibility (1/GPa) = 0.02766846
#
# Stress axis : x y z
#
# Youngs Moduli (GPa) = 63.87924 47.51009 116.33017
#
# Poissons Ratio (x) = 0.24648 0.00713
# Poissons Ratio (y) = 0.33140 0.41484
# Poissons Ratio (z) = 0.00391 0.16942
#
# Static dielectric constant tensor:
#      x y z
#    x 2.047870 0.077280 0.088350 
#    y 0.077280 1.990660 0.001510 
#    z 0.088350 0.001510 2.116170 
# 
# From -- ./inp_files/456792.got.cif
#   From: 2010.05.17/outbox.cif.g08.bks.cpg/sg2_229_cif.got.tgz:456792.got - 2010.06.03 11:33:40.
