data_PCOD9112291
_publ_section_title
;
Structure prediction by ZEFSAII (Michael W. Deem and Ramdas Pophale) SiO2 
 PCOD9112291
Probable space group: P -1
;
_chemical_formula_sum "Si O2"
_cell_formula_units_Z 10
_cell_length_a 14.652120
_cell_length_b 8.947250
_cell_length_c 5.723942
_cell_angle_alpha 63.549301
_cell_angle_beta 70.162509
_cell_angle_gamma 32.091845
_cell_volume 355.789583
_symmetry_space_group_name_H-M "P -1"
_symmetry_group_IT_number 2
_symmetry_cell_setting 'triclinic'
loop_
_space_group_symop_operation_xyz
x,y,z
-x,-y,-z
loop_
_atom_site_type_symbol
_atom_site_label
_atom_site_fract_x
_atom_site_fract_y
_atom_site_fract_z
Si Si1 0.909437 0.756406 0.710907
Si Si2 0.013057 0.782857 0.153007
Si Si3 0.368234 0.579492 0.400056
Si Si4 0.310445 0.989062 0.704231
Si Si5 0.312351 0.294154 0.851677
O O1 0.767566 0.864008 0.591483
O O2 0.036681 0.666225 0.473227
O O3 0.802094 0.066295 0.682000
O O4 0.000000 0.500000 0.000000
O O5 0.825687 0.963201 0.152016
O O6 0.839803 0.466321 0.991153
O O7 0.000000 0.000000 0.000000
O O8 0.500000 0.500000 0.500000
O O9 0.319318 0.466126 0.608836
O O10 0.306361 0.144076 0.784267
O O11 0.500000 0.000000 0.000000
O O12 0.505653 0.646674 0.766092
#
# Coordination Sequence:
#
# PCOD9112291 Si02
#       5
#     2   2   2   2   2
#     4   9  20  42  88 138 190 247 308 379 477 561
#     4  10  20  45  86 137 186 245 315 389 468 552
#     4  10  20  46  86 130 178 245 310 383 462 564
#     4   9  22  43  88 134 185 244 313 387 473 559
#     4  12  24  45  87 139 186 237 316 397 469 551
#
# _framework density 28.1065
#
# number of rings (size 3 to 8) (size 9 to 14) (size 15 to 20)
#    1.200    0.800    2.000    1.200    0.000    0.000 
#    0.000   11.000   22.000   12.000    0.000    1.400 
#    0.000    0.000    0.000    0.000    0.000    0.000 
#
# Total GULP energy -55774.271192 kJ/mol
# GULP energy per Si atom -5577.427119 kJ/mol
# Density = 2.804253 g / cm^3
# Si number density = 28.106500 Si / 1000 Ang^3
#
#
#
# Elastic Constant Matrix: (Units=GPa)
#
#
# Indices 1 2 3 4 5 6 
#
# 1 236.6243 129.7106 88.3971 2.3047 -27.8115 26.1030
# 2 129.7106 376.7979 123.4633 15.7511 -32.4222 15.2685
# 3 88.3971 123.4633 173.6288 4.7864 -33.1395 17.8004
# 4 2.3047 15.7511 4.7864 41.1161 1.3901 -2.9125
# 5 -27.8115 -32.4222 -33.1395 1.3901 57.0245 4.4892
# 6 26.1030 15.2685 17.8004 -2.9125 4.4892 73.5500
#
#
#
# Elastic Compliance Matrix: (Units=1/GPa)
#
#
# Indices 1 2 3 4 5 6 
#
# 1 0.005882 -0.001318 -0.001672 0.000223 0.001259 -0.001477
# 2 -0.001318 0.003828 -0.001944 -0.001176 0.000427 0.000071
# 3 -0.001672 -0.001944 0.008769 -0.000389 0.003291 -0.001342
# 4 0.000223 -0.001176 -0.000389 0.024950 -0.001499 0.001339
# 5 0.001259 0.000427 0.003291 -0.001499 0.020550 -0.002645
# 6 -0.001477 0.000071 -0.001342 0.001339 -0.002645 0.014645
#
#
# Mechanical properties :
#
#
# Convention : Reuss Voigt Hill
#
# Bulk Modulus (GPa) = 116.13336 163.35479 139.74407
# Shear Modulus (GPa) = 54.72735 64.03679 59.38207
#
# Velocity S-wave (km/s) = 4.41743 4.77840 4.60146
# Velocity P-wave (km/s) = 8.21139 9.41755 8.83508
#
# Compressibility (1/GPa) = 0.00861079
#
# Stress axis : x y z
#
# Youngs Moduli (GPa) = 170.01171 261.25181 114.03468
#
# Poissons Ratio (x) = 0.34439 0.19063
# Poissons Ratio (y) = 0.22411 0.22170
# Poissons Ratio (z) = 0.28421 0.50791
#
# Static dielectric constant tensor:
#      x y z
#    x 2.242720 -0.040680 0.084400 
#    y -0.040680 2.268460 0.024450 
#    z 0.084400 0.024450 2.554020 
# 
# From -- ./inp_files/86354.got.cif
#   From: 2010.05.17/outbox.cif.g08.bks.cpg/sg2_44_cif.got.tgz:86354.got - 2010.06.03 11:33:40.
