data_PCOD9112665
_publ_section_title
;
Structure prediction by ZEFSAII (Michael W. Deem and Ramdas Pophale) SiO2 
 PCOD9112665
Probable space group: P 2
;
_chemical_formula_sum "Si O2"
_cell_formula_units_Z 14
_cell_length_a 7.893730
_cell_length_b 17.418624
_cell_length_c 7.970498
_cell_angle_alpha 90.000000
_cell_angle_beta 142.682217
_cell_angle_gamma 90.000000
_cell_volume 664.389506
_symmetry_space_group_name_H-M "P 2"
_symmetry_group_IT_number 3
_symmetry_cell_setting 'monoclinic'
loop_
_space_group_symop_operation_xyz
x,y,z
-x,y,-z
loop_
_atom_site_type_symbol
_atom_site_label
_atom_site_fract_x
_atom_site_fract_y
_atom_site_fract_z
Si Si1 0.611222 0.638990 0.895557
Si Si2 0.181058 0.896703 0.309624
Si Si3 0.816682 0.061670 0.686499
Si Si4 0.886028 0.731105 0.598744
Si Si5 0.190849 0.355592 0.800039
Si Si6 0.181002 0.229980 0.311276
Si Si7 0.683653 0.475181 0.804902
O O1 0.427408 0.700756 0.651985
O O2 0.570366 0.555814 0.783643
O O3 0.500000 0.634764 0.000000
O O4 0.923027 0.672488 0.146155
O O5 0.500000 0.891144 0.500000
O O6 0.099035 0.819459 0.338868
O O7 0.133920 0.979470 0.362577
O O8 0.000000 0.899289 0.000000
O O9 0.500000 0.059469 0.500000
O O10 0.844828 0.145278 0.625241
O O11 0.000000 0.063114 0.000000
O O12 0.000000 0.725623 0.500000
O O13 0.000000 0.392686 0.500000
O O14 0.969324 0.293547 0.694787
O O15 0.500000 0.321361 0.000000
O O16 0.282848 0.415046 0.017247
O O17 0.500000 0.244301 0.500000
O O18 0.000000 0.228717 0.000000
O O19 0.500000 0.448737 0.500000
O O20 0.000000 0.489396 0.000000
#
# Coordination Sequence:
#
# PCOD9112665 Si02
#       7
#     2   2   2   2   2   2   2
#     4  10  22  40  59  80 114 155 192 238 301 360
#     4  10  19  32  54  83 114 149 194 241 286 341
#     4   8  16  31  54  83 113 149 191 241 295 344
#     4  10  21  36  55  81 115 154 191 233 294 358
#     4  12  26  43  64  92 128 164 201 250 316 376
#     4  10  20  39  65  89 118 158 207 253 298 358
#     4  12  26  43  65  92 119 153 205 256 301 359
#
# _framework density 21.071978000000001
#
# number of rings (size 3 to 8) (size 9 to 14) (size 15 to 20)
#    0.000    1.714    0.000    4.286    0.000    6.286 
#    0.000    0.714    0.000    2.571    0.000    0.000 
#    0.000    0.000    0.000    0.000    0.000    0.000 
#
# Total GULP energy -78106.443886 kJ/mol
# GULP energy per Si atom -5579.031706 kJ/mol
# Density = 2.102402 g / cm^3
# Si number density = 21.071978 Si / 1000 Ang^3
#
#
#
# Elastic Constant Matrix: (Units=GPa)
#
#
# Indices 1 2 3 4 5 6 
#
# 1 41.4368 27.3821 28.5452 0.0000 0.2615 0.0000
# 2 27.3821 150.4778 26.9900 0.0000 -16.1667 0.0000
# 3 28.5452 26.9900 157.1323 0.0000 7.6825 0.0000
# 4 0.0000 0.0000 0.0000 -100.7920 0.0000 205.6015
# 5 0.2615 -16.1667 7.6825 0.0000 28.5825 0.0000
# 6 0.0000 0.0000 0.0000 205.6015 0.0000 -316.9217
#
#
#
# Elastic Compliance Matrix: (Units=1/GPa)
#
#
# Indices 1 2 3 4 5 6 
#
# 1 0.030587 -0.004934 -0.004620 0.000000 -0.001829 0.000000
# 2 -0.004934 0.008203 -0.000752 0.000000 0.004887 0.000000
# 3 -0.004620 -0.000752 0.007449 0.000000 -0.002385 0.000000
# 4 0.000000 0.000000 0.000000 0.030683 0.000000 0.019906
# 5 -0.001829 0.004887 -0.002385 0.000000 0.038408 0.000000
# 6 0.000000 0.000000 0.000000 0.019906 0.000000 0.009758
#
#
# Mechanical properties :
#
#
# Convention : Reuss Voigt Hill
#
# Bulk Modulus (GPa) = 39.01795 57.20905 48.11350
# Shear Modulus (GPa) = 32.41635 -60.08425 -13.83395
#
# Velocity S-wave (km/s) = 3.92645 -5.34563 -2.56502
# Velocity P-wave (km/s) = 6.25402 3.30040 3.75633
#
# Compressibility (1/GPa) = 0.02562923
#
# Stress axis : x y z
#
# Youngs Moduli (GPa) = 32.69309 121.90454 134.24575
#
# Poissons Ratio (x) = 0.60145 0.62018
# Poissons Ratio (y) = 0.16130 0.10091
# Poissons Ratio (z) = 0.15103 0.09163
#
# Static dielectric constant tensor:
#      x y z
#    x 3.158540 0.000000 -0.041110 
#    y 0.000000 1.819980 0.000000 
#    z -0.041110 0.000000 1.737310 
# 
# From -- ./inp_files/6249.got.cif
#   From: 2010.05.17/outbox.cif.g08.bks.cpg/sg3_4_cif.got.tgz:6249.got - 2010.06.03 18:33:08.
