data_PCOD9112800
_publ_section_title
;
Structure prediction by ZEFSAII (Michael W. Deem and Ramdas Pophale) SiO2 
 PCOD9112800
Probable space group: P 2
;
_chemical_formula_sum "Si O2"
_cell_formula_units_Z 14
_cell_length_a 11.506766
_cell_length_b 10.192012
_cell_length_c 9.018038
_cell_angle_alpha 90.000000
_cell_angle_beta 141.161503
_cell_angle_gamma 90.000000
_cell_volume 663.255683
_symmetry_space_group_name_H-M "P 2"
_symmetry_group_IT_number 3
_symmetry_cell_setting 'monoclinic'
loop_
_space_group_symop_operation_xyz
x,y,z
-x,y,-z
loop_
_atom_site_type_symbol
_atom_site_label
_atom_site_fract_x
_atom_site_fract_y
_atom_site_fract_z
Si Si1 0.808632 0.595890 0.617803
Si Si2 0.753954 0.635929 0.906650
Si Si3 0.817907 0.803282 0.408668
Si Si4 0.584011 0.114924 0.418082
Si Si5 0.482214 0.398283 0.659706
Si Si6 0.328919 0.917491 0.030102
Si Si7 0.031006 0.002059 0.198808
O O1 0.740922 0.640539 0.714050
O O2 0.727438 0.682473 0.403174
O O3 0.722450 0.453082 0.511970
O O4 0.030816 0.606731 0.841141
O O5 0.628655 0.514277 0.840507
O O6 0.696721 0.777890 0.912274
O O7 0.000000 0.755902 0.500000
O O8 0.891609 0.890841 0.616412
O O9 0.705685 0.883066 0.174924
O O10 0.500000 0.098320 0.500000
O O11 0.506871 0.250013 0.272243
O O12 0.808587 0.111627 0.648127
O O13 0.516281 0.989198 0.259366
O O14 0.500000 0.382531 0.500000
O O15 0.171741 0.020144 0.932687
O O16 0.000000 0.955293 0.000000
#
# Coordination Sequence:
#
# PCOD9112800 Si02
#       7
#     2   2   2   2   2   2   2
#     4  10  19  37  62  88 126 156 210 256 312 361
#     4  10  20  35  65  93 119 161 205 262 310 361
#     4  10  21  37  61  93 130 154 205 259 317 362
#     4  11  24  39  63  94 130 165 207 256 311 372
#     4   9  22  40  57  93 124 160 209 256 305 370
#     4  11  23  38  63  96 127 159 205 264 313 367
#     4  11  21  39  63  93 123 159 207 255 313 365
#
# _framework density 21.107999
#
# number of rings (size 3 to 8) (size 9 to 14) (size 15 to 20)
#    0.000    1.714    4.286    0.857    2.000    2.286 
#    2.571    0.000    6.286    0.857    0.000    0.000 
#    0.000    0.000    0.000    0.000    0.000    0.000 
#
# Total GULP energy -78086.837673 kJ/mol
# GULP energy per Si atom -5577.631262 kJ/mol
# Density = 2.105996 g / cm^3
# Si number density = 21.107999 Si / 1000 Ang^3
#
#
#
# Elastic Constant Matrix: (Units=GPa)
#
#
# Indices 1 2 3 4 5 6 
#
# 1 87.8916 40.8291 47.5563 0.0000 5.3207 0.0000
# 2 40.8291 104.6448 37.5573 0.0000 -4.7269 0.0000
# 3 47.5563 37.5573 86.5631 0.0000 -8.6794 0.0000
# 4 0.0000 0.0000 0.0000 15.5652 0.0000 6.5455
# 5 5.3207 -4.7269 -8.6794 0.0000 43.6598 0.0000
# 6 0.0000 0.0000 0.0000 6.5455 0.0000 13.4693
#
#
#
# Elastic Compliance Matrix: (Units=1/GPa)
#
#
# Indices 1 2 3 4 5 6 
#
# 1 0.018293 -0.004230 -0.008657 0.000000 -0.004408 0.000000
# 2 -0.004230 0.012299 -0.002885 0.000000 0.001274 0.000000
# 3 -0.008657 -0.002885 0.017993 0.000000 0.004320 0.000000
# 4 0.000000 0.000000 0.000000 0.080747 0.000000 -0.039240
# 5 -0.004408 0.001274 0.004320 0.000000 0.024438 0.000000
# 6 0.000000 0.000000 0.000000 -0.039240 0.000000 0.093312
#
#
# Mechanical properties :
#
#
# Convention : Reuss Voigt Hill
#
# Bulk Modulus (GPa) = 58.67610 58.99833 58.83722
# Shear Modulus (GPa) = 17.58662 24.74931 21.16796
#
# Velocity S-wave (km/s) = 2.88961 3.42791 3.17020
# Velocity P-wave (km/s) = 6.24432 6.60899 6.42924
#
# Compressibility (1/GPa) = 0.01704271
#
# Stress axis : x y z
#
# Youngs Moduli (GPa) = 54.66433 81.30509 55.57690
#
# Poissons Ratio (x) = 0.34389 0.48113
# Poissons Ratio (y) = 0.23121 0.16034
# Poissons Ratio (z) = 0.47323 0.23456
#
# Static dielectric constant tensor:
#      x y z
#    x 1.787480 0.000000 0.049630 
#    y 0.000000 1.753060 0.000000 
#    z 0.049630 0.000000 1.793460 
# 
# From -- ./inp_files/7565.got.cif
#   From: 2010.05.17/outbox.cif.g08.bks.cpg/sg3_4_cif.got.tgz:7565.got - 2010.06.03 18:33:08.
