data_PCOD9112275
_publ_section_title
;
Structure prediction by ZEFSAII (Michael W. Deem and Ramdas Pophale) SiO2 
 PCOD9112275
Probable space group: P -1
;
_chemical_formula_sum "Si O2"
_cell_formula_units_Z 10
_cell_length_a 9.604665
_cell_length_b 8.988361
_cell_length_c 7.312424
_cell_angle_alpha 130.187736
_cell_angle_beta 82.125837
_cell_angle_gamma 114.409767
_cell_volume 431.453646
_symmetry_space_group_name_H-M "P -1"
_symmetry_group_IT_number 2
_symmetry_cell_setting 'triclinic'
loop_
_space_group_symop_operation_xyz
x,y,z
-x,-y,-z
loop_
_atom_site_type_symbol
_atom_site_label
_atom_site_fract_x
_atom_site_fract_y
_atom_site_fract_z
Si Si1 0.930966 0.673400 0.094470
Si Si2 0.397207 0.391338 0.756037
Si Si3 0.837027 0.409432 0.561978
Si Si4 0.252265 0.911013 0.339405
Si Si5 0.392874 0.754246 0.863616
O O1 0.786448 0.663823 0.229425
O O2 0.089786 0.889277 0.260647
O O3 0.859352 0.603765 0.850552
O O4 0.000000 0.500000 0.000000
O O5 0.464776 0.586592 0.756298
O O6 0.383441 0.155406 0.526440
O O7 0.500000 0.500000 0.000000
O O8 0.790711 0.204264 0.545249
O O9 0.716517 0.341135 0.365744
O O10 0.000000 0.500000 0.500000
O O11 0.312689 0.779078 0.087513
O O12 0.500000 0.000000 0.000000
#
# Coordination Sequence:
#
# PCOD9112275 Si02
#       5
#     2   2   2   2   2
#     4  10  20  45  73  95 136 187 220 279 348 406
#     4  12  26  45  72 104 141 182 230 289 349 403
#     4  11  21  43  76 100 132 185 232 278 345 412
#     4  11  24  47  73  99 142 183 230 289 341 409
#     4  12  26  45  70 102 142 185 228 284 352 408
#
# _framework density 23.17746
#
# number of rings (size 3 to 8) (size 9 to 14) (size 15 to 20)
#    0.000    0.800    6.000    3.000    2.800    2.400 
#    3.600    2.000    0.000    0.000    0.000    0.000 
#    0.000    0.000    0.000    0.000    0.000    0.000 
#
# Total GULP energy -55792.375730 kJ/mol
# GULP energy per Si atom -5579.237573 kJ/mol
# Density = 2.312471 g / cm^3
# Si number density = 23.177460 Si / 1000 Ang^3
#
#
#
# Elastic Constant Matrix: (Units=GPa)
#
#
# Indices 1 2 3 4 5 6 
#
# 1 51.5165 15.2932 21.6394 -2.7922 11.7769 -3.7156
# 2 15.2932 143.7895 63.5512 6.8616 16.9163 -5.4115
# 3 21.6394 63.5512 167.1075 17.0122 33.6311 -27.9207
# 4 -2.7922 6.8616 17.0122 47.0449 9.6173 4.2788
# 5 11.7769 16.9163 33.6311 9.6173 59.8595 -11.1695
# 6 -3.7156 -5.4115 -27.9207 4.2788 -11.1695 23.0827
#
#
#
# Elastic Compliance Matrix: (Units=1/GPa)
#
#
# Indices 1 2 3 4 5 6 
#
# 1 0.021535 -0.001081 -0.002305 0.003150 -0.003487 -0.001846
# 2 -0.001081 0.008575 -0.003459 0.000368 -0.000854 -0.002830
# 3 -0.002305 -0.003459 0.010178 -0.004002 -0.001571 0.011111
# 4 0.003150 0.000368 -0.004002 0.024761 -0.004510 -0.011020
# 5 -0.003487 -0.000854 -0.001571 -0.004510 0.020776 0.008227
# 6 -0.001846 -0.002830 0.011111 -0.011020 0.008227 0.061826
#
#
# Mechanical properties :
#
#
# Convention : Reuss Voigt Hill
#
# Bulk Modulus (GPa) = 37.59775 62.59790 50.09782
# Shear Modulus (GPa) = 29.37582 43.45940 36.41761
#
# Velocity S-wave (km/s) = 3.56396 4.33491 3.96820
# Velocity P-wave (km/s) = 5.76131 7.21955 6.53126
#
# Compressibility (1/GPa) = 0.02659734
#
# Stress axis : x y z
#
# Youngs Moduli (GPa) = 46.43578 116.61770 98.24703
#
# Poissons Ratio (x) = 0.12610 0.22644
# Poissons Ratio (y) = 0.05021 0.33988
# Poissons Ratio (z) = 0.10703 0.40343
#
# Static dielectric constant tensor:
#      x y z
#    x 1.906470 0.027000 -0.026900 
#    y 0.027000 1.973780 -0.027710 
#    z -0.026900 -0.027710 1.823080 
# 
# From -- ./inp_files/60069.got.cif
#   From: 2010.05.17/outbox.cif.g08.bks.cpg/sg2_31_cif.got.tgz:60069.got - 2010.06.03 11:33:40.
