data_PCOD9112442
_publ_section_title
;
Structure prediction by ZEFSAII (Michael W. Deem and Ramdas Pophale) SiO2 
 PCOD9112442
Probable space group: P -1
;
_chemical_formula_sum "Si O2"
_cell_formula_units_Z 14
_cell_length_a 5.482045
_cell_length_b 16.125351
_cell_length_c 17.521439
_cell_angle_alpha 23.728149
_cell_angle_beta 86.247609
_cell_angle_gamma 90.651573
_cell_volume 612.055691
_symmetry_space_group_name_H-M "P -1"
_symmetry_group_IT_number 2
_symmetry_cell_setting 'triclinic'
loop_
_space_group_symop_operation_xyz
x,y,z
-x,-y,-z
loop_
_atom_site_type_symbol
_atom_site_label
_atom_site_fract_x
_atom_site_fract_y
_atom_site_fract_z
Si Si1 0.309182 0.282678 0.739479
Si Si2 0.950002 0.841388 0.474886
Si Si3 0.544427 0.071639 0.526049
Si Si4 0.981028 0.563406 0.267757
Si Si5 0.794019 0.193312 0.801765
Si Si6 0.051810 0.310374 0.008297
Si Si7 0.550365 0.384570 0.018621
O O1 0.268395 0.441863 0.672858
O O2 0.570922 0.286869 0.691112
O O3 0.070920 0.264235 0.704284
O O4 0.263358 0.055839 0.976145
O O5 0.172876 0.831249 0.539501
O O6 0.964086 0.662432 0.563690
O O7 0.678268 0.809917 0.545238
O O8 0.001172 0.072172 0.241417
O O9 0.500000 0.000000 0.500000
O O10 0.496827 0.860077 0.754395
O O11 0.179680 0.702471 0.202055
O O12 0.966574 0.680203 0.090009
O O13 0.328907 0.413183 0.942076
O O14 0.834067 0.424703 0.950325
O O15 0.500000 0.500000 0.000000
#
# Coordination Sequence:
#
# PCOD9112442 Si02
#       7
#     2   2   2   2   2   2   2
#     4   8  16  30  50  80 108 134 172 210 250 310
#     4  10  23  36  51  81 105 133 175 225 258 311
#     4  10  22  38  54  72 104 135 177 221 269 309
#     4  10  21  32  62  76 110 138 182 202 278 304
#     4   8  16  30  50  80 108 134 172 210 250 310
#     4  10  23  36  51  81 105 133 175 225 258 311
#     4  10  22  38  54  72 104 135 177 221 269 309
#
# _framework density 22.873733999999999
#
# number of rings (size 3 to 8) (size 9 to 14) (size 15 to 20)
#    0.857    1.714    0.000    0.857    8.000    0.000 
#    0.000    0.000    0.000    3.429    0.000    4.000 
#    0.000    0.000    0.000    0.000    0.000    0.000 
#
# Total GULP energy -78110.701153 kJ/mol
# GULP energy per Si atom -5579.335797 kJ/mol
# Density = 2.282167 g / cm^3
# Si number density = 22.873734 Si / 1000 Ang^3
#
#
#
# Elastic Constant Matrix: (Units=GPa)
#
#
# Indices 1 2 3 4 5 6 
#
# 1 194.0887 56.7913 54.8028 -4.7740 21.0638 -26.9397
# 2 56.7913 104.9105 45.0820 -17.0866 5.0639 -9.7303
# 3 54.8028 45.0820 88.5500 -7.7551 13.8897 -11.3523
# 4 -4.7740 -17.0866 -7.7551 43.4000 -6.9964 5.8098
# 5 21.0638 5.0639 13.8897 -6.9964 33.6181 -7.4372
# 6 -26.9397 -9.7303 -11.3523 5.8098 -7.4372 33.3915
#
#
#
# Elastic Compliance Matrix: (Units=1/GPa)
#
#
# Indices 1 2 3 4 5 6 
#
# 1 0.007462 -0.002770 -0.002407 -0.001683 -0.002711 0.004084
# 2 -0.002770 0.013992 -0.005466 0.004710 0.002820 -0.000207
# 3 -0.002407 -0.005466 0.016347 -0.000331 -0.004240 0.001136
# 4 -0.001683 0.004710 -0.000331 0.025940 0.005112 -0.003473
# 5 -0.002711 0.002820 -0.004240 0.005112 0.034729 0.004039
# 6 0.004084 -0.000207 0.001136 -0.003473 0.004039 0.035073
#
#
# Mechanical properties :
#
#
# Convention : Reuss Voigt Hill
#
# Bulk Modulus (GPa) = 60.54573 77.87794 69.21184
# Shear Modulus (GPa) = 31.18530 37.47344 34.32937
#
# Velocity S-wave (km/s) = 3.69639 4.05195 3.87825
# Velocity P-wave (km/s) = 6.68915 7.48411 7.09777
#
# Compressibility (1/GPa) = 0.01651644
#
# Stress axis : x y z
#
# Youngs Moduli (GPa) = 134.01428 71.47104 61.17347
#
# Poissons Ratio (x) = 0.19795 0.14722
# Poissons Ratio (y) = 0.37118 0.33435
# Poissons Ratio (z) = 0.32253 0.39064
#
# Static dielectric constant tensor:
#      x y z
#    x 1.962350 -0.008070 -0.018560 
#    y -0.008070 1.776160 -0.014610 
#    z -0.018560 -0.014610 1.908330 
# 
# From -- ./inp_files/41913.got.cif
#   From: 2010.05.17/outbox.cif.g08.bks.cpg/sg2_21_cif.got.tgz:41913.got - 2010.06.03 11:33:40.
