data_PCOD9112755
_publ_section_title
;
Structure prediction by ZEFSAII (Michael W. Deem and Ramdas Pophale) SiO2 
 PCOD9112755
Probable space group: P 2
;
_chemical_formula_sum "Si O2"
_cell_formula_units_Z 14
_cell_length_a 17.257559
_cell_length_b 8.702253
_cell_length_c 16.442202
_cell_angle_alpha 90.000000
_cell_angle_beta 163.020767
_cell_angle_gamma 90.000000
_cell_volume 721.092849
_symmetry_space_group_name_H-M "P 2"
_symmetry_group_IT_number 3
_symmetry_cell_setting 'monoclinic'
loop_
_space_group_symop_operation_xyz
x,y,z
-x,y,-z
loop_
_atom_site_type_symbol
_atom_site_label
_atom_site_fract_x
_atom_site_fract_y
_atom_site_fract_z
Si Si1 0.500000 0.340271 0.500000
Si Si2 0.454821 0.684187 0.863582
Si Si3 0.538764 0.819790 0.302325
Si Si4 0.043611 0.469211 0.634189
Si Si5 0.000000 0.115816 0.000000
Si Si6 0.398569 0.483038 0.225121
Si Si7 0.042485 0.992513 0.865026
Si Si8 0.103337 0.325318 0.348823
O O1 0.749297 0.227868 0.737727
O O2 0.453820 0.442426 0.374012
O O3 0.486864 0.798109 0.820452
O O4 0.163479 0.610436 0.566000
O O5 0.500000 0.747643 0.000000
O O6 0.666156 0.544424 0.066343
O O7 0.458723 0.657416 0.261820
O O8 0.834037 0.866122 0.624822
O O9 0.334919 0.946586 0.130126
O O10 0.970355 0.352113 0.631401
O O11 0.000000 0.405068 0.500000
O O12 0.034205 0.014830 0.953648
O O13 0.599620 0.377687 0.374091
O O14 0.098712 0.436780 0.902572
O O15 0.954155 0.154202 0.737997
#
# Coordination Sequence:
#
# PCOD9112755 Si02
#       8
#     1   2   2   2   1   2   2   2
#     4  12  22  42  66  96 114 164 222 266 296 358
#     4  10  20  37  64  92 122 164 208 256 309 370
#     4  12  24  42  61  99 128 164 203 260 320 370
#     4  10  19  35  64  95 122 158 212 264 300 354
#     4  12  24  44  64  90 126 164 218 246 318 388
#     4  12  23  39  69  88 125 158 217 267 295 362
#     4  12  26  40  65  89 134 170 197 255 326 379
#     4  12  21  42  62  96 119 170 209 254 307 374
#
# _framework density 19.414975999999999
#
# number of rings (size 3 to 8) (size 9 to 14) (size 15 to 20)
#    0.000    0.571    5.714    3.429    0.000    1.143 
#    0.000    1.429    0.000    0.000    0.000    0.000 
#    0.000    0.000    0.000    0.000    0.000    0.000 
#
# Total GULP energy -78307.950639 kJ/mol
# GULP energy per Si atom -5593.425046 kJ/mol
# Density = 1.937079 g / cm^3
# Si number density = 19.414976 Si / 1000 Ang^3
#
#
#
# Elastic Constant Matrix: (Units=GPa)
#
#
# Indices 1 2 3 4 5 6 
#
# 1 170.4654 17.6664 0.1106 0.0000 -26.7178 0.0000
# 2 17.6664 39.5216 -16.6704 0.0000 -10.1676 0.0000
# 3 0.1106 -16.6704 58.2664 0.0000 1.1839 0.0000
# 4 0.0000 0.0000 0.0000 24.5247 0.0000 2.1598
# 5 -26.7178 -10.1676 1.1839 0.0000 34.3406 0.0000
# 6 0.0000 0.0000 0.0000 2.1598 0.0000 34.0862
#
#
#
# Elastic Compliance Matrix: (Units=1/GPa)
#
#
# Indices 1 2 3 4 5 6 
#
# 1 0.006826 -0.002147 -0.000723 0.000000 0.004700 0.000000
# 2 -0.002147 0.031987 0.009004 0.000000 0.007490 0.000000
# 3 -0.000723 0.009004 0.019711 0.000000 0.001424 0.000000
# 4 0.000000 0.000000 0.000000 0.041004 0.000000 -0.002598
# 5 0.004700 0.007490 0.001424 0.000000 0.034945 0.000000
# 6 0.000000 0.000000 0.000000 -0.002598 0.000000 0.029502
#
#
# Mechanical properties :
#
#
# Convention : Reuss Voigt Hill
#
# Bulk Modulus (GPa) = 14.12593 30.05184 22.08889
# Shear Modulus (GPa) = 28.52178 36.40008 32.46093
#
# Velocity S-wave (km/s) = 3.83699 4.33465 4.09339
# Velocity P-wave (km/s) = 5.18860 6.36903 5.80888
#
# Compressibility (1/GPa) = 0.07079181
#
# Stress axis : x y z
#
# Youngs Moduli (GPa) = 146.50061 31.26268 50.73320
#
# Poissons Ratio (x) = 0.06712 0.03667
# Poissons Ratio (y) = 0.31452 -0.45678
# Poissons Ratio (z) = 0.10588 -0.28148
#
# Static dielectric constant tensor:
#      x y z
#    x 1.688660 0.000000 -0.007890 
#    y 0.000000 1.632120 0.000000 
#    z -0.007890 0.000000 1.657230 
# 
# From -- ./inp_files/13991.got.cif
#   From: 2010.05.17/outbox.cif.g08.bks.cpg/sg3_7_cif.got.tgz:13991.got - 2010.06.03 18:33:08.
