data_PCOD9112454
_publ_section_title
;
Structure prediction by ZEFSAII (Michael W. Deem and Ramdas Pophale) SiO2 
 PCOD9112454
Probable space group: P 2
;
_chemical_formula_sum "Si O2"
_cell_formula_units_Z 16
_cell_length_a 8.782036
_cell_length_b 9.772846
_cell_length_c 9.067786
_cell_angle_alpha 90.000000
_cell_angle_beta 90.355750
_cell_angle_gamma 90.000000
_cell_volume 778.232134
_symmetry_space_group_name_H-M "P 2"
_symmetry_group_IT_number 3
_symmetry_cell_setting 'monoclinic'
loop_
_space_group_symop_operation_xyz
x,y,z
-x,y,-z
loop_
_atom_site_type_symbol
_atom_site_label
_atom_site_fract_x
_atom_site_fract_y
_atom_site_fract_z
Si Si1 0.288881 0.825190 0.714921
Si Si2 0.782588 0.941547 0.603461
Si Si3 0.411164 0.850262 0.134411
Si Si4 0.006521 0.685971 0.338014
Si Si5 0.070175 0.223263 0.356250
Si Si6 0.824062 0.326371 0.941230
Si Si7 0.136159 0.074735 0.886078
Si Si8 0.830701 0.621988 0.935178
O O1 0.288885 0.878719 0.545625
O O2 0.454627 0.781165 0.769000
O O3 0.226045 0.948593 0.817277
O O4 0.163507 0.705670 0.722730
O O5 0.677163 0.940636 0.747427
O O6 0.922257 0.839620 0.645943
O O7 0.837754 0.094240 0.578841
O O8 0.291494 0.742750 0.064992
O O9 0.500000 0.919487 0.000000
O O10 0.120521 0.606407 0.235459
O O11 0.000000 0.627269 0.500000
O O12 0.169671 0.302128 0.234466
O O13 0.000000 0.295429 0.500000
O O14 0.941840 0.154040 0.250744
O O15 0.764138 0.476017 0.983816
O O16 0.768268 0.188876 0.022506
O O17 0.000000 0.335333 0.000000
O O18 0.000000 0.030148 0.000000
O O19 0.000000 0.655383 0.000000
#
# Coordination Sequence:
#
# PCOD9112454 Si02
#       8
#     2   2   2   2   2   2   2   2
#     4  11  19  34  54  86 120 148 181 236 291 347
#     4  10  19  34  52  84 122 148 176 230 290 346
#     4  11  25  34  54  84 110 152 196 230 285 345
#     4   9  18  31  56  84 111 148 184 229 288 337
#     4  10  15  30  55  88 115 144 185 225 285 336
#     4   8  19  32  53  81 113 147 193 240 275 322
#     4   9  18  29  54  86 119 148 182 235 282 338
#     4  10  20  40  55  75 114 154 194 242 278 324
#
# _framework density 20.559417
#
# number of rings (size 3 to 8) (size 9 to 14) (size 15 to 20)
#    0.000    2.500    2.500    1.500    3.500    1.000 
#    0.000    0.000    2.750    0.000    0.000    0.000 
#    0.000    0.000    0.000    0.000    0.000    0.000 
#
# Total GULP energy -89145.441905 kJ/mol
# GULP energy per Si atom -5571.590119 kJ/mol
# Density = 2.051262 g / cm^3
# Si number density = 20.559417 Si / 1000 Ang^3
#
#
#
# Elastic Constant Matrix: (Units=GPa)
#
#
# Indices 1 2 3 4 5 6 
#
# 1 64.0709 14.3439 22.8483 0.0000 7.6558 0.0000
# 2 14.3439 68.9519 10.9744 0.0000 -0.9755 0.0000
# 3 22.8483 10.9744 106.2501 0.0000 -18.3404 0.0000
# 4 0.0000 0.0000 0.0000 6.7050 0.0000 1.2144
# 5 7.6558 -0.9755 -18.3404 0.0000 39.1262 0.0000
# 6 0.0000 0.0000 0.0000 1.2144 0.0000 6.1795
#
#
#
# Elastic Compliance Matrix: (Units=1/GPa)
#
#
# Indices 1 2 3 4 5 6 
#
# 1 0.018726 -0.003228 -0.004722 0.000000 -0.005958 0.000000
# 2 -0.003228 0.015307 -0.000775 0.000000 0.000650 0.000000
# 3 -0.004722 -0.000775 0.011602 0.000000 0.006343 0.000000
# 4 0.000000 0.000000 0.000000 0.154647 0.000000 -0.030392
# 5 -0.005958 0.000650 0.006343 0.000000 0.029714 0.000000
# 6 0.000000 0.000000 0.000000 -0.030392 0.000000 0.167798
#
#
# Mechanical properties :
#
#
# Convention : Reuss Voigt Hill
#
# Bulk Modulus (GPa) = 35.47907 37.28956 36.38431
# Shear Modulus (GPa) = 11.77471 23.14257 17.45864
#
# Velocity S-wave (km/s) = 2.39574 3.35870 2.91723
# Velocity P-wave (km/s) = 4.99471 5.76351 5.39282
#
# Compressibility (1/GPa) = 0.02818563
#
# Stress axis : x y z
#
# Youngs Moduli (GPa) = 53.40089 65.32997 86.19134
#
# Poissons Ratio (x) = 0.21091 0.40699
# Poissons Ratio (y) = 0.17239 0.06676
# Poissons Ratio (z) = 0.25216 0.05060
#
# Static dielectric constant tensor:
#      x y z
#    x 1.763010 0.000000 -0.002880 
#    y 0.000000 1.785950 0.000000 
#    z -0.002880 0.000000 1.824970 
# 
# From -- ./inp_files/5823.got.cif
#   From: 2010.05.17/outbox.cif.g08.bks.cpg/sg3_3_cif.got.tgz:5823.got - 2010.06.03 18:33:08.
