data_PCOD9112806
_publ_section_title
;
Structure prediction by ZEFSAII (Michael W. Deem and Ramdas Pophale) SiO2 
 PCOD9112806
Probable space group: P 2
;
_chemical_formula_sum "Si O2"
_cell_formula_units_Z 14
_cell_length_a 10.516922
_cell_length_b 8.484607
_cell_length_c 13.546559
_cell_angle_alpha 90.000000
_cell_angle_beta 146.496583
_cell_angle_gamma 90.000000
_cell_volume 667.233745
_symmetry_space_group_name_H-M "P 2"
_symmetry_group_IT_number 3
_symmetry_cell_setting 'monoclinic'
loop_
_space_group_symop_operation_xyz
x,y,z
-x,y,-z
loop_
_atom_site_type_symbol
_atom_site_label
_atom_site_fract_x
_atom_site_fract_y
_atom_site_fract_z
Si Si1 0.457899 0.869080 0.360599
Si Si2 0.500000 0.730054 0.000000
Si Si3 0.693264 0.309893 0.870426
Si Si4 0.265647 0.790284 0.647293
Si Si5 0.200811 0.577079 0.203976
Si Si6 0.193312 0.415934 0.549018
Si Si7 0.000000 0.041496 0.000000
Si Si8 0.092530 0.513671 0.815317
O O1 0.500000 0.922376 0.500000
O O2 0.633770 0.886064 0.382288
O O3 0.423342 0.680926 0.337533
O O4 0.205577 0.939530 0.176898
O O5 0.575235 0.814202 0.151508
O O6 0.722474 0.622666 0.118863
O O7 0.745917 0.401446 0.800628
O O8 0.418426 0.307449 0.696861
O O9 0.850223 0.156018 0.973724
O O10 0.774569 0.415356 0.015108
O O11 0.260492 0.599130 0.620831
O O12 0.000000 0.831078 0.500000
O O13 0.096747 0.605285 0.243508
O O14 0.000000 0.629161 0.000000
O O15 0.000000 0.363044 0.500000
O O16 0.059092 0.416454 0.359009
#
# Coordination Sequence:
#
# PCOD9112806 Si02
#       8
#     2   1   2   2   2   2   1   2
#     4  12  26  43  69  99 139 182 233 286 341 408
#     4  12  20  32  68 102 144 174 204 288 360 414
#     4  11  22  42  62  95 134 168 222 285 330 399
#     4  11  22  39  63 106 141 168 223 285 353 409
#     4  10  19  37  64  95 126 161 219 286 333 381
#     4  11  20  34  61  98 130 159 208 277 342 397
#     4  12  28  46  62  94 140 188 238 272 334 414
#     4  11  19  33  60  97 131 164 211 267 351 394
#
# _framework density 20.982151999999999
#
# number of rings (size 3 to 8) (size 9 to 14) (size 15 to 20)
#    0.000    0.857    8.571    1.714    0.000    1.143 
#    0.000    0.714    0.000    6.000    0.000    0.000 
#    0.000    0.000    0.000    0.000    0.000    0.000 
#
# Total GULP energy -78013.675321 kJ/mol
# GULP energy per Si atom -5572.405380 kJ/mol
# Density = 2.093440 g / cm^3
# Si number density = 20.982152 Si / 1000 Ang^3
#
#
#
# Elastic Constant Matrix: (Units=GPa)
#
#
# Indices 1 2 3 4 5 6 
#
# 1 170.8653 21.1600 69.4122 0.0000 15.0383 0.0000
# 2 21.1600 26.6929 16.5849 0.0000 6.2283 0.0000
# 3 69.4122 16.5849 138.6202 0.0000 12.9119 0.0000
# 4 0.0000 0.0000 0.0000 7.2662 0.0000 7.5990
# 5 15.0383 6.2283 12.9119 0.0000 39.8084 0.0000
# 6 0.0000 0.0000 0.0000 7.5990 0.0000 8.2262
#
#
#
# Elastic Compliance Matrix: (Units=1/GPa)
#
#
# Indices 1 2 3 4 5 6 
#
# 1 0.007787 -0.003811 -0.003325 0.000000 -0.001267 0.000000
# 2 -0.003811 0.043290 -0.002861 0.000000 -0.004405 0.000000
# 3 -0.003325 -0.002861 0.009345 0.000000 -0.001327 0.000000
# 4 0.000000 0.000000 0.000000 4.056367 0.000000 -3.747120
# 5 -0.001267 -0.004405 -0.001327 0.000000 0.026719 0.000000
# 6 0.000000 0.000000 0.000000 -3.747120 0.000000 3.583012
#
#
# Mechanical properties :
#
#
# Convention : Reuss Voigt Hill
#
# Bulk Modulus (GPa) = 24.73563 61.16583 42.95073
# Shear Modulus (GPa) = 0.64433 26.32825 13.48629
#
# Velocity S-wave (km/s) = 0.55475 3.54615 2.53800
# Velocity P-wave (km/s) = 3.49640 6.78097 5.39474
#
# Compressibility (1/GPa) = 0.04042752
#
# Stress axis : x y z
#
# Youngs Moduli (GPa) = 128.42143 23.10023 107.01050
#
# Poissons Ratio (x) = 0.08804 0.35583
# Poissons Ratio (y) = 0.48944 0.30611
# Poissons Ratio (z) = 0.42703 0.06608
#
# Static dielectric constant tensor:
#      x y z
#    x 1.676310 0.000000 0.082670 
#    y 0.000000 1.804990 0.000000 
#    z 0.082670 0.000000 1.707320 
# 
# From -- ./inp_files/10876.got.cif
#   From: 2010.05.17/outbox.cif.g08.bks.cpg/sg3_6_cif.got.tgz:10876.got - 2010.06.03 18:33:08.
