data_PCOD9112481
_publ_section_title
;
Structure prediction by ZEFSAII (Michael W. Deem and Ramdas Pophale) SiO2 
 PCOD9112481
Probable space group: P 2
;
_chemical_formula_sum "Si O2"
_cell_formula_units_Z 12
_cell_length_a 8.582940
_cell_length_b 7.603263
_cell_length_c 9.625524
_cell_angle_alpha 90.000000
_cell_angle_beta 114.200735
_cell_angle_gamma 90.000000
_cell_volume 572.941131
_symmetry_space_group_name_H-M "P 2"
_symmetry_group_IT_number 3
_symmetry_cell_setting 'monoclinic'
loop_
_space_group_symop_operation_xyz
x,y,z
-x,y,-z
loop_
_atom_site_type_symbol
_atom_site_label
_atom_site_fract_x
_atom_site_fract_y
_atom_site_fract_z
Si Si1 0.123919 0.416040 0.167747
Si Si2 0.703391 0.066939 0.828561
Si Si3 0.838629 0.401372 0.513666
Si Si4 0.500000 0.194190 0.500000
Si Si5 0.314576 0.581239 0.796295
Si Si6 0.685048 0.692516 0.903746
Si Si7 0.500000 0.251916 0.000000
O O1 0.153868 0.208819 0.161206
O O2 0.084005 0.461246 0.310400
O O3 0.291451 0.522977 0.185497
O O4 0.000000 0.472276 0.000000
O O5 0.570555 0.081225 0.653418
O O6 0.762314 0.868902 0.870723
O O7 0.613446 0.137089 0.936715
O O8 0.662436 0.304426 0.497092
O O9 0.786373 0.550037 0.382751
O O10 0.000000 0.301428 0.500000
O O11 0.479909 0.704762 0.834454
O O12 0.243944 0.656762 0.915638
O O13 0.382005 0.386166 0.867754
#
# Coordination Sequence:
#
# PCOD9112481 Si02
#       7
#     2   2   2   1   2   2   1
#     4  11  23  39  60  87 127 167 213 268 317 382
#     4  11  21  37  63  91 122 172 210 263 325 382
#     4  11  22  38  66  94 125 173 215 261 324 383
#     4  10  22  40  60 100 132 158 222 270 316 380
#     4  10  18  37  59  91 124 160 210 266 311 377
#     4  10  21  37  62  92 120 167 216 257 324 384
#     4  10  16  34  62  84 122 156 206 264 306 376
#
# _framework density 20.944562999999999
#
# number of rings (size 3 to 8) (size 9 to 14) (size 15 to 20)
#    0.000    1.667    5.000    3.000    0.000    2.000 
#    0.000    0.000    0.000    7.000    0.000    0.000 
#    0.000    0.000    0.000    0.000    0.000    0.000 
#
# Total GULP energy -66842.764944 kJ/mol
# GULP energy per Si atom -5570.230412 kJ/mol
# Density = 2.089689 g / cm^3
# Si number density = 20.944563 Si / 1000 Ang^3
#
#
#
# Elastic Constant Matrix: (Units=GPa)
#
#
# Indices 1 2 3 4 5 6 
#
# 1 74.3868 8.0763 34.4287 0.0000 -15.0275 0.0000
# 2 8.0763 72.0159 22.5405 0.0000 -5.1038 0.0000
# 3 34.4287 22.5405 168.5501 0.0000 -14.6638 0.0000
# 4 0.0000 0.0000 0.0000 25.6460 0.0000 -5.9312
# 5 -15.0275 -5.1038 -14.6638 0.0000 30.9832 0.0000
# 6 0.0000 0.0000 0.0000 -5.9312 0.0000 8.8521
#
#
#
# Elastic Compliance Matrix: (Units=1/GPa)
#
#
# Indices 1 2 3 4 5 6 
#
# 1 0.016023 -0.000513 -0.002644 0.000000 0.006435 0.000000
# 2 -0.000513 0.014579 -0.001729 0.000000 0.001334 0.000000
# 3 -0.002644 -0.001729 0.006850 0.000000 0.001675 0.000000
# 4 0.000000 0.000000 0.000000 0.046143 0.000000 0.030917
# 5 0.006435 0.001334 0.001675 0.000000 0.036409 0.000000
# 6 0.000000 0.000000 0.000000 0.030917 0.000000 0.133682
#
#
# Mechanical properties :
#
#
# Convention : Reuss Voigt Hill
#
# Bulk Modulus (GPa) = 36.12806 49.44932 42.78869
# Shear Modulus (GPa) = 18.33618 29.75674 24.04646
#
# Velocity S-wave (km/s) = 2.96203 3.77336 3.39204
# Velocity P-wave (km/s) = 5.38377 6.53033 5.98457
#
# Compressibility (1/GPa) = 0.02767932
#
# Stress axis : x y z
#
# Youngs Moduli (GPa) = 62.41045 68.59162 145.98548
#
# Poissons Ratio (x) = 0.03520 0.38605
# Poissons Ratio (y) = 0.03203 0.25237
# Poissons Ratio (z) = 0.16504 0.11858
#
# Static dielectric constant tensor:
#      x y z
#    x 1.868630 0.000000 0.038680 
#    y 0.000000 1.723880 0.000000 
#    z 0.038680 0.000000 1.774550 
# 
# From -- ./inp_files/5187.got.cif
#   From: 2010.05.17/outbox.cif.g08.bks.cpg/sg3_3_cif.got.tgz:5187.got - 2010.06.03 18:33:08.
