data_PCOD9112812
_publ_section_title
;
Structure prediction by ZEFSAII (Michael W. Deem and Ramdas Pophale) SiO2 
 PCOD9112812
Probable space group: P 2
;
_chemical_formula_sum "Si O2"
_cell_formula_units_Z 16
_cell_length_a 21.031463
_cell_length_b 8.481938
_cell_length_c 8.907608
_cell_angle_alpha 90.000000
_cell_angle_beta 32.375956
_cell_angle_gamma 90.000000
_cell_volume 850.869171
_symmetry_space_group_name_H-M "P 2"
_symmetry_group_IT_number 3
_symmetry_cell_setting 'monoclinic'
loop_
_space_group_symop_operation_xyz
x,y,z
-x,y,-z
loop_
_atom_site_type_symbol
_atom_site_label
_atom_site_fract_x
_atom_site_fract_y
_atom_site_fract_z
Si Si1 0.201889 0.125000 0.096212
Si Si2 0.129407 0.617023 0.663216
Si Si3 0.590835 0.094796 0.932753
Si Si4 0.724428 0.872120 0.458992
Si Si5 0.930859 0.075778 0.934838
Si Si6 0.923533 0.815330 0.515929
Si Si7 0.833747 0.268934 0.524194
Si Si8 0.423604 0.967784 0.521516
O O1 0.126143 0.157445 0.097835
O O2 0.175316 0.254080 0.275878
O O3 0.159460 0.954689 0.250352
O O4 0.335655 0.093542 0.775751
O O5 0.134338 0.700156 0.488899
O O6 0.159432 0.436738 0.568753
O O7 0.216481 0.713232 0.599600
O O8 0.000000 0.626420 0.000000
O O9 0.631691 0.935736 0.766084
O O10 0.710436 0.187819 0.725078
O O11 0.500000 0.178965 0.000000
O O12 0.517705 0.052983 0.226139
O O13 0.660429 0.867625 0.423935
O O14 0.824020 0.011766 0.249869
O O15 0.044335 0.176084 0.758708
O O16 0.984247 0.912423 0.768584
O O17 0.000000 0.742467 0.500000
O O18 0.500000 0.884855 0.500000
#
# Coordination Sequence:
#
# PCOD9112812 Si02
#       8
#     2   2   2   2   2   2   2   2
#     4   9  18  36  65  91 114 154 210 270 302 348
#     4  12  25  37  54  92 139 170 192 244 324 395
#     4  10  22  38  62  90 114 159 215 266 301 351
#     4  10  21  38  61  91 126 159 204 264 314 364
#     4   9  18  35  63  91 117 153 209 259 305 358
#     4   9  18  35  59  86 120 161 201 251 304 366
#     4  11  22  35  58  86 126 163 202 243 318 377
#     4  10  19  37  67  96 112 149 221 277 299 347
#
# _framework density 18.804299
#
# number of rings (size 3 to 8) (size 9 to 14) (size 15 to 20)
#    0.000    2.000    2.500    2.625    1.750    1.000 
#    0.000    1.875    0.000    3.000    0.000    0.000 
#    0.000    0.000    0.000    0.000    0.000    0.000 
#
# Total GULP energy -89125.922069 kJ/mol
# GULP energy per Si atom -5570.370129 kJ/mol
# Density = 1.876150 g / cm^3
# Si number density = 18.804299 Si / 1000 Ang^3
#
#
#
# Elastic Constant Matrix: (Units=GPa)
#
#
# Indices 1 2 3 4 5 6 
#
# 1 150.9455 56.7701 41.4496 0.0000 -16.6212 0.0000
# 2 56.7701 53.6737 26.6496 0.0000 -7.6803 0.0000
# 3 41.4496 26.6496 137.4321 0.0000 1.4181 0.0000
# 4 0.0000 0.0000 0.0000 13.2446 0.0000 5.8515
# 5 -16.6212 -7.6803 1.4181 0.0000 34.2588 0.0000
# 6 0.0000 0.0000 0.0000 5.8515 0.0000 9.9903
#
#
#
# Elastic Compliance Matrix: (Units=1/GPa)
#
#
# Indices 1 2 3 4 5 6 
#
# 1 0.011495 -0.011030 -0.001361 0.000000 0.003160 0.000000
# 2 -0.011030 0.032017 -0.002902 0.000000 0.001946 0.000000
# 3 -0.001361 -0.002902 0.008266 0.000000 -0.001653 0.000000
# 4 0.000000 0.000000 0.000000 0.101861 0.000000 -0.059662
# 5 0.003160 0.001946 -0.001653 0.000000 0.031228 0.000000
# 6 0.000000 0.000000 0.000000 -0.059662 0.000000 0.135042
#
#
# Mechanical properties :
#
#
# Convention : Reuss Voigt Hill
#
# Bulk Modulus (GPa) = 47.18540 65.75443 56.46992
# Shear Modulus (GPa) = 13.98369 25.97756 19.98063
#
# Velocity S-wave (km/s) = 2.72994 3.72084 3.26322
# Velocity P-wave (km/s) = 5.92319 7.31459 6.65535
#
# Compressibility (1/GPa) = 0.02119299
#
# Stress axis : x y z
#
# Youngs Moduli (GPa) = 86.99423 31.23336 120.97134
#
# Poissons Ratio (x) = 0.34452 0.16459
# Poissons Ratio (y) = 0.95958 0.35103
# Poissons Ratio (z) = 0.11836 0.09063
#
# Static dielectric constant tensor:
#      x y z
#    x 1.756050 0.000000 0.004140 
#    y 0.000000 1.616700 0.000000 
#    z 0.004140 0.000000 1.686150 
# 
# From -- ./inp_files/9461.got.cif
#   From: 2010.05.17/outbox.cif.g08.bks.cpg/sg3_5_cif.got.tgz:9461.got - 2010.06.03 18:33:08.
