data_PCOD9112538
_publ_section_title
;
Structure prediction by ZEFSAII (Michael W. Deem and Ramdas Pophale) SiO2 
 PCOD9112538
Probable space group: P 2
;
_chemical_formula_sum "Si O2"
_cell_formula_units_Z 12
_cell_length_a 11.857481
_cell_length_b 8.222970
_cell_length_c 8.288897
_cell_angle_alpha 90.000000
_cell_angle_beta 36.160571
_cell_angle_gamma 90.000000
_cell_volume 476.877522
_symmetry_space_group_name_H-M "P 2"
_symmetry_group_IT_number 3
_symmetry_cell_setting 'monoclinic'
loop_
_space_group_symop_operation_xyz
x,y,z
-x,y,-z
loop_
_atom_site_type_symbol
_atom_site_label
_atom_site_fract_x
_atom_site_fract_y
_atom_site_fract_z
Si Si1 0.415665 0.700000 0.776895
Si Si2 0.410325 0.059171 0.778803
Si Si3 0.317799 0.383366 0.037830
Si Si4 0.891918 0.382360 0.384011
Si Si5 0.025277 0.726846 0.792363
Si Si6 0.030370 0.046498 0.657265
O O1 0.500000 0.681122 0.500000
O O2 0.476751 0.880569 0.761671
O O3 0.447167 0.536069 0.839767
O O4 0.185062 0.701798 0.036356
O O5 0.500000 0.091841 0.500000
O O6 0.424886 0.214217 0.878947
O O7 0.181477 0.038370 0.024299
O O8 0.235252 0.404362 0.310599
O O9 0.120078 0.376195 0.162447
O O10 0.875010 0.550653 0.306697
O O11 0.860775 0.192611 0.376788
O O12 0.118408 0.867385 0.576516
O O13 0.000000 0.794277 0.000000
O O14 0.000000 0.081302 0.500000
#
# Coordination Sequence:
#
# PCOD9112538 Si02
#       6
#     2   2   2   2   2   2
#     4   9  18  30  49  73  99 131 170 208 249 298
#     4   9  16  26  43  74 104 120 158 216 262 286
#     4   9  15  26  46  74  96 123 167 217 248 285
#     4   9  17  29  48  73 103 127 171 216 257 287
#     4  10  22  33  50  78 109 135 164 213 270 310
#     4  10  18  31  53  77 101 132 178 218 251 296
#
# _framework density 25.163692000000001
#
# number of rings (size 3 to 8) (size 9 to 14) (size 15 to 20)
#    0.000    2.667    3.333    0.500    7.000    0.667 
#    0.000    0.000    0.000    1.000    0.000    0.000 
#    0.000    0.000    0.000    0.000    0.000    0.000 
#
# Total GULP energy -66945.435625 kJ/mol
# GULP energy per Si atom -5578.786302 kJ/mol
# Density = 2.510642 g / cm^3
# Si number density = 25.163692 Si / 1000 Ang^3
#
#
#
# Elastic Constant Matrix: (Units=GPa)
#
#
# Indices 1 2 3 4 5 6 
#
# 1 58.1578 3.6003 -6.5306 0.0000 -26.7358 0.0000
# 2 3.6003 231.8085 47.4846 0.0000 13.0623 0.0000
# 3 -6.5306 47.4846 96.8162 0.0000 -19.4470 0.0000
# 4 0.0000 0.0000 0.0000 93.2242 0.0000 110.9681
# 5 -26.7358 13.0623 -19.4470 0.0000 30.5701 0.0000
# 6 0.0000 0.0000 0.0000 110.9681 0.0000 172.0666
#
#
#
# Elastic Compliance Matrix: (Units=1/GPa)
#
#
# Indices 1 2 3 4 5 6 
#
# 1 0.042961 -0.006937 0.016558 0.000000 0.051070 0.000000
# 2 -0.006937 0.006401 -0.006163 0.000000 -0.012722 0.000000
# 3 0.016558 -0.006163 0.020529 0.000000 0.030174 0.000000
# 4 0.000000 0.000000 0.000000 0.046169 0.000000 -0.029775
# 5 0.051070 -0.012722 0.030174 0.000000 0.102008 0.000000
# 6 0.000000 0.000000 0.000000 -0.029775 0.000000 0.025014
#
#
# Mechanical properties :
#
#
# Convention : Reuss Voigt Hill
#
# Bulk Modulus (GPa) = 13.01940 52.87679 32.94810
# Shear Modulus (GPa) = 19.10089 81.98741 50.54415
#
# Velocity S-wave (km/s) = 2.75810 5.71422 4.48662
# Velocity P-wave (km/s) = 3.91509 8.03712 6.32152
#
# Compressibility (1/GPa) = 0.07680844
#
# Stress axis : x y z
#
# Youngs Moduli (GPa) = 23.27700 156.22657 48.71067
#
# Poissons Ratio (x) = 1.08373 -0.80657
# Poissons Ratio (y) = 0.16147 0.30019
# Poissons Ratio (z) = -0.38543 0.96280
#
# Static dielectric constant tensor:
#      x y z
#    x 1.060780 0.000000 -0.207520 
#    y 0.000000 2.137950 0.000000 
#    z -0.207520 0.000000 1.845550 
# 
# From -- ./inp_files/5068.got.cif
#   From: 2010.05.17/outbox.cif.g08.bks.cpg/sg3_3_cif.got.tgz:5068.got - 2010.06.03 18:33:08.
