data_PCOD9112979
_publ_section_title
;
Structure prediction by ZEFSAII (Michael W. Deem and Ramdas Pophale) SiO2 
 PCOD9112979
Probable space group: P 2
;
_chemical_formula_sum "Si O2"
_cell_formula_units_Z 10
_cell_length_a 5.106851
_cell_length_b 11.684614
_cell_length_c 8.794236
_cell_angle_alpha 90.000000
_cell_angle_beta 60.375036
_cell_angle_gamma 90.000000
_cell_volume 456.168380
_symmetry_space_group_name_H-M "P 2"
_symmetry_group_IT_number 3
_symmetry_cell_setting 'monoclinic'
loop_
_space_group_symop_operation_xyz
x,y,z
-x,y,-z
loop_
_atom_site_type_symbol
_atom_site_label
_atom_site_fract_x
_atom_site_fract_y
_atom_site_fract_z
Si Si1 0.855300 0.848860 0.874320
Si Si2 0.850493 0.614209 0.709323
Si Si3 0.188143 0.100715 0.185607
Si Si4 0.582822 0.230683 0.299980
Si Si5 0.655492 0.488061 0.286212
O O1 0.929392 0.736984 0.756170
O O2 0.917599 0.969115 0.772618
O O3 0.500000 0.842764 0.000000
O O4 0.000000 0.850873 0.000000
O O5 0.505826 0.581115 0.775039
O O6 0.000000 0.607321 0.500000
O O7 0.003088 0.521188 0.775718
O O8 0.311208 0.162408 0.299893
O O9 0.500000 0.100742 0.000000
O O10 0.093770 0.168571 0.803502
O O11 0.500000 0.237036 0.500000
O O12 0.609117 0.361135 0.235786
O O13 0.500000 0.491698 0.500000
#
# Coordination Sequence:
#
# PCOD9112979 Si02
#       5
#     2   2   2   2   2
#     4  11  23  41  60  81 117 157 191 237 297 348
#     4  10  20  37  61  86 113 149 194 238 286 348
#     4  11  23  41  60  85 122 161 195 240 303 351
#     4  11  22  39  64  90 118 155 201 244 287 351
#     4   9  19  36  58  86 119 150 183 239 302 340
#
# _framework density 21.921728999999999
#
# number of rings (size 3 to 8) (size 9 to 14) (size 15 to 20)
#    0.000    1.600    0.000    6.000    0.000    4.800 
#    0.000   12.000    0.000    0.000    0.000    0.000 
#    0.000    0.000    0.000    0.000    0.000    0.000 
#
# Total GULP energy -55855.648905 kJ/mol
# GULP energy per Si atom -5585.564890 kJ/mol
# Density = 2.187183 g / cm^3
# Si number density = 21.921729 Si / 1000 Ang^3
#
#
#
# Elastic Constant Matrix: (Units=GPa)
#
#
# Indices 1 2 3 4 5 6 
#
# 1 155.7067 51.5907 16.7802 0.0000 30.0280 0.0000
# 2 51.5907 154.2636 20.8515 0.0000 33.8707 0.0000
# 3 16.7802 20.8515 26.4784 0.0000 12.8954 0.0000
# 4 0.0000 0.0000 0.0000 17.6165 0.0000 6.3020
# 5 30.0280 33.8707 12.8954 0.0000 38.9606 0.0000
# 6 0.0000 0.0000 0.0000 6.3020 0.0000 42.2654
#
#
#
# Elastic Compliance Matrix: (Units=1/GPa)
#
#
# Indices 1 2 3 4 5 6 
#
# 1 0.007921 -0.001478 -0.001798 0.000000 -0.004224 0.000000
# 2 -0.001478 0.008566 -0.003263 0.000000 -0.005227 0.000000
# 3 -0.001798 -0.003263 0.046994 0.000000 -0.011332 0.000000
# 4 0.000000 0.000000 0.000000 0.059963 0.000000 -0.008941
# 5 -0.004224 -0.005227 -0.011332 0.000000 0.037218 0.000000
# 6 0.000000 0.000000 0.000000 -0.008941 0.000000 0.024993
#
#
# Mechanical properties :
#
#
# Convention : Reuss Voigt Hill
#
# Bulk Modulus (GPa) = 19.84037 57.21039 38.52538
# Shear Modulus (GPa) = 23.19822 36.25025 29.72424
#
# Velocity S-wave (km/s) = 3.25657 4.07089 3.68628
# Velocity P-wave (km/s) = 4.81773 6.94625 5.97750
#
# Compressibility (1/GPa) = 0.05040229
#
# Stress axis : x y z
#
# Youngs Moduli (GPa) = 126.25346 116.74702 21.27918
#
# Poissons Ratio (x) = 0.17259 0.03826
# Poissons Ratio (y) = 0.18665 0.06943
# Poissons Ratio (z) = 0.22701 0.38091
#
# Static dielectric constant tensor:
#      x y z
#    x 1.755850 0.000000 -0.003490 
#    y 0.000000 1.830050 0.000000 
#    z -0.003490 0.000000 1.823470 
# 
# From -- ./inp_files/4206.got.cif
#   From: 2010.05.17/outbox.cif.g08.bks.cpg/sg3_3_cif.got.tgz:4206.got - 2010.06.03 18:33:08.
