data_PCOD9112833
_publ_section_title
;
Structure prediction by ZEFSAII (Michael W. Deem and Ramdas Pophale) SiO2 
 PCOD9112833
Probable space group: P 2
;
_chemical_formula_sum "Si O2"
_cell_formula_units_Z 15
_cell_length_a 9.866572
_cell_length_b 5.182281
_cell_length_c 18.532270
_cell_angle_alpha 90.000000
_cell_angle_beta 40.893251
_cell_angle_gamma 90.000000
_cell_volume 620.334902
_symmetry_space_group_name_H-M "P 2"
_symmetry_group_IT_number 3
_symmetry_cell_setting 'monoclinic'
loop_
_space_group_symop_operation_xyz
x,y,z
-x,y,-z
loop_
_atom_site_type_symbol
_atom_site_label
_atom_site_fract_x
_atom_site_fract_y
_atom_site_fract_z
Si Si1 0.940351 0.727850 0.864375
Si Si2 0.909482 0.153122 0.391204
Si Si3 0.000000 0.882486 0.500000
Si Si4 0.212379 0.499599 0.319030
Si Si5 0.291511 0.863704 0.904537
Si Si6 0.196524 0.223956 0.719404
Si Si7 0.682757 0.862765 0.837688
Si Si8 0.594716 0.338667 0.225493
O O1 0.740102 0.805828 0.896714
O O2 0.024495 0.449344 0.804256
O O3 0.881417 0.751016 0.971936
O O4 0.108870 0.947097 0.779333
O O5 0.760979 0.188394 0.382897
O O6 0.981957 0.432157 0.388110
O O7 0.889022 0.018804 0.476533
O O8 0.118816 0.023159 0.272030
O O9 0.819040 0.717480 0.609637
O O10 0.313681 0.588007 0.204280
O O11 0.357408 0.289772 0.297587
O O12 0.470553 0.962984 0.889103
O O13 0.355724 0.624263 0.826373
O O14 0.260950 0.121325 0.869628
O O15 0.377213 0.311585 0.700446
#
# Coordination Sequence:
#
# PCOD9112833 Si02
#       8
#     2   2   1   2   2   2   2   2
#     4  11  22  37  60  90 127 168 218 262 297 354
#     4  10  19  39  64  90 124 154 206 252 317 374
#     4  10  22  36  70 104 110 156 204 270 306 386
#     4  10  19  39  64  90 124 154 206 252 317 374
#     4  11  22  37  60  90 127 168 218 262 297 354
#     4  11  24  40  61  90 127 173 204 249 314 371
#     4   9  19  35  57  92 122 162 205 259 315 353
#     4  11  24  40  61  90 127 173 204 249 314 371
#
# _framework density 24.180485999999998
#
# number of rings (size 3 to 8) (size 9 to 14) (size 15 to 20)
#    0.000    1.600    2.667    2.400    0.000    3.200 
#    0.000    2.667    0.000    4.800    0.000    0.000 
#    0.000    0.000    0.000    0.000    0.000    0.000 
#
# Total GULP energy -83594.499386 kJ/mol
# GULP energy per Si atom -5572.966626 kJ/mol
# Density = 2.412545 g / cm^3
# Si number density = 24.180486 Si / 1000 Ang^3
#
#
#
# Elastic Constant Matrix: (Units=GPa)
#
#
# Indices 1 2 3 4 5 6 
#
# 1 158.5080 3.7646 34.3889 0.0000 46.2897 0.0000
# 2 3.7646 77.7995 19.8913 0.0000 16.8159 0.0000
# 3 34.3889 19.8913 62.6955 0.0000 39.7501 0.0000
# 4 0.0000 0.0000 0.0000 12.1497 0.0000 -1.9377
# 5 46.2897 16.8159 39.7501 0.0000 46.5454 0.0000
# 6 0.0000 0.0000 0.0000 -1.9377 0.0000 26.8563
#
#
#
# Elastic Compliance Matrix: (Units=1/GPa)
#
#
# Indices 1 2 3 4 5 6 
#
# 1 0.009130 0.001547 0.001336 0.000000 -0.010780 0.000000
# 2 0.001547 0.014414 -0.002496 0.000000 -0.004614 0.000000
# 3 0.001336 -0.002496 0.035503 0.000000 -0.030747 0.000000
# 4 0.000000 0.000000 0.000000 0.083265 0.000000 0.006008
# 5 -0.010780 -0.004614 -0.030747 0.000000 0.060130 0.000000
# 6 0.000000 0.000000 0.000000 0.006008 0.000000 0.037669
#
#
# Mechanical properties :
#
#
# Convention : Reuss Voigt Hill
#
# Bulk Modulus (GPa) = 16.71669 46.12139 31.41904
# Shear Modulus (GPa) = 19.28425 33.17415 26.22920
#
# Velocity S-wave (km/s) = 2.82709 3.70799 3.29709
# Velocity P-wave (km/s) = 4.19343 6.11943 5.24559
#
# Compressibility (1/GPa) = 0.05982047
#
# Stress axis : x y z
#
# Youngs Moduli (GPa) = 109.52496 69.37598 28.16635
#
# Poissons Ratio (x) = -0.10730 -0.03762
# Poissons Ratio (y) = -0.16940 0.07031
# Poissons Ratio (z) = -0.14630 0.17317
#
# Static dielectric constant tensor:
#      x y z
#    x 2.010740 0.000000 -0.066140 
#    y 0.000000 1.969840 0.000000 
#    z -0.066140 0.000000 2.051870 
# 
# From -- ./inp_files/8294.got.cif
#   From: 2010.05.17/outbox.cif.g08.bks.cpg/sg3_5_cif.got.tgz:8294.got - 2010.06.03 18:33:08.
