data_PCOD9112416
_publ_section_title
;
Structure prediction by ZEFSAII (Michael W. Deem and Ramdas Pophale) SiO2 
 PCOD9112416
Probable space group: P -1
;
_chemical_formula_sum "Si O2"
_cell_formula_units_Z 16
_cell_length_a 10.500231
_cell_length_b 5.346204
_cell_length_c 16.997663
_cell_angle_alpha 124.288714
_cell_angle_beta 113.676475
_cell_angle_gamma 65.895793
_cell_volume 700.764318
_symmetry_space_group_name_H-M "P -1"
_symmetry_group_IT_number 2
_symmetry_cell_setting 'triclinic'
loop_
_space_group_symop_operation_xyz
x,y,z
-x,-y,-z
loop_
_atom_site_type_symbol
_atom_site_label
_atom_site_fract_x
_atom_site_fract_y
_atom_site_fract_z
Si Si1 0.149902 0.807947 0.533036
Si Si2 0.729124 0.694042 0.413619
Si Si3 0.344498 0.798506 0.785476
Si Si4 0.373798 0.408842 0.402641
Si Si5 0.384286 0.471607 0.901304
Si Si6 0.951268 0.271231 0.099382
Si Si7 0.993871 0.949618 0.218395
Si Si8 0.710179 0.091948 0.635787
O O1 0.234371 0.085895 0.607136
O O2 0.147261 0.581438 0.564998
O O3 0.229393 0.580348 0.444070
O O4 0.000000 0.000000 0.500000
O O5 0.629380 0.482549 0.319797
O O6 0.681652 0.920050 0.516528
O O7 0.402261 0.655334 0.858607
O O8 0.394460 0.103774 0.827149
O O9 0.169802 0.906939 0.769737
O O10 0.500000 0.500000 0.500000
O O11 0.375506 0.049899 0.345692
O O12 0.350506 0.549536 0.335989
O O13 0.221722 0.621586 0.917275
O O14 0.500000 0.500000 0.000000
O O15 0.003967 0.580893 0.145666
O O16 0.009352 0.129855 0.173575
O O17 0.000000 0.000000 0.000000
O O18 0.122408 0.975433 0.313265
#
# Coordination Sequence:
#
# PCOD9112416 Si02
#       8
#     2   2   2   2   2   2   2   2
#     4  10  21  32  53  80 105 152 199 227 270 323
#     4  10  21  34  53  86 123 153 190 232 286 322
#     4  10  21  34  59  90 120 152 190 241 286 347
#     4  10  21  36  55  74 109 160 199 229 278 329
#     4  10  21  40  63  88 115 152 190 239 300 354
#     4  10  21  40  65  86 118 147 187 252 298 340
#     4  10  21  35  59  94 114 147 202 235 288 347
#     4  10  21  36  59  84 117 162 196 233 277 345
#
# _framework density 22.832212999999999
#
# number of rings (size 3 to 8) (size 9 to 14) (size 15 to 20)
#    0.000    2.000    0.000    3.000    7.000    0.000 
#    0.000    0.000   33.000    0.000    0.000    0.000 
#    0.000    0.000    0.000    0.000    0.000    0.000 
#
# Total GULP energy -89336.258946 kJ/mol
# GULP energy per Si atom -5583.516184 kJ/mol
# Density = 2.278025 g / cm^3
# Si number density = 22.832213 Si / 1000 Ang^3
#
#
#
# Elastic Constant Matrix: (Units=GPa)
#
#
# Indices 1 2 3 4 5 6 
#
# 1 31.8185 27.6406 17.9872 -5.6882 18.0994 -3.8483
# 2 27.6406 173.9258 37.9168 -5.4935 11.7815 22.3860
# 3 17.9872 37.9168 98.1266 -2.3823 11.6220 -9.9893
# 4 -5.6882 -5.4935 -2.3823 41.5399 -2.4213 6.4240
# 5 18.0994 11.7815 11.6220 -2.4213 22.0792 3.7003
# 6 -3.8483 22.3860 -9.9893 6.4240 3.7003 39.0146
#
#
#
# Elastic Compliance Matrix: (Units=1/GPa)
#
#
# Indices 1 2 3 4 5 6 
#
# 1 0.078774 -0.010446 -0.001169 0.002862 -0.061222 0.018800
# 2 -0.010446 0.008596 -0.002971 0.001110 0.006929 -0.007563
# 3 -0.001169 -0.002971 0.012701 -0.000975 -0.005169 0.005492
# 4 0.002862 0.001110 -0.000975 0.025382 0.001179 -0.004895
# 5 -0.061222 0.006929 -0.005169 0.001179 0.098124 -0.020839
# 6 0.018800 -0.007563 0.005492 -0.004895 -0.020839 0.036014
#
#
# Mechanical properties :
#
#
# Convention : Reuss Voigt Hill
#
# Bulk Modulus (GPa) = 14.10437 52.32890 33.21663
# Shear Modulus (GPa) = 16.00535 35.21516 25.61025
#
# Velocity S-wave (km/s) = 2.65051 3.93153 3.35277
# Velocity P-wave (km/s) = 3.94433 6.60136 5.43763
#
# Compressibility (1/GPa) = 0.07090000
#
# Stress axis : x y z
#
# Youngs Moduli (GPa) = 12.69452 116.32670 78.73587
#
# Poissons Ratio (x) = 1.21518 0.09203
# Poissons Ratio (y) = 0.13261 0.23389
# Poissons Ratio (z) = 0.01484 0.34556
#
# Static dielectric constant tensor:
#      x y z
#    x 1.948680 0.071940 -0.002230 
#    y 0.071940 2.162770 -0.086080 
#    z -0.002230 -0.086080 1.864490 
# 
# From -- ./inp_files/94453.got.cif
#   From: 2010.05.17/outbox.cif.g08.bks.cpg/sg2_48_cif.got.tgz:94453.got - 2010.06.03 11:33:40.
