data_PCOD9112577
_publ_section_title
;
Structure prediction by ZEFSAII (Michael W. Deem and Ramdas Pophale) SiO2 
 PCOD9112577
Probable space group: P 2
;
_chemical_formula_sum "Si O2"
_cell_formula_units_Z 15
_cell_length_a 17.923053
_cell_length_b 7.698978
_cell_length_c 12.280348
_cell_angle_alpha 90.000000
_cell_angle_beta 151.527945
_cell_angle_gamma 90.000000
_cell_volume 807.845469
_symmetry_space_group_name_H-M "P 2"
_symmetry_group_IT_number 3
_symmetry_cell_setting 'monoclinic'
loop_
_space_group_symop_operation_xyz
x,y,z
-x,y,-z
loop_
_atom_site_type_symbol
_atom_site_label
_atom_site_fract_x
_atom_site_fract_y
_atom_site_fract_z
Si Si1 0.161253 0.655290 0.984081
Si Si2 0.386196 0.617637 0.453224
Si Si3 0.279486 0.994990 0.003755
Si Si4 0.166888 0.705320 0.535836
Si Si5 0.375387 0.452854 0.921763
Si Si6 0.545669 0.794807 0.235684
Si Si7 0.631097 0.352021 0.846947
Si Si8 0.000000 0.940938 0.500000
O O1 0.235023 0.826097 0.019437
O O2 0.976951 0.668819 0.729271
O O3 0.218467 0.627079 0.180931
O O4 0.238470 0.490290 0.022562
O O5 0.500000 0.676012 0.500000
O O6 0.393111 0.736323 0.567538
O O7 0.466643 0.435333 0.594912
O O8 0.123085 0.039290 0.734343
O O9 0.419701 0.942301 0.101175
O O10 0.334282 0.157591 0.145910
O O11 0.230014 0.523114 0.665714
O O12 0.306788 0.809237 0.655256
O O13 0.100906 0.817403 0.550688
O O14 0.500000 0.369783 0.000000
O O15 0.450319 0.632885 0.063146
O O16 0.355952 0.344834 0.005652
#
# Coordination Sequence:
#
# PCOD9112577 Si02
#       8
#     2   2   2   2   2   2   2   1
#     4  10  20  38  56  84 113 145 193 242 283 346
#     4   9  17  37  56  80 111 137 196 237 275 343
#     4  11  20  35  59  84 118 151 192 239 290 344
#     4  10  19  32  62  81 115 156 185 237 292 340
#     4   9  16  32  52  79 111 141 185 227 275 338
#     4  10  18  34  57  85 108 150 192 232 285 343
#     4  10  20  35  56  84 110 149 193 235 286 346
#     4  10  20  34  50  88 120 146 190 234 278 358
#
# _framework density 18.567907000000002
#
# number of rings (size 3 to 8) (size 9 to 14) (size 15 to 20)
#    0.000    2.133    5.333    0.800    0.000    1.600 
#    9.600    0.000    8.800    0.000    0.000    0.000 
#    0.000    0.000    0.000    0.000    0.000    0.000 
#
# Total GULP energy -83520.407096 kJ/mol
# GULP energy per Si atom -5568.027140 kJ/mol
# Density = 1.852565 g / cm^3
# Si number density = 18.567907 Si / 1000 Ang^3
#
#
#
# Elastic Constant Matrix: (Units=GPa)
#
#
# Indices 1 2 3 4 5 6 
#
# 1 74.9741 17.6875 17.3416 0.0000 -2.2641 0.0000
# 2 17.6875 60.5585 15.0544 0.0000 8.9486 0.0000
# 3 17.3416 15.0544 126.1096 0.0000 -2.6874 0.0000
# 4 0.0000 0.0000 0.0000 14.5307 0.0000 1.9267
# 5 -2.2641 8.9486 -2.6874 0.0000 29.1859 0.0000
# 6 0.0000 0.0000 0.0000 1.9267 0.0000 1.9261
#
#
#
# Elastic Compliance Matrix: (Units=1/GPa)
#
#
# Indices 1 2 3 4 5 6 
#
# 1 0.014760 -0.004290 -0.001468 0.000000 0.002325 0.000000
# 2 -0.004290 0.019164 -0.001834 0.000000 -0.006377 0.000000
# 3 -0.001468 -0.001834 0.008376 0.000000 0.001220 0.000000
# 4 0.000000 0.000000 0.000000 0.079344 0.000000 -0.079369
# 5 0.002325 -0.006377 0.001220 0.000000 0.036511 0.000000
# 6 0.000000 0.000000 0.000000 -0.079369 0.000000 0.598587
#
#
# Mechanical properties :
#
#
# Convention : Reuss Voigt Hill
#
# Bulk Modulus (GPa) = 36.87657 40.20103 38.53880
# Shear Modulus (GPa) = 6.40234 23.23244 14.81739
#
# Velocity S-wave (km/s) = 1.85891 3.54109 2.82797
# Velocity P-wave (km/s) = 4.95085 6.19814 5.60927
#
# Compressibility (1/GPa) = 0.02711749
#
# Stress axis : x y z
#
# Youngs Moduli (GPa) = 67.75214 52.18097 119.38338
#
# Poissons Ratio (x) = 0.22383 0.17526
# Poissons Ratio (y) = 0.29063 0.21892
# Poissons Ratio (z) = 0.09946 0.09569
#
# Static dielectric constant tensor:
#      x y z
#    x 1.663370 0.000000 -0.006680 
#    y 0.000000 1.648150 0.000000 
#    z -0.006680 0.000000 1.700110 
# 
# From -- ./inp_files/9065.got.cif
#   From: 2010.05.17/outbox.cif.g08.bks.cpg/sg3_5_cif.got.tgz:9065.got - 2010.06.03 18:33:08.
