data_PCOD9112123
_publ_section_title
;
Structure prediction by ZEFSAII (Michael W. Deem and Ramdas Pophale) SiO2 
 PCOD9112123
Probable space group: P -1
;
_chemical_formula_sum "Si O2"
_cell_formula_units_Z 15
_cell_length_a 13.893503
_cell_length_b 22.511446
_cell_length_c 6.313689
_cell_angle_alpha 77.999203
_cell_angle_beta 89.120976
_cell_angle_gamma 158.129900
_cell_volume 590.329362
_symmetry_space_group_name_H-M "P -1"
_symmetry_group_IT_number 2
_symmetry_cell_setting 'triclinic'
loop_
_space_group_symop_operation_xyz
x,y,z
-x,-y,-z
loop_
_atom_site_type_symbol
_atom_site_label
_atom_site_fract_x
_atom_site_fract_y
_atom_site_fract_z
Si Si1 0.819650 0.338573 0.748049
Si Si2 0.428333 0.640563 0.650490
Si Si3 0.816393 0.607764 0.873882
Si Si4 0.845928 0.725494 0.467361
Si Si5 0.567246 0.659491 0.244234
Si Si6 0.306600 0.939695 0.952417
Si Si7 0.000000 0.000000 0.000000
Si Si8 0.635498 0.868998 0.784758
O O1 0.547347 0.140644 0.772393
O O2 0.000000 0.500000 0.500000
O O3 0.078058 0.444819 0.730047
O O4 0.661186 0.272028 0.011105
O O5 0.636313 0.754545 0.348334
O O6 0.545369 0.767452 0.683218
O O7 0.397762 0.557926 0.831954
O O8 0.761502 0.531135 0.724880
O O9 0.710172 0.604186 0.754906
O O10 0.131892 0.813362 0.836894
O O11 0.620198 0.630868 0.397874
O O12 0.094645 0.920069 0.425340
O O13 0.049658 0.807319 0.233460
O O14 0.862602 0.856672 0.952651
O O15 0.500000 0.000000 0.000000
O O16 0.230515 0.090274 0.058912
#
# Coordination Sequence:
#
# PCOD9112123 Si02
#       8
#     2   2   2   2   2   2   1   2
#     4  11  25  45  72 100 141 175 234 290 337 407
#     4  12  25  44  73 101 138 182 234 278 352 410
#     4  12  25  46  72  99 142 183 228 283 352 405
#     4  10  26  45  69 102 143 175 234 288 338 416
#     4  11  25  46  70 105 139 179 234 287 342 416
#     4  11  25  48  67 103 136 183 233 279 345 419
#     4  10  20  44  70  96 136 174 222 280 342 398
#     4  10  23  46  67 106 137 177 230 286 340 411
#
# _framework density 25.409545000000001
#
# number of rings (size 3 to 8) (size 9 to 14) (size 15 to 20)
#    0.000    1.067    2.667    2.400    1.867    4.800 
#    2.400    0.000    0.000    0.000    0.000    0.000 
#    0.000    0.000    0.000    0.000    0.000    0.000 
#
# Total GULP energy -83650.865644 kJ/mol
# GULP energy per Si atom -5576.724376 kJ/mol
# Density = 2.535171 g / cm^3
# Si number density = 25.409545 Si / 1000 Ang^3
#
#
#
# Elastic Constant Matrix: (Units=GPa)
#
#
# Indices 1 2 3 4 5 6 
#
# 1 100.4898 51.2766 61.8899 12.1645 1.1797 -4.0623
# 2 51.2766 229.6734 54.2869 20.0764 -6.0894 -20.8398
# 3 61.8899 54.2869 103.1448 -13.6848 13.5854 -1.6698
# 4 12.1645 20.0764 -13.6848 29.2698 -2.1164 4.2540
# 5 1.1797 -6.0894 13.5854 -2.1164 44.4258 -11.5834
# 6 -4.0623 -20.8398 -1.6698 4.2540 -11.5834 48.4144
#
#
#
# Elastic Compliance Matrix: (Units=1/GPa)
#
#
# Indices 1 2 3 4 5 6 
#
# 1 0.022058 0.001206 -0.016877 -0.018187 0.005074 0.004600
# 2 0.001206 0.006588 -0.005624 -0.008027 0.003314 0.004241
# 3 -0.016877 -0.005624 0.027068 0.023903 -0.009349 -0.007241
# 4 -0.018187 -0.008027 0.023903 0.059466 -0.008042 -0.011306
# 5 0.005074 0.003314 -0.009349 -0.008042 0.027610 0.008842
# 6 0.004600 0.004241 -0.007241 -0.011306 0.008842 0.025726
#
#
# Mechanical properties :
#
#
# Convention : Reuss Voigt Hill
#
# Bulk Modulus (GPa) = 76.19717 85.35721 80.77719
# Shear Modulus (GPa) = 23.20385 42.14563 32.67474
#
# Velocity S-wave (km/s) = 3.02519 4.07708 3.58987
# Velocity P-wave (km/s) = 6.50039 7.47187 7.00300
#
# Compressibility (1/GPa) = 0.01312385
#
# Stress axis : x y z
#
# Youngs Moduli (GPa) = 45.33500 151.78057 36.94465
#
# Poissons Ratio (x) = -0.18307 0.62352
# Poissons Ratio (y) = -0.05468 0.20778
# Poissons Ratio (z) = 0.76512 0.85364
#
# Static dielectric constant tensor:
#      x y z
#    x 2.117740 -0.149080 0.033950 
#    y -0.149080 2.146010 -0.052070 
#    z 0.033950 -0.052070 2.105340 
# 
# From -- ./inp_files/101088.got.cif
#   From: 2010.05.17/outbox.cif.g08.bks.cpg/sg2_51_cif.got.tgz:101088.got - 2010.06.03 11:33:40.
