data_PCOD9112178
_publ_section_title
;
Structure prediction by ZEFSAII (Michael W. Deem and Ramdas Pophale) SiO2 
 PCOD9112178
Probable space group: P -1
;
_chemical_formula_sum "Si O2"
_cell_formula_units_Z 15
_cell_length_a 9.092267
_cell_length_b 9.004694
_cell_length_c 11.653709
_cell_angle_alpha 114.958828
_cell_angle_beta 86.327186
_cell_angle_gamma 132.569159
_cell_volume 601.013319
_symmetry_space_group_name_H-M "P -1"
_symmetry_group_IT_number 2
_symmetry_cell_setting 'triclinic'
loop_
_space_group_symop_operation_xyz
x,y,z
-x,-y,-z
loop_
_atom_site_type_symbol
_atom_site_label
_atom_site_fract_x
_atom_site_fract_y
_atom_site_fract_z
Si Si1 0.485580 0.348059 0.181887
Si Si2 0.497952 0.031130 0.731965
Si Si3 0.956073 0.242676 0.305388
Si Si4 0.229669 0.442285 0.164114
Si Si5 0.134616 0.212645 0.850734
Si Si6 0.500000 0.000000 0.000000
Si Si7 0.805190 0.018899 0.616513
Si Si8 0.206842 0.370473 0.547738
O O1 0.307809 0.344096 0.197251
O O2 0.665511 0.573219 0.165650
O O3 0.603506 0.405376 0.314396
O O4 0.422349 0.129728 0.054653
O O5 0.587883 0.279820 0.770313
O O6 0.619390 0.998207 0.635557
O O7 0.246097 0.821692 0.661969
O O8 0.540048 0.051203 0.873181
O O9 0.038791 0.371200 0.221054
O O10 0.147676 0.392209 0.434432
O O11 0.877911 0.992986 0.212002
O O12 0.155757 0.313267 0.004686
O O13 0.928759 0.110737 0.761097
O O14 0.986418 0.209031 0.577097
O O15 0.740939 0.781718 0.513443
#
# Coordination Sequence:
#
# PCOD9112178 Si02
#       8
#     2   2   2   2   2   1   2   2
#     4  11  23  47  78 106 148 200 244 311 370 444
#     4  12  27  47  72 114 151 195 242 318 370 433
#     4  11  25  44  73 110 150 197 253 296 363 456
#     4  12  25  44  75 108 153 200 243 304 382 432
#     4  10  20  44  73 106 143 196 253 298 369 448
#     4  12  28  44  74 114 150 182 256 304 372 446
#     4   9  22  42  76 104 146 194 246 309 363 433
#     4   9  22  49  73 107 144 202 255 290 368 458
#
# _framework density 24.957850000000001
#
# number of rings (size 3 to 8) (size 9 to 14) (size 15 to 20)
#    0.000    1.333    2.667    2.400    5.600    3.733 
#    0.000    1.333    0.000    0.000    0.000    0.000 
#    0.000    0.000    0.000    0.000    0.000    0.000 
#
# Total GULP energy -83856.511743 kJ/mol
# GULP energy per Si atom -5590.434116 kJ/mol
# Density = 2.490105 g / cm^3
# Si number density = 24.957850 Si / 1000 Ang^3
#
#
#
# Elastic Constant Matrix: (Units=GPa)
#
#
# Indices 1 2 3 4 5 6 
#
# 1 117.0130 23.6494 47.0791 1.1671 -37.6464 14.2072
# 2 23.6494 67.5409 18.4343 -0.9487 -12.5886 -3.9049
# 3 47.0791 18.4343 120.4418 -12.2596 -22.4116 9.8012
# 4 1.1671 -0.9487 -12.2596 28.9094 -4.5229 -2.0267
# 5 -37.6464 -12.5886 -22.4116 -4.5229 37.3280 -4.1659
# 6 14.2072 -3.9049 9.8012 -2.0267 -4.1659 28.7672
#
#
#
# Elastic Compliance Matrix: (Units=1/GPa)
#
#
# Indices 1 2 3 4 5 6 
#
# 1 0.014453 -0.002449 -0.002778 -0.000387 0.011490 -0.004887
# 2 -0.002449 0.016860 -0.001336 0.000870 0.003016 0.004451
# 3 -0.002778 -0.001336 0.010956 0.005190 0.003773 -0.001630
# 4 -0.000387 0.000870 0.005190 0.038242 0.007919 0.002382
# 5 0.011490 0.003016 0.003773 0.007919 0.042639 0.000182
# 6 -0.004887 0.004451 -0.001630 0.002382 0.000182 0.038529
#
#
# Mechanical properties :
#
#
# Convention : Reuss Voigt Hill
#
# Bulk Modulus (GPa) = 34.31367 53.70238 44.00802
# Shear Modulus (GPa) = 27.09759 33.38977 30.24368
#
# Velocity S-wave (km/s) = 3.29862 3.66163 3.48485
# Velocity P-wave (km/s) = 5.31849 6.28018 5.81924
#
# Compressibility (1/GPa) = 0.02914290
#
# Stress axis : x y z
#
# Youngs Moduli (GPa) = 69.19213 59.31348 91.27283
#
# Poissons Ratio (x) = 0.14524 0.25358
# Poissons Ratio (y) = 0.16943 0.12191
# Poissons Ratio (z) = 0.19223 0.07922
#
# Static dielectric constant tensor:
#      x y z
#    x 1.978280 0.008440 0.011490 
#    y 0.008440 1.929430 -0.027780 
#    z 0.011490 -0.027780 1.924480 
# 
# From -- ./inp_files/383233.got.cif
#   From: 2010.05.17/outbox.cif.g08.bks.cpg/sg2_192_cif.got.tgz:383233.got - 2010.06.03 11:33:40.
