data_PCOD9112891
_publ_section_title
;
Structure prediction by ZEFSAII (Michael W. Deem and Ramdas Pophale) SiO2 
 PCOD9112891
Probable space group: P 2
;
_chemical_formula_sum "Si O2"
_cell_formula_units_Z 15
_cell_length_a 11.123979
_cell_length_b 9.137396
_cell_length_c 8.999093
_cell_angle_alpha 90.000000
_cell_angle_beta 136.906430
_cell_angle_gamma 90.000000
_cell_volume 624.919404
_symmetry_space_group_name_H-M "P 2"
_symmetry_group_IT_number 3
_symmetry_cell_setting 'monoclinic'
loop_
_space_group_symop_operation_xyz
x,y,z
-x,y,-z
loop_
_atom_site_type_symbol
_atom_site_label
_atom_site_fract_x
_atom_site_fract_y
_atom_site_fract_z
Si Si1 0.786927 0.567690 0.810652
Si Si2 0.156349 0.393488 0.864399
Si Si3 0.786276 0.176430 0.304997
Si Si4 0.404696 0.858071 0.263578
Si Si5 0.243675 0.876800 0.566584
Si Si6 0.000000 0.634290 0.500000
Si Si7 0.250318 0.335181 0.437138
Si Si8 0.194767 0.061108 0.218109
O O1 0.697909 0.715995 0.778205
O O2 0.709381 0.495260 0.591179
O O3 0.748092 0.456050 0.907376
O O4 0.000000 0.587736 0.000000
O O5 0.259149 0.258861 0.886102
O O6 0.114854 0.525139 0.708452
O O7 0.962993 0.344348 0.743538
O O8 0.700836 0.275338 0.357726
O O9 0.000000 0.192027 0.500000
O O10 0.754028 0.007568 0.310793
O O11 0.500000 0.912420 0.500000
O O12 0.553601 0.832531 0.278169
O O13 0.265330 0.987047 0.129825
O O14 0.121584 0.743041 0.510099
O O15 0.183067 0.951842 0.354069
O O16 0.294057 0.204897 0.363995
O O17 0.000000 0.105419 0.000000
#
# Coordination Sequence:
#
# PCOD9112891 Si02
#       8
#     2   2   2   2   2   1   2   2
#     4  10  21  37  63  92 118 156 198 251 305 357
#     4  10  20  34  62  90 118 149 210 251 291 364
#     4   9  16  36  60  90 115 155 201 250 292 363
#     4  10  23  38  56  90 129 155 195 251 305 360
#     4  10  23  38  60  86 121 161 205 242 301 368
#     4  12  22  36  60  88 112 166 202 244 302 368
#     4   9  18  35  59  92 116 148 201 253 297 355
#     4  10  20  36  63  89 118 154 200 253 300 355
#
# _framework density 24.003094999999998
#
# number of rings (size 3 to 8) (size 9 to 14) (size 15 to 20)
#    0.000    2.133    2.667    1.600    9.333    0.000 
#    0.000    5.333    0.000    1.600    0.000    0.000 
#    0.000    0.000    0.000    0.000    0.000    0.000 
#
# Total GULP energy -83709.469072 kJ/mol
# GULP energy per Si atom -5580.631271 kJ/mol
# Density = 2.394846 g / cm^3
# Si number density = 24.003095 Si / 1000 Ang^3
#
#
#
# Elastic Constant Matrix: (Units=GPa)
#
#
# Indices 1 2 3 4 5 6 
#
# 1 113.1764 74.0942 14.5733 0.0000 -4.4040 0.0000
# 2 74.0942 135.7215 17.7480 0.0000 -18.6262 0.0000
# 3 14.5733 17.7480 15.1310 0.0000 -2.5775 0.0000
# 4 0.0000 0.0000 0.0000 15.3333 0.0000 -31.7688
# 5 -4.4040 -18.6262 -2.5775 0.0000 17.5170 0.0000
# 6 0.0000 0.0000 0.0000 -31.7688 0.0000 -10.5198
#
#
#
# Elastic Compliance Matrix: (Units=1/GPa)
#
#
# Indices 1 2 3 4 5 6 
#
# 1 0.014577 -0.008001 -0.005621 0.000000 -0.005670 0.000000
# 2 -0.008001 0.014327 -0.007023 0.000000 0.012190 0.000000
# 3 -0.005621 -0.007023 0.080238 0.000000 0.002926 0.000000
# 4 0.000000 0.000000 0.000000 0.008987 0.000000 -0.027140
# 5 -0.005670 0.012190 0.002926 0.000000 0.069054 0.000000
# 6 0.000000 0.000000 0.000000 -0.027140 0.000000 -0.013099
#
#
# Mechanical properties :
#
#
# Convention : Reuss Voigt Hill
#
# Bulk Modulus (GPa) = 14.73752 52.98445 33.86098
# Shear Modulus (GPa) = 21.00918 14.97367 17.99143
#
# Velocity S-wave (km/s) = 2.96171 2.50035 2.74075
# Velocity P-wave (km/s) = 4.22478 5.51884 4.91459
#
# Compressibility (1/GPa) = 0.06785403
#
# Stress axis : x y z
#
# Youngs Moduli (GPa) = 68.60089 69.79688 12.46287
#
# Poissons Ratio (x) = 0.55846 0.07005
# Poissons Ratio (y) = 0.54889 0.08752
# Poissons Ratio (z) = 0.38558 0.49015
#
# Static dielectric constant tensor:
#      x y z
#    x 2.059440 0.000000 0.010310 
#    y 0.000000 1.984300 0.000000 
#    z 0.010310 0.000000 1.977830 
# 
# From -- ./inp_files/7530.got.cif
#   From: 2010.05.17/outbox.cif.g08.bks.cpg/sg3_4_cif.got.tgz:7530.got - 2010.06.03 18:33:08.
