data_PCOD9112283
_publ_section_title
;
Structure prediction by ZEFSAII (Michael W. Deem and Ramdas Pophale) SiO2 
 PCOD9112283
Probable space group: P -1
;
_chemical_formula_sum "Si O2"
_cell_formula_units_Z 12
_cell_length_a 9.804808
_cell_length_b 8.516174
_cell_length_c 10.899093
_cell_angle_alpha 59.925695
_cell_angle_beta 139.127780
_cell_angle_gamma 125.986146
_cell_volume 479.093651
_symmetry_space_group_name_H-M "P -1"
_symmetry_group_IT_number 2
_symmetry_cell_setting 'triclinic'
loop_
_space_group_symop_operation_xyz
x,y,z
-x,-y,-z
loop_
_atom_site_type_symbol
_atom_site_label
_atom_site_fract_x
_atom_site_fract_y
_atom_site_fract_z
Si Si1 0.377613 0.363298 0.357250
Si Si2 0.576253 0.875387 0.007432
Si Si3 0.734911 0.938190 0.852721
Si Si4 0.224112 0.451469 0.968728
Si Si5 0.947044 0.046859 0.586457
Si Si6 0.783100 0.261831 0.577903
O O1 0.500000 0.500000 0.500000
O O2 0.231560 0.433089 0.131152
O O3 0.586255 0.344208 0.429298
O O4 0.209936 0.160985 0.381203
O O5 0.382514 0.665589 0.957307
O O6 0.812718 0.872806 0.214641
O O7 0.629033 0.003127 0.869790
O O8 0.500000 0.000000 0.000000
O O9 0.670981 0.711150 0.928844
O O10 0.697330 0.052348 0.668563
O O11 0.000000 0.000000 0.000000
O O12 0.994019 0.390172 0.757539
O O13 0.844967 0.209124 0.503064
O O14 0.000000 0.000000 0.500000
#
# Coordination Sequence:
#
# PCOD9112283 Si02
#       6
#     2   2   2   2   2   2
#     4  12  28  48  77 113 151 198 256 312 376 454
#     4  12  27  44  75 111 149 198 247 319 377 439
#     4  10  20  45  75 101 141 192 250 297 366 452
#     4  11  24  48  76 107 152 191 262 298 375 455
#     4  12  26  49  71 112 155 190 255 315 375 453
#     4  11  25  50  81 106 149 206 247 312 385 445
#
# _framework density 25.047294999999998
#
# number of rings (size 3 to 8) (size 9 to 14) (size 15 to 20)
#    0.000    0.667    5.000    3.000    7.000    0.667 
#    0.000    3.333    0.000    0.000    0.000    0.000 
#    0.000    0.000    0.000    0.000    0.000    0.000 
#
# Total GULP energy -66949.847895 kJ/mol
# GULP energy per Si atom -5579.153991 kJ/mol
# Density = 2.499029 g / cm^3
# Si number density = 25.047295 Si / 1000 Ang^3
#
#
#
# Elastic Constant Matrix: (Units=GPa)
#
#
# Indices 1 2 3 4 5 6 
#
# 1 178.8847 56.2869 50.4707 16.0947 -19.8932 8.8786
# 2 56.2869 130.4361 51.7987 42.1516 -2.7530 17.4752
# 3 50.4707 51.7987 173.8039 39.6656 -2.5864 18.3852
# 4 16.0947 42.1516 39.6656 37.9593 -5.1807 1.5642
# 5 -19.8932 -2.7530 -2.5864 -5.1807 49.3862 -2.1688
# 6 8.8786 17.4752 18.3852 1.5642 -2.1688 27.6667
#
#
#
# Elastic Compliance Matrix: (Units=1/GPa)
#
#
# Indices 1 2 3 4 5 6 
#
# 1 0.007195 -0.003459 -0.001837 0.003070 0.002982 0.001157
# 2 -0.003459 0.015128 0.001120 -0.016507 -0.002595 -0.008459
# 3 -0.001837 0.001120 0.008679 -0.009508 -0.001460 -0.005462
# 4 0.003070 -0.016507 -0.009508 0.053586 0.006019 0.013202
# 5 0.002982 -0.002595 -0.001460 0.006019 0.021993 0.003036
# 6 0.001157 -0.008459 -0.005462 0.013202 0.003036 0.044238
#
#
# Mechanical properties :
#
#
# Convention : Reuss Voigt Hill
#
# Bulk Modulus (GPa) = 44.15287 88.91524 66.53406
# Shear Modulus (GPa) = 29.99006 44.64034 37.31520
#
# Velocity S-wave (km/s) = 3.46401 4.22624 3.86397
# Velocity P-wave (km/s) = 5.80217 7.70654 6.82115
#
# Compressibility (1/GPa) = 0.02264858
#
# Stress axis : x y z
#
# Youngs Moduli (GPa) = 138.98562 66.10348 115.21571
#
# Poissons Ratio (x) = 0.22868 0.21164
# Poissons Ratio (y) = 0.48081 -0.12898
# Poissons Ratio (z) = 0.25530 -0.07400
#
# Static dielectric constant tensor:
#      x y z
#    x 1.964870 -0.074660 0.156020 
#    y -0.074660 2.008190 -0.030750 
#    z 0.156020 -0.030750 2.148770 
# 
# From -- ./inp_files/324859.got.cif
#   From: 2010.05.17/outbox.cif.g08.bks.cpg/sg2_163_cif.got.tgz:324859.got - 2010.06.03 11:33:40.
