data_PCOD9112912
_publ_section_title
;
Structure prediction by ZEFSAII (Michael W. Deem and Ramdas Pophale) SiO2 
 PCOD9112912
Probable space group: P 2
;
_chemical_formula_sum "Si O2"
_cell_formula_units_Z 16
_cell_length_a 12.126678
_cell_length_b 7.268987
_cell_length_c 9.624497
_cell_angle_alpha 90.000000
_cell_angle_beta 76.796617
_cell_angle_gamma 90.000000
_cell_volume 825.959815
_symmetry_space_group_name_H-M "P 2"
_symmetry_group_IT_number 3
_symmetry_cell_setting 'monoclinic'
loop_
_space_group_symop_operation_xyz
x,y,z
-x,y,-z
loop_
_atom_site_type_symbol
_atom_site_label
_atom_site_fract_x
_atom_site_fract_y
_atom_site_fract_z
Si Si1 0.990671 0.835890 0.335608
Si Si2 0.223674 0.857098 0.775365
Si Si3 0.209337 0.879082 0.103906
Si Si4 0.761313 0.442603 0.888883
Si Si5 0.597311 0.161975 0.860449
Si Si6 0.741333 0.420879 0.217492
Si Si7 0.009898 0.455690 0.832324
Si Si8 0.568656 0.120986 0.341532
O O1 0.100395 0.923337 0.229696
O O2 0.988039 0.628514 0.272460
O O3 0.000000 0.840165 0.500000
O O4 0.873390 0.911213 0.306460
O O5 0.252022 0.639340 0.757192
O O6 0.336386 0.969454 0.714689
O O7 0.184536 0.893465 0.945963
O O8 0.236389 0.662946 0.123544
O O9 0.315934 0.005793 0.111424
O O10 0.673699 0.342258 0.815415
O O11 0.888987 0.365652 0.836408
O O12 0.725579 0.395742 0.056826
O O13 0.526809 0.109226 0.747532
O O14 0.500000 0.200770 0.000000
O O15 0.640700 0.311170 0.318305
O O16 0.870000 0.354183 0.214367
O O17 0.000000 0.515040 0.000000
O O18 0.500000 0.095276 0.500000
#
# Coordination Sequence:
#
# PCOD9112912 Si02
#       8
#     2   2   2   2   2   2   2   2
#     4  10  20  35  60  94 124 150 191 245 303 361
#     4  10  21  41  66  87 117 160 199 244 299 355
#     4  10  21  39  66  91 117 156 198 246 300 350
#     4   9  18  36  64  92 114 144 195 254 290 342
#     4  12  23  40  60  88 118 157 209 248 284 350
#     4   9  18  38  64  87 114 152 196 241 298 354
#     4   8  16  35  62  90 117 149 195 244 298 360
#     4  12  27  42  56  84 125 162 203 249 292 351
#
# _framework density 19.371404999999999
#
# number of rings (size 3 to 8) (size 9 to 14) (size 15 to 20)
#    0.000    2.000    2.500    2.625    1.750    3.000 
#    9.000    2.500    0.000    0.000    0.000    0.000 
#    0.000    0.000    0.000    0.000    0.000    0.000 
#
# Total GULP energy -89232.596784 kJ/mol
# GULP energy per Si atom -5577.037299 kJ/mol
# Density = 1.932731 g / cm^3
# Si number density = 19.371405 Si / 1000 Ang^3
#
#
#
# Elastic Constant Matrix: (Units=GPa)
#
#
# Indices 1 2 3 4 5 6 
#
# 1 148.8118 41.6517 50.5542 0.0000 18.5382 0.0000
# 2 41.6517 63.3512 26.6771 0.0000 4.5518 0.0000
# 3 50.5542 26.6771 97.8348 0.0000 7.0092 0.0000
# 4 0.0000 0.0000 0.0000 14.2045 0.0000 -5.0885
# 5 18.5382 4.5518 7.0092 0.0000 26.6571 0.0000
# 6 0.0000 0.0000 0.0000 -5.0885 0.0000 45.3530
#
#
#
# Elastic Compliance Matrix: (Units=1/GPa)
#
#
# Indices 1 2 3 4 5 6 
#
# 1 0.009830 -0.004643 -0.003445 0.000000 -0.005137 0.000000
# 2 -0.004643 0.020111 -0.003129 0.000000 0.000618 0.000000
# 3 -0.003445 -0.003129 0.012888 0.000000 -0.000458 0.000000
# 4 0.000000 0.000000 0.000000 0.073348 0.000000 0.008229
# 5 -0.005137 0.000618 -0.000458 0.000000 0.041101 0.000000
# 6 0.000000 0.000000 0.000000 0.008229 0.000000 0.022973
#
#
# Mechanical properties :
#
#
# Convention : Reuss Voigt Hill
#
# Bulk Modulus (GPa) = 49.03374 60.86266 54.94820
# Shear Modulus (GPa) = 23.86837 29.98392 26.92615
#
# Velocity S-wave (km/s) = 3.51400 3.93853 3.73231
# Velocity P-wave (km/s) = 6.46774 7.22286 6.85571
#
# Compressibility (1/GPa) = 0.02039412
#
# Stress axis : x y z
#
# Youngs Moduli (GPa) = 101.73102 49.72455 77.59392
#
# Poissons Ratio (x) = 0.23087 0.26734
# Poissons Ratio (y) = 0.47233 0.24278
# Poissons Ratio (z) = 0.35050 0.15558
#
# Static dielectric constant tensor:
#      x y z
#    x 1.680500 0.000000 -0.003410 
#    y 0.000000 1.722420 0.000000 
#    z -0.003410 0.000000 1.618180 
# 
# From -- ./inp_files/7172.got.cif
#   From: 2010.05.17/outbox.cif.g08.bks.cpg/sg3_4_cif.got.tgz:7172.got - 2010.06.03 18:33:08.
