data_PCOD9112797
_publ_section_title
;
Structure prediction by ZEFSAII (Michael W. Deem and Ramdas Pophale) SiO2 
 PCOD9112797
Probable space group: P 2
;
_chemical_formula_sum "Si O2"
_cell_formula_units_Z 14
_cell_length_a 14.009961
_cell_length_b 12.125459
_cell_length_c 11.478111
_cell_angle_alpha 90.000000
_cell_angle_beta 20.730681
_cell_angle_gamma 90.000000
_cell_volume 690.206419
_symmetry_space_group_name_H-M "P 2"
_symmetry_group_IT_number 3
_symmetry_cell_setting 'monoclinic'
loop_
_space_group_symop_operation_xyz
x,y,z
-x,y,-z
loop_
_atom_site_type_symbol
_atom_site_label
_atom_site_fract_x
_atom_site_fract_y
_atom_site_fract_z
Si Si1 0.264297 0.254090 0.868468
Si Si2 0.697791 0.132289 0.510101
Si Si3 0.631016 0.804283 0.743434
Si Si4 0.804102 0.490734 0.112128
Si Si5 0.082643 0.739216 0.042335
Si Si6 0.896744 0.028560 0.494263
Si Si7 0.385442 0.927733 0.815567
O O1 0.500000 0.246032 0.500000
O O2 0.445076 0.209947 0.768358
O O3 0.163345 0.379866 0.999889
O O4 0.989502 0.187317 0.151003
O O5 0.696889 0.104167 0.648727
O O6 0.635415 0.013237 0.517198
O O7 0.423432 0.856915 0.889380
O O8 0.845389 0.755181 0.407884
O O9 0.769860 0.907491 0.650056
O O10 0.500000 0.737073 0.000000
O O11 0.500000 0.483435 0.500000
O O12 0.826288 0.614076 0.038128
O O13 0.000000 0.481752 0.000000
O O14 0.294407 0.837307 0.826155
O O15 0.000000 0.745996 0.000000
O O16 0.000000 0.068600 0.500000
O O17 0.137750 0.007157 0.127811
#
# Coordination Sequence:
#
# PCOD9112797 Si02
#       7
#     2   2   2   2   2   2   2
#     4  11  22  42  63  89 125 169 220 267 317 394
#     4  11  22  39  60  96 124 162 215 266 328 383
#     4  10  20  36  64  93 131 181 224 264 311 400
#     4  10  22  42  68  90 120 172 226 268 320 393
#     4  10  24  40  62 101 138 172 219 276 339 391
#     4  10  19  37  61  88 126 168 220 264 313 391
#     4  10  21  39  61  93 132 174 210 264 331 399
#
# _framework density 20.283787
#
# number of rings (size 3 to 8) (size 9 to 14) (size 15 to 20)
#    0.000    1.714    2.857    2.143    4.000    0.000 
#    7.714    0.000    0.000    0.000    7.429    0.000 
#    0.000    0.000    0.000    0.000    0.000    0.000 
#
# Total GULP energy -77963.703502 kJ/mol
# GULP energy per Si atom -5568.835964 kJ/mol
# Density = 2.023762 g / cm^3
# Si number density = 20.283787 Si / 1000 Ang^3
#
#
#
# Elastic Constant Matrix: (Units=GPa)
#
#
# Indices 1 2 3 4 5 6 
#
# 1 107.9854 75.2552 33.2779 0.0000 -15.7138 0.0000
# 2 75.2552 137.7471 44.8068 0.0000 -7.7064 0.0000
# 3 33.2779 44.8068 105.4564 0.0000 -6.9582 0.0000
# 4 0.0000 0.0000 0.0000 23.2958 0.0000 -28.3931
# 5 -15.7138 -7.7064 -6.9582 0.0000 36.4310 0.0000
# 6 0.0000 0.0000 0.0000 -28.3931 0.0000 79.3011
#
#
#
# Elastic Compliance Matrix: (Units=1/GPa)
#
#
# Indices 1 2 3 4 5 6 
#
# 1 0.015976 -0.008027 -0.001305 0.000000 0.004944 0.000000
# 2 -0.008027 0.012502 -0.002869 0.000000 -0.001366 0.000000
# 3 -0.001305 -0.002869 0.011177 0.000000 0.000965 0.000000
# 4 0.000000 0.000000 0.000000 0.076162 0.000000 0.027269
# 5 0.004944 -0.001366 0.000965 0.000000 0.029477 0.000000
# 6 0.000000 0.000000 0.000000 0.027269 0.000000 0.022374
#
#
# Mechanical properties :
#
#
# Convention : Reuss Voigt Hill
#
# Bulk Modulus (GPa) = 65.55873 73.09653 69.32763
# Shear Modulus (GPa) = 25.36086 40.99552 33.17819
#
# Velocity S-wave (km/s) = 3.53980 4.50054 4.04877
# Velocity P-wave (km/s) = 7.00698 7.94491 7.49064
#
# Compressibility (1/GPa) = 0.01525350
#
# Stress axis : x y z
#
# Youngs Moduli (GPa) = 62.59303 79.98688 89.47018
#
# Poissons Ratio (x) = 0.64208 0.11672
# Poissons Ratio (y) = 0.50245 0.25668
# Poissons Ratio (z) = 0.08166 0.22948
#
# Static dielectric constant tensor:
#      x y z
#    x 1.764930 0.000000 0.013150 
#    y 0.000000 1.784330 0.000000 
#    z 0.013150 0.000000 1.904720 
# 
# From -- ./inp_files/12253.got.cif
#   From: 2010.05.17/outbox.cif.g08.bks.cpg/sg3_7_cif.got.tgz:12253.got - 2010.06.03 18:33:08.
