data_PCOD9112990
_publ_section_title
;
Structure prediction by ZEFSAII (Michael W. Deem and Ramdas Pophale) SiO2 
 PCOD9112990
Probable space group: P 2
;
_chemical_formula_sum "Si O2"
_cell_formula_units_Z 16
_cell_length_a 8.437142
_cell_length_b 11.570525
_cell_length_c 8.361323
_cell_angle_alpha 90.000000
_cell_angle_beta 76.400131
_cell_angle_gamma 90.000000
_cell_volume 793.364026
_symmetry_space_group_name_H-M "P 2"
_symmetry_group_IT_number 3
_symmetry_cell_setting 'monoclinic'
loop_
_space_group_symop_operation_xyz
x,y,z
-x,y,-z
loop_
_atom_site_type_symbol
_atom_site_label
_atom_site_fract_x
_atom_site_fract_y
_atom_site_fract_z
Si Si1 0.842976 0.795110 0.646510
Si Si2 0.698792 0.400486 0.956482
Si Si3 0.002088 0.962636 0.181698
Si Si4 0.685853 0.970114 0.448599
Si Si5 0.691313 0.551414 0.645920
Si Si6 0.114667 0.213744 0.248747
Si Si7 0.326531 0.465610 0.689549
Si Si8 0.751617 0.238765 0.435609
O O1 0.900953 0.846091 0.801008
O O2 0.762815 0.906203 0.581769
O O3 0.731647 0.683551 0.672847
O O4 0.000000 0.766660 0.500000
O O5 0.744317 0.476175 0.788135
O O6 0.790399 0.277558 0.915797
O O7 0.500000 0.386927 0.000000
O O8 0.747154 0.458966 0.114437
O O9 0.816807 0.939052 0.281363
O O10 0.083150 0.075746 0.246105
O O11 0.000000 0.993659 0.000000
O O12 0.500000 0.931571 0.500000
O O13 0.689883 0.108592 0.435697
O O14 0.498074 0.529989 0.673077
O O15 0.758505 0.516779 0.451684
O O16 0.216452 0.248375 0.382683
O O17 0.930109 0.256951 0.314876
O O18 0.355777 0.332861 0.628905
#
# Coordination Sequence:
#
# PCOD9112990 Si02
#       8
#     2   2   2   2   2   2   2   2
#     4  10  22  45  68  88 127 177 222 275 325 390
#     4  10  22  39  59  92 131 164 212 274 323 382
#     4  10  22  44  64  97 134 172 217 278 335 404
#     4  10  22  38  66  96 126 170 223 266 333 403
#     4  10  22  41  61  85 128 172 219 270 321 375
#     4  10  20  37  62  91 131 171 210 264 333 400
#     4  10  22  38  62  91 124 171 214 265 327 391
#     4  10  20  37  63  89 130 173 208 264 332 400
#
# _framework density 20.167286000000001
#
# number of rings (size 3 to 8) (size 9 to 14) (size 15 to 20)
#    0.000    2.000    2.500    0.000    7.000    1.000 
#    4.500    1.875    0.000    0.000    0.000    0.000 
#    0.000    0.000    0.000    0.000    0.000    0.000 
#
# Total GULP energy -89082.390265 kJ/mol
# GULP energy per Si atom -5567.649392 kJ/mol
# Density = 2.012138 g / cm^3
# Si number density = 20.167286 Si / 1000 Ang^3
#
#
#
# Elastic Constant Matrix: (Units=GPa)
#
#
# Indices 1 2 3 4 5 6 
#
# 1 56.8435 33.9160 36.8838 0.0000 -0.2214 0.0000
# 2 33.9160 94.3700 27.7666 0.0000 3.8109 0.0000
# 3 36.8838 27.7666 102.3272 0.0000 9.4997 0.0000
# 4 0.0000 0.0000 0.0000 34.6066 0.0000 -47.6367
# 5 -0.2214 3.8109 9.4997 0.0000 14.5260 0.0000
# 6 0.0000 0.0000 0.0000 -47.6367 0.0000 110.7907
#
#
#
# Elastic Compliance Matrix: (Units=1/GPa)
#
#
# Indices 1 2 3 4 5 6 
#
# 1 0.027932 -0.007806 -0.008708 0.000000 0.008169 0.000000
# 2 -0.007806 0.013712 -0.000598 0.000000 -0.003325 0.000000
# 3 -0.008708 -0.000598 0.013917 0.000000 -0.009077 0.000000
# 4 0.000000 0.000000 0.000000 0.070801 0.000000 0.030442
# 5 0.008169 -0.003325 -0.009077 0.000000 0.075775 0.000000
# 6 0.000000 0.000000 0.000000 0.030442 0.000000 0.022115
#
#
# Mechanical properties :
#
#
# Convention : Reuss Voigt Hill
#
# Bulk Modulus (GPa) = 46.87092 50.07485 48.47289
# Shear Modulus (GPa) = 18.82603 42.31626 30.57114
#
# Velocity S-wave (km/s) = 3.05863 4.58565 3.89765
# Velocity P-wave (km/s) = 5.98039 7.27470 6.65907
#
# Compressibility (1/GPa) = 0.02133519
#
# Stress axis : x y z
#
# Youngs Moduli (GPa) = 35.80108 72.92628 71.85709
#
# Poissons Ratio (x) = 0.56928 0.62575
# Poissons Ratio (y) = 0.27947 0.04300
# Poissons Ratio (z) = 0.31176 0.04364
#
# Static dielectric constant tensor:
#      x y z
#    x 1.598210 0.000000 0.041440 
#    y 0.000000 1.710700 0.000000 
#    z 0.041440 0.000000 1.741820 
# 
# From -- ./inp_files/5759.got.cif
#   From: 2010.05.17/outbox.cif.g08.bks.cpg/sg3_3_cif.got.tgz:5759.got - 2010.06.03 18:33:08.
