data_PCOD9112459
_publ_section_title
;
Structure prediction by ZEFSAII (Michael W. Deem and Ramdas Pophale) SiO2 
 PCOD9112459
Probable space group: P 2
;
_chemical_formula_sum "Si O2"
_cell_formula_units_Z 14
_cell_length_a 8.734993
_cell_length_b 16.383917
_cell_length_c 7.042216
_cell_angle_alpha 90.000000
_cell_angle_beta 36.272610
_cell_angle_gamma 90.000000
_cell_volume 596.263527
_symmetry_space_group_name_H-M "P 2"
_symmetry_group_IT_number 3
_symmetry_cell_setting 'monoclinic'
loop_
_space_group_symop_operation_xyz
x,y,z
-x,y,-z
loop_
_atom_site_type_symbol
_atom_site_label
_atom_site_fract_x
_atom_site_fract_y
_atom_site_fract_z
Si Si1 0.057753 0.441790 0.723147
Si Si2 0.249998 0.196388 0.882891
Si Si3 0.555416 0.365795 0.216309
Si Si4 0.055409 0.026983 0.172865
Si Si5 0.249242 0.607286 0.385483
Si Si6 0.557748 0.950986 0.661353
Si Si7 0.749245 0.785491 0.616030
O O1 0.268003 0.379849 0.427119
O O2 0.194514 0.529517 0.570919
O O3 0.000000 0.423371 0.000000
O O4 0.768177 0.431172 0.933297
O O5 0.500000 0.177690 0.500000
O O6 0.326788 0.276210 0.923836
O O7 0.000000 0.215087 0.000000
O O8 0.173205 0.116567 0.077421
O O9 0.500000 0.374142 0.500000
O O10 0.767994 0.012927 0.536882
O O11 0.268169 0.961605 0.030357
O O12 0.000000 0.018637 0.000000
O O13 0.249995 0.696388 0.483219
O O14 0.000000 0.609170 0.500000
O O15 0.500000 0.598911 0.000000
O O16 0.500000 0.969402 0.500000
O O17 0.694512 0.863260 0.540059
O O18 0.000000 0.793866 0.500000
O O19 0.500000 0.783604 0.000000
#
# Coordination Sequence:
#
# PCOD9112459 Si02
#       7
#     2   2   2   2   2   2   2
#     4  10  19  33  52  78 107 133 170 220 268 310
#     4  10  16  26  44  70 106 142 170 204 258 312
#     4   9  17  28  46  74 106 136 168 211 260 311
#     4   9  17  28  46  74 106 136 168 211 260 311
#     4  10  21  38  57  77 103 139 182 221 263 326
#     4  10  19  33  52  78 107 133 170 220 268 310
#     4  10  21  38  57  77 103 139 182 221 263 326
#
# _framework density 23.479551000000001
#
# number of rings (size 3 to 8) (size 9 to 14) (size 15 to 20)
#    0.000    2.286    0.000    6.000    0.000    0.000 
#    0.000    8.571    0.000    0.000    0.000   20.000 
#    0.000    0.000    0.000    0.000    0.000    0.000 
#
# Total GULP energy -78097.130846 kJ/mol
# GULP energy per Si atom -5578.366489 kJ/mol
# Density = 2.342611 g / cm^3
# Si number density = 23.479551 Si / 1000 Ang^3
#
#
#
# Elastic Constant Matrix: (Units=GPa)
#
#
# Indices 1 2 3 4 5 6 
#
# 1 44.2169 4.6028 46.2916 0.0000 -6.0654 0.0000
# 2 4.6028 151.3221 58.0200 0.0000 -29.2554 0.0000
# 3 46.2916 58.0200 147.0508 0.0000 -50.2588 0.0000
# 4 0.0000 0.0000 0.0000 38.0132 0.0000 -9.9446
# 5 -6.0654 -29.2554 -50.2588 0.0000 28.7035 0.0000
# 6 0.0000 0.0000 0.0000 -9.9446 0.0000 19.8576
#
#
#
# Elastic Compliance Matrix: (Units=1/GPa)
#
#
# Indices 1 2 3 4 5 6 
#
# 1 0.047351 0.002229 -0.028861 0.000000 -0.038257 0.000000
# 2 0.002229 0.008388 -0.002312 0.000000 0.004973 0.000000
# 3 -0.028861 -0.002312 0.034636 0.000000 0.052191 0.000000
# 4 0.000000 0.000000 0.000000 0.030273 0.000000 0.015161
# 5 -0.038257 0.004973 0.052191 0.000000 0.123208 0.000000
# 6 0.000000 0.000000 0.000000 0.015161 0.000000 0.057951
#
#
# Mechanical properties :
#
#
# Convention : Reuss Voigt Hill
#
# Bulk Modulus (GPa) = 30.78056 62.26874 46.52465
# Shear Modulus (GPa) = 13.49437 32.89322 23.19379
#
# Velocity S-wave (km/s) = 2.39995 3.74696 3.14639
# Velocity P-wave (km/s) = 4.56264 6.73035 5.74958
#
# Compressibility (1/GPa) = 0.03248804
#
# Stress axis : x y z
#
# Youngs Moduli (GPa) = 21.11871 119.21169 28.87169
#
# Poissons Ratio (x) = -0.26577 0.83327
# Poissons Ratio (y) = -0.04708 0.06675
# Poissons Ratio (z) = 0.60951 0.27562
#
# Static dielectric constant tensor:
#      x y z
#    x 1.901650 0.000000 -0.003810 
#    y 0.000000 1.965930 0.000000 
#    z -0.003810 0.000000 1.908600 
# 
# From -- ./inp_files/6183.got.cif
#   From: 2010.05.17/outbox.cif.g08.bks.cpg/sg3_4_cif.got.tgz:6183.got - 2010.06.03 18:33:08.
