data_PCOD9112746
_publ_section_title
;
Structure prediction by ZEFSAII (Michael W. Deem and Ramdas Pophale) SiO2 
 PCOD9112746
Probable space group: P 2
;
_chemical_formula_sum "Si O2"
_cell_formula_units_Z 16
_cell_length_a 7.814040
_cell_length_b 8.309296
_cell_length_c 19.315147
_cell_angle_alpha 90.000000
_cell_angle_beta 37.205343
_cell_angle_gamma 90.000000
_cell_volume 758.330870
_symmetry_space_group_name_H-M "P 2"
_symmetry_group_IT_number 3
_symmetry_cell_setting 'monoclinic'
loop_
_space_group_symop_operation_xyz
x,y,z
-x,y,-z
loop_
_atom_site_type_symbol
_atom_site_label
_atom_site_fract_x
_atom_site_fract_y
_atom_site_fract_z
Si Si1 0.866862 0.728190 0.183232
Si Si2 0.176047 0.376029 0.375609
Si Si3 0.254534 0.760302 0.370993
Si Si4 0.628567 0.163483 0.032516
Si Si5 0.389094 0.865414 0.862860
Si Si6 0.077233 0.351511 0.255940
Si Si7 0.179546 0.342708 0.803796
Si Si8 0.664339 0.653066 0.882331
O O1 0.555135 0.759764 0.314793
O O2 0.878262 0.534871 0.168216
O O3 0.128430 0.778789 0.146036
O O4 0.848909 0.819720 0.116212
O O5 0.198218 0.572592 0.369705
O O6 0.026847 0.322496 0.352607
O O7 0.500083 0.313837 0.275212
O O8 0.000000 0.328866 0.500000
O O9 0.330461 0.859232 0.277258
O O10 0.000000 0.819391 0.500000
O O11 0.387788 0.284285 0.137333
O O12 0.646400 0.026608 0.083986
O O13 0.500000 0.106885 0.000000
O O14 0.931896 0.246458 0.922341
O O15 0.444083 0.725747 0.900612
O O16 0.124496 0.540478 0.227519
O O17 0.861910 0.301524 0.264679
O O18 0.500000 0.572384 0.000000
#
# Coordination Sequence:
#
# PCOD9112746 Si02
#       8
#     2   2   2   2   2   2   2   2
#     4   8  18  34  57  87 116 155 206 242 298 361
#     4  10  19  35  60  92 120 154 211 258 302 357
#     4   8  16  35  59  86 123 152 197 261 299 356
#     4  10  21  38  60  91 127 166 201 252 310 382
#     4  10  20  37  57  87 123 154 198 254 306 359
#     4  10  19  36  57  85 119 164 206 243 313 360
#     4   9  18  36  58  88 127 160 202 253 300 369
#     4  11  19  33  56  82 117 158 200 252 301 362
#
# _framework density 21.098970000000001
#
# number of rings (size 3 to 8) (size 9 to 14) (size 15 to 20)
#    0.750    1.750    1.250    2.250    0.000    1.500 
#    0.000   12.500    0.000    0.000    6.500    0.000 
#    0.000    0.000    0.000    0.000    0.000    0.000 
#
# Total GULP energy -89205.920590 kJ/mol
# GULP energy per Si atom -5575.370037 kJ/mol
# Density = 2.105095 g / cm^3
# Si number density = 21.098970 Si / 1000 Ang^3
#
#
#
# Elastic Constant Matrix: (Units=GPa)
#
#
# Indices 1 2 3 4 5 6 
#
# 1 101.5413 21.4112 35.1213 0.0000 20.5668 0.0000
# 2 21.4112 36.9304 29.6433 0.0000 5.5459 0.0000
# 3 35.1213 29.6433 110.5498 0.0000 20.1355 0.0000
# 4 0.0000 0.0000 0.0000 16.1970 0.0000 5.0581
# 5 20.5668 5.5459 20.1355 0.0000 36.6468 0.0000
# 6 0.0000 0.0000 0.0000 5.0581 0.0000 27.0203
#
#
#
# Elastic Compliance Matrix: (Units=1/GPa)
#
#
# Indices 1 2 3 4 5 6 
#
# 1 0.012597 -0.005186 -0.001630 0.000000 -0.005389 0.000000
# 2 -0.005186 0.036640 -0.008553 0.000000 0.002065 0.000000
# 3 -0.001630 -0.008553 0.012729 0.000000 -0.004785 0.000000
# 4 0.000000 0.000000 0.000000 0.065573 0.000000 -0.012275
# 5 -0.005389 0.002065 -0.004785 0.000000 0.032628 0.000000
# 6 0.000000 0.000000 0.000000 -0.012275 0.000000 0.039307
#
#
# Mechanical properties :
#
#
# Convention : Reuss Voigt Hill
#
# Bulk Modulus (GPa) = 32.02322 46.81923 39.42122
# Shear Modulus (GPa) = 20.77951 26.82920 23.80435
#
# Velocity S-wave (km/s) = 3.14165 3.56980 3.36255
# Velocity P-wave (km/s) = 5.32640 6.26337 5.81379
#
# Compressibility (1/GPa) = 0.03122734
#
# Stress axis : x y z
#
# Youngs Moduli (GPa) = 79.38368 27.29247 78.56374
#
# Poissons Ratio (x) = 0.14153 0.12805
# Poissons Ratio (y) = 0.41167 0.67199
# Poissons Ratio (z) = 0.12939 0.23345
#
# Static dielectric constant tensor:
#      x y z
#    x 1.796660 0.000000 -0.009520 
#    y 0.000000 1.780700 0.000000 
#    z -0.009520 0.000000 1.788260 
# 
# From -- ./inp_files/15783.got.cif
#   From: 2010.05.17/outbox.cif.g08.bks.cpg/sg3_8_cif.got.tgz:15783.got - 2010.06.03 18:33:08.
