data_PCOD9112118
_publ_section_title
;
Structure prediction by ZEFSAII (Michael W. Deem and Ramdas Pophale) SiO2 
 PCOD9112118
Probable space group: P -1
;
_chemical_formula_sum "Si O2"
_cell_formula_units_Z 10
_cell_length_a 11.768212
_cell_length_b 9.791091
_cell_length_c 5.104776
_cell_angle_alpha 130.618022
_cell_angle_beta 68.246130
_cell_angle_gamma 116.190550
_cell_volume 397.630220
_symmetry_space_group_name_H-M "P -1"
_symmetry_group_IT_number 2
_symmetry_cell_setting 'triclinic'
loop_
_space_group_symop_operation_xyz
x,y,z
-x,-y,-z
loop_
_atom_site_type_symbol
_atom_site_label
_atom_site_fract_x
_atom_site_fract_y
_atom_site_fract_z
Si Si1 0.689683 0.934674 0.727077
Si Si2 0.450180 0.827888 0.530372
Si Si3 0.112193 0.174194 0.232482
Si Si4 0.906319 0.260886 0.828960
Si Si5 0.183353 0.562070 0.362141
O O1 0.576260 0.786519 0.488602
O O2 0.760362 0.866037 0.818224
O O3 0.803441 0.059056 0.609437
O O4 0.620977 0.085865 0.078585
O O5 0.335672 0.654640 0.313519
O O6 0.500000 0.000000 0.500000
O O7 0.150674 0.350063 0.224419
O O8 0.042225 0.231248 0.617335
O O9 0.000000 0.000000 0.000000
O O10 0.880001 0.397837 0.801085
O O11 0.126305 0.671485 0.774562
#
# Coordination Sequence:
#
# PCOD9112118 Si02
#       5
#     2   2   2   2   2
#     4  10  23  40  71  99 133 180 228 285 347 400
#     4  10  20  44  70  94 134 182 230 280 345 413
#     4  12  26  44  68 106 144 178 229 291 342 408
#     4  11  23  46  70 101 141 185 225 279 348 424
#     4  11  25  45  73 102 138 187 230 278 349 416
#
# _framework density 25.148992
#
# number of rings (size 3 to 8) (size 9 to 14) (size 15 to 20)
#    0.000    1.200    2.000    4.200    0.000    4.000 
#    0.000    1.000    0.000    0.000    0.000    0.000 
#    0.000    0.000    0.000    0.000    0.000    0.000 
#
# Total GULP energy -55979.332018 kJ/mol
# GULP energy per Si atom -5597.933202 kJ/mol
# Density = 2.509175 g / cm^3
# Si number density = 25.148992 Si / 1000 Ang^3
#
#
#
# Elastic Constant Matrix: (Units=GPa)
#
#
# Indices 1 2 3 4 5 6 
#
# 1 157.1050 31.3320 19.1681 11.9897 2.6101 -4.5870
# 2 31.3320 134.4030 9.1340 -0.0785 -2.8729 9.6203
# 3 19.1681 9.1340 68.8907 -8.9496 17.0902 -2.8596
# 4 11.9897 -0.0785 -8.9496 38.3651 -0.5697 0.4552
# 5 2.6101 -2.8729 17.0902 -0.5697 23.3411 -3.3902
# 6 -4.5870 9.6203 -2.8596 0.4552 -3.3902 46.6931
#
#
#
# Elastic Compliance Matrix: (Units=1/GPa)
#
#
# Indices 1 2 3 4 5 6 
#
# 1 0.007188 -0.001574 -0.002302 -0.002787 0.000761 0.000972
# 2 -0.001574 0.008044 -0.001088 0.000301 0.001715 -0.001757
# 3 -0.002302 -0.001088 0.019422 0.005039 -0.013956 0.000125
# 4 -0.002787 0.000301 0.005039 0.028078 -0.002728 -0.000499
# 5 0.000761 0.001715 -0.013956 -0.002728 0.053525 0.002780
# 6 0.000972 -0.001757 0.000125 -0.000499 0.002780 0.022088
#
#
# Mechanical properties :
#
#
# Convention : Reuss Voigt Hill
#
# Bulk Modulus (GPa) = 40.44139 53.29633 46.86886
# Shear Modulus (GPa) = 31.94576 41.73083 36.83830
#
# Velocity S-wave (km/s) = 3.56794 4.07792 3.83143
# Velocity P-wave (km/s) = 5.75232 6.58869 6.18466
#
# Compressibility (1/GPa) = 0.02472714
#
# Stress axis : x y z
#
# Youngs Moduli (GPa) = 139.11311 124.31920 51.48678
#
# Poissons Ratio (x) = 0.19571 0.11851
# Poissons Ratio (y) = 0.21900 0.05600
# Poissons Ratio (z) = 0.32022 0.13522
#
# Static dielectric constant tensor:
#      x y z
#    x 2.040420 0.062170 0.032720 
#    y 0.062170 2.010010 0.024440 
#    z 0.032720 0.024440 2.055780 
# 
# From -- ./inp_files/24870.got.cif
#   From: 2010.05.17/outbox.cif.g08.bks.cpg/sg2_13_cif.got.tgz:24870.got - 2010.06.03 11:33:40.
