data_PCOD9112654
_publ_section_title
;
Structure prediction by ZEFSAII (Michael W. Deem and Ramdas Pophale) SiO2 
 PCOD9112654
Probable space group: P 2
;
_chemical_formula_sum "Si O2"
_cell_formula_units_Z 14
_cell_length_a 15.957690
_cell_length_b 10.586579
_cell_length_c 5.401012
_cell_angle_alpha 90.000000
_cell_angle_beta 128.474056
_cell_angle_gamma 90.000000
_cell_volume 714.334344
_symmetry_space_group_name_H-M "P 2"
_symmetry_group_IT_number 3
_symmetry_cell_setting 'monoclinic'
loop_
_space_group_symop_operation_xyz
x,y,z
-x,y,-z
loop_
_atom_site_type_symbol
_atom_site_label
_atom_site_fract_x
_atom_site_fract_y
_atom_site_fract_z
Si Si1 0.374464 0.508200 0.220824
Si Si2 0.999457 0.033680 0.248945
Si Si3 0.875076 0.349189 0.741968
Si Si4 0.217954 0.875132 0.579488
Si Si5 0.234375 0.259019 0.955548
Si Si6 0.756012 0.975581 0.871865
Si Si7 0.734124 0.596448 0.472320
O O1 0.500000 0.504936 0.500000
O O2 0.319258 0.577516 0.355543
O O3 0.326678 0.365473 0.117768
O O4 0.346307 0.572741 0.906180
O O5 0.000000 0.111242 0.500000
O O6 0.100699 0.940453 0.407878
O O7 0.885341 0.965295 0.065057
O O8 0.000000 0.111059 0.000000
O O9 0.830647 0.271138 0.422324
O O10 0.821328 0.486467 0.610335
O O11 0.832316 0.292781 0.921227
O O12 0.000000 0.369310 0.000000
O O13 0.281415 0.948838 0.476595
O O14 0.213810 0.733123 0.473795
O O15 0.271009 0.884166 0.949306
O O16 0.268806 0.114868 0.069644
#
# Coordination Sequence:
#
# PCOD9112654 Si02
#       7
#     2   2   2   2   2   2   2
#     4  10  21  40  64  83 104 143 192 248 301 334
#     4   8  16  27  41  67  98 143 184 200 237 300
#     4  10  21  34  52  78 114 154 184 231 286 329
#     4  10  19  32  51  77 111 146 180 221 268 325
#     4  10  21  36  55  83 112 144 195 238 276 339
#     4  10  19  32  50  76 112 150 183 219 265 325
#     4  10  21  37  57  86 113 142 192 237 280 346
#
# _framework density 19.598662999999998
#
# number of rings (size 3 to 8) (size 9 to 14) (size 15 to 20)
#    0.000    2.286    0.000    2.571    0.000    6.857 
#    0.000    7.143    0.000    5.143    0.000    0.000 
#    0.000    0.000    0.000    0.000    0.000    0.000 
#
# Total GULP energy -77973.970205 kJ/mol
# GULP energy per Si atom -5569.569300 kJ/mol
# Density = 1.955406 g / cm^3
# Si number density = 19.598663 Si / 1000 Ang^3
#
#
#
# Elastic Constant Matrix: (Units=GPa)
#
#
# Indices 1 2 3 4 5 6 
#
# 1 52.2467 19.3448 39.4898 0.0000 -24.5428 0.0000
# 2 19.3448 86.9224 9.5449 0.0000 -6.9744 0.0000
# 3 39.4898 9.5449 108.7738 0.0000 -30.9390 0.0000
# 4 0.0000 0.0000 0.0000 22.5080 0.0000 -10.4773
# 5 -24.5428 -6.9744 -30.9390 0.0000 51.2180 0.0000
# 6 0.0000 0.0000 0.0000 -10.4773 0.0000 22.3958
#
#
#
# Elastic Compliance Matrix: (Units=1/GPa)
#
#
# Indices 1 2 3 4 5 6 
#
# 1 0.031985 -0.005430 -0.008436 0.000000 0.009492 0.000000
# 2 -0.005430 0.012596 0.000741 0.000000 -0.000439 0.000000
# 3 -0.008436 0.000741 0.013366 0.000000 0.004133 0.000000
# 4 0.000000 0.000000 0.000000 0.056797 0.000000 0.026571
# 5 0.009492 -0.000439 0.004133 0.000000 0.026509 0.000000
# 6 0.000000 0.000000 0.000000 0.026571 0.000000 0.057082
#
#
# Mechanical properties :
#
#
# Convention : Reuss Voigt Hill
#
# Bulk Modulus (GPa) = 31.54770 42.74465 37.14617
# Shear Modulus (GPa) = 21.26275 31.19526 26.22901
#
# Velocity S-wave (km/s) = 3.29737 3.99394 3.66226
# Velocity P-wave (km/s) = 5.53432 6.56705 6.07268
#
# Compressibility (1/GPa) = 0.03169804
#
# Stress axis : x y z
#
# Youngs Moduli (GPa) = 31.26429 79.38744 74.81412
#
# Poissons Ratio (x) = 0.43111 0.63112
# Poissons Ratio (y) = 0.16978 -0.05546
# Poissons Ratio (z) = 0.26374 -0.05885
#
# Static dielectric constant tensor:
#      x y z
#    x 1.686460 0.000000 -0.039390 
#    y 0.000000 1.691680 0.000000 
#    z -0.039390 0.000000 1.828270 
# 
# From -- ./inp_files/3194.got.cif
#   From: 2010.05.17/outbox.cif.g08.bks.cpg/sg3_2_cif.got.tgz:3194.got - 2010.06.03 18:33:08.
