data_PCOD9112205
_publ_section_title
;
Structure prediction by ZEFSAII (Michael W. Deem and Ramdas Pophale) SiO2 
 PCOD9112205
Probable space group: P -1
;
_chemical_formula_sum "Si O2"
_cell_formula_units_Z 12
_cell_length_a 7.982492
_cell_length_b 15.220504
_cell_length_c 4.884289
_cell_angle_alpha 118.445230
_cell_angle_beta 110.167023
_cell_angle_gamma 67.626955
_cell_volume 472.658453
_symmetry_space_group_name_H-M "P -1"
_symmetry_group_IT_number 2
_symmetry_cell_setting 'triclinic'
loop_
_space_group_symop_operation_xyz
x,y,z
-x,-y,-z
loop_
_atom_site_type_symbol
_atom_site_label
_atom_site_fract_x
_atom_site_fract_y
_atom_site_fract_z
Si Si1 0.024669 0.380718 0.924910
Si Si2 0.624690 0.387257 0.954786
Si Si3 0.401403 0.738795 0.732714
Si Si4 0.821251 0.758157 0.725351
Si Si5 0.910568 0.106879 0.957345
Si Si6 0.478310 0.889084 0.407862
O O1 0.829980 0.378200 0.949405
O O2 0.087825 0.308719 0.589160
O O3 0.391837 0.645349 0.791997
O O4 0.000000 0.500000 0.000000
O O5 0.552749 0.307385 0.607224
O O6 0.500000 0.500000 0.000000
O O7 0.830394 0.669350 0.827640
O O8 0.197240 0.815417 0.753077
O O9 0.513215 0.809049 0.054957
O O10 0.632237 0.839098 0.641323
O O11 0.948342 0.834131 0.002397
O O12 0.742245 0.096831 0.648613
O O13 0.000000 0.000000 0.000000
O O14 0.500000 0.000000 0.500000
#
# Coordination Sequence:
#
# PCOD9112205 Si02
#       6
#     2   2   2   2   2   2
#     4  12  26  46  72 105 143 194 247 305 371 428
#     4  12  24  47  73 102 141 197 242 302 371 436
#     4  10  24  44  71 104 145 187 242 292 369 433
#     4  12  24  48  71 105 152 189 239 309 360 442
#     4  10  20  44  76 104 148 196 240 294 377 439
#     4  10  22  43  73 112 146 191 245 299 369 442
#
# _framework density 25.388311000000002
#
# number of rings (size 3 to 8) (size 9 to 14) (size 15 to 20)
#    1.000    0.000    5.000    1.000    2.333    1.333 
#    0.000   10.000    0.000    0.000    0.000    0.000 
#    0.000    0.000    0.000    0.000    0.000    0.000 
#
# Total GULP energy -67132.955541 kJ/mol
# GULP energy per Si atom -5594.412962 kJ/mol
# Density = 2.533053 g / cm^3
# Si number density = 25.388311 Si / 1000 Ang^3
#
#
#
# Elastic Constant Matrix: (Units=GPa)
#
#
# Indices 1 2 3 4 5 6 
#
# 1 99.0528 65.6524 23.6125 -14.1109 33.2036 4.0381
# 2 65.6524 256.0097 26.6608 1.6468 17.3926 -8.5727
# 3 23.6125 26.6608 32.5515 -15.4079 13.3601 -2.3511
# 4 -14.1109 1.6468 -15.4079 39.1894 4.1934 2.9354
# 5 33.2036 17.3926 13.3601 4.1934 49.9306 -1.9961
# 6 4.0381 -8.5727 -2.3511 2.9354 -1.9961 46.1113
#
#
#
# Elastic Compliance Matrix: (Units=1/GPa)
#
#
# Indices 1 2 3 4 5 6 
#
# 1 0.017872 -0.003763 -0.002425 0.007026 -0.010647 -0.003297
# 2 -0.003763 0.005207 -0.003917 -0.003442 0.002082 0.001407
# 3 -0.002425 -0.003917 0.050357 0.020379 -0.012200 0.000226
# 4 0.007026 -0.003442 0.020379 0.037747 -0.012222 -0.003148
# 5 -0.010647 0.002082 -0.012200 -0.012222 0.030786 0.002808
# 6 -0.003297 0.001407 0.000226 -0.003148 0.002808 0.022570
#
#
# Mechanical properties :
#
#
# Convention : Reuss Voigt Hill
#
# Bulk Modulus (GPa) = 18.78756 68.82950 43.80853
# Shear Modulus (GPa) = 24.69241 45.15882 34.92561
#
# Velocity S-wave (km/s) = 3.12202 4.22207 3.71301
# Velocity P-wave (km/s) = 4.51798 7.13704 5.97284
#
# Compressibility (1/GPa) = 0.05322670
#
# Stress axis : x y z
#
# Youngs Moduli (GPa) = 55.95317 192.05555 19.85818
#
# Poissons Ratio (x) = 0.72270 0.04815
# Poissons Ratio (y) = 0.21055 0.07779
# Poissons Ratio (z) = 0.13566 0.75230
#
# Static dielectric constant tensor:
#      x y z
#    x 2.324830 0.001580 0.021840 
#    y 0.001580 1.967850 -0.041580 
#    z 0.021840 -0.041580 1.973910 
# 
# From -- ./inp_files/42941.got.cif
#   From: 2010.05.17/outbox.cif.g08.bks.cpg/sg2_22_cif.got.tgz:42941.got - 2010.06.03 11:33:40.
