data_PCOD9112152
_publ_section_title
;
Structure prediction by ZEFSAII (Michael W. Deem and Ramdas Pophale) SiO2 
 PCOD9112152
Probable space group: P -1
;
_chemical_formula_sum "Si O2"
_cell_formula_units_Z 13
_cell_length_a 11.017841
_cell_length_b 5.166962
_cell_length_c 17.677663
_cell_angle_alpha 118.705285
_cell_angle_beta 42.047832
_cell_angle_gamma 91.187218
_cell_volume 484.965092
_symmetry_space_group_name_H-M "P -1"
_symmetry_group_IT_number 2
_symmetry_cell_setting 'triclinic'
loop_
_space_group_symop_operation_xyz
x,y,z
-x,-y,-z
loop_
_atom_site_type_symbol
_atom_site_label
_atom_site_fract_x
_atom_site_fract_y
_atom_site_fract_z
Si Si1 0.125946 0.674865 0.489669
Si Si2 0.663004 0.755989 0.151227
Si Si3 0.500000 0.500000 0.000000
Si Si4 0.070658 0.100930 0.071888
Si Si5 0.995800 0.073192 0.261492
Si Si6 0.682197 0.823815 0.324336
Si Si7 0.310328 0.650238 0.256355
O O1 0.323721 0.532400 0.319765
O O2 0.000000 0.500000 0.500000
O O3 0.149362 0.657408 0.565633
O O4 0.946777 0.096531 0.610757
O O5 0.784839 0.850192 0.047702
O O6 0.613130 0.919005 0.281622
O O7 0.440652 0.840700 0.226360
O O8 0.825277 0.320800 0.026589
O O9 0.234905 0.774467 0.142808
O O10 0.440958 0.380952 0.090905
O O11 0.854433 0.925827 0.277354
O O12 0.046816 0.230587 0.188008
O O13 0.818638 0.388840 0.203065
O O14 0.500000 0.000000 0.500000
#
# Coordination Sequence:
#
# PCOD9112152 Si02
#       7
#     2   2   1   2   2   2   2
#     4  10  24  42  69 104 151 195 252 315 381 460
#     4  12  27  48  80 111 155 202 257 316 387 459
#     4  10  20  44  72 104 144 192 254 312 366 448
#     4  12  26  50  77 114 153 201 256 315 381 460
#     4  11  25  47  74 111 150 198 256 314 384 450
#     4  12  28  50  77 112 160 203 258 317 387 464
#     4  10  22  43  68 103 146 196 249 308 385 440
#
# _framework density 26.806052000000001
#
# number of rings (size 3 to 8) (size 9 to 14) (size 15 to 20)
#    0.000    0.923    3.077    1.846    4.308    6.769 
#    0.000    5.385    0.000    0.000    0.000    0.000 
#    0.000    0.000    0.000    0.000    0.000    0.000 
#
# Total GULP energy -72421.598263 kJ/mol
# GULP energy per Si atom -5570.892174 kJ/mol
# Density = 2.674504 g / cm^3
# Si number density = 26.806052 Si / 1000 Ang^3
#
#
#
# Elastic Constant Matrix: (Units=GPa)
#
#
# Indices 1 2 3 4 5 6 
#
# 1 71.2056 30.1643 37.2112 -1.0854 6.5744 -17.8445
# 2 30.1643 131.7058 82.4924 -25.9770 10.6461 -10.1015
# 3 37.2112 82.4924 209.1374 -56.9928 20.1311 -28.5202
# 4 -1.0854 -25.9770 -56.9928 49.5632 -22.5396 4.5866
# 5 6.5744 10.6461 20.1311 -22.5396 65.0600 -3.8604
# 6 -17.8445 -10.1015 -28.5202 4.5866 -3.8604 37.8855
#
#
#
# Elastic Compliance Matrix: (Units=1/GPa)
#
#
# Indices 1 2 3 4 5 6 
#
# 1 0.018390 -0.003088 -0.002524 -0.005696 -0.002165 0.006407
# 2 -0.003088 0.010643 -0.003336 0.001877 0.000174 -0.001338
# 3 -0.002524 -0.003336 0.009537 0.009396 0.001349 0.004101
# 4 -0.005696 0.001877 0.009396 0.036251 0.010010 0.001522
# 5 -0.002165 0.000174 0.001349 0.010010 0.018655 0.000731
# 6 0.006407 -0.001338 0.004101 0.001522 0.000731 0.032034
#
#
# Mechanical properties :
#
#
# Convention : Reuss Voigt Hill
#
# Bulk Modulus (GPa) = 48.37204 79.08717 63.72961
# Shear Modulus (GPa) = 33.26756 47.98047 40.62402
#
# Velocity S-wave (km/s) = 3.52667 4.23532 3.89714
# Velocity P-wave (km/s) = 5.88792 7.31333 6.63899
#
# Compressibility (1/GPa) = 0.02067310
#
# Stress axis : x y z
#
# Youngs Moduli (GPa) = 54.37822 93.95764 104.85964
#
# Poissons Ratio (x) = 0.29012 0.26467
# Poissons Ratio (y) = 0.16791 0.34985
# Poissons Ratio (z) = 0.13725 0.31347
#
# Static dielectric constant tensor:
#      x y z
#    x 2.171010 0.002610 0.079620 
#    y 0.002610 2.162160 0.160570 
#    z 0.079620 0.160570 2.280010 
# 
# From -- ./inp_files/563933.got.cif
#   From: 2010.05.17/outbox.cif.g08.bks.cpg/sg2_282_cif.got.tgz:563933.got - 2010.06.03 11:33:40.
