data_PCOD9112095
_publ_section_title
;
Structure prediction by ZEFSAII (Michael W. Deem and Ramdas Pophale) SiO2 
 PCOD9112095
Probable space group: P -1
;
_chemical_formula_sum "Si O2"
_cell_formula_units_Z 15
_cell_length_a 14.064515
_cell_length_b 7.072328
_cell_length_c 7.656759
_cell_angle_alpha 102.764764
_cell_angle_beta 118.410750
_cell_angle_gamma 79.541806
_cell_volume 650.728751
_symmetry_space_group_name_H-M "P -1"
_symmetry_group_IT_number 2
_symmetry_cell_setting 'triclinic'
loop_
_space_group_symop_operation_xyz
x,y,z
-x,-y,-z
loop_
_atom_site_type_symbol
_atom_site_label
_atom_site_fract_x
_atom_site_fract_y
_atom_site_fract_z
Si Si1 0.835678 0.574840 0.017871
Si Si2 0.594660 0.606707 0.836221
Si Si3 0.615173 0.545382 0.443194
Si Si4 0.034276 0.817113 0.867525
Si Si5 0.799720 0.772573 0.648873
Si Si6 0.689149 0.098085 0.440522
Si Si7 0.881712 0.968163 0.317193
Si Si8 0.500000 0.000000 0.000000
O O1 0.716712 0.520244 0.959526
O O2 0.820815 0.677780 0.837161
O O3 0.915969 0.380561 0.040681
O O4 0.873688 0.744792 0.209010
O O5 0.587517 0.644235 0.627080
O O6 0.496864 0.471833 0.760260
O O7 0.574127 0.804801 0.963007
O O8 0.711141 0.647597 0.455962
O O9 0.664793 0.327549 0.486825
O O10 0.120850 0.894816 0.828057
O O11 0.919059 0.771994 0.672060
O O12 0.000000 0.000000 0.000000
O O13 0.736869 0.987346 0.631878
O O14 0.785467 0.046220 0.375743
O O15 0.581261 0.026482 0.247392
O O16 0.000000 0.000000 0.500000
#
# Coordination Sequence:
#
# PCOD9112095 Si02
#       8
#     2   2   2   2   2   2   2   1
#     4  11  25  44  70 102 141 185 241 290 343 429
#     4   9  19  42  68  98 138 177 229 282 349 410
#     4   9  22  41  68  99 134 183 231 287 334 431
#     4  12  27  44  70 102 137 189 236 290 351 419
#     4  11  24  42  73 100 138 186 236 284 350 410
#     4  11  24  45  70 103 142 183 236 287 355 410
#     4  12  26  43  68 101 144 185 231 296 352 411
#     4  10  20  44  70 100 146 172 228 296 342 420
#
# _framework density 23.051076999999999
#
# number of rings (size 3 to 8) (size 9 to 14) (size 15 to 20)
#    0.000    1.333    4.000    0.400    5.600    1.600 
#    2.400   18.000    0.000    0.000    0.000    0.000 
#    0.000    0.000    0.000    0.000    0.000    0.000 
#
# Total GULP energy -83541.955764 kJ/mol
# GULP energy per Si atom -5569.463718 kJ/mol
# Density = 2.299861 g / cm^3
# Si number density = 23.051077 Si / 1000 Ang^3
#
#
#
# Elastic Constant Matrix: (Units=GPa)
#
#
# Indices 1 2 3 4 5 6 
#
# 1 94.3612 48.7637 34.2646 3.4515 30.0969 -7.5642
# 2 48.7637 123.2288 39.7931 3.4414 7.9815 -11.2435
# 3 34.2646 39.7931 75.1755 5.5825 12.9023 -3.7546
# 4 3.4515 3.4414 5.5825 40.8694 -8.9860 1.8571
# 5 30.0969 7.9815 12.9023 -8.9860 48.0139 0.4670
# 6 -7.5642 -11.2435 -3.7546 1.8571 0.4670 31.3446
#
#
#
# Elastic Compliance Matrix: (Units=1/GPa)
#
#
# Indices 1 2 3 4 5 6 
#
# 1 0.017973 -0.005039 -0.003455 -0.002948 -0.010076 0.002441
# 2 -0.005039 0.011482 -0.004111 0.000445 0.002415 0.002348
# 3 -0.003455 -0.004111 0.017617 -0.002275 -0.002311 -0.000029
# 4 -0.002948 0.000445 -0.002275 0.026735 0.007413 -0.002519
# 5 -0.010076 0.002415 -0.002311 0.007413 0.028776 -0.002710
# 6 0.002441 0.002348 -0.000029 -0.002519 -0.002710 0.033521
#
#
# Mechanical properties :
#
#
# Convention : Reuss Voigt Hill
#
# Bulk Modulus (GPa) = 45.74067 59.82314 52.78191
# Shear Modulus (GPa) = 29.65555 35.37518 32.51537
#
# Velocity S-wave (km/s) = 3.59069 3.92170 3.75984
# Velocity P-wave (km/s) = 6.08909 6.82020 6.46499
#
# Compressibility (1/GPa) = 0.02186238
#
# Stress axis : x y z
#
# Youngs Moduli (GPa) = 55.63788 87.09235 56.76280
#
# Poissons Ratio (x) = 0.43887 0.19609
# Poissons Ratio (y) = 0.28037 0.23337
# Poissons Ratio (z) = 0.19221 0.35807
#
# Static dielectric constant tensor:
#      x y z
#    x 1.901910 0.079460 0.023590 
#    y 0.079460 1.836100 -0.024690 
#    z 0.023590 -0.024690 1.903020 
# 
# From -- ./inp_files/289241.got.cif
#   From: 2010.05.17/outbox.cif.g08.bks.cpg/sg2_145_cif.got.tgz:289241.got - 2010.06.03 11:33:40.
