data_PCOD9112651
_publ_section_title
;
Structure prediction by ZEFSAII (Michael W. Deem and Ramdas Pophale) SiO2 
 PCOD9112651
Probable space group: P 2
;
_chemical_formula_sum "Si O2"
_cell_formula_units_Z 16
_cell_length_a 8.644080
_cell_length_b 19.930748
_cell_length_c 6.999036
_cell_angle_alpha 90.000000
_cell_angle_beta 143.533986
_cell_angle_gamma 90.000000
_cell_volume 716.671023
_symmetry_space_group_name_H-M "P 2"
_symmetry_group_IT_number 3
_symmetry_cell_setting 'monoclinic'
loop_
_space_group_symop_operation_xyz
x,y,z
-x,y,-z
loop_
_atom_site_type_symbol
_atom_site_label
_atom_site_fract_x
_atom_site_fract_y
_atom_site_fract_z
Si Si1 0.751234 0.052540 0.612227
Si Si2 0.751933 0.907657 0.613551
Si Si3 0.248901 0.196216 0.387731
Si Si4 0.752871 0.341493 0.613730
Si Si5 0.561480 0.710125 0.773830
Si Si6 0.383772 0.564772 0.088618
Si Si7 0.887641 0.482244 0.675309
Si Si8 0.063215 0.769116 0.292156
O O1 0.500000 0.052528 0.500000
O O2 0.753522 0.124399 0.507283
O O3 0.741188 0.980211 0.499580
O O4 0.000000 0.052670 0.000000
O O5 0.500000 0.899590 0.500000
O O6 0.806764 0.841360 0.545537
O O7 0.000000 0.911045 0.000000
O O8 0.500000 0.196223 0.500000
O O9 0.261412 0.268690 0.501984
O O10 0.000000 0.195847 0.000000
O O11 0.500000 0.351821 0.500000
O O12 0.803630 0.406811 0.534478
O O13 0.000000 0.336689 0.000000
O O14 0.500000 0.736229 0.500000
O O15 0.673591 0.635283 0.868008
O O16 0.269348 0.713176 0.562829
O O17 0.775777 0.756392 0.085704
O O18 0.624458 0.525134 0.419861
O O19 0.500000 0.583935 0.000000
O O20 0.129467 0.518760 0.813736
O O21 0.000000 0.476980 0.000000
O O22 0.000000 0.763437 0.000000
#
# Coordination Sequence:
#
# PCOD9112651 Si02
#       8
#     2   2   2   2   2   2   2   2
#     4   8  13  19  29  47  76 116 149 174 216 276
#     4   9  14  21  33  52  81 114 149 185 224 272
#     4   8  13  21  33  53  82 114 149 184 222 270
#     4   9  16  27  45  68  91 118 157 202 236 273
#     4  10  19  32  49  67  87 118 158 196 236 287
#     4  12  25  39  54  76 104 131 160 208 263 306
#     4  11  21  37  58  78  99 131 172 207 245 301
#     4   9  16  26  42  63  85 112 152 196 230 269
#
# _framework density 22.325445999999999
#
# number of rings (size 3 to 8) (size 9 to 14) (size 15 to 20)
#    0.000    2.500    0.000    5.625    0.000    1.000 
#    0.000    0.000    0.000    0.000    0.000    0.000 
#    0.000    0.000    0.000    6.750    0.000   11.750 
#
# Total GULP energy -89088.177258 kJ/mol
# GULP energy per Si atom -5568.011079 kJ/mol
# Density = 2.227463 g / cm^3
# Si number density = 22.325446 Si / 1000 Ang^3
#
#
#
# Elastic Constant Matrix: (Units=GPa)
#
#
# Indices 1 2 3 4 5 6 
#
# 1 27.6370 -6.3373 24.8746 0.0000 8.3150 0.0000
# 2 -6.3373 211.6439 48.0180 0.0000 16.5772 0.0000
# 3 24.8746 48.0180 126.3887 0.0000 51.2147 0.0000
# 4 0.0000 0.0000 0.0000 25.8555 0.0000 14.7672
# 5 8.3150 16.5772 51.2147 0.0000 28.3911 0.0000
# 6 0.0000 0.0000 0.0000 14.7672 0.0000 7.6417
#
#
#
# Elastic Compliance Matrix: (Units=1/GPa)
#
#
# Indices 1 2 3 4 5 6 
#
# 1 0.047787 0.004088 -0.016057 0.000000 0.012582 0.000000
# 2 0.004088 0.005550 -0.004144 0.000000 0.003037 0.000000
# 3 -0.016057 -0.004144 0.036281 0.000000 -0.058324 0.000000
# 4 0.000000 0.000000 0.000000 -0.372937 0.000000 0.720685
# 5 0.012582 0.003037 -0.058324 0.000000 0.134975 0.000000
# 6 0.000000 0.000000 0.000000 0.720685 0.000000 -1.261831
#
#
# Mechanical properties :
#
#
# Convention : Reuss Voigt Hill
#
# Bulk Modulus (GPa) = 17.42377 55.42003 36.42190
# Shear Modulus (GPa) = -3.67966 32.31859 14.31946
#
# Velocity S-wave (km/s) = -1.28521 3.80888 2.53533
# Velocity P-wave (km/s) = 2.37045 6.64989 4.99199
#
# Compressibility (1/GPa) = 0.05739286
#
# Stress axis : x y z
#
# Youngs Moduli (GPa) = 20.92611 180.19339 27.56295
#
# Poissons Ratio (x) = -0.73670 0.44257
# Poissons Ratio (y) = -0.08555 0.11422
# Poissons Ratio (z) = 0.33601 0.74670
#
# Static dielectric constant tensor:
#      x y z
#    x 1.906460 0.000000 0.023320 
#    y 0.000000 1.965750 0.000000 
#    z 0.023320 0.000000 1.808630 
# 
# From -- ./inp_files/6325.got.cif
#   From: 2010.05.17/outbox.cif.g08.bks.cpg/sg3_4_cif.got.tgz:6325.got - 2010.06.03 18:33:08.
