data_PCOD9112633
_publ_section_title
;
Structure prediction by ZEFSAII (Michael W. Deem and Ramdas Pophale) SiO2 
 PCOD9112633
Probable space group: P 2
;
_chemical_formula_sum "Si O2"
_cell_formula_units_Z 12
_cell_length_a 9.835856
_cell_length_b 5.314162
_cell_length_c 20.103289
_cell_angle_alpha 90.000000
_cell_angle_beta 27.857268
_cell_angle_gamma 90.000000
_cell_volume 491.001124
_symmetry_space_group_name_H-M "P 2"
_symmetry_group_IT_number 3
_symmetry_cell_setting 'monoclinic'
loop_
_space_group_symop_operation_xyz
x,y,z
-x,y,-z
loop_
_atom_site_type_symbol
_atom_site_label
_atom_site_fract_x
_atom_site_fract_y
_atom_site_fract_z
Si Si1 0.673237 0.768130 0.608313
Si Si2 0.074303 0.087495 0.044834
Si Si3 0.873145 0.579527 0.906461
Si Si4 0.166243 0.568405 0.229269
Si Si5 0.669556 0.970399 0.739976
Si Si6 0.182949 0.266887 0.520564
O O1 0.650830 0.504777 0.581255
O O2 0.000000 0.761507 0.500000
O O3 0.514850 0.822516 0.746842
O O4 0.646237 0.010865 0.571835
O O5 0.988249 0.322422 0.126934
O O6 0.004723 0.817120 0.106144
O O7 0.425521 0.079811 0.892395
O O8 0.000000 0.131219 0.000000
O O9 0.924194 0.625915 0.806629
O O10 0.521261 0.550984 0.070271
O O11 0.949196 0.348691 0.350196
O O12 0.138670 0.785429 0.297290
O O13 0.862901 0.198137 0.627562
#
# Coordination Sequence:
#
# PCOD9112633 Si02
#       6
#     2   2   2   2   2   2
#     4  10  19  27  47  76 115 135 170 206 271 339
#     4  11  23  40  56  77 106 151 191 221 257 315
#     4  10  23  35  55  78 109 143 182 223 272 326
#     4  10  20  33  53  81 114 141 168 220 289 324
#     4  10  21  33  54  81 117 142 173 228 268 324
#     4  11  18  30  48  80 112 139 164 211 278 336
#
# _framework density 24.439864
#
# number of rings (size 3 to 8) (size 9 to 14) (size 15 to 20)
#    0.000    1.667    5.000    2.000    2.333    1.333 
#    0.000    0.000    0.000    0.000    0.000    7.000 
#    0.000    0.000    0.000    0.000    0.000    0.000 
#
# Total GULP energy -66866.264890 kJ/mol
# GULP energy per Si atom -5572.188741 kJ/mol
# Density = 2.438424 g / cm^3
# Si number density = 24.439864 Si / 1000 Ang^3
#
#
#
# Elastic Constant Matrix: (Units=GPa)
#
#
# Indices 1 2 3 4 5 6 
#
# 1 111.2320 62.1988 23.5644 0.0000 36.5752 0.0000
# 2 62.1988 187.6979 50.3341 0.0000 26.2471 0.0000
# 3 23.5644 50.3341 74.7864 0.0000 26.8980 0.0000
# 4 0.0000 0.0000 0.0000 24.1814 0.0000 16.6848
# 5 36.5752 26.2471 26.8980 0.0000 40.7175 0.0000
# 6 0.0000 0.0000 0.0000 16.6848 0.0000 20.9244
#
#
#
# Elastic Compliance Matrix: (Units=1/GPa)
#
#
# Indices 1 2 3 4 5 6 
#
# 1 0.014628 -0.003758 0.002328 0.000000 -0.012255 0.000000
# 2 -0.003758 0.007558 -0.004413 0.000000 0.001419 0.000000
# 3 0.002328 -0.004413 0.020117 0.000000 -0.012535 0.000000
# 4 0.000000 0.000000 0.000000 0.091936 0.000000 -0.073308
# 5 -0.012255 0.001419 -0.012535 0.000000 0.042934 0.000000
# 6 0.000000 0.000000 0.000000 -0.073308 0.000000 0.106246
#
#
# Mechanical properties :
#
#
# Convention : Reuss Voigt Hill
#
# Bulk Modulus (GPa) = 32.66199 71.76785 52.21492
# Shear Modulus (GPa) = 16.37677 33.00593 24.69135
#
# Velocity S-wave (km/s) = 2.59141 3.67890 3.18195
# Velocity P-wave (km/s) = 4.72727 6.89018 5.90854
#
# Compressibility (1/GPa) = 0.03061663
#
# Stress axis : x y z
#
# Youngs Moduli (GPa) = 68.36079 132.30951 49.71009
#
# Poissons Ratio (x) = 0.49722 -0.11572
# Poissons Ratio (y) = 0.25690 0.21937
# Poissons Ratio (z) = -0.15914 0.58389
#
# Static dielectric constant tensor:
#      x y z
#    x 1.977950 0.000000 -0.023220 
#    y 0.000000 1.997710 0.000000 
#    z -0.023220 0.000000 2.108080 
# 
# From -- ./inp_files/6548.got.cif
#   From: 2010.05.17/outbox.cif.g08.bks.cpg/sg3_4_cif.got.tgz:6548.got - 2010.06.03 18:33:08.
