data_PCOD9112167
_publ_section_title
;
Structure prediction by ZEFSAII (Michael W. Deem and Ramdas Pophale) SiO2 
 PCOD9112167
Probable space group: P -1
;
_chemical_formula_sum "Si O2"
_cell_formula_units_Z 12
_cell_length_a 14.628524
_cell_length_b 10.737542
_cell_length_c 9.053855
_cell_angle_alpha 59.636861
_cell_angle_beta 50.771259
_cell_angle_gamma 27.455544
_cell_volume 501.696134
_symmetry_space_group_name_H-M "P -1"
_symmetry_group_IT_number 2
_symmetry_cell_setting 'triclinic'
loop_
_space_group_symop_operation_xyz
x,y,z
-x,-y,-z
loop_
_atom_site_type_symbol
_atom_site_label
_atom_site_fract_x
_atom_site_fract_y
_atom_site_fract_z
Si Si1 0.293027 0.825598 0.023091
Si Si2 0.855001 0.089036 0.286212
Si Si3 0.909465 0.454210 0.705105
Si Si4 0.433819 0.978191 0.724627
Si Si5 0.559208 0.320211 0.720078
Si Si6 0.318456 0.279657 0.927866
O O1 0.312942 0.856086 0.156481
O O2 0.059572 0.988261 0.136007
O O3 0.500000 0.500000 0.000000
O O4 0.349999 0.645136 0.765865
O O5 0.952453 0.831434 0.303909
O O6 0.673270 0.065325 0.170944
O O7 0.738433 0.202515 0.497455
O O8 0.660422 0.698008 0.747466
O O9 0.000000 0.500000 0.500000
O O10 0.881953 0.503318 0.879885
O O11 0.500000 0.000000 0.500000
O O12 0.291456 0.228390 0.830374
O O13 0.435797 0.313510 0.772014
O O14 0.500000 0.000000 0.000000
#
# Coordination Sequence:
#
# PCOD9112167 Si02
#       6
#     2   2   2   2   2   2
#     4  12  24  46  72 106 151 187 245 311 371 438
#     4  11  25  44  74 111 141 195 247 305 378 439
#     4  11  23  44  74 104 143 194 247 302 366 450
#     4  11  25  46  71 107 152 189 244 309 369 444
#     4  11  24  46  74 104 148 195 247 306 367 447
#     4  10  20  44  72  97 142 193 241 299 367 436
#
# _framework density 23.918861
#
# number of rings (size 3 to 8) (size 9 to 14) (size 15 to 20)
#    0.000    1.000    5.000    2.500    0.000    8.000 
#    3.000    1.667    0.000    0.000    0.000    0.000 
#    0.000    0.000    0.000    0.000    0.000    0.000 
#
# Total GULP energy -67192.274154 kJ/mol
# GULP energy per Si atom -5599.356180 kJ/mol
# Density = 2.386442 g / cm^3
# Si number density = 23.918861 Si / 1000 Ang^3
#
#
#
# Elastic Constant Matrix: (Units=GPa)
#
#
# Indices 1 2 3 4 5 6 
#
# 1 152.9935 53.6155 83.5114 6.1547 -21.5877 29.3188
# 2 53.6155 130.5276 49.2744 16.6082 -1.1776 14.9891
# 3 83.5114 49.2744 174.4455 5.2440 -27.3930 10.1981
# 4 6.1547 16.6082 5.2440 43.7510 0.8284 -1.4070
# 5 -21.5877 -1.1776 -27.3930 0.8284 45.9553 -10.2329
# 6 29.3188 14.9891 10.1981 -1.4070 -10.2329 43.5213
#
#
#
# Elastic Compliance Matrix: (Units=1/GPa)
#
#
# Indices 1 2 3 4 5 6 
#
# 1 0.010686 -0.002250 -0.003936 -0.000372 0.001472 -0.005168
# 2 -0.002250 0.009928 -0.001872 -0.003252 -0.002331 -0.002118
# 3 -0.003936 -0.001872 0.008593 0.000234 0.003702 0.002160
# 4 -0.000372 -0.003252 0.000234 0.024184 -0.000092 0.002076
# 5 0.001472 -0.002331 0.003702 -0.000092 0.025711 0.004986
# 6 -0.005168 -0.002118 0.002160 0.002076 0.004986 0.027921
#
#
# Mechanical properties :
#
#
# Convention : Reuss Voigt Hill
#
# Bulk Modulus (GPa) = 76.37756 92.30768 84.34262
# Shear Modulus (GPa) = 39.21521 44.74985 41.98253
#
# Velocity S-wave (km/s) = 4.05348 4.33009 4.19406
# Velocity P-wave (km/s) = 7.34226 7.97968 7.66760
#
# Compressibility (1/GPa) = 0.01309285
#
# Stress axis : x y z
#
# Youngs Moduli (GPa) = 93.58178 100.72660 116.36902
#
# Poissons Ratio (x) = 0.22659 0.45800
# Poissons Ratio (y) = 0.21052 0.21782
# Poissons Ratio (z) = 0.36831 0.18854
#
# Static dielectric constant tensor:
#      x y z
#    x 1.983720 -0.000870 0.039410 
#    y -0.000870 1.909200 0.011760 
#    z 0.039410 0.011760 1.936870 
# 
# From -- ./inp_files/184612.got.cif
#   From: 2010.05.17/outbox.cif.g08.bks.cpg/sg2_93_cif.got.tgz:184612.got - 2010.06.03 11:33:40.
