data_PCOD9112861
_publ_section_title
;
Structure prediction by ZEFSAII (Michael W. Deem and Ramdas Pophale) SiO2 
 PCOD9112861
Probable space group: P 2
;
_chemical_formula_sum "Si O2"
_cell_formula_units_Z 15
_cell_length_a 10.154589
_cell_length_b 9.178220
_cell_length_c 8.695168
_cell_angle_alpha 90.000000
_cell_angle_beta 116.266531
_cell_angle_gamma 90.000000
_cell_volume 726.721152
_symmetry_space_group_name_H-M "P 2"
_symmetry_group_IT_number 3
_symmetry_cell_setting 'monoclinic'
loop_
_space_group_symop_operation_xyz
x,y,z
-x,y,-z
loop_
_atom_site_type_symbol
_atom_site_label
_atom_site_fract_x
_atom_site_fract_y
_atom_site_fract_z
Si Si1 0.889834 0.370660 0.581480
Si Si2 0.728017 0.757891 0.168104
Si Si3 0.617605 0.484479 0.252319
Si Si4 0.089109 0.539495 0.916016
Si Si5 0.000000 0.873446 0.500000
Si Si6 0.669565 0.341691 0.944031
Si Si7 0.095735 0.062174 0.268184
Si Si8 0.763255 0.025374 0.974428
O O1 0.745032 0.444404 0.436816
O O2 0.857496 0.225823 0.662708
O O3 0.000000 0.325757 0.500000
O O4 0.982296 0.486737 0.727454
O O5 0.617005 0.656891 0.209132
O O6 0.784082 0.644401 0.071347
O O7 0.872626 0.786214 0.346507
O O8 0.695970 0.902641 0.053028
O O9 0.458603 0.423652 0.213188
O O10 0.656138 0.392578 0.115897
O O11 0.170716 0.397742 0.025239
O O12 0.000000 0.619723 0.000000
O O13 0.087267 0.968279 0.418978
O O14 0.664517 0.169397 0.929740
O O15 0.197262 0.996100 0.184761
O O16 0.925343 0.063340 0.125619
#
# Coordination Sequence:
#
# PCOD9112861 Si02
#       8
#     2   2   2   2   1   2   2   2
#     4  12  18  35  61  91 119 160 214 263 302 357
#     4  10  21  36  58  91 126 158 208 257 319 377
#     4  10  22  38  62  91 123 161 210 266 304 373
#     4  11  22  36  60  89 122 162 207 256 312 375
#     4  10  20  32  56  94 124 158 196 266 314 360
#     4  10  20  40  60  88 124 160 212 254 309 372
#     4  10  20  32  59  95 130 155 209 261 306 369
#     4  10  20  37  59  92 123 169 203 252 320 376
#
# _framework density 20.640651999999999
#
# number of rings (size 3 to 8) (size 9 to 14) (size 15 to 20)
#    0.000    1.600    4.667    1.600    5.600    0.000 
#    0.000    8.000    0.000    0.000    0.000    0.000 
#    0.000    0.000    0.000    0.000    0.000    0.000 
#
# Total GULP energy -83648.280903 kJ/mol
# GULP energy per Si atom -5576.552060 kJ/mol
# Density = 2.059367 g / cm^3
# Si number density = 20.640652 Si / 1000 Ang^3
#
#
#
# Elastic Constant Matrix: (Units=GPa)
#
#
# Indices 1 2 3 4 5 6 
#
# 1 49.3360 24.9676 34.0860 0.0000 11.7076 0.0000
# 2 24.9676 119.6482 36.8767 0.0000 7.0031 0.0000
# 3 34.0860 36.8767 57.4020 0.0000 8.2708 0.0000
# 4 0.0000 0.0000 0.0000 16.1711 0.0000 4.6888
# 5 11.7076 7.0031 8.2708 0.0000 31.5879 0.0000
# 6 0.0000 0.0000 0.0000 4.6888 0.0000 19.3757
#
#
#
# Elastic Compliance Matrix: (Units=1/GPa)
#
#
# Indices 1 2 3 4 5 6 
#
# 1 0.036363 -0.001021 -0.019774 0.000000 -0.008074 0.000000
# 2 -0.001021 0.010460 -0.006063 0.000000 -0.000353 0.000000
# 3 -0.019774 -0.006063 0.033055 0.000000 0.000018 0.000000
# 4 0.000000 0.000000 0.000000 0.066505 0.000000 -0.016094
# 5 -0.008074 -0.000353 0.000018 0.000000 0.034724 0.000000
# 6 0.000000 0.000000 0.000000 -0.016094 0.000000 0.055506
#
#
# Mechanical properties :
#
#
# Convention : Reuss Voigt Hill
#
# Bulk Modulus (GPa) = 38.22096 46.47189 42.34643
# Shear Modulus (GPa) = 16.71963 22.12400 19.42181
#
# Velocity S-wave (km/s) = 2.84920 3.27749 3.07082
# Velocity P-wave (km/s) = 5.42046 6.07340 5.75620
#
# Compressibility (1/GPa) = 0.02616365
#
# Stress axis : x y z
#
# Youngs Moduli (GPa) = 27.50015 95.60083 30.25247
#
# Poissons Ratio (x) = 0.09762 0.59820
# Poissons Ratio (y) = 0.02808 0.18341
# Poissons Ratio (z) = 0.54378 0.57960
#
# Static dielectric constant tensor:
#      x y z
#    x 1.910740 0.000000 -0.056740 
#    y 0.000000 1.770610 0.000000 
#    z -0.056740 0.000000 1.770970 
# 
# From -- ./inp_files/7237.got.cif
#   From: 2010.05.17/outbox.cif.g08.bks.cpg/sg3_4_cif.got.tgz:7237.got - 2010.06.03 18:33:08.
