data_PCOD9112616
_publ_section_title
;
Structure prediction by ZEFSAII (Michael W. Deem and Ramdas Pophale) SiO2 
 PCOD9112616
Probable space group: P 2
;
_chemical_formula_sum "Si O2"
_cell_formula_units_Z 16
_cell_length_a 7.592863
_cell_length_b 8.443944
_cell_length_c 11.708818
_cell_angle_alpha 90.000000
_cell_angle_beta 63.832952
_cell_angle_gamma 90.000000
_cell_volume 673.758560
_symmetry_space_group_name_H-M "P 2"
_symmetry_group_IT_number 3
_symmetry_cell_setting 'monoclinic'
loop_
_space_group_symop_operation_xyz
x,y,z
-x,y,-z
loop_
_atom_site_type_symbol
_atom_site_label
_atom_site_fract_x
_atom_site_fract_y
_atom_site_fract_z
Si Si1 0.884890 0.464860 0.915060
Si Si2 0.818370 0.048321 0.129800
Si Si3 0.284627 0.727100 0.498726
Si Si4 0.530530 0.521438 0.727781
Si Si5 0.478969 0.262857 0.897455
Si Si6 0.203432 0.412294 0.643838
Si Si7 0.678886 0.745551 0.032594
Si Si8 0.737132 0.064357 0.418610
O O1 0.026975 0.392118 0.782216
O O2 0.682686 0.370155 0.987944
O O3 0.834632 0.649146 0.911436
O O4 0.000000 0.458772 0.000000
O O5 0.766492 0.887202 0.079463
O O6 0.636651 0.164793 0.163422
O O7 0.823915 0.032114 0.265300
O O8 0.000000 0.110513 0.000000
O O9 0.500000 0.735878 0.500000
O O10 0.325366 0.652837 0.363298
O O11 0.173786 0.580423 0.590003
O O12 0.202512 0.905123 0.529132
O O13 0.612124 0.379508 0.782840
O O14 0.402898 0.443356 0.661526
O O15 0.389336 0.620174 0.851432
O O16 0.500000 0.144946 0.000000
O O17 0.210050 0.248706 0.570764
O O18 0.500000 0.782790 0.000000
O O19 0.500000 0.065974 0.500000
#
# Coordination Sequence:
#
# PCOD9112616 Si02
#       8
#     2   2   2   2   2   2   2   2
#     4  11  19  35  57  87 119 160 206 265 321 371
#     4  12  24  38  63  98 129 162 216 280 339 379
#     4   9  20  32  53  88 125 157 209 263 320 379
#     4  10  18  37  56  84 122 161 211 260 315 387
#     4  11  22  37  59  87 128 166 209 261 325 403
#     4  11  19  33  58  90 124 157 208 268 324 366
#     4  11  23  37  59  87 127 170 209 259 334 400
#     4  11  21  36  59  95 132 164 206 273 333 386
#
# _framework density 23.74738
#
# number of rings (size 3 to 8) (size 9 to 14) (size 15 to 20)
#    0.000    1.250    3.750    6.750    1.750    0.000 
#    0.000    0.000    0.000    3.000    0.000    1.750 
#    0.000    0.000    0.000    0.000    0.000    0.000 
#
# Total GULP energy -89152.559304 kJ/mol
# GULP energy per Si atom -5572.034956 kJ/mol
# Density = 2.369333 g / cm^3
# Si number density = 23.747380 Si / 1000 Ang^3
#
#
#
# Elastic Constant Matrix: (Units=GPa)
#
#
# Indices 1 2 3 4 5 6 
#
# 1 13.9968 1.5319 10.7621 0.0000 -0.1232 0.0000
# 2 1.5319 166.4353 27.4109 0.0000 -5.8716 0.0000
# 3 10.7621 27.4109 86.4141 0.0000 -10.4908 0.0000
# 4 0.0000 0.0000 0.0000 59.9362 0.0000 46.6628
# 5 -0.1232 -5.8716 -10.4908 0.0000 22.4956 0.0000
# 6 0.0000 0.0000 0.0000 46.6628 0.0000 156.3992
#
#
#
# Elastic Compliance Matrix: (Units=1/GPa)
#
#
# Indices 1 2 3 4 5 6 
#
# 1 0.079546 0.000879 -0.010711 0.000000 -0.004330 0.000000
# 2 0.000879 0.006362 -0.002041 0.000000 0.000714 0.000000
# 3 -0.010711 -0.002041 0.014291 0.000000 0.006073 0.000000
# 4 0.000000 0.000000 0.000000 0.021733 0.000000 -0.006484
# 5 -0.004330 0.000714 0.006073 0.000000 0.047448 0.000000
# 6 0.000000 0.000000 0.000000 -0.006484 0.000000 0.008328
#
#
# Mechanical properties :
#
#
# Convention : Reuss Voigt Hill
#
# Bulk Modulus (GPa) = 13.07997 38.47287 25.77642
# Shear Modulus (GPa) = 22.03247 62.90894 42.47071
#
# Velocity S-wave (km/s) = 3.04926 5.15251 4.23358
# Velocity P-wave (km/s) = 4.23288 7.18568 5.89708
#
# Compressibility (1/GPa) = 0.07645277
#
# Stress axis : x y z
#
# Youngs Moduli (GPa) = 12.57129 157.19502 69.97488
#
# Poissons Ratio (x) = -0.13821 0.74953
# Poissons Ratio (y) = -0.01105 0.14280
# Poissons Ratio (z) = 0.13466 0.32080
#
# Static dielectric constant tensor:
#      x y z
#    x 0.336640 0.000000 -0.658170 
#    y 0.000000 2.045010 0.000000 
#    z -0.658170 0.000000 1.701790 
# 
# From -- ./inp_files/10744.got.cif
#   From: 2010.05.17/outbox.cif.g08.bks.cpg/sg3_6_cif.got.tgz:10744.got - 2010.06.03 18:33:08.
