data_PCOD9112835
_publ_section_title
;
Structure prediction by ZEFSAII (Michael W. Deem and Ramdas Pophale) SiO2 
 PCOD9112835
Probable space group: P 2
;
_chemical_formula_sum "Si O2"
_cell_formula_units_Z 14
_cell_length_a 11.961459
_cell_length_b 8.286579
_cell_length_c 9.926824
_cell_angle_alpha 90.000000
_cell_angle_beta 139.190189
_cell_angle_gamma 90.000000
_cell_volume 643.055885
_symmetry_space_group_name_H-M "P 2"
_symmetry_group_IT_number 3
_symmetry_cell_setting 'monoclinic'
loop_
_space_group_symop_operation_xyz
x,y,z
-x,y,-z
loop_
_atom_site_type_symbol
_atom_site_label
_atom_site_fract_x
_atom_site_fract_y
_atom_site_fract_z
Si Si1 0.137907 0.634330 0.511414
Si Si2 0.628567 0.383159 0.713026
Si Si3 0.721263 0.984760 0.408168
Si Si4 0.178065 0.104559 0.219651
Si Si5 0.401076 0.334932 0.769283
Si Si6 0.602032 0.858219 0.732863
Si Si7 0.103623 0.628220 0.965692
O O1 0.206558 0.819501 0.591923
O O2 0.280205 0.492883 0.640885
O O3 0.000000 0.598980 0.500000
O O4 0.032267 0.625679 0.276384
O O5 0.500000 0.485405 0.500000
O O6 0.681395 0.244027 0.655450
O O7 0.534697 0.335817 0.765801
O O8 0.810830 0.459965 0.915258
O O9 0.534359 0.931526 0.290233
O O10 0.830676 0.023319 0.642627
O O11 0.698184 0.160880 0.318339
O O12 0.255185 0.983386 0.181798
O O13 0.000000 0.159798 0.000000
O O14 0.500000 0.351588 0.000000
O O15 0.500000 0.823849 0.500000
O O16 0.718181 0.719930 0.902750
O O17 0.000000 0.694770 0.000000
#
# Coordination Sequence:
#
# PCOD9112835 Si02
#       7
#     2   2   2   2   2   2   2
#     4  12  29  51  70 106 151 189 245 304 360 429
#     4  12  22  42  69 104 145 184 241 294 352 430
#     4  11  24  47  75 101 144 195 242 291 362 433
#     4  11  21  38  67 107 147 176 227 305 354 414
#     4  12  27  49  74 105 143 193 249 293 361 442
#     4  10  19  39  65 102 142 180 237 287 348 432
#     4  12  24  40  69 108 141 191 237 296 368 414
#
# _framework density 21.771049000000001
#
# number of rings (size 3 to 8) (size 9 to 14) (size 15 to 20)
#    0.000    0.571    2.857    6.857    2.000    2.286 
#    2.571    0.000    0.000    0.000    0.000    0.000 
#    0.000    0.000    0.000    0.000    0.000    0.000 
#
# Total GULP energy -78113.787261 kJ/mol
# GULP energy per Si atom -5579.556233 kJ/mol
# Density = 2.172150 g / cm^3
# Si number density = 21.771049 Si / 1000 Ang^3
#
#
#
# Elastic Constant Matrix: (Units=GPa)
#
#
# Indices 1 2 3 4 5 6 
#
# 1 52.2293 17.8009 38.6802 0.0000 9.5862 0.0000
# 2 17.8009 112.9681 28.8574 0.0000 22.1165 0.0000
# 3 38.6802 28.8574 140.9284 0.0000 9.7766 0.0000
# 4 0.0000 0.0000 0.0000 37.7218 0.0000 14.9365
# 5 9.5862 22.1165 9.7766 0.0000 29.2839 0.0000
# 6 0.0000 0.0000 0.0000 14.9365 0.0000 31.9214
#
#
#
# Elastic Compliance Matrix: (Units=1/GPa)
#
#
# Indices 1 2 3 4 5 6 
#
# 1 0.025205 -0.001364 -0.006283 0.000000 -0.005123 0.000000
# 2 -0.001364 0.010836 -0.001339 0.000000 -0.007291 0.000000
# 3 -0.006283 -0.001339 0.009092 0.000000 0.000033 0.000000
# 4 0.000000 0.000000 0.000000 0.032539 0.000000 -0.015225
# 5 -0.005123 -0.007291 0.000033 0.000000 0.041321 0.000000
# 6 0.000000 0.000000 0.000000 -0.015225 0.000000 0.038451
#
#
# Mechanical properties :
#
#
# Convention : Reuss Voigt Hill
#
# Bulk Modulus (GPa) = 36.81628 52.97809 44.89718
# Shear Modulus (GPa) = 27.10480 34.50456 30.80468
#
# Velocity S-wave (km/s) = 3.53227 3.98538 3.76565
# Velocity P-wave (km/s) = 5.79511 6.75016 6.29079
#
# Compressibility (1/GPa) = 0.02716190
#
# Stress axis : x y z
#
# Youngs Moduli (GPa) = 39.67521 92.28258 109.98383
#
# Poissons Ratio (x) = 0.12583 0.69105
# Poissons Ratio (y) = 0.05410 0.14726
# Poissons Ratio (z) = 0.24929 0.12356
#
# Static dielectric constant tensor:
#      x y z
#    x 1.760570 0.000000 0.039330 
#    y 0.000000 1.936810 0.000000 
#    z 0.039330 0.000000 1.759280 
# 
# From -- ./inp_files/7572.got.cif
#   From: 2010.05.17/outbox.cif.g08.bks.cpg/sg3_4_cif.got.tgz:7572.got - 2010.06.03 18:33:08.
