data_PCOD9112087
_publ_section_title
;
Structure prediction by ZEFSAII (Michael W. Deem and Ramdas Pophale) SiO2 
 PCOD9112087
Probable space group: P -1
;
_chemical_formula_sum "Si O2"
_cell_formula_units_Z 14
_cell_length_a 5.665422
_cell_length_b 19.803958
_cell_length_c 10.597694
_cell_angle_alpha 39.884644
_cell_angle_beta 129.646540
_cell_angle_gamma 118.399839
_cell_volume 586.857823
_symmetry_space_group_name_H-M "P -1"
_symmetry_group_IT_number 2
_symmetry_cell_setting 'triclinic'
loop_
_space_group_symop_operation_xyz
x,y,z
-x,-y,-z
loop_
_atom_site_type_symbol
_atom_site_label
_atom_site_fract_x
_atom_site_fract_y
_atom_site_fract_z
Si Si1 0.041984 0.371522 0.728354
Si Si2 0.568218 0.244425 0.205226
Si Si3 0.057783 0.937483 0.480393
Si Si4 0.477493 0.784295 0.482404
Si Si5 0.893797 0.616769 0.773295
Si Si6 0.164489 0.956162 0.990184
Si Si7 0.394454 0.383002 0.589319
O O1 0.232057 0.333799 0.724278
O O2 0.000000 0.500000 0.500000
O O3 0.710278 0.335224 0.710397
O O4 0.265258 0.318534 0.986467
O O5 0.635371 0.136970 0.305882
O O6 0.633412 0.211201 0.419360
O O7 0.841227 0.320738 0.158195
O O8 0.777215 0.857465 0.479121
O O9 0.000000 0.000000 0.500000
O O10 0.040204 0.014792 0.242753
O O11 0.580418 0.665432 0.653827
O O12 0.244782 0.836565 0.228727
O O13 0.845775 0.623112 0.597707
O O14 0.000000 0.500000 0.000000
O O15 0.500000 0.000000 0.000000
O O16 0.000000 0.000000 0.000000
O O17 0.500000 0.500000 0.500000
#
# Coordination Sequence:
#
# PCOD9112087 Si02
#       7
#     2   2   2   2   2   2   2
#     4  10  23  41  66  93 142 183 225 289 352 410
#     4  11  24  43  71 101 140 187 243 294 353 435
#     4  10  23  44  72 105 138 181 236 304 369 431
#     4  10  24  42  68 100 140 183 239 290 359 434
#     4  11  25  42  69  99 138 192 242 290 346 428
#     4  10  20  44  69  96 137 180 222 292 362 426
#     4  10  23  43  62  93 132 184 231 287 350 403
#
# _framework density 23.855865999999999
#
# number of rings (size 3 to 8) (size 9 to 14) (size 15 to 20)
#    0.000    1.714    1.429    1.714   10.000    2.286 
#    0.000    0.000    0.000    0.000    0.000    0.000 
#    0.000    0.000    0.000    0.000    0.000    0.000 
#
# Total GULP energy -78046.845442 kJ/mol
# GULP energy per Si atom -5574.774674 kJ/mol
# Density = 2.380157 g / cm^3
# Si number density = 23.855866 Si / 1000 Ang^3
#
#
#
# Elastic Constant Matrix: (Units=GPa)
#
#
# Indices 1 2 3 4 5 6 
#
# 1 133.1504 35.9609 33.3627 -7.6388 4.3203 -18.0639
# 2 35.9609 95.6830 46.4494 -9.4881 11.8662 -22.7673
# 3 33.3627 46.4494 154.3361 -23.2326 18.8850 -16.8009
# 4 -7.6388 -9.4881 -23.2326 36.4784 -11.4640 5.3463
# 5 4.3203 11.8662 18.8850 -11.4640 37.5426 10.5699
# 6 -18.0639 -22.7673 -16.8009 5.3463 10.5699 41.3275
#
#
#
# Elastic Compliance Matrix: (Units=1/GPa)
#
#
# Indices 1 2 3 4 5 6 
#
# 1 0.008664 -0.002210 -0.000872 0.000207 -0.000445 0.002303
# 2 -0.002210 0.015040 -0.002674 -0.001207 -0.005735 0.007856
# 3 -0.000872 -0.002674 0.008539 0.003383 -0.002854 0.001910
# 4 0.000207 -0.001207 0.003383 0.033571 0.010673 -0.006272
# 5 -0.000445 -0.005735 -0.002854 0.010673 0.037560 -0.015501
# 6 0.002303 0.007856 0.001910 -0.006272 -0.015501 0.035084
#
#
# Mechanical properties :
#
#
# Convention : Reuss Voigt Hill
#
# Bulk Modulus (GPa) = 48.23058 68.30172 58.26615
# Shear Modulus (GPa) = 31.87177 40.89614 36.38395
#
# Velocity S-wave (km/s) = 3.65912 4.14490 3.90956
# Velocity P-wave (km/s) = 6.17362 7.18332 6.69753
#
# Compressibility (1/GPa) = 0.02073373
#
# Stress axis : x y z
#
# Youngs Moduli (GPa) = 115.41827 66.48776 117.11015
#
# Poissons Ratio (x) = 0.14691 0.10208
# Poissons Ratio (y) = 0.25502 0.31312
# Poissons Ratio (z) = 0.10060 0.17777
#
# Static dielectric constant tensor:
#      x y z
#    x 2.208570 0.016130 0.221260 
#    y 0.016130 1.943660 -0.127290 
#    z 0.221260 -0.127290 1.845570 
# 
# From -- ./inp_files/53067.got.cif
#   From: 2010.05.17/outbox.cif.g08.bks.cpg/sg2_27_cif.got.tgz:53067.got - 2010.06.03 11:33:40.
