data_PCOD9112666
_publ_section_title
;
Structure prediction by ZEFSAII (Michael W. Deem and Ramdas Pophale) SiO2 
 PCOD9112666
Probable space group: P 2
;
_chemical_formula_sum "Si O2"
_cell_formula_units_Z 15
_cell_length_a 7.591898
_cell_length_b 16.514345
_cell_length_c 5.423054
_cell_angle_alpha 90.000000
_cell_angle_beta 60.679825
_cell_angle_gamma 90.000000
_cell_volume 592.817177
_symmetry_space_group_name_H-M "P 2"
_symmetry_group_IT_number 3
_symmetry_cell_setting 'monoclinic'
loop_
_space_group_symop_operation_xyz
x,y,z
-x,y,-z
loop_
_atom_site_type_symbol
_atom_site_label
_atom_site_fract_x
_atom_site_fract_y
_atom_site_fract_z
Si Si1 0.712297 0.949800 0.000041
Si Si2 0.500000 0.851201 0.500000
Si Si3 0.246965 0.130623 0.950484
Si Si4 0.294672 0.194823 0.414907
Si Si5 0.245898 0.375639 0.353622
Si Si6 0.227115 0.780284 0.273377
Si Si7 0.135165 0.617208 0.153239
Si Si8 0.756526 0.453352 0.143880
O O1 0.669724 0.914691 0.299293
O O2 0.803758 0.037841 0.952950
O O3 0.500000 0.960104 0.000000
O O4 0.803859 0.869031 0.822745
O O5 0.397483 0.797392 0.360644
O O6 0.181287 0.157817 0.726198
O O7 0.491507 0.146990 0.754949
O O8 0.193002 0.183469 0.221404
O O9 0.318262 0.290608 0.417795
O O10 0.306123 0.440548 0.526688
O O11 0.000000 0.374076 0.500000
O O12 0.310702 0.391140 0.024749
O O13 0.268518 0.697785 0.098597
O O14 0.000000 0.759725 0.500000
O O15 0.000000 0.597828 0.500000
O O16 0.265574 0.540173 0.974988
O O17 0.000000 0.633687 0.000000
O O18 0.000000 0.444148 0.000000
#
# Coordination Sequence:
#
# PCOD9112666 Si02
#       8
#     2   1   2   2   2   2   2   2
#     4  10  20  38  63  89 121 172 223 277 332 404
#     4  10  22  40  66  92 130 182 228 268 358 386
#     4  10  20  35  59  79 111 154 216 253 309 392
#     4  10  19  33  56  83 107 149 202 261 304 376
#     4  10  19  32  54  83 121 150 195 253 323 383
#     4  10  24  39  66  99 134 175 230 288 332 404
#     4  10  20  36  61  93 128 163 217 276 329 396
#     4   9  17  32  54  84 116 159 197 248 315 392
#
# _framework density 25.302913
#
# number of rings (size 3 to 8) (size 9 to 14) (size 15 to 20)
#    0.000    2.133    1.333    3.600    5.600    0.000 
#    0.000    0.667    2.933    1.600   10.400    0.000 
#    0.000    0.000    0.000    0.000    0.000    0.000 
#
# Total GULP energy -83651.972367 kJ/mol
# GULP energy per Si atom -5576.798158 kJ/mol
# Density = 2.524532 g / cm^3
# Si number density = 25.302913 Si / 1000 Ang^3
#
#
#
# Elastic Constant Matrix: (Units=GPa)
#
#
# Indices 1 2 3 4 5 6 
#
# 1 69.8111 10.4427 -6.9757 0.0000 14.3560 0.0000
# 2 10.4427 177.2542 41.0264 0.0000 24.0445 0.0000
# 3 -6.9757 41.0264 152.4063 0.0000 31.3527 0.0000
# 4 0.0000 0.0000 0.0000 38.5423 0.0000 12.2272
# 5 14.3560 24.0445 31.3527 0.0000 32.5464 0.0000
# 6 0.0000 0.0000 0.0000 12.2272 0.0000 68.4104
#
#
#
# Elastic Compliance Matrix: (Units=1/GPa)
#
#
# Indices 1 2 3 4 5 6 
#
# 1 0.016699 -0.000306 0.002888 0.000000 -0.009921 0.000000
# 2 -0.000306 0.006380 -0.000985 0.000000 -0.003630 0.000000
# 3 0.002888 -0.000985 0.008819 0.000000 -0.009042 0.000000
# 4 0.000000 0.000000 0.000000 0.027505 0.000000 -0.004916
# 5 -0.009921 -0.003630 -0.009042 0.000000 0.046493 0.000000
# 6 0.000000 0.000000 0.000000 -0.004916 0.000000 0.015496
#
#
# Mechanical properties :
#
#
# Convention : Reuss Voigt Hill
#
# Bulk Modulus (GPa) = 28.49740 54.27317 41.38529
# Shear Modulus (GPa) = 38.49243 51.56503 45.02873
#
# Velocity S-wave (km/s) = 3.90457 4.51922 4.22309
# Velocity P-wave (km/s) = 5.62268 6.98048 6.33804
#
# Compressibility (1/GPa) = 0.03509092
#
# Stress axis : x y z
#
# Youngs Moduli (GPa) = 59.88385 156.74111 113.39567
#
# Poissons Ratio (x) = 0.04802 -0.32746
# Poissons Ratio (y) = 0.01835 0.11167
# Poissons Ratio (z) = -0.17293 0.15436
#
# Static dielectric constant tensor:
#      x y z
#    x 1.888670 0.000000 -0.110180 
#    y 0.000000 1.965870 0.000000 
#    z -0.110180 0.000000 2.116060 
# 
# From -- ./inp_files/1581.got.cif
#   From: 2010.05.17/outbox.cif.g08.bks.cpg/sg3_1_cif.got.tgz:1581.got - 2010.06.03 18:33:08.
