data_PCOD9112421
_publ_section_title
;
Structure prediction by ZEFSAII (Michael W. Deem and Ramdas Pophale) SiO2 
 PCOD9112421
Probable space group: P -1
;
_chemical_formula_sum "Si O2"
_cell_formula_units_Z 14
_cell_length_a 11.910305
_cell_length_b 9.266516
_cell_length_c 13.218727
_cell_angle_alpha 69.367405
_cell_angle_beta 61.654735
_cell_angle_gamma 121.917648
_cell_volume 642.559047
_symmetry_space_group_name_H-M "P -1"
_symmetry_group_IT_number 2
_symmetry_cell_setting 'triclinic'
loop_
_space_group_symop_operation_xyz
x,y,z
-x,-y,-z
loop_
_atom_site_type_symbol
_atom_site_label
_atom_site_fract_x
_atom_site_fract_y
_atom_site_fract_z
Si Si1 0.634965 0.130542 0.516512
Si Si2 0.182752 0.041347 0.817170
Si Si3 0.287508 0.460096 0.609622
Si Si4 0.916775 0.863346 0.435565
Si Si5 0.193391 0.732924 0.948044
Si Si6 0.285096 0.100280 0.357346
Si Si7 0.203223 0.417712 0.075358
O O1 0.791398 0.444686 0.365791
O O2 0.500000 0.000000 0.500000
O O3 0.447870 0.968115 0.727297
O O4 0.730313 0.059655 0.520045
O O5 0.207293 0.248617 0.776971
O O6 0.423327 0.253328 0.594259
O O7 0.183094 0.904726 0.932839
O O8 0.954986 0.779600 0.908346
O O9 0.184828 0.301403 0.584972
O O10 0.056875 0.880041 0.436166
O O11 0.105828 0.194600 0.251265
O O12 0.714596 0.742143 0.616842
O O13 0.167760 0.564001 0.077346
O O14 0.000000 0.500000 0.000000
O O15 0.523106 0.329998 0.132680
#
# Coordination Sequence:
#
# PCOD9112421 Si02
#       7
#     2   2   2   2   2   2   2
#     4  10  21  32  54  83 112 138 182 237 270 327
#     4   8  15  28  53  78 109 140 178 213 277 329
#     4   9  18  32  54  81 111 152 176 220 291 322
#     4  10  21  37  60  76 114 152 181 230 270 322
#     4   8  15  28  49  77 104 139 175 209 275 327
#     4  10  22  36  55  89 104 145 201 216 266 337
#     4   9  17  33  56  81 113 141 184 231 271 320
#
# _framework density 21.787880000000001
#
# number of rings (size 3 to 8) (size 9 to 14) (size 15 to 20)
#    0.000    2.857    0.000    0.429   12.000    0.571 
#    0.000    0.714   15.714    0.000    0.000   20.000 
#    0.000    0.000    0.000    0.000    0.000    0.000 
#
# Total GULP energy -78051.739903 kJ/mol
# GULP energy per Si atom -5575.124279 kJ/mol
# Density = 2.173829 g / cm^3
# Si number density = 21.787880 Si / 1000 Ang^3
#
#
#
# Elastic Constant Matrix: (Units=GPa)
#
#
# Indices 1 2 3 4 5 6 
#
# 1 148.4580 32.1925 10.9508 -7.8951 -2.3881 -14.6030
# 2 32.1925 60.3044 -4.0425 -11.1180 -1.1712 -7.2315
# 3 10.9508 -4.0425 55.6652 2.0204 -1.5805 -6.6527
# 4 -7.8951 -11.1180 2.0204 16.6957 -1.4110 11.9640
# 5 -2.3881 -1.1712 -1.5805 -1.4110 28.3087 -3.0606
# 6 -14.6030 -7.2315 -6.6527 11.9640 -3.0606 29.8808
#
#
#
# Elastic Compliance Matrix: (Units=1/GPa)
#
#
# Indices 1 2 3 4 5 6 
#
# 1 0.008007 -0.004165 -0.001464 -0.000912 0.000702 0.003016
# 2 -0.004165 0.021178 0.001701 0.013258 0.001094 -0.001728
# 3 -0.001464 0.001701 0.019482 -0.006720 0.001443 0.006872
# 4 -0.000912 0.013258 -0.006720 0.095653 0.000870 -0.036943
# 5 0.000702 0.001094 0.001443 0.000870 0.036015 0.004270
# 6 0.003016 -0.001728 0.006872 -0.036943 0.004270 0.051281
#
#
# Mechanical properties :
#
#
# Convention : Reuss Voigt Hill
#
# Bulk Modulus (GPa) = 24.50367 38.06989 31.28678
# Shear Modulus (GPa) = 19.75682 29.99882 24.87782
#
# Velocity S-wave (km/s) = 3.01455 3.71463 3.38275
# Velocity P-wave (km/s) = 4.83607 5.99240 5.44502
#
# Compressibility (1/GPa) = 0.04081022
#
# Stress axis : x y z
#
# Youngs Moduli (GPa) = 124.89760 47.21771 51.32884
#
# Poissons Ratio (x) = 0.19667 0.07515
# Poissons Ratio (y) = 0.52022 -0.08730
# Poissons Ratio (z) = 0.18286 -0.08031
#
# Static dielectric constant tensor:
#      x y z
#    x 1.848070 -0.078170 0.015630 
#    y -0.078170 1.793600 0.000210 
#    z 0.015630 0.000210 1.815060 
# 
# From -- ./inp_files/171654.got.cif
#   From: 2010.05.17/outbox.cif.g08.bks.cpg/sg2_86_cif.got.tgz:171654.got - 2010.06.03 11:33:40.
