data_PCOD9112343
_publ_section_title
;
Structure prediction by ZEFSAII (Michael W. Deem and Ramdas Pophale) SiO2 
 PCOD9112343
Probable space group: P -1
;
_chemical_formula_sum "Si O2"
_cell_formula_units_Z 14
_cell_length_a 7.102508
_cell_length_b 9.911826
_cell_length_c 9.905440
_cell_angle_alpha 111.417777
_cell_angle_beta 92.874575
_cell_angle_gamma 117.103699
_cell_volume 557.812174
_symmetry_space_group_name_H-M "P -1"
_symmetry_group_IT_number 2
_symmetry_cell_setting 'triclinic'
loop_
_space_group_symop_operation_xyz
x,y,z
-x,-y,-z
loop_
_atom_site_type_symbol
_atom_site_label
_atom_site_fract_x
_atom_site_fract_y
_atom_site_fract_z
Si Si1 0.930013 0.367402 0.645572
Si Si2 0.958489 0.313336 0.913190
Si Si3 0.617663 0.699960 0.596103
Si Si4 0.550354 0.891723 0.121625
Si Si5 0.210321 0.733795 0.688251
Si Si6 0.558545 0.853346 0.409969
Si Si7 0.186446 0.194205 0.079513
O O1 0.000673 0.298945 0.750404
O O2 0.919537 0.292476 0.468407
O O3 0.681662 0.314300 0.653771
O O4 0.074304 0.566951 0.709057
O O5 0.705749 0.177286 0.889487
O O6 0.000000 0.500000 0.000000
O O7 0.113890 0.290104 0.010854
O O8 0.500000 0.500000 0.500000
O O9 0.428688 0.736025 0.650614
O O10 0.699971 0.816765 0.508164
O O11 0.780863 0.747895 0.744136
O O12 0.634858 0.877123 0.267874
O O13 0.302598 0.909976 0.829993
O O14 0.596658 0.792168 0.973170
O O15 0.500000 0.000000 0.500000
O O16 0.000000 0.000000 0.000000
#
# Coordination Sequence:
#
# PCOD9112343 Si02
#       7
#     2   2   2   2   2   2   2
#     4   9  21  39  71 105 138 187 254 288 366 452
#     4  11  28  48  74 103 154 197 247 307 380 443
#     4  11  26  45  71 105 154 193 253 310 368 446
#     4  11  25  49  82 104 155 195 250 310 381 441
#     4  10  21  42  75 106 140 199 243 305 382 435
#     4  10  20  46  75 106 144 205 246 302 380 446
#     4  12  31  47  75 118 150 194 258 311 376 449
#
# _framework density 25.098051999999999
#
# number of rings (size 3 to 8) (size 9 to 14) (size 15 to 20)
#    0.000    1.429    2.857    0.857   12.000    4.000 
#    0.000    1.429    0.000    0.000    0.000    0.000 
#    0.000    0.000    0.000    0.000    0.000    0.000 
#
# Total GULP energy -78418.628179 kJ/mol
# GULP energy per Si atom -5601.330584 kJ/mol
# Density = 2.504093 g / cm^3
# Si number density = 25.098052 Si / 1000 Ang^3
#
#
#
# Elastic Constant Matrix: (Units=GPa)
#
#
# Indices 1 2 3 4 5 6 
#
# 1 49.5518 18.8436 29.1948 -6.0610 4.3547 -14.3352
# 2 18.8436 128.3283 47.8457 -1.8207 19.3499 1.3906
# 3 29.1948 47.8457 175.0413 -25.8617 22.8722 -22.2288
# 4 -6.0610 -1.8207 -25.8617 57.1084 -3.5418 7.9488
# 5 4.3547 19.3499 22.8722 -3.5418 45.3723 -9.2301
# 6 -14.3352 1.3906 -22.2288 7.9488 -9.2301 43.2789
#
#
#
# Elastic Compliance Matrix: (Units=1/GPa)
#
#
# Indices 1 2 3 4 5 6 
#
# 1 0.024852 -0.003032 -0.002542 0.000480 0.001712 0.007300
# 2 -0.003032 0.009576 -0.002169 -0.000790 -0.003371 -0.003000
# 3 -0.002542 -0.002169 0.007679 0.002700 -0.002035 0.002242
# 4 0.000480 -0.000790 0.002700 0.019028 0.000025 -0.001918
# 5 0.001712 -0.003371 -0.002035 0.000025 0.025366 0.005035
# 6 0.007300 -0.003000 0.002242 -0.001918 0.005035 0.028198
#
#
# Mechanical properties :
#
#
# Convention : Reuss Voigt Hill
#
# Bulk Modulus (GPa) = 37.56348 60.52105 49.04227
# Shear Modulus (GPa) = 35.95615 46.28774 41.12194
#
# Velocity S-wave (km/s) = 3.78911 4.29916 4.05217
# Velocity P-wave (km/s) = 5.84315 6.98641 6.44020
#
# Compressibility (1/GPa) = 0.02662160
#
# Stress axis : x y z
#
# Youngs Moduli (GPa) = 40.23854 104.42702 130.21826
#
# Poissons Ratio (x) = 0.31661 0.33101
# Poissons Ratio (y) = 0.12200 0.28244
# Poissons Ratio (z) = 0.10228 0.22650
#
# Static dielectric constant tensor:
#      x y z
#    x 2.012340 -0.012130 0.021300 
#    y -0.012130 1.971420 -0.031100 
#    z 0.021300 -0.031100 2.077290 
# 
# From -- ./inp_files/171590.got.cif
#   From: 2010.05.17/outbox.cif.g08.bks.cpg/sg2_86_cif.got.tgz:171590.got - 2010.06.03 11:33:40.
