data_PCOD9112803
_publ_section_title
;
Structure prediction by ZEFSAII (Michael W. Deem and Ramdas Pophale) SiO2 
 PCOD9112803
Probable space group: P 2
;
_chemical_formula_sum "Si O2"
_cell_formula_units_Z 14
_cell_length_a 9.076497
_cell_length_b 9.210191
_cell_length_c 11.818134
_cell_angle_alpha 90.000000
_cell_angle_beta 49.717183
_cell_angle_gamma 90.000000
_cell_volume 753.671251
_symmetry_space_group_name_H-M "P 2"
_symmetry_group_IT_number 3
_symmetry_cell_setting 'monoclinic'
loop_
_space_group_symop_operation_xyz
x,y,z
-x,y,-z
loop_
_atom_site_type_symbol
_atom_site_label
_atom_site_fract_x
_atom_site_fract_y
_atom_site_fract_z
Si Si1 0.723206 0.835580 0.896542
Si Si2 0.185469 0.525244 0.214074
Si Si3 0.815521 0.343202 0.400088
Si Si4 0.070480 0.068247 0.346282
Si Si5 0.599378 0.383300 0.278165
Si Si6 0.207254 0.613952 0.954886
Si Si7 0.562664 0.260413 0.842396
O O1 0.760930 0.693515 0.797861
O O2 0.872444 0.955597 0.779965
O O3 0.500000 0.880618 0.000000
O O4 0.751887 0.769553 0.008067
O O5 0.336738 0.418841 0.197040
O O6 0.971863 0.469303 0.348920
O O7 0.204526 0.511200 0.067979
O O8 0.751718 0.347191 0.300555
O O9 0.616470 0.369160 0.565384
O O10 0.920634 0.192319 0.379933
O O11 0.269530 0.151199 0.275615
O O12 0.000000 0.001293 0.500000
O O13 0.647055 0.543139 0.206395
O O14 0.600693 0.273541 0.171074
O O15 0.000000 0.615153 0.000000
O O16 0.500000 0.222937 0.000000
#
# Coordination Sequence:
#
# PCOD9112803 Si02
#       7
#     2   2   2   2   2   2   2
#     4  10  21  41  59  85 118 161 206 249 292 372
#     4   9  19  35  59  88 118 147 204 248 303 354
#     4  10  22  37  61  95 120 157 199 254 316 361
#     4  11  23  42  56  83 128 163 201 249 309 362
#     4  11  19  35  63  92 125 149 201 256 303 364
#     4  10  19  37  63  88 121 153 198 256 308 354
#     4  11  19  34  61  90 114 151 205 259 298 353
#
# _framework density 18.575738999999999
#
# number of rings (size 3 to 8) (size 9 to 14) (size 15 to 20)
#    0.857    0.857    4.286    1.714    0.000    0.000 
#    5.143    2.857    0.000    3.429    0.000    0.000 
#    0.000    0.000    0.000    0.000    0.000    0.000 
#
# Total GULP energy -77964.255944 kJ/mol
# GULP energy per Si atom -5568.875425 kJ/mol
# Density = 1.853346 g / cm^3
# Si number density = 18.575739 Si / 1000 Ang^3
#
#
#
# Elastic Constant Matrix: (Units=GPa)
#
#
# Indices 1 2 3 4 5 6 
#
# 1 81.7743 12.1257 33.8860 0.0000 6.2509 0.0000
# 2 12.1257 73.8927 35.3834 0.0000 -5.9323 0.0000
# 3 33.8860 35.3834 90.0068 0.0000 -3.6363 0.0000
# 4 0.0000 0.0000 0.0000 29.6353 0.0000 2.1054
# 5 6.2509 -5.9323 -3.6363 0.0000 34.7770 0.0000
# 6 0.0000 0.0000 0.0000 2.1054 0.0000 7.7422
#
#
#
# Elastic Compliance Matrix: (Units=1/GPa)
#
#
# Indices 1 2 3 4 5 6 
#
# 1 0.014850 0.000051 -0.005743 0.000000 -0.003261 0.000000
# 2 0.000051 0.016836 -0.006550 0.000000 0.002178 0.000000
# 3 -0.005743 -0.006550 0.015911 0.000000 0.001579 0.000000
# 4 0.000000 0.000000 0.000000 0.034408 0.000000 -0.009357
# 5 -0.003261 0.002178 0.001579 0.000000 0.029877 0.000000
# 6 0.000000 0.000000 0.000000 -0.009357 0.000000 0.131706
#
#
# Mechanical properties :
#
#
# Convention : Reuss Voigt Hill
#
# Bulk Modulus (GPa) = 43.26311 45.38489 44.32400
# Shear Modulus (GPa) = 18.13064 25.38282 21.75673
#
# Velocity S-wave (km/s) = 3.12755 3.70056 3.42606
# Velocity P-wave (km/s) = 6.03181 6.53791 6.28995
#
# Compressibility (1/GPa) = 0.02311438
#
# Stress axis : x y z
#
# Youngs Moduli (GPa) = 67.33945 59.39671 62.84993
#
# Poissons Ratio (x) = -0.00304 0.36093
# Poissons Ratio (y) = -0.00345 0.41166
# Poissons Ratio (z) = 0.38671 0.38904
#
# Static dielectric constant tensor:
#      x y z
#    x 1.640360 0.000000 0.023500 
#    y 0.000000 1.652440 0.000000 
#    z 0.023500 0.000000 1.691140 
# 
# From -- ./inp_files/10587.got.cif
#   From: 2010.05.17/outbox.cif.g08.bks.cpg/sg3_6_cif.got.tgz:10587.got - 2010.06.03 18:33:08.
