data_PCOD9112524
_publ_section_title
;
Structure prediction by ZEFSAII (Michael W. Deem and Ramdas Pophale) SiO2 
 PCOD9112524
Probable space group: P 2
;
_chemical_formula_sum "Si O2"
_cell_formula_units_Z 14
_cell_length_a 15.155809
_cell_length_b 8.483338
_cell_length_c 11.579618
_cell_angle_alpha 90.000000
_cell_angle_beta 28.543009
_cell_angle_gamma 90.000000
_cell_volume 711.382068
_symmetry_space_group_name_H-M "P 2"
_symmetry_group_IT_number 3
_symmetry_cell_setting 'monoclinic'
loop_
_space_group_symop_operation_xyz
x,y,z
-x,y,-z
loop_
_atom_site_type_symbol
_atom_site_label
_atom_site_fract_x
_atom_site_fract_y
_atom_site_fract_z
Si Si1 0.705513 0.851940 0.275687
Si Si2 0.406824 0.256510 0.293263
Si Si3 0.636210 0.205681 0.253452
Si Si4 0.500000 0.004794 0.000000
Si Si5 0.080412 0.862625 0.734526
Si Si6 0.973001 0.235652 0.168695
Si Si7 0.191101 0.764187 0.350584
Si Si8 0.500000 0.504497 0.000000
O O1 0.500000 0.783243 0.500000
O O2 0.776199 0.834941 0.325628
O O3 0.683024 0.036788 0.261094
O O4 0.878669 0.793186 0.000448
O O5 0.526138 0.191893 0.262214
O O6 0.210330 0.312001 0.569841
O O7 0.495292 0.397611 0.119607
O O8 0.402395 0.114622 0.206637
O O9 0.500000 0.290290 0.500000
O O10 0.830982 0.287932 0.006656
O O11 0.663881 0.896449 0.862200
O O12 0.145807 0.805038 0.535725
O O13 0.056652 0.051967 0.765055
O O14 0.000000 0.250020 0.000000
O O15 0.315014 0.607965 0.207123
O O16 0.000000 0.758154 0.500000
#
# Coordination Sequence:
#
# PCOD9112524 Si02
#       8
#     2   2   2   1   2   2   2   1
#     4   9  17  28  54  92 132 154 180 243 338 386
#     4  11  22  40  64  94 131 165 214 266 321 382
#     4  10  18  29  57  97 131 159 187 248 333 391
#     4  10  24  36  62 102 124 158 214 282 322 370
#     4  10  18  33  56  93 129 155 198 258 321 384
#     4  11  17  32  58  99 133 151 186 261 333 382
#     4  11  25  43  64  87 126 175 228 264 315 369
#     4  10  28  50  60  80 128 190 228 260 302 370
#
# _framework density 19.68
#
# number of rings (size 3 to 8) (size 9 to 14) (size 15 to 20)
#    0.000    1.714    5.714    0.857    4.000    2.286 
#    0.000    2.857    3.143    0.857    0.000    0.000 
#    0.000    0.000    0.000    0.000    0.000    0.000 
#
# Total GULP energy -78026.433207 kJ/mol
# GULP energy per Si atom -5573.316658 kJ/mol
# Density = 1.963521 g / cm^3
# Si number density = 19.680000 Si / 1000 Ang^3
#
#
#
# Elastic Constant Matrix: (Units=GPa)
#
#
# Indices 1 2 3 4 5 6 
#
# 1 92.9360 19.8810 58.1189 0.0000 -6.1804 0.0000
# 2 19.8810 33.7085 17.9958 0.0000 4.9699 0.0000
# 3 58.1189 17.9958 151.6145 0.0000 -4.8548 0.0000
# 4 0.0000 0.0000 0.0000 16.1239 0.0000 -1.2445
# 5 -6.1804 4.9699 -4.8548 0.0000 46.3725 0.0000
# 6 0.0000 0.0000 0.0000 -1.2445 0.0000 -0.3818
#
#
#
# Elastic Compliance Matrix: (Units=1/GPa)
#
#
# Indices 1 2 3 4 5 6 
#
# 1 0.015539 -0.006788 -0.005078 0.000000 0.002267 0.000000
# 2 -0.006788 0.035320 -0.001746 0.000000 -0.004873 0.000000
# 3 -0.005078 -0.001746 0.008763 0.000000 0.000428 0.000000
# 4 0.000000 0.000000 0.000000 0.049552 0.000000 -0.161532
# 5 0.002267 -0.004873 0.000428 0.000000 0.022434 0.000000
# 6 0.000000 0.000000 0.000000 -0.161532 0.000000 -2.092877
#
#
# Mechanical properties :
#
#
# Convention : Reuss Voigt Hill
#
# Bulk Modulus (GPa) = 30.86653 52.25003 41.55828
# Shear Modulus (GPa) = -2.59977 24.57382 10.98703
#
# Velocity S-wave (km/s) = -1.15060 3.53749 2.36537
# Velocity P-wave (km/s) = 3.73538 6.57971 5.35003
#
# Compressibility (1/GPa) = 0.03239756
#
# Stress axis : x y z
#
# Youngs Moduli (GPa) = 64.35581 28.31240 114.11204
#
# Poissons Ratio (x) = 0.19218 0.57949
# Poissons Ratio (y) = 0.43683 0.19929
# Poissons Ratio (z) = 0.32681 0.04944
#
# Static dielectric constant tensor:
#      x y z
#    x 1.680070 0.000000 -0.011200 
#    y 0.000000 1.709010 0.000000 
#    z -0.011200 0.000000 1.775670 
# 
# From -- ./inp_files/12204.got.cif
#   From: 2010.05.17/outbox.cif.g08.bks.cpg/sg3_7_cif.got.tgz:12204.got - 2010.06.03 18:33:08.
