data_PCOD9112317
_publ_section_title
;
Structure prediction by ZEFSAII (Michael W. Deem and Ramdas Pophale) SiO2 
 PCOD9112317
Probable space group: P -1
;
_chemical_formula_sum "Si O2"
_cell_formula_units_Z 16
_cell_length_a 10.684736
_cell_length_b 12.701728
_cell_length_c 14.218282
_cell_angle_alpha 118.260631
_cell_angle_beta 26.679268
_cell_angle_gamma 112.577869
_cell_volume 759.377698
_symmetry_space_group_name_H-M "P -1"
_symmetry_group_IT_number 2
_symmetry_cell_setting 'triclinic'
loop_
_space_group_symop_operation_xyz
x,y,z
-x,-y,-z
loop_
_atom_site_type_symbol
_atom_site_label
_atom_site_fract_x
_atom_site_fract_y
_atom_site_fract_z
Si Si1 0.333776 0.536935 0.492557
Si Si2 0.736987 0.329618 0.218314
Si Si3 0.246970 0.153564 0.473856
Si Si4 0.321773 0.534214 0.289634
Si Si5 0.043233 0.670666 0.386797
Si Si6 0.426242 0.029503 0.951604
Si Si7 0.036934 0.839274 0.144076
Si Si8 0.461249 0.270319 0.105190
O O1 0.613296 0.454461 0.304590
O O2 0.237721 0.636434 0.675730
O O3 0.384992 0.579828 0.370510
O O4 0.091740 0.445776 0.612366
O O5 0.492009 0.241026 0.338374
O O6 0.991435 0.254911 0.960924
O O7 0.979520 0.227830 0.634804
O O8 0.197426 0.133697 0.608445
O O9 0.339974 0.035446 0.301314
O O10 0.493882 0.404792 0.105056
O O11 0.000000 0.500000 0.500000
O O12 0.314817 0.625384 0.246408
O O13 0.814293 0.723014 0.640284
O O14 0.407326 0.172188 0.022034
O O15 0.500000 0.000000 0.000000
O O16 0.148915 0.963846 0.089150
O O17 0.290562 0.771550 0.007177
#
# Coordination Sequence:
#
# PCOD9112317 Si02
#       8
#     2   2   2   2   2   2   2   2
#     4   8  13  25  46  61  83 123 144 174 224 245
#     4   9  15  28  43  61  91 114 148 182 207 266
#     4  10  18  28  42  70  89 120 144 174 224 254
#     4   8  14  25  48  67  87 117 143 178 217 260
#     4   9  15  29  44  67  93 112 147 180 209 267
#     4   9  16  28  43  63  93 114 143 183 213 270
#     4  10  17  27  43  64  94 117 141 179 221 260
#     4   9  14  28  43  62  91 118 137 179 221 255
#
# _framework density 21.069883000000001
#
# number of rings (size 3 to 8) (size 9 to 14) (size 15 to 20)
#    0.000    3.250    6.250    0.000    0.000    2.000 
#    0.000    6.250    0.000    0.000    0.000   31.500 
#    0.000   18.000    0.000    0.000    0.000    0.000 
#
# Total GULP energy -89104.288755 kJ/mol
# GULP energy per Si atom -5569.018047 kJ/mol
# Density = 2.102193 g / cm^3
# Si number density = 21.069883 Si / 1000 Ang^3
#
#
#
# Elastic Constant Matrix: (Units=GPa)
#
#
# Indices 1 2 3 4 5 6 
#
# 1 72.0800 26.9190 30.9758 18.5421 38.7997 5.0687
# 2 26.9190 45.5558 33.7836 15.7758 23.6880 8.1129
# 3 30.9758 33.7836 81.1922 16.1355 45.8040 13.1096
# 4 18.5421 15.7758 16.1355 31.7318 11.9790 14.7720
# 5 38.7997 23.6880 45.8040 11.9790 44.4570 8.8468
# 6 5.0687 8.1129 13.1096 14.7720 8.8468 17.8672
#
#
#
# Elastic Compliance Matrix: (Units=1/GPa)
#
#
# Indices 1 2 3 4 5 6 
#
# 1 0.034455 -0.006684 0.010794 -0.016411 -0.036596 0.017030
# 2 -0.006684 0.037374 -0.011148 -0.009360 -0.000267 0.000976
# 3 0.010794 -0.011148 0.035973 -0.003145 -0.039223 -0.002373
# 4 -0.016411 -0.009360 -0.003145 0.064921 0.014984 -0.049880
# 5 -0.036596 -0.000267 -0.039223 0.014984 0.094954 -0.020122
# 6 0.017030 0.000976 -0.002373 -0.049880 -0.020122 0.103637
#
#
# Mechanical properties :
#
#
# Convention : Reuss Voigt Hill
#
# Bulk Modulus (GPa) = 10.66955 42.46497 26.56726
# Shear Modulus (GPa) = 12.00098 25.95449 18.97773
#
# Velocity S-wave (km/s) = 2.38918 3.51355 3.00443
# Velocity P-wave (km/s) = 3.56171 6.05460 4.96709
#
# Compressibility (1/GPa) = 0.09372468
#
# Stress axis : x y z
#
# Youngs Moduli (GPa) = 29.02366 26.75628 27.79861
#
# Poissons Ratio (x) = 0.17884 -0.30005
# Poissons Ratio (y) = 0.19400 0.30990
# Poissons Ratio (z) = -0.31327 0.29828
#
# Static dielectric constant tensor:
#      x y z
#    x 1.790680 -0.016810 0.017210 
#    y -0.016810 1.806200 -0.011380 
#    z 0.017210 -0.011380 1.884260 
# 
# From -- ./inp_files/520948.got.cif
#   From: 2010.05.17/outbox.cif.g08.bks.cpg/sg2_261_cif.got.tgz:520948.got - 2010.06.03 11:33:40.
