data_PCOD9112932
_publ_section_title
;
Structure prediction by ZEFSAII (Michael W. Deem and Ramdas Pophale) SiO2 
 PCOD9112932
Probable space group: P 2
;
_chemical_formula_sum "Si O2"
_cell_formula_units_Z 11
_cell_length_a 16.082885
_cell_length_b 5.975883
_cell_length_c 4.915736
_cell_angle_alpha 90.000000
_cell_angle_beta 109.315959
_cell_angle_gamma 90.000000
_cell_volume 445.853955
_symmetry_space_group_name_H-M "P 2"
_symmetry_group_IT_number 3
_symmetry_cell_setting 'monoclinic'
loop_
_space_group_symop_operation_xyz
x,y,z
-x,y,-z
loop_
_atom_site_type_symbol
_atom_site_label
_atom_site_fract_x
_atom_site_fract_y
_atom_site_fract_z
Si Si1 0.840126 0.803070 0.849483
Si Si2 0.000000 0.561005 0.000000
Si Si3 0.600485 0.779824 0.135824
Si Si4 0.670644 0.030708 0.733422
Si Si5 0.092257 0.194224 0.463318
Si Si6 0.264019 0.424367 0.589301
O O1 0.787239 0.611174 0.638479
O O2 0.765370 0.931220 0.930118
O O3 0.877039 0.984922 0.679846
O O4 0.926857 0.703355 0.081310
O O5 0.054786 0.399616 0.248659
O O6 0.664702 0.564946 0.160397
O O7 0.624449 0.870281 0.460668
O O8 0.500000 0.707563 0.000000
O O9 0.615140 0.990168 0.946111
O O10 0.691160 0.254558 0.581170
O O11 0.185652 0.298155 0.672596
O O12 0.000000 0.123870 0.500000
#
# Coordination Sequence:
#
# PCOD9112932 Si02
#       6
#     2   1   2   2   2   2
#     4   9  20  40  58  93 134 177 232 292 345 416
#     4  10  20  36  58  90 128 182 234 282 346 408
#     4  11  24  45  74 106 141 183 241 301 363 434
#     4  10  23  44  68 101 142 185 236 298 360 431
#     4  10  21  38  61  95 134 182 238 287 343 421
#     4   9  22  44  65 101 139 189 230 293 365 429
#
# _framework density 24.671754
#
# number of rings (size 3 to 8) (size 9 to 14) (size 15 to 20)
#    0.000    2.182    0.000    1.091    2.545    6.545 
#   32.727    3.636    0.000    0.000    0.000    0.000 
#    0.000    0.000    0.000    0.000    0.000    0.000 
#
# Total GULP energy -61356.894445 kJ/mol
# GULP energy per Si atom -5577.899495 kJ/mol
# Density = 2.461560 g / cm^3
# Si number density = 24.671754 Si / 1000 Ang^3
#
#
#
# Elastic Constant Matrix: (Units=GPa)
#
#
# Indices 1 2 3 4 5 6 
#
# 1 141.9272 51.1347 43.9484 0.0000 34.6498 0.0000
# 2 51.1347 109.7519 38.2836 0.0000 32.9215 0.0000
# 3 43.9484 38.2836 76.2389 0.0000 16.4463 0.0000
# 4 0.0000 0.0000 0.0000 58.1177 0.0000 -88.4488
# 5 34.6498 32.9215 16.4463 0.0000 36.9370 0.0000
# 6 0.0000 0.0000 0.0000 -88.4488 0.0000 522.2848
#
#
#
# Elastic Compliance Matrix: (Units=1/GPa)
#
#
# Indices 1 2 3 4 5 6 
#
# 1 0.010406 -0.001507 -0.003790 0.000000 -0.006730 0.000000
# 2 -0.001507 0.014048 -0.004192 0.000000 -0.009240 0.000000
# 3 -0.003790 -0.004192 0.017516 0.000000 -0.000508 0.000000
# 4 0.000000 0.000000 0.000000 0.023181 0.000000 0.003926
# 5 -0.006730 -0.009240 -0.000508 0.000000 0.041848 0.000000
# 6 0.000000 0.000000 0.000000 0.003926 0.000000 0.002579
#
#
# Mechanical properties :
#
#
# Convention : Reuss Voigt Hill
#
# Bulk Modulus (GPa) = 43.49459 66.07237 54.78348
# Shear Modulus (GPa) = 36.70561 136.43800 86.57181
#
# Velocity S-wave (km/s) = 3.86133 7.44455 5.93006
# Velocity P-wave (km/s) = 6.12760 10.03663 8.31508
#
# Compressibility (1/GPa) = 0.02299137
#
# Stress axis : x y z
#
# Youngs Moduli (GPa) = 96.10271 71.18649 57.09166
#
# Poissons Ratio (x) = 0.10730 0.21635
# Poissons Ratio (y) = 0.14486 0.23932
# Poissons Ratio (z) = 0.36418 0.29841
#
# Static dielectric constant tensor:
#      x y z
#    x 1.818660 0.000000 0.324470 
#    y 0.000000 2.034290 0.000000 
#    z 0.324470 0.000000 1.564020 
# 
# From -- ./inp_files/2684.got.cif
#   From: 2010.05.17/outbox.cif.g08.bks.cpg/sg3_2_cif.got.tgz:2684.got - 2010.06.03 18:33:08.
