data_PCOD9112392
_publ_section_title
;
Structure prediction by ZEFSAII (Michael W. Deem and Ramdas Pophale) SiO2 
 PCOD9112392
Probable space group: P -1
;
_chemical_formula_sum "Si O2"
_cell_formula_units_Z 16
_cell_length_a 15.506705
_cell_length_b 15.453474
_cell_length_c 13.432541
_cell_angle_alpha 82.507623
_cell_angle_beta 90.613801
_cell_angle_gamma 161.327849
_cell_volume 955.018037
_symmetry_space_group_name_H-M "P -1"
_symmetry_group_IT_number 2
_symmetry_cell_setting 'triclinic'
loop_
_space_group_symop_operation_xyz
x,y,z
-x,-y,-z
loop_
_atom_site_type_symbol
_atom_site_label
_atom_site_fract_x
_atom_site_fract_y
_atom_site_fract_z
Si Si1 0.556487 0.155548 0.992563
Si Si2 0.450226 0.599445 0.378459
Si Si3 0.014820 0.318236 0.976803
Si Si4 0.902000 0.925996 0.870455
Si Si5 0.134550 0.031830 0.491647
Si Si6 0.494702 0.236758 0.835175
Si Si7 0.462384 0.434096 0.273899
Si Si8 0.365968 0.509893 0.010807
O O1 0.808904 0.425901 0.029270
O O2 0.629090 0.275852 0.871554
O O3 0.257188 0.915270 0.057268
O O4 0.500000 0.000000 0.000000
O O5 0.708483 0.844564 0.423499
O O6 0.451437 0.678548 0.287129
O O7 0.476303 0.537213 0.320931
O O8 0.144701 0.297783 0.476626
O O9 0.243485 0.463047 0.938666
O O10 0.843498 0.110215 0.100032
O O11 0.789261 0.805855 0.774311
O O12 0.849726 0.780323 0.939383
O O13 0.674755 0.771178 0.942075
O O14 0.229484 0.273654 0.820000
O O15 0.373903 0.271970 0.372853
O O16 0.000000 0.000000 0.500000
O O17 0.583980 0.395061 0.895578
#
# Coordination Sequence:
#
# PCOD9112392 Si02
#       8
#     2   2   2   2   2   2   2   2
#     4   9  18  31  48  70  93 127 153 179 228 285
#     4  11  19  31  49  64  88 120 158 200 237 281
#     4   9  19  29  49  62  98 120 156 183 221 279
#     4  11  23  29  51  58  97 123 171 204 233 257
#     4  10  21  32  47  62  85 115 164 204 245 275
#     4   9  20  30  50  68  98 122 157 189 230 280
#     4  11  20  34  43  65  82 126 162 212 235 266
#     4  10  21  34  42  72  89 132 162 201 231 264
#
# _framework density 16.753610999999999
#
# number of rings (size 3 to 8) (size 9 to 14) (size 15 to 20)
#    0.750    1.250    1.250    4.875    5.250    1.000 
#    0.000    0.000    0.000    0.000    0.000    0.000 
#    0.000    0.000    0.000   51.750    0.000    0.000 
#
# Total GULP energy -89084.336789 kJ/mol
# GULP energy per Si atom -5567.771049 kJ/mol
# Density = 1.671548 g / cm^3
# Si number density = 16.753611 Si / 1000 Ang^3
#
#
#
# Elastic Constant Matrix: (Units=GPa)
#
#
# Indices 1 2 3 4 5 6 
#
# 1 55.9463 3.4260 14.7657 -9.4102 4.0182 -4.6226
# 2 3.4260 77.7199 7.3083 -13.3274 -1.2338 5.7833
# 3 14.7657 7.3083 47.5622 -12.6289 7.0745 -1.8199
# 4 -9.4102 -13.3274 -12.6289 25.9757 -1.4872 10.0064
# 5 4.0182 -1.2338 7.0745 -1.4872 9.9647 1.1096
# 6 -4.6226 5.7833 -1.8199 10.0064 1.1096 17.8603
#
#
#
# Elastic Compliance Matrix: (Units=1/GPa)
#
#
# Indices 1 2 3 4 5 6 
#
# 1 0.020277 -0.000164 -0.004474 0.003606 -0.004830 0.003125
# 2 -0.000164 0.016332 -0.000185 0.013720 0.005758 -0.013394
# 3 -0.004474 -0.000185 0.027975 0.012670 -0.015702 -0.004371
# 4 0.003606 0.013720 0.012670 0.069323 0.006211 -0.041443
# 5 -0.004830 0.005758 -0.015702 0.006211 0.116809 -0.015451
# 6 0.003125 -0.013394 -0.004371 -0.041443 -0.015451 0.084870
#
#
# Mechanical properties :
#
#
# Convention : Reuss Voigt Hill
#
# Bulk Modulus (GPa) = 18.20244 25.80315 22.00280
# Shear Modulus (GPa) = 13.75346 21.14204 17.44775
#
# Velocity S-wave (km/s) = 2.86829 3.55623 3.23062
# Velocity P-wave (km/s) = 4.67523 5.68308 5.20361
#
# Compressibility (1/GPa) = 0.05493769
#
# Stress axis : x y z
#
# Youngs Moduli (GPa) = 49.31741 61.22934 35.74617
#
# Poissons Ratio (x) = 0.01004 0.15994
# Poissons Ratio (y) = 0.00809 0.00660
# Poissons Ratio (z) = 0.22066 0.01131
#
# Static dielectric constant tensor:
#      x y z
#    x 1.587820 0.020280 -0.004920 
#    y 0.020280 1.609950 -0.016540 
#    z -0.004920 -0.016540 1.616820 
# 
# From -- ./inp_files/533319.got.cif
#   From: 2010.05.17/outbox.cif.g08.bks.cpg/sg2_267_cif.got.tgz:533319.got - 2010.06.03 11:33:40.
