data_PCOD9112574
_publ_section_title
;
Structure prediction by ZEFSAII (Michael W. Deem and Ramdas Pophale) SiO2 
 PCOD9112574
Probable space group: P 2
;
_chemical_formula_sum "Si O2"
_cell_formula_units_Z 15
_cell_length_a 8.347409
_cell_length_b 7.560916
_cell_length_c 9.855394
_cell_angle_alpha 90.000000
_cell_angle_beta 94.058467
_cell_angle_gamma 90.000000
_cell_volume 620.454117
_symmetry_space_group_name_H-M "P 2"
_symmetry_group_IT_number 3
_symmetry_cell_setting 'monoclinic'
loop_
_space_group_symop_operation_xyz
x,y,z
-x,y,-z
loop_
_atom_site_type_symbol
_atom_site_label
_atom_site_fract_x
_atom_site_fract_y
_atom_site_fract_z
Si Si1 0.500000 0.175601 0.000000
Si Si2 0.136109 0.093128 0.903225
Si Si3 0.573312 0.369644 0.726574
Si Si4 0.127671 0.738862 0.391608
Si Si5 0.729825 0.400701 0.487246
Si Si6 0.289336 0.776830 0.857749
Si Si7 0.901924 0.451408 0.251133
Si Si8 0.347225 0.765226 0.178124
O O1 0.682491 0.102008 0.026204
O O2 0.476219 0.272733 0.141280
O O3 0.087195 0.287764 0.849478
O O4 0.163295 0.927605 0.803133
O O5 0.000000 0.039470 0.000000
O O6 0.713648 0.306562 0.631487
O O7 0.423691 0.369574 0.615974
O O8 0.623636 0.563735 0.776109
O O9 0.249632 0.611566 0.483591
O O10 0.235348 0.848584 0.289660
O O11 0.000000 0.803265 0.500000
O O12 0.038789 0.595091 0.288406
O O13 0.871468 0.358539 0.393464
O O14 0.243025 0.582772 0.801556
O O15 0.469381 0.834539 0.825186
O O16 0.279137 0.759258 0.021262
#
# Coordination Sequence:
#
# PCOD9112574 Si02
#       8
#     1   2   2   2   2   2   2   2
#     4  12  22  44  66 100 148 182 238 294 354 424
#     4  12  29  43  67 108 144 185 240 298 357 429
#     4  10  18  33  70 107 131 177 242 284 347 428
#     4   9  21  35  65 102 135 183 239 287 351 429
#     4   9  18  36  62 102 136 177 232 288 344 425
#     4  11  24  42  66 104 141 179 233 299 358 420
#     4  11  22  43  68  99 141 185 234 287 358 428
#     4  10  19  37  66  95 136 185 225 290 361 417
#
# _framework density 24.175839
#
# number of rings (size 3 to 8) (size 9 to 14) (size 15 to 20)
#    0.000    1.600    2.667    2.400    7.467    0.000 
#    0.000    0.000    0.000   21.600    0.000    0.000 
#    0.000    0.000    0.000    0.000    0.000    0.000 
#
# Total GULP energy -83543.394971 kJ/mol
# GULP energy per Si atom -5569.559665 kJ/mol
# Density = 2.412081 g / cm^3
# Si number density = 24.175839 Si / 1000 Ang^3
#
#
#
# Elastic Constant Matrix: (Units=GPa)
#
#
# Indices 1 2 3 4 5 6 
#
# 1 115.5914 23.2708 54.4282 0.0000 -36.5754 0.0000
# 2 23.2708 66.1915 28.1097 0.0000 -1.8634 0.0000
# 3 54.4282 28.1097 146.9435 0.0000 -31.6999 0.0000
# 4 0.0000 0.0000 0.0000 2.5580 0.0000 -7.8296
# 5 -36.5754 -1.8634 -31.6999 0.0000 49.2227 0.0000
# 6 0.0000 0.0000 0.0000 -7.8296 0.0000 32.6347
#
#
#
# Elastic Compliance Matrix: (Units=1/GPa)
#
#
# Indices 1 2 3 4 5 6 
#
# 1 0.012988 -0.003294 -0.002468 0.000000 0.007936 0.000000
# 2 -0.003294 0.017393 -0.002895 0.000000 -0.003654 0.000000
# 3 -0.002468 -0.002895 0.009121 0.000000 0.003930 0.000000
# 4 0.000000 0.000000 0.000000 1.471661 0.000000 0.353077
# 5 0.007936 -0.003654 0.003930 0.000000 0.028606 0.000000
# 6 0.000000 0.000000 0.000000 0.353077 0.000000 0.115352
#
#
# Mechanical properties :
#
#
# Convention : Reuss Voigt Hill
#
# Bulk Modulus (GPa) = 45.07385 60.03820 52.55602
# Shear Modulus (GPa) = 2.97649 31.74425 17.36037
#
# Velocity S-wave (km/s) = 1.11079 3.62754 2.68262
# Velocity P-wave (km/s) = 4.50886 6.51409 5.60192
#
# Compressibility (1/GPa) = 0.02218581
#
# Stress axis : x y z
#
# Youngs Moduli (GPa) = 76.99457 57.49603 109.63236
#
# Poissons Ratio (x) = 0.18942 0.27062
# Poissons Ratio (y) = 0.25365 0.31740
# Poissons Ratio (z) = 0.19006 0.16646
#
# Static dielectric constant tensor:
#      x y z
#    x 2.061550 0.000000 -0.026290 
#    y 0.000000 1.956440 0.000000 
#    z -0.026290 0.000000 1.983320 
# 
# From -- ./inp_files/5584.got.cif
#   From: 2010.05.17/outbox.cif.g08.bks.cpg/sg3_3_cif.got.tgz:5584.got - 2010.06.03 18:33:08.
