data_PCOD9112281
_publ_section_title
;
Structure prediction by ZEFSAII (Michael W. Deem and Ramdas Pophale) SiO2 
 PCOD9112281
Probable space group: P -1
;
_chemical_formula_sum "Si O2"
_cell_formula_units_Z 15
_cell_length_a 8.484525
_cell_length_b 7.680565
_cell_length_c 10.662142
_cell_angle_alpha 52.040295
_cell_angle_beta 73.726660
_cell_angle_gamma 86.573172
_cell_volume 520.018090
_symmetry_space_group_name_H-M "P -1"
_symmetry_group_IT_number 2
_symmetry_cell_setting 'triclinic'
loop_
_space_group_symop_operation_xyz
x,y,z
-x,-y,-z
loop_
_atom_site_type_symbol
_atom_site_label
_atom_site_fract_x
_atom_site_fract_y
_atom_site_fract_z
Si Si1 0.694412 0.798583 0.468559
Si Si2 0.096964 0.796491 0.099765
Si Si3 0.000000 0.500000 0.500000
Si Si4 0.429685 0.210313 0.093064
Si Si5 0.754393 0.288496 0.134344
Si Si6 0.821805 0.002284 0.598569
Si Si7 0.396412 0.162070 0.847282
Si Si8 0.693468 0.401634 0.376492
O O1 0.502650 0.692249 0.537476
O O2 0.834126 0.637437 0.510489
O O3 0.746158 0.022244 0.275669
O O4 0.693558 0.909425 0.559532
O O5 0.042912 0.660435 0.294974
O O6 0.113764 0.654116 0.032059
O O7 0.277704 0.939639 0.013675
O O8 0.000000 0.000000 0.000000
O O9 0.238470 0.168289 0.200700
O O10 0.462233 0.948539 0.202619
O O11 0.577418 0.326806 0.096858
O O12 0.447491 0.283589 0.913032
O O13 0.768687 0.383107 0.228987
O O14 0.804222 0.265801 0.503145
O O15 0.000000 0.000000 0.500000
O O16 0.309336 0.338871 0.712116
#
# Coordination Sequence:
#
# PCOD9112281 Si02
#       8
#     2   2   1   2   2   2   2   2
#     4  11  23  43  70 108 140 190 247 294 347 450
#     4  11  25  49  69 102 146 189 234 300 364 427
#     4  12  28  42  74 106 140 184 240 294 362 434
#     4  10  21  44  63  97 142 182 233 300 344 415
#     4  10  20  45  74  95 141 195 241 291 355 432
#     4  11  24  41  68 100 147 184 237 299 358 419
#     4  10  26  40  70 103 139 178 245 305 341 433
#     4  11  23  45  72 105 138 193 242 290 363 434
#
# _framework density 28.845148999999999
#
# number of rings (size 3 to 8) (size 9 to 14) (size 15 to 20)
#    0.000    1.333    4.000    0.800    7.467    3.200 
#    0.000    1.333    0.000    0.000    0.000    0.000 
#    0.000    0.000    0.000    0.000    0.000    0.000 
#
# Total GULP energy -83808.083928 kJ/mol
# GULP energy per Si atom -5587.205595 kJ/mol
# Density = 2.877950 g / cm^3
# Si number density = 28.845149 Si / 1000 Ang^3
#
#
#
# Elastic Constant Matrix: (Units=GPa)
#
#
# Indices 1 2 3 4 5 6 
#
# 1 98.2812 0.7255 41.7558 -19.0624 -3.9887 -37.3034
# 2 0.7255 106.0988 10.0178 -1.7352 -6.6800 -33.7387
# 3 41.7558 10.0178 165.1594 17.2791 -6.7997 -27.1523
# 4 -19.0624 -1.7352 17.2791 59.0899 -10.0536 12.2119
# 5 -3.9887 -6.6800 -6.7997 -10.0536 65.4013 -10.3276
# 6 -37.3034 -33.7387 -27.1523 12.2119 -10.3276 56.8413
#
#
#
# Elastic Compliance Matrix: (Units=1/GPa)
#
#
# Indices 1 2 3 4 5 6 
#
# 1 0.016979 0.004284 -0.002909 0.004618 0.003774 0.011990
# 2 0.004284 0.013202 0.000122 -0.000028 0.003407 0.011331
# 3 -0.002909 0.000122 0.007623 -0.003633 0.000491 0.002674
# 4 0.004618 -0.000028 -0.003633 0.020468 0.002630 -0.002641
# 5 0.003774 0.003407 0.000491 0.002630 0.017484 0.007345
# 6 0.011990 0.011331 0.002674 -0.002641 0.007345 0.035367
#
#
# Mechanical properties :
#
#
# Convention : Reuss Voigt Hill
#
# Bulk Modulus (GPa) = 24.51098 52.72640 38.61869
# Shear Modulus (GPa) = 41.07569 57.40253 49.23911
#
# Velocity S-wave (km/s) = 3.77770 4.46581 4.13609
# Velocity P-wave (km/s) = 5.24822 6.70150 6.01888
#
# Compressibility (1/GPa) = 0.04079804
#
# Stress axis : x y z
#
# Youngs Moduli (GPa) = 58.89663 75.74815 131.18439
#
# Poissons Ratio (x) = -0.32453 0.38164
# Poissons Ratio (y) = -0.25233 -0.01602
# Poissons Ratio (z) = 0.17134 -0.00925
#
# Static dielectric constant tensor:
#      x y z
#    x 1.417410 -0.809150 0.123230 
#    y -0.809150 1.757530 0.163420 
#    z 0.123230 0.163420 2.241360 
# 
# From -- ./inp_files/328959.got.cif
#   From: 2010.05.17/outbox.cif.g08.bks.cpg/sg2_165_cif.got.tgz:328959.got - 2010.06.03 11:33:40.
