data_PCOD9112093
_publ_section_title
;
Structure prediction by ZEFSAII (Michael W. Deem and Ramdas Pophale) SiO2 
 PCOD9112093
Probable space group: P -1
;
_chemical_formula_sum "Si O2"
_cell_formula_units_Z 14
_cell_length_a 27.471674
_cell_length_b 8.211585
_cell_length_c 21.953830
_cell_angle_alpha 138.423325
_cell_angle_beta 10.802397
_cell_angle_gamma 138.354354
_cell_volume 612.879926
_symmetry_space_group_name_H-M "P -1"
_symmetry_group_IT_number 2
_symmetry_cell_setting 'triclinic'
loop_
_space_group_symop_operation_xyz
x,y,z
-x,-y,-z
loop_
_atom_site_type_symbol
_atom_site_label
_atom_site_fract_x
_atom_site_fract_y
_atom_site_fract_z
Si Si1 0.308981 0.858101 0.365275
Si Si2 0.274163 0.595821 0.762820
Si Si3 0.690901 0.852065 0.134849
Si Si4 0.725886 0.173736 0.737140
Si Si5 0.999960 0.296070 0.750036
Si Si6 0.479073 0.378782 0.843311
Si Si7 0.479001 0.389808 0.343388
O O1 0.353150 0.761422 0.216311
O O2 0.464453 0.742878 0.195986
O O3 0.405482 0.148185 0.326624
O O4 0.999939 0.823263 0.750066
O O5 0.500000 0.500000 0.500000
O O6 0.259725 0.415899 0.672124
O O7 0.353277 0.869625 0.716163
O O8 0.050242 0.632156 0.097701
O O9 0.594436 0.814337 0.173474
O O10 0.535411 0.636593 0.304130
O O11 0.949848 0.990182 0.402238
O O12 0.740249 0.428787 0.827924
O O13 0.500000 0.000000 0.000000
O O14 0.252674 0.462280 0.461647
O O15 0.747286 0.352368 0.038403
#
# Coordination Sequence:
#
# PCOD9112093 Si02
#       7
#     2   2   2   2   2   2   2
#     4  12  25  46  71 101 135 179 225 274 336 401
#     4  10  22  43  69 100 134 177 224 274 336 396
#     4  12  25  46  71 101 135 179 225 274 336 401
#     4  10  22  43  69 100 134 177 224 274 336 396
#     4  10  20  44  70 100 136 178 228 274 332 402
#     4  11  24  45  68  99 140 175 224 281 330 397
#     4  11  24  45  68  99 140 175 224 281 330 397
#
# _framework density 22.842976
#
# number of rings (size 3 to 8) (size 9 to 14) (size 15 to 20)
#    0.000    1.143    2.857    4.286    0.000    1.143 
#    5.143    4.286    0.000    0.000    0.000    0.000 
#    0.000    0.000    0.000    0.000    0.000    0.000 
#
# Total GULP energy -78297.408126 kJ/mol
# GULP energy per Si atom -5592.672009 kJ/mol
# Density = 2.279098 g / cm^3
# Si number density = 22.842976 Si / 1000 Ang^3
#
#
#
# Elastic Constant Matrix: (Units=GPa)
#
#
# Indices 1 2 3 4 5 6 
#
# 1 80.7983 3.5115 11.7370 8.3209 7.5957 -12.3529
# 2 3.5115 74.6741 8.6475 9.6787 7.8918 -7.7456
# 3 11.7370 8.6475 98.2627 4.5167 3.8592 -10.1477
# 4 8.3209 9.6787 4.5167 39.2920 -0.3577 3.0070
# 5 7.5957 7.8918 3.8592 -0.3577 39.3806 2.6837
# 6 -12.3529 -7.7456 -10.1477 3.0070 2.6837 52.0288
#
#
#
# Elastic Compliance Matrix: (Units=1/GPa)
#
#
# Indices 1 2 3 4 5 6 
#
# 1 0.013635 0.000560 -0.001061 -0.003194 -0.002902 0.003448
# 2 0.000560 0.014549 -0.000786 -0.003834 -0.003154 0.002530
# 3 -0.001061 -0.000786 0.010634 -0.000949 -0.000811 0.001802
# 4 -0.003194 -0.003834 -0.000949 0.027443 0.001945 -0.003201
# 5 -0.002902 -0.003154 -0.000811 0.001945 0.026874 -0.002815
# 6 0.003448 0.002530 0.001802 -0.003201 -0.002815 0.021097
#
#
# Mechanical properties :
#
#
# Convention : Reuss Voigt Hill
#
# Bulk Modulus (GPa) = 27.59041 33.50301 30.54671
# Shear Modulus (GPa) = 38.79339 41.46289 40.12814
#
# Velocity S-wave (km/s) = 4.12547 4.26505 4.19584
# Velocity P-wave (km/s) = 5.89891 6.24121 6.07247
#
# Compressibility (1/GPa) = 0.03624448
#
# Stress axis : x y z
#
# Youngs Moduli (GPa) = 73.33969 68.73374 94.03532
#
# Poissons Ratio (x) = -0.03849 0.09978
# Poissons Ratio (y) = -0.04107 0.07390
# Poissons Ratio (z) = 0.07782 0.05402
#
# Static dielectric constant tensor:
#      x y z
#    x 1.820740 -0.021960 -0.004770 
#    y -0.021960 1.814150 -0.005660 
#    z -0.004770 -0.005660 1.866660 
# 
# From -- ./inp_files/296980.got.cif
#   From: 2010.05.17/outbox.cif.g08.bks.cpg/sg2_149_cif.got.tgz:296980.got - 2010.06.03 11:33:40.
