data_PCOD9112106
_publ_section_title
;
Structure prediction by ZEFSAII (Michael W. Deem and Ramdas Pophale) SiO2 
 PCOD9112106
Probable space group: P -1
;
_chemical_formula_sum "Si O2"
_cell_formula_units_Z 14
_cell_length_a 6.017723
_cell_length_b 21.098246
_cell_length_c 12.906473
_cell_angle_alpha 23.225703
_cell_angle_beta 90.409574
_cell_angle_gamma 78.107279
_cell_volume 544.188941
_symmetry_space_group_name_H-M "P -1"
_symmetry_group_IT_number 2
_symmetry_cell_setting 'triclinic'
loop_
_space_group_symop_operation_xyz
x,y,z
-x,-y,-z
loop_
_atom_site_type_symbol
_atom_site_label
_atom_site_fract_x
_atom_site_fract_y
_atom_site_fract_z
Si Si1 0.303219 0.443057 0.805399
Si Si2 0.199223 0.079746 0.628840
Si Si3 0.038638 0.838807 0.114992
Si Si4 0.500000 0.500000 0.000000
Si Si5 0.219503 0.184856 0.047036
Si Si6 0.236469 0.834834 0.644912
Si Si7 0.500000 0.000000 0.000000
Si Si8 0.170112 0.391701 0.295722
O O1 0.241612 0.649913 0.463405
O O2 0.114622 0.470667 0.860115
O O3 0.214284 0.356103 0.846175
O O4 0.603916 0.294255 0.063048
O O5 0.117546 0.284322 0.364738
O O6 0.054465 0.102591 0.486285
O O7 0.505957 0.937309 0.829146
O O8 0.128273 0.981950 0.867436
O O9 0.763783 0.953561 0.002037
O O10 0.000260 0.764702 0.115354
O O11 0.399469 0.715687 0.721361
O O12 0.665610 0.522804 0.872826
O O13 0.225930 0.031880 0.354845
O O14 0.657586 0.774516 0.372167
#
# Coordination Sequence:
#
# PCOD9112106 Si02
#       8
#     2   2   2   1   2   2   1   2
#     4  11  26  44  69 109 148 180 244 297 352 427
#     4  11  23  45  77  94 143 193 235 288 370 421
#     4  10  23  45  75 105 138 190 239 299 355 425
#     4  12  24  46  72 108 140 184 248 294 362 420
#     4  11  23  49  69 100 147 196 228 290 368 431
#     4  11  25  43  69 103 138 189 236 288 355 424
#     4  10  20  44  70 108 136 174 242 294 352 414
#     4  11  24  44  75 107 143 187 237 310 353 430
#
# _framework density 25.726358999999999
#
# number of rings (size 3 to 8) (size 9 to 14) (size 15 to 20)
#    0.000    1.143    2.857    2.571    2.000    5.714 
#    5.143    0.000    0.000    0.000    0.000    0.000 
#    0.000    0.000    0.000    0.000    0.000    0.000 
#
# Total GULP energy -77985.632974 kJ/mol
# GULP energy per Si atom -5570.402355 kJ/mol
# Density = 2.566780 g / cm^3
# Si number density = 25.726359 Si / 1000 Ang^3
#
#
#
# Elastic Constant Matrix: (Units=GPa)
#
#
# Indices 1 2 3 4 5 6 
#
# 1 56.4280 32.7678 47.9944 24.2385 -25.3399 6.0370
# 2 32.7678 81.6716 9.3522 -11.2489 -14.0936 -9.8065
# 3 47.9944 9.3522 116.4737 18.4187 -12.3905 -12.1959
# 4 24.2385 -11.2489 18.4187 45.4201 1.2160 -11.6577
# 5 -25.3399 -14.0936 -12.3905 1.2160 44.6203 0.6454
# 6 6.0370 -9.8065 -12.1959 -11.6577 0.6454 16.2891
#
#
#
# Elastic Compliance Matrix: (Units=1/GPa)
#
#
# Indices 1 2 3 4 5 6 
#
# 1 -0.039458 0.026022 0.013808 0.040168 -0.012460 0.069869
# 2 0.026022 -0.001273 -0.009610 -0.018733 0.012674 -0.031513
# 3 0.013808 -0.009610 0.005047 -0.017004 0.006954 -0.019569
# 4 0.040168 -0.018733 -0.017004 -0.009347 0.013095 -0.046104
# 5 -0.012460 0.012674 0.006954 0.013095 0.020536 0.026012
# 6 0.069869 -0.031513 -0.019569 -0.046104 0.026012 -0.032153
#
#
# Mechanical properties :
#
#
# Convention : Reuss Voigt Hill
#
# Bulk Modulus (GPa) = 40.39296 48.31134 44.35215
# Shear Modulus (GPa) = -45.94101 32.22983 -6.85559
#
# Velocity S-wave (km/s) = -4.23041 3.54332 -1.63420
# Velocity P-wave (km/s) = 2.85073 5.96321 3.70359
#
# Compressibility (1/GPa) = 0.02475679
#
# Stress axis : x y z
#
# Youngs Moduli (GPa) = -25.34334 -785.73403 198.13169
#
# Poissons Ratio (x) = 20.44611 -2.73583
# Poissons Ratio (y) = 0.65948 1.90397
# Poissons Ratio (z) = 0.34994 -7.55061
#
# Static dielectric constant tensor:
#      x y z
#    x 2.107210 0.085270 0.030320 
#    y 0.085270 2.083240 0.050040 
#    z 0.030320 0.050040 1.977600 
# 
# From -- ./inp_files/485911.got.cif
#   From: 2010.05.17/outbox.cif.g08.bks.cpg/sg2_243_cif.got.tgz:485911.got - 2010.06.03 11:33:40.
