data_PCOD9112864
_publ_section_title
;
Structure prediction by ZEFSAII (Michael W. Deem and Ramdas Pophale) SiO2 
 PCOD9112864
Probable space group: P 2
;
_chemical_formula_sum "Si O2"
_cell_formula_units_Z 16
_cell_length_a 7.279848
_cell_length_b 11.338610
_cell_length_c 8.586263
_cell_angle_alpha 90.000000
_cell_angle_beta 93.681793
_cell_angle_gamma 90.000000
_cell_volume 707.276190
_symmetry_space_group_name_H-M "P 2"
_symmetry_group_IT_number 3
_symmetry_cell_setting 'monoclinic'
loop_
_space_group_symop_operation_xyz
x,y,z
-x,y,-z
loop_
_atom_site_type_symbol
_atom_site_label
_atom_site_fract_x
_atom_site_fract_y
_atom_site_fract_z
Si Si1 0.039676 0.485030 0.687634
Si Si2 0.476657 0.234692 0.684387
Si Si3 0.522489 0.489750 0.314956
Si Si4 0.468458 0.735644 0.812263
Si Si5 0.468006 0.989812 0.814523
Si Si6 0.036880 0.738851 0.687360
Si Si7 0.969041 0.985332 0.181664
Si Si8 0.039199 0.231140 0.685861
O O1 0.260613 0.487302 0.713334
O O2 0.967524 0.610831 0.744025
O O3 0.972524 0.358367 0.745245
O O4 0.000000 0.483132 0.500000
O O5 0.500000 0.234631 0.500000
O O6 0.551460 0.362027 0.744376
O O7 0.547630 0.109540 0.748681
O O8 0.260166 0.233510 0.714348
O O9 0.500000 0.493020 0.500000
O O10 0.450189 0.613714 0.247241
O O11 0.253370 0.736931 0.747854
O O12 0.539835 0.863393 0.758225
O O13 0.500000 0.734968 0.000000
O O14 0.247063 0.987233 0.783821
O O15 0.500000 0.994336 0.000000
O O16 0.000000 0.739868 0.500000
O O17 0.958764 0.861207 0.748470
O O18 0.038528 0.111553 0.246134
O O19 0.000000 0.982036 0.000000
O O20 0.000000 0.227106 0.500000
#
# Coordination Sequence:
#
# PCOD9112864 Si02
#       8
#     2   2   2   2   2   2   2   2
#     4   8  15  30  50  69  94 127 162 203 249 292
#     4   9  18  31  49  73  98 125 165 207 245 292
#     4   9  17  30  49  74  98 124 163 208 246 293
#     4   9  18  33  50  71 101 133 163 201 252 300
#     4   9  19  35  49  66  98 135 165 200 250 301
#     4   9  17  33  54  73  95 131 172 205 244 300
#     4  10  20  33  49  73 101 130 166 210 251 294
#     4   9  17  31  51  71  96 129 163 204 251 296
#
# _framework density 22.621997
#
# number of rings (size 3 to 8) (size 9 to 14) (size 15 to 20)
#    0.000    3.000    0.000    0.375    0.000    2.000 
#    0.000   11.875    0.000    0.000    0.000    0.000 
#    0.000    0.000    0.000    0.000    0.000    0.000 
#
# Total GULP energy -89132.570274 kJ/mol
# GULP energy per Si atom -5570.785642 kJ/mol
# Density = 2.257051 g / cm^3
# Si number density = 22.621997 Si / 1000 Ang^3
#
#
#
# Elastic Constant Matrix: (Units=GPa)
#
#
# Indices 1 2 3 4 5 6 
#
# 1 111.4535 22.4315 1.4607 0.0000 9.5308 0.0000
# 2 22.4315 357.4377 68.1282 0.0000 -11.3661 0.0000
# 3 1.4607 68.1282 52.6927 0.0000 7.2974 0.0000
# 4 0.0000 0.0000 0.0000 408.6262 0.0000 436.9378
# 5 9.5308 -11.3661 7.2974 0.0000 20.7353 0.0000
# 6 0.0000 0.0000 0.0000 436.9378 0.0000 466.1531
#
#
#
# Elastic Compliance Matrix: (Units=1/GPa)
#
#
# Indices 1 2 3 4 5 6 
#
# 1 0.009683 -0.001189 0.002077 0.000000 -0.005833 0.000000
# 2 -0.001189 0.004188 -0.006071 0.000000 0.004979 0.000000
# 3 0.002077 -0.006071 0.028765 0.000000 -0.014406 0.000000
# 4 0.000000 0.000000 0.000000 -1.078343 0.000000 1.010760
# 5 -0.005833 0.004979 -0.014406 0.000000 0.058707 0.000000
# 6 0.000000 0.000000 0.000000 1.010760 0.000000 -0.945267
#
#
# Mechanical properties :
#
#
# Convention : Reuss Voigt Hill
#
# Bulk Modulus (GPa) = 30.98919 78.40276 54.69598
# Shear Modulus (GPa) = -2.62999 207.74049 102.55525
#
# Velocity S-wave (km/s) = -1.07940 9.59326 6.74038
# Velocity P-wave (km/s) = 3.48926 12.54753 9.20911
#
# Compressibility (1/GPa) = 0.03226932
#
# Stress axis : x y z
#
# Youngs Moduli (GPa) = 103.27078 238.79033 34.76466
#
# Poissons Ratio (x) = 0.28393 -0.07220
# Poissons Ratio (y) = 0.12279 0.21106
# Poissons Ratio (z) = -0.21447 1.44971
#
# Static dielectric constant tensor:
#      x y z
#    x 1.772950 0.000000 -0.002070 
#    y 0.000000 1.943250 0.000000 
#    z -0.002070 0.000000 1.732370 
# 
# From -- ./inp_files/5848.got.cif
#   From: 2010.05.17/outbox.cif.g08.bks.cpg/sg3_3_cif.got.tgz:5848.got - 2010.06.03 18:33:08.
