data_PCOD9112064
_publ_section_title
;
Structure prediction by ZEFSAII (Michael W. Deem and Ramdas Pophale) SiO2 
 PCOD9112064
Probable space group: P -1
;
_chemical_formula_sum "Si O2"
_cell_formula_units_Z 15
_cell_length_a 17.934315
_cell_length_b 21.385849
_cell_length_c 8.908427
_cell_angle_alpha 118.535460
_cell_angle_beta 50.260053
_cell_angle_gamma 161.707052
_cell_volume 696.343641
_symmetry_space_group_name_H-M "P -1"
_symmetry_group_IT_number 2
_symmetry_cell_setting 'triclinic'
loop_
_space_group_symop_operation_xyz
x,y,z
-x,-y,-z
loop_
_atom_site_type_symbol
_atom_site_label
_atom_site_fract_x
_atom_site_fract_y
_atom_site_fract_z
Si Si1 0.500000 0.000000 0.500000
Si Si2 0.303517 0.293995 0.070214
Si Si3 0.639699 0.074972 0.066363
Si Si4 0.767014 0.000471 0.855396
Si Si5 0.663129 0.410726 0.240362
Si Si6 0.440307 0.246196 0.672950
Si Si7 0.270810 0.250676 0.416080
Si Si8 0.360771 0.740647 0.370651
O O1 0.444327 0.944326 0.323102
O O2 0.502478 0.087130 0.563039
O O3 0.451134 0.323429 0.852350
O O4 0.500000 0.500000 0.000000
O O5 0.302312 0.290735 0.247675
O O6 0.935001 0.037085 0.191988
O O7 0.967272 0.348112 0.986199
O O8 0.500000 0.000000 0.000000
O O9 0.745068 0.066203 0.908352
O O10 0.562684 0.809554 0.784036
O O11 0.587689 0.868799 0.093792
O O12 0.121245 0.213826 0.650713
O O13 0.585985 0.367470 0.463719
O O14 0.579399 0.425372 0.279352
O O15 0.624942 0.308310 0.574824
O O16 0.000000 0.000000 0.500000
O O17 0.000000 0.500000 0.500000
#
# Coordination Sequence:
#
# PCOD9112064 Si02
#       8
#     1   2   2   2   2   2   2   2
#     4  10  26  48  66 100 136 180 244 292 354 416
#     4  11  25  43  69 105 142 182 227 294 352 425
#     4  11  27  45  69 100 139 180 241 289 347 424
#     4  10  23  43  68  95 133 181 225 286 354 416
#     4  11  24  42  72  99 136 184 226 287 350 428
#     4  11  25  41  69 103 138 180 235 284 356 425
#     4  10  20  44  68  96 141 177 226 283 355 427
#     4  11  25  44  71  97 137 185 232 292 355 418
#
# _framework density 21.541087000000001
#
# number of rings (size 3 to 8) (size 9 to 14) (size 15 to 20)
#    0.000    1.333    2.667    2.400    9.333    4.267 
#    0.000    0.000    0.000    0.000    0.000    0.000 
#    0.000    0.000    0.000    0.000    0.000    0.000 
#
# Total GULP energy -83593.334744 kJ/mol
# GULP energy per Si atom -5572.888983 kJ/mol
# Density = 2.149206 g / cm^3
# Si number density = 21.541087 Si / 1000 Ang^3
#
#
#
# Elastic Constant Matrix: (Units=GPa)
#
#
# Indices 1 2 3 4 5 6 
#
# 1 147.5507 49.8502 37.6441 11.7278 2.0549 -1.9946
# 2 49.8502 43.1845 26.3787 1.8180 4.0285 -4.4946
# 3 37.6441 26.3787 94.6182 23.9828 8.4779 -1.3309
# 4 11.7278 1.8180 23.9828 28.2840 -8.9261 -4.3235
# 5 2.0549 4.0285 8.4779 -8.9261 29.6905 -4.1968
# 6 -1.9946 -4.4946 -1.3309 -4.3235 -4.1968 35.0917
#
#
#
# Elastic Compliance Matrix: (Units=1/GPa)
#
#
# Indices 1 2 3 4 5 6 
#
# 1 0.011632 -0.013599 0.000434 -0.004833 -0.000784 -0.001753
# 2 -0.013599 0.045383 -0.010982 0.014036 0.003089 0.006722
# 3 0.000434 -0.010982 0.019426 -0.020001 -0.010721 -0.004392
# 4 -0.004833 0.014036 -0.020001 0.062963 0.024692 0.011475
# 5 -0.000784 0.003089 -0.010721 0.024692 0.044983 0.008366
# 6 -0.001753 0.006722 -0.004392 0.011475 0.008366 0.031506
#
#
# Mechanical properties :
#
#
# Convention : Reuss Voigt Hill
#
# Bulk Modulus (GPa) = 35.52680 57.01106 46.26893
# Shear Modulus (GPa) = 18.27688 30.04526 24.16107
#
# Velocity S-wave (km/s) = 2.91600 3.73874 3.35270
# Velocity P-wave (km/s) = 5.27881 6.72021 6.04264
#
# Compressibility (1/GPa) = 0.02814776
#
# Stress axis : x y z
#
# Youngs Moduli (GPa) = 85.96746 22.03476 51.47673
#
# Poissons Ratio (x) = 0.29964 -0.02233
# Poissons Ratio (y) = 1.16904 0.56532
# Poissons Ratio (z) = -0.03729 0.24198
#
# Static dielectric constant tensor:
#      x y z
#    x 1.777830 -0.007070 0.035100 
#    y -0.007070 1.812660 -0.053230 
#    z 0.035100 -0.053230 1.857930 
# 
# From -- ./inp_files/337276.got.cif
#   From: 2010.05.17/outbox.cif.g08.bks.cpg/sg2_169_cif.got.tgz:337276.got - 2010.06.03 11:33:40.
