data_PCOD9112407
_publ_section_title
;
Structure prediction by ZEFSAII (Michael W. Deem and Ramdas Pophale) SiO2 
 PCOD9112407
Probable space group: P -1
;
_chemical_formula_sum "Si O2"
_cell_formula_units_Z 16
_cell_length_a 22.044654
_cell_length_b 13.557072
_cell_length_c 11.470097
_cell_angle_alpha 139.152050
_cell_angle_beta 153.209458
_cell_angle_gamma 27.459845
_cell_volume 701.928148
_symmetry_space_group_name_H-M "P -1"
_symmetry_group_IT_number 2
_symmetry_cell_setting 'triclinic'
loop_
_space_group_symop_operation_xyz
x,y,z
-x,-y,-z
loop_
_atom_site_type_symbol
_atom_site_label
_atom_site_fract_x
_atom_site_fract_y
_atom_site_fract_z
Si Si1 0.031947 0.722107 0.824857
Si Si2 0.329856 0.860515 0.303361
Si Si3 0.277812 0.564516 0.316769
Si Si4 0.120051 0.488911 0.548184
Si Si5 0.498937 0.695226 0.210248
Si Si6 0.100817 0.390873 0.952066
Si Si7 0.211963 0.774106 0.620934
Si Si8 0.487070 0.070596 0.715427
O O1 0.969956 0.599433 0.642954
O O2 0.066822 0.671865 0.703016
O O3 0.864526 0.967046 0.803405
O O4 0.214000 0.623508 0.126788
O O5 0.495175 0.644415 0.465800
O O6 0.346478 0.783622 0.131733
O O7 0.397417 0.977335 0.496857
O O8 0.214154 0.745471 0.460049
O O9 0.174493 0.495015 0.126341
O O10 0.350989 0.279642 0.754081
O O11 0.035746 0.568610 0.345213
O O12 0.697665 0.453449 0.371856
O O13 0.546073 0.827710 0.376756
O O14 0.382916 0.740884 0.935964
O O15 0.000000 0.500000 0.000000
O O16 0.287386 0.133664 0.055364
O O17 0.000000 0.000000 0.500000
#
# Coordination Sequence:
#
# PCOD9112407 Si02
#       8
#     2   2   2   2   2   2   2   2
#     4   9  17  33  51  71 105 139 178 206 243 314
#     4   9  18  31  52  78 105 138 166 213 260 304
#     4   9  19  33  50  77 100 137 176 209 256 304
#     4   9  20  32  48  77 106 141 170 205 257 305
#     4  10  21  33  50  79 106 135 173 210 267 313
#     4  10  22  31  51  82 109 136 167 205 264 320
#     4  10  21  34  50  73 105 139 174 216 256 304
#     4  10  21  32  52  77 112 137 161 213 265 313
#
# _framework density 22.794356000000001
#
# number of rings (size 3 to 8) (size 9 to 14) (size 15 to 20)
#    0.000    2.500    0.000    1.125   12.250    1.000 
#    0.000    5.000    0.000    0.750    0.000   13.125 
#    0.000    0.000    0.000    0.000    0.000    0.000 
#
# Total GULP energy -89223.804236 kJ/mol
# GULP energy per Si atom -5576.487765 kJ/mol
# Density = 2.274248 g / cm^3
# Si number density = 22.794356 Si / 1000 Ang^3
#
#
#
# Elastic Constant Matrix: (Units=GPa)
#
#
# Indices 1 2 3 4 5 6 
#
# 1 50.4504 24.8821 28.7696 1.3499 -11.6511 -14.7905
# 2 24.8821 117.8063 44.5867 -2.0723 -20.2830 -21.8339
# 3 28.7696 44.5867 99.4845 2.7361 -34.7074 -15.5279
# 4 1.3499 -2.0723 2.7361 25.6962 -5.7400 -6.1063
# 5 -11.6511 -20.2830 -34.7074 -5.7400 24.2514 9.9263
# 6 -14.7905 -21.8339 -15.5279 -6.1063 9.9263 22.2355
#
#
#
# Elastic Compliance Matrix: (Units=1/GPa)
#
#
# Indices 1 2 3 4 5 6 
#
# 1 0.027496 -0.001179 -0.005687 0.002188 -0.001260 0.014324
# 2 -0.001179 0.011997 -0.002776 0.004072 0.002806 0.008923
# 3 -0.005687 -0.002776 0.022638 0.003547 0.029340 -0.002824
# 4 0.002188 0.004072 0.003547 0.045304 0.014583 0.013863
# 5 -0.001260 0.002806 0.029340 0.014583 0.094959 -0.015980
# 6 0.014324 0.008923 -0.002824 0.013863 -0.015980 0.072232
#
#
# Mechanical properties :
#
#
# Convention : Reuss Voigt Hill
#
# Bulk Modulus (GPa) = 23.33911 51.57976 37.45944
# Shear Modulus (GPa) = 16.22367 25.73680 20.98023
#
# Velocity S-wave (km/s) = 2.67074 3.36383 3.03712
# Velocity P-wave (km/s) = 4.44654 6.14529 5.36359
#
# Compressibility (1/GPa) = 0.04284654
#
# Stress axis : x y z
#
# Youngs Moduli (GPa) = 36.36932 83.35667 44.17272
#
# Poissons Ratio (x) = 0.09825 0.25122
# Poissons Ratio (y) = 0.04287 0.12263
# Poissons Ratio (z) = 0.20684 0.23141
#
# Static dielectric constant tensor:
#      x y z
#    x 1.925100 0.021780 0.034830 
#    y 0.021780 1.917590 0.065050 
#    z 0.034830 0.065050 1.867700 
# 
# From -- ./inp_files/463760.got.cif
#   From: 2010.05.17/outbox.cif.g08.bks.cpg/sg2_232_cif.got.tgz:463760.got - 2010.06.03 11:33:40.
