data_PCOD9112495
_publ_section_title
;
Structure prediction by ZEFSAII (Michael W. Deem and Ramdas Pophale) SiO2 
 PCOD9112495
Probable space group: P 2
;
_chemical_formula_sum "Si O2"
_cell_formula_units_Z 16
_cell_length_a 7.148571
_cell_length_b 5.443111
_cell_length_c 15.298567
_cell_angle_alpha 90.000000
_cell_angle_beta 95.069156
_cell_angle_gamma 90.000000
_cell_volume 592.946111
_symmetry_space_group_name_H-M "P 2"
_symmetry_group_IT_number 3
_symmetry_cell_setting 'monoclinic'
loop_
_space_group_symop_operation_xyz
x,y,z
-x,y,-z
loop_
_atom_site_type_symbol
_atom_site_label
_atom_site_fract_x
_atom_site_fract_y
_atom_site_fract_z
Si Si1 0.789213 0.898820 0.611869
Si Si2 0.771000 0.396718 0.513961
Si Si3 0.148088 0.449112 0.084281
Si Si4 0.351650 0.512931 0.676888
Si Si5 0.674047 0.954012 0.135805
Si Si6 0.235242 0.953710 0.181390
Si Si7 0.576474 0.458329 0.112741
Si Si8 0.817868 0.004796 0.319167
O O1 0.739273 0.630537 0.575490
O O2 0.756624 0.936574 0.713526
O O3 0.014901 0.917428 0.614783
O O4 0.724677 0.135851 0.555961
O O5 0.637774 0.425206 0.423611
O O6 0.000000 0.400415 0.500000
O O7 0.144555 0.708101 0.136556
O O8 0.368892 0.437137 0.068780
O O9 0.136487 0.203712 0.144163
O O10 0.000000 0.445224 0.000000
O O11 0.444309 0.481889 0.778561
O O12 0.343036 0.808214 0.661030
O O13 0.192296 0.298485 0.687417
O O14 0.455112 0.966901 0.159552
O O15 0.676801 0.704511 0.084982
O O16 0.822982 0.924604 0.219013
O O17 0.696280 0.218751 0.097637
#
# Coordination Sequence:
#
# PCOD9112495 Si02
#       8
#     2   2   2   2   2   2   2   2
#     4  12  22  33  52  80 111 144 175 233 274 295
#     4  12  21  33  50  78 108 144 194 225 248 308
#     4  10  19  36  61  83 103 137 176 219 264 334
#     4  10  18  30  49  73 101 136 185 229 239 297
#     4   8  16  30  50  68  98 136 172 213 239 324
#     4  10  21  36  53  84 115 134 171 223 278 324
#     4   8  16  29  50  76  97 127 171 222 250 303
#     4  10  17  30  50  73  95 140 185 219 250 306
#
# _framework density 26.983899999999998
#
# number of rings (size 3 to 8) (size 9 to 14) (size 15 to 20)
#    0.000    2.000    2.500    2.250    0.000    0.000 
#    0.000    0.000    0.000   40.500    0.000   47.250 
#    0.000    0.000    0.000    0.000    0.000    0.000 
#
# Total GULP energy -89219.775039 kJ/mol
# GULP energy per Si atom -5576.235940 kJ/mol
# Density = 2.692248 g / cm^3
# Si number density = 26.983900 Si / 1000 Ang^3
#
#
#
# Elastic Constant Matrix: (Units=GPa)
#
#
# Indices 1 2 3 4 5 6 
#
# 1 92.7551 25.4704 33.4237 0.0000 18.3749 0.0000
# 2 25.4704 213.6062 55.3614 0.0000 1.0064 0.0000
# 3 33.4237 55.3614 165.9499 0.0000 20.7478 0.0000
# 4 0.0000 0.0000 0.0000 61.5739 0.0000 5.2448
# 5 18.3749 1.0064 20.7478 0.0000 38.9539 0.0000
# 6 0.0000 0.0000 0.0000 5.2448 0.0000 17.3425
#
#
#
# Elastic Compliance Matrix: (Units=1/GPa)
#
#
# Indices 1 2 3 4 5 6 
#
# 1 0.012649 -0.001083 -0.001547 0.000000 -0.005115 0.000000
# 2 -0.001083 0.005243 -0.001690 0.000000 0.001276 0.000000
# 3 -0.001547 -0.001690 0.007290 0.000000 -0.003110 0.000000
# 4 0.000000 0.000000 0.000000 0.016670 0.000000 -0.005041
# 5 -0.005115 0.001276 -0.003110 0.000000 0.029707 0.000000
# 6 0.000000 0.000000 0.000000 -0.005041 0.000000 0.059186
#
#
# Mechanical properties :
#
#
# Convention : Reuss Voigt Hill
#
# Bulk Modulus (GPa) = 60.45491 77.86913 69.16202
# Shear Modulus (GPa) = 34.50645 47.44445 40.97545
#
# Velocity S-wave (km/s) = 3.57988 4.19770 3.90104
# Velocity P-wave (km/s) = 6.28809 7.23979 6.78066
#
# Compressibility (1/GPa) = 0.01654125
#
# Stress axis : x y z
#
# Youngs Moduli (GPa) = 79.05649 190.73899 137.17186
#
# Poissons Ratio (x) = 0.20663 0.21217
# Poissons Ratio (y) = 0.08564 0.23187
# Poissons Ratio (z) = 0.12228 0.32241
#
# Static dielectric constant tensor:
#      x y z
#    x 2.243810 0.000000 -0.088070 
#    y 0.000000 2.171330 0.000000 
#    z -0.088070 0.000000 2.133540 
# 
# From -- ./inp_files/13377.got.cif
#   From: 2010.05.17/outbox.cif.g08.bks.cpg/sg3_7_cif.got.tgz:13377.got - 2010.06.03 18:33:08.
