data_PCOD9112992
_publ_section_title
;
Structure prediction by ZEFSAII (Michael W. Deem and Ramdas Pophale) SiO2 
 PCOD9112992
Probable space group: P 2
;
_chemical_formula_sum "Si O2"
_cell_formula_units_Z 13
_cell_length_a 14.516204
_cell_length_b 5.245131
_cell_length_c 8.208187
_cell_angle_alpha 90.000000
_cell_angle_beta 124.831545
_cell_angle_gamma 90.000000
_cell_volume 512.994185
_symmetry_space_group_name_H-M "P 2"
_symmetry_group_IT_number 3
_symmetry_cell_setting 'monoclinic'
loop_
_space_group_symop_operation_xyz
x,y,z
-x,y,-z
loop_
_atom_site_type_symbol
_atom_site_label
_atom_site_fract_x
_atom_site_fract_y
_atom_site_fract_z
Si Si1 0.700332 0.565790 0.025557
Si Si2 0.610323 0.902975 0.672611
Si Si3 0.677671 0.714128 0.420674
Si Si4 0.838675 0.201718 0.947283
Si Si5 0.175769 0.217828 0.431460
Si Si6 0.500000 0.493207 0.000000
Si Si7 0.890028 0.922627 0.325851
O O1 0.617966 0.754740 0.847833
O O2 0.794810 0.452546 0.998192
O O3 0.607232 0.368049 0.008479
O O4 0.779580 0.745942 0.216521
O O5 0.500000 0.046911 0.500000
O O6 0.625327 0.692178 0.547707
O O7 0.719085 0.073788 0.791609
O O8 0.770581 0.494874 0.506051
O O9 0.580438 0.659718 0.195305
O O10 0.729367 0.996522 0.471767
O O11 0.885943 0.215795 0.809290
O O12 0.897477 0.035538 0.149709
O O13 0.117693 0.145643 0.544616
O O14 0.000000 0.775024 0.500000
#
# Coordination Sequence:
#
# PCOD9112992 Si02
#       7
#     2   2   2   2   2   1   2
#     4  11  22  43  64 105 145 191 249 303 375 453
#     4  10  20  37  62  97 143 189 238 294 359 442
#     4  11  23  40  66 103 142 192 238 294 360 444
#     4  10  24  43  71  99 145 191 251 302 370 452
#     4  11  24  47  72 103 144 189 247 302 372 440
#     4  12  22  36  68 104 156 192 246 298 374 454
#     4  11  26  47  74 103 144 190 254 320 383 437
#
# _framework density 25.341419999999999
#
# number of rings (size 3 to 8) (size 9 to 14) (size 15 to 20)
#    0.000    1.231    4.615    0.923    0.000    4.923 
#    0.000    0.000    0.000    0.000    0.000    0.000 
#    0.000    0.000    0.000    0.000    0.000    0.000 
#
# Total GULP energy -72398.926135 kJ/mol
# GULP energy per Si atom -5569.148164 kJ/mol
# Density = 2.528374 g / cm^3
# Si number density = 25.341420 Si / 1000 Ang^3
#
#
#
# Elastic Constant Matrix: (Units=GPa)
#
#
# Indices 1 2 3 4 5 6 
#
# 1 91.9296 1.1384 35.2188 0.0000 -18.5372 0.0000
# 2 1.1384 22.6060 12.8258 0.0000 -13.0651 0.0000
# 3 35.2188 12.8258 221.7402 0.0000 -8.1166 0.0000
# 4 0.0000 0.0000 0.0000 20.1323 0.0000 -14.5958
# 5 -18.5372 -13.0651 -8.1166 0.0000 46.3473 0.0000
# 6 0.0000 0.0000 0.0000 -14.5958 0.0000 16.3784
#
#
#
# Elastic Compliance Matrix: (Units=1/GPa)
#
#
# Indices 1 2 3 4 5 6 
#
# 1 0.012794 0.003901 -0.002043 0.000000 0.005859 0.000000
# 2 0.003901 0.055481 -0.003220 0.000000 0.016636 0.000000
# 3 -0.002043 -0.003220 0.004989 0.000000 -0.000851 0.000000
# 4 0.000000 0.000000 0.000000 0.140351 0.000000 0.125076
# 5 0.005859 0.016636 -0.000851 0.000000 0.028460 0.000000
# 6 0.000000 0.000000 0.000000 0.125076 0.000000 0.172519
#
#
# Mechanical properties :
#
#
# Convention : Reuss Voigt Hill
#
# Bulk Modulus (GPa) = 14.17619 48.29353 31.23486
# Shear Modulus (GPa) = 11.34217 35.71112 23.52665
#
# Velocity S-wave (km/s) = 2.11789 3.75800 3.05025
# Velocity P-wave (km/s) = 3.40394 6.15862 4.97571
#
# Compressibility (1/GPa) = 0.07054084
#
# Stress axis : x y z
#
# Youngs Moduli (GPa) = 78.16311 18.02404 200.42538
#
# Poissons Ratio (x) = -0.07031 0.40951
# Poissons Ratio (y) = -0.30492 0.64533
# Poissons Ratio (z) = 0.15970 0.05803
#
# Static dielectric constant tensor:
#      x y z
#    x 2.347310 0.000000 -0.106790 
#    y 0.000000 1.998300 0.000000 
#    z -0.106790 0.000000 2.123400 
# 
# From -- ./inp_files/8377.got.cif
#   From: 2010.05.17/outbox.cif.g08.bks.cpg/sg3_5_cif.got.tgz:8377.got - 2010.06.03 18:33:08.
