data_PCOD9112717
_publ_section_title
;
Structure prediction by ZEFSAII (Michael W. Deem and Ramdas Pophale) SiO2 
 PCOD9112717
Probable space group: P 2
;
_chemical_formula_sum "Si O2"
_cell_formula_units_Z 14
_cell_length_a 21.230612
_cell_length_b 5.270151
_cell_length_c 12.787285
_cell_angle_alpha 90.000000
_cell_angle_beta 155.633208
_cell_angle_gamma 90.000000
_cell_volume 590.294103
_symmetry_space_group_name_H-M "P 2"
_symmetry_group_IT_number 3
_symmetry_cell_setting 'monoclinic'
loop_
_space_group_symop_operation_xyz
x,y,z
-x,y,-z
loop_
_atom_site_type_symbol
_atom_site_label
_atom_site_fract_x
_atom_site_fract_y
_atom_site_fract_z
Si Si1 0.891325 0.057610 0.646891
Si Si2 0.440881 0.436104 0.031997
Si Si3 0.209507 0.933843 0.160009
Si Si4 0.598045 0.945056 0.342853
Si Si5 0.761584 0.624258 0.997776
Si Si6 0.900728 0.559463 0.526047
Si Si7 0.359591 0.128700 0.209933
O O1 0.904182 0.343027 0.622298
O O2 0.737475 0.016334 0.477327
O O3 0.891269 0.847217 0.554815
O O4 0.037334 0.970168 0.935770
O O5 0.536998 0.666866 0.225673
O O6 0.477150 0.165087 0.137378
O O7 0.500000 0.424235 0.000000
O O8 0.261445 0.499001 0.771609
O O9 0.331800 0.955391 0.435256
O O10 0.225407 0.147382 0.094211
O O11 0.236788 0.692324 0.125430
O O12 0.936365 0.555803 0.287639
O O13 0.643789 0.402221 0.844971
O O14 0.693289 0.889095 0.937569
O O15 0.500000 0.075470 0.500000
#
# Coordination Sequence:
#
# PCOD9112717 Si02
#       7
#     2   2   2   2   2   2   2
#     4  11  19  34  53  73 109 145 179 220 255 309
#     4  12  23  35  51  73 106 148 199 218 249 294
#     4   9  23  34  53  82 112 134 179 208 280 329
#     4  12  23  34  53  75 111 153 175 227 257 301
#     4   9  19  35  55  78 110 131 170 221 266 326
#     4  11  19  35  52  73 105 144 183 222 245 301
#     4  10  19  34  58  84 108 132 164 219 282 331
#
# _framework density 23.716989999999999
#
# number of rings (size 3 to 8) (size 9 to 14) (size 15 to 20)
#    0.857    0.571    4.286    2.143    2.000    0.000 
#    0.000    2.857    0.000    0.000    0.000    6.000 
#    0.000    0.000    0.000    0.000    0.000    0.000 
#
# Total GULP energy -78133.689771 kJ/mol
# GULP energy per Si atom -5580.977841 kJ/mol
# Density = 2.366301 g / cm^3
# Si number density = 23.716990 Si / 1000 Ang^3
#
#
#
# Elastic Constant Matrix: (Units=GPa)
#
#
# Indices 1 2 3 4 5 6 
#
# 1 47.3002 17.6380 18.6266 0.0000 9.1682 0.0000
# 2 17.6380 133.0940 6.9684 0.0000 -8.9078 0.0000
# 3 18.6266 6.9684 95.5496 0.0000 -4.5493 0.0000
# 4 0.0000 0.0000 0.0000 30.4816 0.0000 8.4375
# 5 9.1682 -8.9078 -4.5493 0.0000 35.6501 0.0000
# 6 0.0000 0.0000 0.0000 8.4375 0.0000 23.7304
#
#
#
# Elastic Compliance Matrix: (Units=1/GPa)
#
#
# Indices 1 2 3 4 5 6 
#
# 1 0.026224 -0.003760 -0.005236 0.000000 -0.008352 0.000000
# 2 -0.003760 0.008201 0.000280 0.000000 0.003052 0.000000
# 3 -0.005236 0.000280 0.011604 0.000000 0.002897 0.000000
# 4 0.000000 0.000000 0.000000 0.036388 0.000000 -0.012938
# 5 -0.008352 0.003052 0.002897 0.000000 0.031331 0.000000
# 6 0.000000 0.000000 0.000000 -0.012938 0.000000 0.046740
#
#
# Mechanical properties :
#
#
# Convention : Reuss Voigt Hill
#
# Bulk Modulus (GPa) = 34.96698 40.26776 37.61737
# Shear Modulus (GPa) = 26.67345 33.48648 30.07996
#
# Velocity S-wave (km/s) = 3.35723 3.76163 3.56517
# Velocity P-wave (km/s) = 5.45925 5.99014 5.73084
#
# Compressibility (1/GPa) = 0.02859841
#
# Stress axis : x y z
#
# Youngs Moduli (GPa) = 38.13258 121.93055 86.17776
#
# Poissons Ratio (x) = 0.45848 0.45120
# Poissons Ratio (y) = 0.14338 -0.02415
# Poissons Ratio (z) = 0.19965 -0.03417
#
# Static dielectric constant tensor:
#      x y z
#    x 1.979730 0.000000 0.038260 
#    y 0.000000 1.889130 0.000000 
#    z 0.038260 0.000000 1.933800 
# 
# From -- ./inp_files/7971.got.cif
#   From: 2010.05.17/outbox.cif.g08.bks.cpg/sg3_4_cif.got.tgz:7971.got - 2010.06.03 18:33:08.
