data_PCOD9112337
_publ_section_title
;
Structure prediction by ZEFSAII (Michael W. Deem and Ramdas Pophale) SiO2 
 PCOD9112337
Probable space group: P -1
;
_chemical_formula_sum "Si O2"
_cell_formula_units_Z 12
_cell_length_a 9.262348
_cell_length_b 8.414274
_cell_length_c 11.696076
_cell_angle_alpha 119.570536
_cell_angle_beta 90.152647
_cell_angle_gamma 47.547219
_cell_volume 501.456919
_symmetry_space_group_name_H-M "P -1"
_symmetry_group_IT_number 2
_symmetry_cell_setting 'triclinic'
loop_
_space_group_symop_operation_xyz
x,y,z
-x,-y,-z
loop_
_atom_site_type_symbol
_atom_site_label
_atom_site_fract_x
_atom_site_fract_y
_atom_site_fract_z
Si Si1 0.041716 0.176398 0.574766
Si Si2 0.199880 0.655053 0.880298
Si Si3 0.574828 0.775308 0.089591
Si Si4 0.170459 0.284854 0.117373
Si Si5 0.671390 0.835582 0.551836
Si Si6 0.470091 0.382014 0.554662
O O1 0.130271 0.213162 0.482556
O O2 0.854116 0.490914 0.743489
O O3 0.274759 0.949298 0.566867
O O4 0.000000 0.000000 0.500000
O O5 0.309827 0.516975 0.957535
O O6 0.388456 0.510800 0.729987
O O7 0.064118 0.597370 0.834580
O O8 0.000000 0.000000 0.000000
O O9 0.368958 0.970155 0.066212
O O10 0.463918 0.974679 0.270346
O O11 0.754337 0.735770 0.017013
O O12 0.722185 0.572560 0.468662
O O13 0.500000 0.000000 0.500000
O O14 0.500000 0.500000 0.500000
#
# Coordination Sequence:
#
# PCOD9112337 Si02
#       6
#     2   2   2   2   2   2
#     4  11  24  45  70 104 142 187 248 302 373 427
#     4  12  26  47  74 104 147 198 241 302 377 436
#     4  11  25  48  73 104 151 188 245 306 365 445
#     4  11  27  47  73 109 147 198 240 305 375 442
#     4  10  20  46  72  96 146 191 236 309 364 425
#     4  11  25  43  69 106 142 184 255 300 356 449
#
# _framework density 23.930271000000001
#
# number of rings (size 3 to 8) (size 9 to 14) (size 15 to 20)
#    0.000    1.000    5.000    1.500    7.000    4.000 
#    0.000    0.000    0.000    0.000    0.000    0.000 
#    0.000    0.000    0.000    0.000    0.000    0.000 
#
# Total GULP energy -66885.908449 kJ/mol
# GULP energy per Si atom -5573.825704 kJ/mol
# Density = 2.387580 g / cm^3
# Si number density = 23.930271 Si / 1000 Ang^3
#
#
#
# Elastic Constant Matrix: (Units=GPa)
#
#
# Indices 1 2 3 4 5 6 
#
# 1 147.4277 39.0913 15.9434 -18.1664 -3.2077 32.8444
# 2 39.0913 169.3430 14.3357 1.4647 -13.4235 13.7344
# 3 15.9434 14.3357 66.1180 -10.2142 -24.4915 22.1955
# 4 -18.1664 1.4647 -10.2142 35.4364 15.2643 -6.1754
# 5 -3.2077 -13.4235 -24.4915 15.2643 44.8319 -3.6508
# 6 32.8444 13.7344 22.1955 -6.1754 -3.6508 49.3056
#
#
#
# Elastic Compliance Matrix: (Units=1/GPa)
#
#
# Indices 1 2 3 4 5 6 
#
# 1 0.008906 -0.001839 -0.000095 0.004583 -0.001928 -0.004946
# 2 -0.001839 0.006622 -0.000227 -0.002479 0.002519 -0.000641
# 3 -0.000095 -0.000227 0.022528 -0.000108 0.011522 -0.009175
# 4 0.004583 -0.002479 -0.000108 0.036357 -0.012746 0.001296
# 5 -0.001928 0.002519 0.011522 -0.012746 0.033251 -0.003738
# 6 -0.004946 -0.000641 -0.009175 0.001296 -0.003738 0.027771
#
#
# Mechanical properties :
#
#
# Convention : Reuss Voigt Hill
#
# Bulk Modulus (GPa) = 29.64340 57.95884 43.80112
# Shear Modulus (GPa) = 33.11251 46.81601 39.96426
#
# Velocity S-wave (km/s) = 3.72386 4.42786 4.09103
# Velocity P-wave (km/s) = 5.55912 7.10027 6.37642
#
# Compressibility (1/GPa) = 0.03373433
#
# Stress axis : x y z
#
# Youngs Moduli (GPa) = 112.28957 151.01084 44.38965
#
# Poissons Ratio (x) = 0.27772 0.00420
# Poissons Ratio (y) = 0.20651 0.01007
# Poissons Ratio (z) = 0.01062 0.03426
#
# Static dielectric constant tensor:
#      x y z
#    x 2.045830 0.005350 0.046360 
#    y 0.005350 1.758250 0.040640 
#    z 0.046360 0.040640 1.900590 
# 
# From -- ./inp_files/383566.got.cif
#   From: 2010.05.17/outbox.cif.g08.bks.cpg/sg2_192_cif.got.tgz:383566.got - 2010.06.03 11:33:40.
