data_PCOD9112739
_publ_section_title
;
Structure prediction by ZEFSAII (Michael W. Deem and Ramdas Pophale) SiO2 
 PCOD9112739
Probable space group: P 2
;
_chemical_formula_sum "Si O2"
_cell_formula_units_Z 16
_cell_length_a 8.412923
_cell_length_b 18.043653
_cell_length_c 9.254480
_cell_angle_alpha 90.000000
_cell_angle_beta 147.554450
_cell_angle_gamma 90.000000
_cell_volume 753.687650
_symmetry_space_group_name_H-M "P 2"
_symmetry_group_IT_number 3
_symmetry_cell_setting 'monoclinic'
loop_
_space_group_symop_operation_xyz
x,y,z
-x,y,-z
loop_
_atom_site_type_symbol
_atom_site_label
_atom_site_fract_x
_atom_site_fract_y
_atom_site_fract_z
Si Si1 0.653735 0.484570 0.460230
Si Si2 0.839882 0.101720 0.533875
Si Si3 0.182820 0.710114 0.789405
Si Si4 0.230188 0.936875 0.403868
Si Si5 0.344287 0.339069 0.729918
Si Si6 0.144387 0.576234 0.953010
Si Si7 0.382634 0.869687 0.061510
Si Si8 0.346376 0.191290 0.040817
O O1 0.500000 0.476350 0.500000
O O2 0.652815 0.408176 0.374113
O O3 0.985685 0.511480 0.741936
O O4 0.477757 0.549009 0.238656
O O5 0.508030 0.129564 0.258701
O O6 0.000000 0.099204 0.500000
O O7 0.831500 0.019438 0.587950
O O8 0.015216 0.163362 0.761602
O O9 0.055740 0.652377 0.805931
O O10 0.275181 0.786948 0.937984
O O11 0.000000 0.720588 0.500000
O O12 0.500000 0.673557 0.000000
O O13 0.500000 0.938020 0.500000
O O14 0.912411 0.908531 0.107323
O O15 0.349307 0.881842 0.621993
O O16 0.548341 0.271818 0.825788
O O17 0.000000 0.315931 0.500000
O O18 0.500000 0.359905 0.000000
O O19 0.000000 0.579769 0.000000
O O20 0.500000 0.903257 0.000000
O O21 0.500000 0.189392 0.000000
#
# Coordination Sequence:
#
# PCOD9112739 Si02
#       8
#     2   2   2   2   2   2   2   2
#     4  10  22  39  57  83 121 163 202 241 296 369
#     4  10  19  35  59  82 111 155 195 235 294 365
#     4  11  23  40  63  91 121 153 201 260 303 352
#     4  12  25  40  62  94 126 156 201 259 306 358
#     4  11  21  35  59  89 117 149 199 258 304 350
#     4  10  22  39  59  84 119 162 203 243 298 366
#     4  11  23  43  64  88 122 164 205 245 305 377
#     4   9  18  33  55  83 111 144 193 243 292 353
#
# _framework density 21.228954000000002
#
# number of rings (size 3 to 8) (size 9 to 14) (size 15 to 20)
#    0.000    1.500    0.000    7.125    0.000    5.000 
#    0.000    1.875    0.000    4.500    0.000    0.000 
#    0.000    0.000    0.000    0.000    0.000    0.000 
#
# Total GULP energy -89275.228795 kJ/mol
# GULP energy per Si atom -5579.701800 kJ/mol
# Density = 2.118064 g / cm^3
# Si number density = 21.228954 Si / 1000 Ang^3
#
#
#
# Elastic Constant Matrix: (Units=GPa)
#
#
# Indices 1 2 3 4 5 6 
#
# 1 33.5319 16.4143 12.9625 0.0000 4.9926 0.0000
# 2 16.4143 105.5528 19.3550 0.0000 -21.1180 0.0000
# 3 12.9625 19.3550 105.6442 0.0000 -2.7981 0.0000
# 4 0.0000 0.0000 0.0000 -56.9896 0.0000 83.9071
# 5 4.9926 -21.1180 -2.7981 0.0000 23.6897 0.0000
# 6 0.0000 0.0000 0.0000 83.9071 0.0000 -67.8163
#
#
#
# Elastic Compliance Matrix: (Units=1/GPa)
#
#
# Indices 1 2 3 4 5 6 
#
# 1 0.037628 -0.008372 -0.003502 0.000000 -0.015807 0.000000
# 2 -0.008372 0.013763 -0.001126 0.000000 0.013901 0.000000
# 3 -0.003502 -0.001126 0.010126 0.000000 0.000930 0.000000
# 4 0.000000 0.000000 0.000000 0.021356 0.000000 0.026423
# 5 -0.015807 0.013901 0.000930 0.000000 0.058045 0.000000
# 6 0.000000 0.000000 0.000000 0.026423 0.000000 0.017946
#
#
# Mechanical properties :
#
#
# Convention : Reuss Voigt Hill
#
# Bulk Modulus (GPa) = 28.15473 38.02139 33.08806
# Shear Modulus (GPa) = 25.41903 -7.15677 9.13113
#
# Velocity S-wave (km/s) = 3.46407 -1.83808 2.07620
# Velocity P-wave (km/s) = 5.41210 3.66665 4.62251
#
# Compressibility (1/GPa) = 0.03551801
#
# Stress axis : x y z
#
# Youngs Moduli (GPa) = 26.57621 72.65641 98.75209
#
# Poissons Ratio (x) = 0.60826 0.34581
# Poissons Ratio (y) = 0.22249 0.11122
# Poissons Ratio (z) = 0.09306 0.08183
#
# Static dielectric constant tensor:
#      x y z
#    x 1.803260 0.000000 -0.000040 
#    y 0.000000 1.757200 0.000000 
#    z -0.000040 0.000000 1.766810 
# 
# From -- ./inp_files/6221.got.cif
#   From: 2010.05.17/outbox.cif.g08.bks.cpg/sg3_4_cif.got.tgz:6221.got - 2010.06.03 18:33:08.
