data_PCOD9112753
_publ_section_title
;
Structure prediction by ZEFSAII (Michael W. Deem and Ramdas Pophale) SiO2 
 PCOD9112753
Probable space group: P 2
;
_chemical_formula_sum "Si O2"
_cell_formula_units_Z 12
_cell_length_a 8.304908
_cell_length_b 8.358748
_cell_length_c 7.780762
_cell_angle_alpha 90.000000
_cell_angle_beta 73.151144
_cell_angle_gamma 90.000000
_cell_volume 516.943542
_symmetry_space_group_name_H-M "P 2"
_symmetry_group_IT_number 3
_symmetry_cell_setting 'monoclinic'
loop_
_space_group_symop_operation_xyz
x,y,z
-x,y,-z
loop_
_atom_site_type_symbol
_atom_site_label
_atom_site_fract_x
_atom_site_fract_y
_atom_site_fract_z
Si Si1 0.057024 0.941430 0.795068
Si Si2 0.598980 0.992846 0.219401
Si Si3 0.011802 0.282642 0.688850
Si Si4 0.279437 0.855929 0.175161
Si Si5 0.368303 0.362117 0.680758
Si Si6 0.813849 0.523037 0.959793
O O1 0.253886 0.910506 0.712638
O O2 0.912640 0.885783 0.711322
O O3 0.037319 0.132093 0.803358
O O4 0.000000 0.878896 0.000000
O O5 0.422889 0.899951 0.266314
O O6 0.584489 0.177571 0.282015
O O7 0.673950 0.973517 0.001528
O O8 0.188182 0.372277 0.643140
O O9 0.000000 0.222627 0.500000
O O10 0.861074 0.391634 0.801449
O O11 0.266908 0.678683 0.102397
O O12 0.500000 0.421450 0.500000
O O13 0.326409 0.457190 0.866566
O O14 0.000000 0.541702 0.000000
#
# Coordination Sequence:
#
# PCOD9112753 Si02
#       6
#     2   2   2   2   2   2
#     4   9  17  35  62  87 121 163 211 272 320 378
#     4   9  19  36  57  92 123 160 218 264 314 380
#     4  10  21  38  63  96 127 170 228 271 322 396
#     4  10  19  35  64  92 124 167 215 261 328 398
#     4  10  22  42  65  94 133 170 217 282 328 381
#     4  10  20  40  68  95 131 181 213 266 344 400
#
# _framework density 23.213369
#
# number of rings (size 3 to 8) (size 9 to 14) (size 15 to 20)
#    0.000    2.333    0.000    5.000    2.333    0.000 
#    6.000    1.667    3.667    0.000    0.000    0.000 
#    0.000    0.000    0.000    0.000    0.000    0.000 
#
# Total GULP energy -66884.594457 kJ/mol
# GULP energy per Si atom -5573.716205 kJ/mol
# Density = 2.316053 g / cm^3
# Si number density = 23.213369 Si / 1000 Ang^3
#
#
#
# Elastic Constant Matrix: (Units=GPa)
#
#
# Indices 1 2 3 4 5 6 
#
# 1 183.6666 42.9951 36.1288 0.0000 -18.1286 0.0000
# 2 42.9951 61.6748 40.3825 0.0000 -16.2196 0.0000
# 3 36.1288 40.3825 124.8332 0.0000 -22.9673 0.0000
# 4 0.0000 0.0000 0.0000 -12.7172 0.0000 7.6993
# 5 -18.1286 -16.2196 -22.9673 0.0000 23.5791 0.0000
# 6 0.0000 0.0000 0.0000 7.6993 0.0000 21.1502
#
#
#
# Elastic Compliance Matrix: (Units=1/GPa)
#
#
# Indices 1 2 3 4 5 6 
#
# 1 0.006616 -0.003869 -0.000264 0.000000 0.002168 0.000000
# 2 -0.003869 0.024675 -0.005223 0.000000 0.008911 0.000000
# 3 -0.000264 -0.005223 0.011060 0.000000 0.006978 0.000000
# 4 0.000000 0.000000 0.000000 -0.064433 0.000000 0.023456
# 5 0.002168 0.008911 0.006978 0.000000 0.057003 0.000000
# 6 0.000000 0.000000 0.000000 0.023456 0.000000 0.038742
#
#
# Mechanical properties :
#
#
# Convention : Reuss Voigt Hill
#
# Bulk Modulus (GPa) = 42.30330 67.68750 54.99540
# Shear Modulus (GPa) = 49.87227 23.11366 36.49296
#
# Velocity S-wave (km/s) = 4.64014 3.15890 3.96923
# Velocity P-wave (km/s) = 6.85355 6.52127 6.68948
#
# Compressibility (1/GPa) = 0.02363882
#
# Stress axis : x y z
#
# Youngs Moduli (GPa) = 151.13984 40.52765 90.41205
#
# Poissons Ratio (x) = 0.15681 0.02390
# Poissons Ratio (y) = 0.58479 0.47219
# Poissons Ratio (z) = 0.03996 0.21166
#
# Static dielectric constant tensor:
#      x y z
#    x 1.985460 0.000000 0.015840 
#    y 0.000000 1.869810 0.000000 
#    z 0.015840 0.000000 1.892700 
# 
# From -- ./inp_files/5063.got.cif
#   From: 2010.05.17/outbox.cif.g08.bks.cpg/sg3_3_cif.got.tgz:5063.got - 2010.06.03 18:33:08.
