data_PCOD9112756
_publ_section_title
;
Structure prediction by ZEFSAII (Michael W. Deem and Ramdas Pophale) SiO2 
 PCOD9112756
Probable space group: P 2
;
_chemical_formula_sum "Si O2"
_cell_formula_units_Z 12
_cell_length_a 8.430566
_cell_length_b 8.001956
_cell_length_c 9.525108
_cell_angle_alpha 90.000000
_cell_angle_beta 74.443576
_cell_angle_gamma 90.000000
_cell_volume 619.033970
_symmetry_space_group_name_H-M "P 2"
_symmetry_group_IT_number 3
_symmetry_cell_setting 'monoclinic'
loop_
_space_group_symop_operation_xyz
x,y,z
-x,y,-z
loop_
_atom_site_type_symbol
_atom_site_label
_atom_site_fract_x
_atom_site_fract_y
_atom_site_fract_z
Si Si1 0.338228 0.488490 0.950063
Si Si2 0.154456 0.818539 0.068451
Si Si3 0.674620 0.019482 0.408428
Si Si4 0.808610 0.134931 0.086498
Si Si5 0.514377 0.668794 0.347571
Si Si6 0.838522 0.827904 0.611437
O O1 0.251401 0.312541 0.952326
O O2 0.391324 0.562481 0.787935
O O3 0.500000 0.458061 0.000000
O O4 0.238440 0.638061 0.046596
O O5 0.115685 0.866768 0.238402
O O6 0.000000 0.799194 0.000000
O O7 0.261683 0.970214 0.977075
O O8 0.500000 0.096953 0.500000
O O9 0.617279 0.838580 0.357774
O O10 0.786037 0.979140 0.518525
O O11 0.765970 0.113267 0.260870
O O12 0.000000 0.129427 0.000000
O O13 0.500000 0.578007 0.500000
O O14 0.330073 0.720317 0.344771
O O15 0.000000 0.748844 0.500000
#
# Coordination Sequence:
#
# PCOD9112756 Si02
#       6
#     2   2   2   2   2   2
#     4  12  24  40  63  96 130 172 219 262 323 393
#     4  11  23  40  67  93 131 171 208 273 328 379
#     4   9  20  40  67  92 123 174 216 264 325 384
#     4  11  24  42  64  94 130 171 218 267 330 384
#     4   9  20  38  61  89 123 167 214 262 319 381
#     4  10  19  35  65  96 121 165 222 259 325 389
#
# _framework density 19.385043
#
# number of rings (size 3 to 8) (size 9 to 14) (size 15 to 20)
#    0.000    2.000    3.333    2.500    2.333    4.000 
#    0.000    0.000    0.000    1.000    0.000    0.000 
#    0.000    0.000    0.000    0.000    0.000    0.000 
#
# Total GULP energy -66872.908441 kJ/mol
# GULP energy per Si atom -5572.742370 kJ/mol
# Density = 1.934092 g / cm^3
# Si number density = 19.385043 Si / 1000 Ang^3
#
#
#
# Elastic Constant Matrix: (Units=GPa)
#
#
# Indices 1 2 3 4 5 6 
#
# 1 82.9152 29.8482 33.4571 0.0000 6.9157 0.0000
# 2 29.8482 101.2632 30.9973 0.0000 -3.4683 0.0000
# 3 33.4571 30.9973 154.5213 0.0000 5.9666 0.0000
# 4 0.0000 0.0000 0.0000-1221.0542 0.0000 177.6947
# 5 6.9157 -3.4683 5.9666 0.0000 29.6874 0.0000
# 6 0.0000 0.0000 0.0000 177.6947 0.0000 -37.2369
#
#
#
# Elastic Compliance Matrix: (Units=1/GPa)
#
#
# Indices 1 2 3 4 5 6 
#
# 1 0.014604 -0.003721 -0.002285 0.000000 -0.003377 0.000000
# 2 -0.003721 0.011552 -0.001610 0.000000 0.002540 0.000000
# 3 -0.002285 -0.001610 0.007333 0.000000 -0.001129 0.000000
# 4 0.000000 0.000000 0.000000 -0.002680 0.000000 -0.012790
# 5 -0.003377 0.002540 -0.001129 0.000000 0.034995 0.000000
# 6 0.000000 0.000000 0.000000 -0.012790 0.000000 -0.087891
#
#
# Mechanical properties :
#
#
# Convention : Reuss Voigt Hill
#
# Bulk Modulus (GPa) = 54.77361 58.58944 56.68152
# Shear Modulus (GPa) = -6488.35369 -229.42760 -3358.89064
#
# Velocity S-wave (km/s) = -57.91683 -10.89081 -41.67115
# Velocity P-wave (km/s) = 66.66455 11.30738 47.81223
#
# Compressibility (1/GPa) = 0.01825697
#
# Stress axis : x y z
#
# Youngs Moduli (GPa) = 68.47569 86.56720 136.37117
#
# Poissons Ratio (x) = 0.32209 0.31164
# Poissons Ratio (y) = 0.25478 0.21952
# Poissons Ratio (z) = 0.15648 0.13935
#
# Static dielectric constant tensor:
#      x y z
#    x 1.773060 0.000000 -0.106710 
#    y 0.000000 1.713530 0.000000 
#    z -0.106710 0.000000 1.912310 
# 
# From -- ./inp_files/5221.got.cif
#   From: 2010.05.17/outbox.cif.g08.bks.cpg/sg3_3_cif.got.tgz:5221.got - 2010.06.03 18:33:08.
