data_PCOD9112888
_publ_section_title
;
Structure prediction by ZEFSAII (Michael W. Deem and Ramdas Pophale) SiO2 
 PCOD9112888
Probable space group: P 2
;
_chemical_formula_sum "Si O2"
_cell_formula_units_Z 11
_cell_length_a 11.420979
_cell_length_b 8.847820
_cell_length_c 6.626425
_cell_angle_alpha 90.000000
_cell_angle_beta 57.177253
_cell_angle_gamma 90.000000
_cell_volume 562.703822
_symmetry_space_group_name_H-M "P 2"
_symmetry_group_IT_number 3
_symmetry_cell_setting 'monoclinic'
loop_
_space_group_symop_operation_xyz
x,y,z
-x,y,-z
loop_
_atom_site_type_symbol
_atom_site_label
_atom_site_fract_x
_atom_site_fract_y
_atom_site_fract_z
Si Si1 0.647559 0.787530 0.756829
Si Si2 0.737222 0.981926 0.309875
Si Si3 0.144485 0.224313 0.483507
Si Si4 0.117526 0.560034 0.556756
Si Si5 0.352147 0.081020 0.022823
Si Si6 0.000000 0.785741 0.000000
O O1 0.647589 0.866541 0.534223
O O2 0.744511 0.642278 0.653306
O O3 0.709727 0.921585 0.837233
O O4 0.500000 0.753582 0.000000
O O5 0.865649 0.890927 0.089167
O O6 0.809957 0.100664 0.394252
O O7 0.650702 0.064934 0.214914
O O8 0.145514 0.387186 0.590292
O O9 0.258498 0.214446 0.198173
O O10 0.000000 0.193841 0.500000
O O11 0.948247 0.674257 0.222107
O O12 0.000000 0.544955 0.500000
O O13 0.500000 0.090993 0.000000
#
# Coordination Sequence:
#
# PCOD9112888 Si02
#       6
#     2   2   2   2   2   1
#     4   9  20  36  58  84 113 148 190 235 285 337
#     4  10  20  37  61  86 115 150 194 240 282 337
#     4  10  22  36  56  86 116 151 190 233 287 339
#     4  10  21  37  56  84 118 149 187 234 284 341
#     4  10  21  37  59  84 112 149 193 237 283 336
#     4  10  20  34  60  88 112 150 192 234 286 338
#
# _framework density 19.548470999999999
#
# number of rings (size 3 to 8) (size 9 to 14) (size 15 to 20)
#    0.000    2.182    0.000    2.182    0.000   16.000 
#    0.000    0.000    0.000   10.909    0.000    0.000 
#    0.000    0.000    0.000    0.000    0.000    0.000 
#
# Total GULP energy -61283.523226 kJ/mol
# GULP energy per Si atom -5571.229384 kJ/mol
# Density = 1.950398 g / cm^3
# Si number density = 19.548471 Si / 1000 Ang^3
#
#
#
# Elastic Constant Matrix: (Units=GPa)
#
#
# Indices 1 2 3 4 5 6 
#
# 1 106.5795 44.3590 59.9929 0.0000 1.1084 0.0000
# 2 44.3590 86.3908 25.4332 0.0000 -7.5449 0.0000
# 3 59.9929 25.4332 97.4409 0.0000 -13.5046 0.0000
# 4 0.0000 0.0000 0.0000 35.0310 0.0000 -15.6958
# 5 1.1084 -7.5449 -13.5046 0.0000 37.8946 0.0000
# 6 0.0000 0.0000 0.0000 -15.6958 0.0000 35.8795
#
#
#
# Elastic Compliance Matrix: (Units=1/GPa)
#
#
# Indices 1 2 3 4 5 6 
#
# 1 0.017852 -0.006697 -0.009994 0.000000 -0.005417 0.000000
# 2 -0.006697 0.015122 0.000653 0.000000 0.003440 0.000000
# 3 -0.009994 0.000653 0.017151 0.000000 0.006534 0.000000
# 4 0.000000 0.000000 0.000000 0.035505 0.000000 0.015532
# 5 -0.005417 0.003440 0.006534 0.000000 0.029561 0.000000
# 6 0.000000 0.000000 0.000000 0.015532 0.000000 0.034666
#
#
# Mechanical properties :
#
#
# Convention : Reuss Voigt Hill
#
# Bulk Modulus (GPa) = 55.40536 61.10907 58.25721
# Shear Modulus (GPa) = 26.60283 32.46942 29.53612
#
# Velocity S-wave (km/s) = 3.69299 4.07992 3.89127
# Velocity P-wave (km/s) = 6.82557 7.31591 7.07498
#
# Compressibility (1/GPa) = 0.01804880
#
# Stress axis : x y z
#
# Youngs Moduli (GPa) = 56.01617 66.12740 58.30598
#
# Poissons Ratio (x) = 0.44288 0.58270
# Poissons Ratio (y) = 0.37516 -0.03808
# Poissons Ratio (z) = 0.55982 -0.04319
#
# Static dielectric constant tensor:
#      x y z
#    x 1.704030 0.000000 -0.024220 
#    y 0.000000 1.723550 0.000000 
#    z -0.024220 0.000000 1.719420 
# 
# From -- ./inp_files/1980.got.cif
#   From: 2010.05.17/outbox.cif.g08.bks.cpg/sg3_1_cif.got.tgz:1980.got - 2010.06.03 18:33:08.
