data_PCOD9112527
_publ_section_title
;
Structure prediction by ZEFSAII (Michael W. Deem and Ramdas Pophale) SiO2 
 PCOD9112527
Probable space group: P 2
;
_chemical_formula_sum "Si O2"
_cell_formula_units_Z 16
_cell_length_a 14.423779
_cell_length_b 9.710847
_cell_length_c 5.590680
_cell_angle_alpha 90.000000
_cell_angle_beta 63.075654
_cell_angle_gamma 90.000000
_cell_volume 698.189638
_symmetry_space_group_name_H-M "P 2"
_symmetry_group_IT_number 3
_symmetry_cell_setting 'monoclinic'
loop_
_space_group_symop_operation_xyz
x,y,z
-x,y,-z
loop_
_atom_site_type_symbol
_atom_site_label
_atom_site_fract_x
_atom_site_fract_y
_atom_site_fract_z
Si Si1 0.937018 0.930340 0.324719
Si Si2 0.624346 0.905805 0.853477
Si Si3 0.264495 0.602630 0.810983
Si Si4 0.786505 0.682149 0.626935
Si Si5 0.760475 0.316456 0.026385
Si Si6 0.182509 0.218448 0.542944
Si Si7 0.624781 0.896983 0.352684
Si Si8 0.992215 0.441139 0.759981
O O1 0.861983 0.799742 0.441478
O O2 0.000000 0.934000 0.500000
O O3 0.871735 0.070657 0.399249
O O4 0.000000 0.921997 0.000000
O O5 0.673043 0.753189 0.789078
O O6 0.657084 0.966908 0.562040
O O7 0.500000 0.902171 0.000000
O O8 0.661341 0.964838 0.063008
O O9 0.221858 0.578486 0.588951
O O10 0.306486 0.456234 0.856389
O O11 0.334467 0.739269 0.699859
O O12 0.190343 0.640758 0.125246
O O13 0.755163 0.235213 0.281434
O O14 0.751023 0.249620 0.775565
O O15 0.881758 0.364937 0.887246
O O16 0.084251 0.326917 0.654703
O O17 0.500000 0.894036 0.500000
O O18 0.000000 0.519320 0.500000
O O19 0.000000 0.521660 0.000000
#
# Coordination Sequence:
#
# PCOD9112527 Si02
#       8
#     2   2   2   2   2   2   2   2
#     4  12  23  38  55  70  98 136 177 216 248 294
#     4   8  14  27  48  71  96 125 163 207 243 285
#     4  10  19  33  50  73 108 132 157 203 252 314
#     4  10  21  35  50  75 106 138 167 197 253 315
#     4  10  18  30  49  71  91 118 153 202 253 278
#     4  10  19  33  51  69  86 115 170 220 243 265
#     4   8  14  25  44  69  96 129 161 191 235 292
#     4   8  14  25  39  58  76  97 137 186 228 251
#
# _framework density 22.916409999999999
#
# number of rings (size 3 to 8) (size 9 to 14) (size 15 to 20)
#    0.000    2.500    0.000    4.500    0.000    0.000 
#    0.000   11.250    0.000    0.000    0.000    1.750 
#    0.000    0.000    0.000    0.000    0.000    0.000 
#
# Total GULP energy -89098.516538 kJ/mol
# GULP energy per Si atom -5568.657284 kJ/mol
# Density = 2.286425 g / cm^3
# Si number density = 22.916410 Si / 1000 Ang^3
#
#
#
# Elastic Constant Matrix: (Units=GPa)
#
#
# Indices 1 2 3 4 5 6 
#
# 1 39.1990 5.9123 43.3442 0.0000 16.9705 0.0000
# 2 5.9123 53.4431 22.9397 0.0000 -3.4850 0.0000
# 3 43.3442 22.9397 209.8393 0.0000 73.4901 0.0000
# 4 0.0000 0.0000 0.0000 26.6579 0.0000 4.2919
# 5 16.9705 -3.4850 73.4901 0.0000 49.3782 0.0000
# 6 0.0000 0.0000 0.0000 4.2919 0.0000 6.8744
#
#
#
# Elastic Compliance Matrix: (Units=1/GPa)
#
#
# Indices 1 2 3 4 5 6 
#
# 1 0.033313 -0.001504 -0.005576 0.000000 -0.003256 0.000000
# 2 -0.001504 0.022132 -0.005925 0.000000 0.010898 0.000000
# 3 -0.005576 -0.005925 0.012617 0.000000 -0.017279 0.000000
# 4 0.000000 0.000000 0.000000 0.041704 0.000000 -0.026038
# 5 -0.003256 0.010898 -0.017279 0.000000 0.047857 0.000000
# 6 0.000000 0.000000 0.000000 -0.026038 0.000000 0.161724
#
#
# Mechanical properties :
#
#
# Convention : Reuss Voigt Hill
#
# Bulk Modulus (GPa) = 23.78111 49.65265 36.71688
# Shear Modulus (GPa) = 13.91300 31.93445 22.92372
#
# Velocity S-wave (km/s) = 2.46665 3.73704 3.16621
# Velocity P-wave (km/s) = 4.30260 6.35094 5.42434
#
# Compressibility (1/GPa) = 0.04205018
#
# Stress axis : x y z
#
# Youngs Moduli (GPa) = 30.01792 45.18355 79.25938
#
# Poissons Ratio (x) = 0.06796 0.44199
# Poissons Ratio (y) = 0.04515 0.46965
# Poissons Ratio (z) = 0.16739 0.26773
#
# Static dielectric constant tensor:
#      x y z
#    x 1.910940 0.000000 0.082020 
#    y 0.000000 1.839350 0.000000 
#    z 0.082020 0.000000 1.955710 
# 
# From -- ./inp_files/3698.got.cif
#   From: 2010.05.17/outbox.cif.g08.bks.cpg/sg3_2_cif.got.tgz:3698.got - 2010.06.03 18:33:08.
