data_PCOD9112145
_publ_section_title
;
Structure prediction by ZEFSAII (Michael W. Deem and Ramdas Pophale) SiO2 
 PCOD9112145
Probable space group: P -1
;
_chemical_formula_sum "Si O2"
_cell_formula_units_Z 13
_cell_length_a 11.902022
_cell_length_b 22.942511
_cell_length_c 8.510543
_cell_angle_alpha 33.540793
_cell_angle_beta 145.023848
_cell_angle_gamma 149.071980
_cell_volume 613.717687
_symmetry_space_group_name_H-M "P -1"
_symmetry_group_IT_number 2
_symmetry_cell_setting 'triclinic'
loop_
_space_group_symop_operation_xyz
x,y,z
-x,-y,-z
loop_
_atom_site_type_symbol
_atom_site_label
_atom_site_fract_x
_atom_site_fract_y
_atom_site_fract_z
Si Si1 0.748529 0.706861 0.422934
Si Si2 0.477044 0.810705 0.699909
Si Si3 0.467515 0.778768 0.393035
Si Si4 0.217822 0.913162 0.676529
Si Si5 0.000000 0.000000 0.500000
Si Si6 0.969355 0.610703 0.658315
Si Si7 0.615442 0.453987 0.356348
O O1 0.805142 0.628166 0.546927
O O2 0.562859 0.618774 0.540465
O O3 0.992578 0.812747 0.544343
O O4 0.640099 0.773115 0.055472
O O5 0.438264 0.763316 0.581779
O O6 0.224854 0.739227 0.653866
O O7 0.605403 0.961221 0.503183
O O8 0.745474 0.862945 0.485282
O O9 0.348730 0.645547 0.467721
O O10 0.351733 0.851593 0.034249
O O11 0.134138 0.961549 0.615675
O O12 0.849739 0.570199 0.441534
O O13 0.000000 0.500000 0.000000
O O14 0.500000 0.500000 0.000000
#
# Coordination Sequence:
#
# PCOD9112145 Si02
#       7
#     2   2   2   2   1   2   2
#     4  12  26  48  70 103 143 181 233 289 354 407
#     4  11  26  45  71 106 136 189 225 288 354 410
#     4  11  25  46  73 108 137 184 239 284 347 411
#     4  11  25  44  76 105 140 180 235 292 346 419
#     4  10  20  44  72 100 146 168 230 288 350 390
#     4  12  27  47  70  99 147 184 233 287 341 421
#     4  12  27  46  74 102 140 191 233 287 345 415
#
# _framework density 21.182376999999999
#
# number of rings (size 3 to 8) (size 9 to 14) (size 15 to 20)
#    0.000    0.615    3.077    4.615    4.308    7.385 
#    0.000    0.000    0.000    0.000    0.000    0.000 
#    0.000    0.000    0.000    0.000    0.000    0.000 
#
# Total GULP energy -72549.298219 kJ/mol
# GULP energy per Si atom -5580.715248 kJ/mol
# Density = 2.113417 g / cm^3
# Si number density = 21.182377 Si / 1000 Ang^3
#
#
#
# Elastic Constant Matrix: (Units=GPa)
#
#
# Indices 1 2 3 4 5 6 
#
# 1 46.8587 -0.7151 27.4131 -7.4333 -2.4041 2.2474
# 2 -0.7151 70.8369 6.3370 6.3636 -2.0809 -3.1620
# 3 27.4131 6.3370 132.7656 -2.1774 -23.8097 2.1233
# 4 -7.4333 6.3636 -2.1774 32.7457 -6.7277 1.1164
# 5 -2.4041 -2.0809 -23.8097 -6.7277 19.2835 -2.6986
# 6 2.2474 -3.1620 2.1233 1.1164 -2.6986 44.3457
#
#
#
# Elastic Compliance Matrix: (Units=1/GPa)
#
#
# Indices 1 2 3 4 5 6 
#
# 1 0.025304 0.000185 -0.005502 0.004961 -0.002064 -0.001256
# 2 0.000185 0.014500 -0.000858 -0.002941 -0.000340 0.001119
# 3 -0.005502 -0.000858 0.011270 0.002546 0.014092 0.000472
# 4 0.004961 -0.002941 0.002546 0.035673 0.015818 -0.000518
# 5 -0.002064 -0.000340 0.014092 0.015818 0.074981 0.003570
# 6 -0.001256 0.001119 0.000472 -0.000518 0.003570 0.022901
#
#
# Mechanical properties :
#
#
# Convention : Reuss Voigt Hill
#
# Bulk Modulus (GPa) = 25.82318 35.17016 30.49667
# Shear Modulus (GPa) = 23.82242 33.77005 28.79623
#
# Velocity S-wave (km/s) = 3.35719 3.99714 3.69106
# Velocity P-wave (km/s) = 5.21968 6.15974 5.70909
#
# Compressibility (1/GPa) = 0.03872490
#
# Stress axis : x y z
#
# Youngs Moduli (GPa) = 39.51982 68.96724 88.72759
#
# Poissons Ratio (x) = -0.01278 0.48820
# Poissons Ratio (y) = -0.00732 0.07609
# Poissons Ratio (z) = 0.21745 0.05914
#
# Static dielectric constant tensor:
#      x y z
#    x 1.737660 -0.006170 -0.013220 
#    y -0.006170 1.758950 0.010920 
#    z -0.013220 0.010920 1.741300 
# 
# From -- ./inp_files/26107.got.cif
#   From: 2010.05.17/outbox.cif.g08.bks.cpg/sg2_14_cif.got.tgz:26107.got - 2010.06.03 11:33:40.
