data_PCOD9112868
_publ_section_title
;
Structure prediction by ZEFSAII (Michael W. Deem and Ramdas Pophale) SiO2 
 PCOD9112868
Probable space group: P 2
;
_chemical_formula_sum "Si O2"
_cell_formula_units_Z 16
_cell_length_a 13.094826
_cell_length_b 11.827829
_cell_length_c 8.099375
_cell_angle_alpha 90.000000
_cell_angle_beta 142.508321
_cell_angle_gamma 90.000000
_cell_volume 763.521366
_symmetry_space_group_name_H-M "P 2"
_symmetry_group_IT_number 3
_symmetry_cell_setting 'monoclinic'
loop_
_space_group_symop_operation_xyz
x,y,z
-x,y,-z
loop_
_atom_site_type_symbol
_atom_site_label
_atom_site_fract_x
_atom_site_fract_y
_atom_site_fract_z
Si Si1 0.704496 0.307810 0.929780
Si Si2 0.104250 0.084574 0.793623
Si Si3 0.693642 0.293586 0.557374
Si Si4 0.398996 0.842566 0.538498
Si Si5 0.790511 0.044663 0.588497
Si Si6 0.706960 0.433608 0.261214
Si Si7 0.284604 0.908561 0.836344
Si Si8 0.692137 0.685069 0.310790
O O1 0.768075 0.335494 0.827061
O O2 0.504147 0.318780 0.681826
O O3 0.749896 0.175573 0.003882
O O4 0.766150 0.382141 0.162837
O O5 0.000000 0.125303 0.500000
O O6 0.982657 0.074122 0.793018
O O7 0.169473 0.961134 0.829519
O O8 0.710485 0.159657 0.551004
O O9 0.762514 0.354736 0.483743
O O10 0.500000 0.825675 0.500000
O O11 0.321034 0.729114 0.517723
O O12 0.259885 0.941166 0.357389
O O13 0.536854 0.886161 0.849389
O O14 0.723129 0.001032 0.321332
O O15 0.763404 0.561812 0.367836
O O16 0.500000 0.431933 0.000000
O O17 0.227207 0.789670 0.685339
O O18 0.500000 0.678432 0.000000
#
# Coordination Sequence:
#
# PCOD9112868 Si02
#       8
#     2   2   2   2   2   2   2   2
#     4  10  21  35  55  81 114 143 187 224 274 336
#     4  10  20  34  55  82 110 147 184 224 279 336
#     4  10  21  35  54  84 110 151 182 226 278 325
#     4  10  20  33  52  82 111 146 184 228 279 334
#     4  10  20  33  53  77 110 145 182 223 277 327
#     4   9  17  34  55  79 112 142 183 234 276 322
#     4   9  18  34  54  76 111 143 183 226 278 340
#     4   8  16  33  53  78 107 142 181 229 279 322
#
# _framework density 20.955537
#
# number of rings (size 3 to 8) (size 9 to 14) (size 15 to 20)
#    0.000    2.500    0.000    3.375    3.500    3.500 
#    9.000    0.000    0.000   11.250    0.000    0.000 
#    0.000    0.000    0.000    0.000    0.000    0.000 
#
# Total GULP energy -89203.224512 kJ/mol
# GULP energy per Si atom -5575.201532 kJ/mol
# Density = 2.090784 g / cm^3
# Si number density = 20.955537 Si / 1000 Ang^3
#
#
#
# Elastic Constant Matrix: (Units=GPa)
#
#
# Indices 1 2 3 4 5 6 
#
# 1 108.9412 59.1506 26.4701 0.0000 -45.2436 0.0000
# 2 59.1506 134.2145 20.0890 0.0000 -34.1344 0.0000
# 3 26.4701 20.0890 34.8421 0.0000 -24.0248 0.0000
# 4 0.0000 0.0000 0.0000 4.2852 0.0000 -7.6658
# 5 -45.2436 -34.1344 -24.0248 0.0000 34.0285 0.0000
# 6 0.0000 0.0000 0.0000 -7.6658 0.0000 2.0412
#
#
#
# Elastic Compliance Matrix: (Units=1/GPa)
#
#
# Indices 1 2 3 4 5 6 
#
# 1 0.021966 -0.002780 0.006100 0.000000 0.030724 0.000000
# 2 -0.002780 0.010445 0.001492 0.000000 0.007835 0.000000
# 3 0.006100 0.001492 0.058130 0.000000 0.050648 0.000000
# 4 0.000000 0.000000 0.000000 -0.040811 0.000000 -0.153262
# 5 0.030724 0.007835 0.050648 0.000000 0.113855 0.000000
# 6 0.000000 0.000000 0.000000 -0.153262 0.000000 -0.085674
#
#
# Mechanical properties :
#
#
# Convention : Reuss Voigt Hill
#
# Bulk Modulus (GPa) = 9.98350 54.37968 32.18159
# Shear Modulus (GPa) = 49.17593 19.55687 34.36640
#
# Velocity S-wave (km/s) = 4.84951 3.05824 4.05404
# Velocity P-wave (km/s) = 6.01095 6.20297 6.10771
#
# Compressibility (1/GPa) = 0.10016532
#
# Stress axis : x y z
#
# Youngs Moduli (GPa) = 45.52432 95.73710 17.20284
#
# Poissons Ratio (x) = 0.26615 -0.10494
# Poissons Ratio (y) = 0.12656 -0.02567
# Poissons Ratio (z) = -0.27770 -0.14284
#
# Static dielectric constant tensor:
#      x y z
#    x 1.799430 0.000000 -0.014030 
#    y 0.000000 1.727250 0.000000 
#    z -0.014030 0.000000 1.831790 
# 
# From -- ./inp_files/7744.got.cif
#   From: 2010.05.17/outbox.cif.g08.bks.cpg/sg3_4_cif.got.tgz:7744.got - 2010.06.03 18:33:08.
