data_PCOD9112928
_publ_section_title
;
Structure prediction by ZEFSAII (Michael W. Deem and Ramdas Pophale) SiO2 
 PCOD9112928
Probable space group: P 2
;
_chemical_formula_sum "Si O2"
_cell_formula_units_Z 15
_cell_length_a 15.579738
_cell_length_b 5.020877
_cell_length_c 8.568944
_cell_angle_alpha 90.000000
_cell_angle_beta 71.182195
_cell_angle_gamma 90.000000
_cell_volume 634.468652
_symmetry_space_group_name_H-M "P 2"
_symmetry_group_IT_number 3
_symmetry_cell_setting 'monoclinic'
loop_
_space_group_symop_operation_xyz
x,y,z
-x,y,-z
loop_
_atom_site_type_symbol
_atom_site_label
_atom_site_fract_x
_atom_site_fract_y
_atom_site_fract_z
Si Si1 0.823165 0.771650 0.308851
Si Si2 0.000000 0.244509 0.500000
Si Si3 0.504957 0.665150 0.806626
Si Si4 0.777380 0.859665 0.995832
Si Si5 0.614076 0.174556 0.755715
Si Si6 0.013829 0.930358 0.167472
Si Si7 0.332674 0.390050 0.966150
Si Si8 0.803784 0.293108 0.518698
O O1 0.776579 0.742642 0.170645
O O2 0.779283 0.570284 0.454297
O O3 0.931715 0.715959 0.224264
O O4 0.818630 0.072823 0.374318
O O5 0.897914 0.360926 0.552732
O O6 0.997435 0.090367 0.665761
O O7 0.576940 0.448063 0.710074
O O8 0.407186 0.543679 0.816855
O O9 0.548663 0.944306 0.733906
O O10 0.500000 0.680629 0.000000
O O11 0.719860 0.645926 0.930265
O O12 0.739395 0.160390 0.036014
O O13 0.881867 0.846781 0.886801
O O14 0.721908 0.165617 0.664064
O O15 0.608417 0.218463 0.945351
O O16 0.000000 0.053826 0.000000
#
# Coordination Sequence:
#
# PCOD9112928 Si02
#       8
#     2   1   2   2   2   2   2   2
#     4  10  23  41  60  86 127 174 214 262 319 386
#     4  10  22  38  64  94 132 170 222 278 318 384
#     4  10  20  36  57  88 124 155 196 261 335 395
#     4  11  22  39  62  90 126 167 217 266 320 393
#     4  11  21  36  60  89 122 157 201 259 330 400
#     4   9  21  40  63  94 134 180 223 270 331 391
#     4  11  22  36  62  94 121 156 207 270 331 390
#     4  11  23  40  62  90 124 169 216 263 323 386
#
# _framework density 23.641826999999999
#
# number of rings (size 3 to 8) (size 9 to 14) (size 15 to 20)
#    0.000    1.600    0.000    6.000    0.000    7.467 
#    0.000    7.333    0.000   12.000    0.000    0.000 
#    0.000    0.000    0.000    0.000    0.000    0.000 
#
# Total GULP energy -83536.387493 kJ/mol
# GULP energy per Si atom -5569.092500 kJ/mol
# Density = 2.358802 g / cm^3
# Si number density = 23.641827 Si / 1000 Ang^3
#
#
#
# Elastic Constant Matrix: (Units=GPa)
#
#
# Indices 1 2 3 4 5 6 
#
# 1 111.3191 31.7950 19.8484 0.0000 -42.5967 0.0000
# 2 31.7950 124.6623 12.4394 0.0000 -5.5397 0.0000
# 3 19.8484 12.4394 60.0272 0.0000 -3.0371 0.0000
# 4 0.0000 0.0000 0.0000 57.2381 0.0000 -11.8390
# 5 -42.5967 -5.5397 -3.0371 0.0000 32.7001 0.0000
# 6 0.0000 0.0000 0.0000 -11.8390 0.0000 26.8162
#
#
#
# Elastic Compliance Matrix: (Units=1/GPa)
#
#
# Indices 1 2 3 4 5 6 
#
# 1 0.020909 -0.003689 -0.004825 0.000000 0.026164 0.000000
# 2 -0.003689 0.008892 -0.000794 0.000000 -0.003372 0.000000
# 3 -0.004825 -0.000794 0.018180 0.000000 -0.004732 0.000000
# 4 0.000000 0.000000 0.000000 0.019227 0.000000 0.008488
# 5 0.026164 -0.003372 -0.004732 0.000000 0.063652 0.000000
# 6 0.000000 0.000000 0.000000 0.008488 0.000000 0.041038
#
#
# Mechanical properties :
#
#
# Convention : Reuss Voigt Hill
#
# Bulk Modulus (GPa) = 34.05424 47.13046 40.59235
# Shear Modulus (GPa) = 24.96243 38.81260 31.88752
#
# Velocity S-wave (km/s) = 3.25292 4.05618 3.67655
# Velocity P-wave (km/s) = 5.34268 6.47420 5.93546
#
# Compressibility (1/GPa) = 0.02936492
#
# Stress axis : x y z
#
# Youngs Moduli (GPa) = 47.82692 112.46347 55.00633
#
# Poissons Ratio (x) = 0.41483 0.26543
# Poissons Ratio (y) = 0.17641 0.04365
# Poissons Ratio (z) = 0.23079 0.08925
#
# Static dielectric constant tensor:
#      x y z
#    x 2.004090 0.000000 -0.028060 
#    y 0.000000 1.902250 0.000000 
#    z -0.028060 0.000000 1.872110 
# 
# From -- ./inp_files/8279.got.cif
#   From: 2010.05.17/outbox.cif.g08.bks.cpg/sg3_5_cif.got.tgz:8279.got - 2010.06.03 18:33:08.
