data_PCOD9112182
_publ_section_title
;
Structure prediction by ZEFSAII (Michael W. Deem and Ramdas Pophale) SiO2 
 PCOD9112182
Probable space group: P -1
;
_chemical_formula_sum "Si O2"
_cell_formula_units_Z 14
_cell_length_a 8.618818
_cell_length_b 9.103471
_cell_length_c 18.945123
_cell_angle_alpha 43.137607
_cell_angle_beta 59.152607
_cell_angle_gamma 94.012343
_cell_volume 570.583915
_symmetry_space_group_name_H-M "P -1"
_symmetry_group_IT_number 2
_symmetry_cell_setting 'triclinic'
loop_
_space_group_symop_operation_xyz
x,y,z
-x,-y,-z
loop_
_atom_site_type_symbol
_atom_site_label
_atom_site_fract_x
_atom_site_fract_y
_atom_site_fract_z
Si Si1 0.952533 0.267704 0.148800
Si Si2 0.573169 0.185154 0.345990
Si Si3 0.118368 0.614647 0.353062
Si Si4 0.387844 0.470629 0.261204
Si Si5 0.784429 0.684446 0.334994
Si Si6 0.035607 0.784470 0.106837
Si Si7 0.681500 0.374154 0.922008
O O1 0.144091 0.414891 0.122576
O O2 0.645326 0.058604 0.320502
O O3 0.974751 0.059366 0.178971
O O4 0.000000 0.500000 0.000000
O O5 0.369303 0.198406 0.373645
O O6 0.874412 0.572555 0.148482
O O7 0.500000 0.000000 0.500000
O O8 0.180337 0.436266 0.366715
O O9 0.000000 0.500000 0.500000
O O10 0.905654 0.575040 0.375767
O O11 0.405621 0.006609 0.142188
O O12 0.370791 0.498431 0.171137
O O13 0.690228 0.827216 0.091475
O O14 0.500000 0.500000 0.500000
O O15 0.806858 0.678071 0.248447
O O16 0.150336 0.657303 0.149505
#
# Coordination Sequence:
#
# PCOD9112182 Si02
#       7
#     2   2   2   2   2   2   2
#     4  11  27  46  69 106 143 189 233 290 366 427
#     4  11  25  44  69 104 145 185 235 289 357 426
#     4  11  25  42  72 112 141 179 242 303 358 401
#     4  11  21  46  79  98 134 197 246 289 340 428
#     4  12  25  43  71 103 146 180 234 292 359 419
#     4  10  20  44  73  97 132 191 243 277 335 442
#     4  10  22  48  75  98 142 188 247 290 346 429
#
# _framework density 24.536268
#
# number of rings (size 3 to 8) (size 9 to 14) (size 15 to 20)
#    0.000    1.143    2.857    3.000    6.000    1.714 
#    0.000    2.857    0.000    0.000    0.000    0.000 
#    0.000    0.000    0.000    0.000    0.000    0.000 
#
# Total GULP energy -78205.223978 kJ/mol
# GULP energy per Si atom -5586.087427 kJ/mol
# Density = 2.448042 g / cm^3
# Si number density = 24.536268 Si / 1000 Ang^3
#
#
#
# Elastic Constant Matrix: (Units=GPa)
#
#
# Indices 1 2 3 4 5 6 
#
# 1 141.1008 51.4871 50.8544 -3.2475 29.7937 -15.8107
# 2 51.4871 119.4149 47.5774 22.0540 -2.9828 -0.3332
# 3 50.8544 47.5774 89.6192 23.2733 3.8874 1.9631
# 4 -3.2475 22.0540 23.2733 47.6535 6.8252 -6.1123
# 5 29.7937 -2.9828 3.8874 6.8252 47.9593 5.8488
# 6 -15.8107 -0.3332 1.9631 -6.1123 5.8488 46.0630
#
#
#
# Elastic Compliance Matrix: (Units=1/GPa)
#
#
# Indices 1 2 3 4 5 6 
#
# 1 0.016155 -0.005855 -0.008546 0.010891 -0.012340 0.008879
# 2 -0.005855 0.013112 -0.002065 -0.006766 0.006009 -0.003488
# 3 -0.008546 -0.002065 0.019815 -0.010910 0.005857 -0.005984
# 4 0.010891 -0.006766 -0.010910 0.033242 -0.012268 0.010123
# 5 -0.012340 0.006009 0.005857 -0.012268 0.031388 -0.010055
# 6 0.008879 -0.003488 -0.005984 0.010123 -0.010055 0.027607
#
#
# Mechanical properties :
#
#
# Convention : Reuss Voigt Hill
#
# Bulk Modulus (GPa) = 61.92796 72.21919 67.07358
# Shear Modulus (GPa) = 27.83427 41.68288 34.75857
#
# Velocity S-wave (km/s) = 3.37176 4.12615 3.76788
# Velocity P-wave (km/s) = 6.36023 7.22480 6.80626
#
# Compressibility (1/GPa) = 0.01614780
#
# Stress axis : x y z
#
# Youngs Moduli (GPa) = 61.89996 76.26851 50.46794
#
# Poissons Ratio (x) = 0.44658 0.43131
# Poissons Ratio (y) = 0.36244 0.10423
# Poissons Ratio (z) = 0.52901 0.15751
#
# Static dielectric constant tensor:
#      x y z
#    x 1.981830 -0.006610 -0.012180 
#    y -0.006610 1.955990 -0.033920 
#    z -0.012180 -0.033920 2.066360 
# 
# From -- ./inp_files/587750.got.cif
#   From: 2010.05.17/outbox.cif.g08.bks.cpg/sg2_294_cif.got.tgz:587750.got - 2010.06.03 11:33:40.
