data_PCOD9112484
_publ_section_title
;
Structure prediction by ZEFSAII (Michael W. Deem and Ramdas Pophale) SiO2 
 PCOD9112484
Probable space group: P 2
;
_chemical_formula_sum "Si O2"
_cell_formula_units_Z 10
_cell_length_a 9.840442
_cell_length_b 8.680254
_cell_length_c 6.614625
_cell_angle_alpha 90.000000
_cell_angle_beta 50.171363
_cell_angle_gamma 90.000000
_cell_volume 433.903191
_symmetry_space_group_name_H-M "P 2"
_symmetry_group_IT_number 3
_symmetry_cell_setting 'monoclinic'
loop_
_space_group_symop_operation_xyz
x,y,z
-x,y,-z
loop_
_atom_site_type_symbol
_atom_site_label
_atom_site_fract_x
_atom_site_fract_y
_atom_site_fract_z
Si Si1 0.632047 0.372080 0.184612
Si Si2 0.500000 0.119605 0.000000
Si Si3 0.854848 0.036441 0.459581
Si Si4 0.145151 0.707717 0.540420
Si Si5 0.500000 0.624555 0.000000
Si Si6 0.966213 0.372079 0.286566
O O1 0.500000 0.372081 0.500000
O O2 0.585241 0.225921 0.091506
O O3 0.585244 0.518238 0.091501
O O4 0.843799 0.372078 0.003209
O O5 0.338244 0.034212 0.257115
O O6 0.000000 0.036384 0.500000
O O7 0.873469 0.205366 0.340304
O O8 0.877666 0.872080 0.324210
O O9 0.338244 0.709947 0.257118
O O10 0.000000 0.707775 0.500000
O O11 0.126530 0.538793 0.659697
O O12 0.000000 0.372079 0.500000
#
# Coordination Sequence:
#
# PCOD9112484 Si02
#       6
#     2   1   2   2   1   2
#     4  11  22  36  62  93 121 157 199 248 300 349
#     4  11  19  38  62  85 123 158 199 241 298 363
#     4  10  19  33  62  91 116 158 201 242 296 352
#     4  10  19  33  62  91 116 158 201 242 296 352
#     4  11  19  38  62  85 123 158 199 241 298 363
#     4  10  16  37  59  81 122 155 191 248 291 343
#
# _framework density 23.046614000000002
#
# number of rings (size 3 to 8) (size 9 to 14) (size 15 to 20)
#    0.000    1.600    8.000    1.800    0.000    0.000 
#    0.000    4.000    0.000   13.200    0.000    0.000 
#    0.000    0.000    0.000    0.000    0.000    0.000 
#
# Total GULP energy -55816.593880 kJ/mol
# GULP energy per Si atom -5581.659388 kJ/mol
# Density = 2.299416 g / cm^3
# Si number density = 23.046614 Si / 1000 Ang^3
#
#
#
# Elastic Constant Matrix: (Units=GPa)
#
#
# Indices 1 2 3 4 5 6 
#
# 1 37.8991 40.1327 43.3515 0.0000 -27.0057 0.0000
# 2 40.1327 263.3268 87.9949 0.0000 -9.7569 0.0000
# 3 43.3515 87.9949 173.0785 0.0000 -26.6089 0.0000
# 4 0.0000 0.0000 0.0000 13.9624 0.0000 -5.5008
# 5 -27.0057 -9.7569 -26.6089 0.0000 56.9756 0.0000
# 6 0.0000 0.0000 0.0000 -5.5008 0.0000 -41.1824
#
#
#
# Elastic Compliance Matrix: (Units=1/GPa)
#
#
# Indices 1 2 3 4 5 6 
#
# 1 0.057249 -0.005125 -0.008292 0.000000 0.022385 0.000000
# 2 -0.005125 0.005039 -0.001637 0.000000 -0.002330 0.000000
# 3 -0.008292 -0.001637 0.008661 0.000000 -0.000166 0.000000
# 4 0.000000 0.000000 0.000000 0.068040 0.000000 -0.009088
# 5 0.022385 -0.002330 -0.000166 0.000000 0.027685 0.000000
# 6 0.000000 0.000000 0.000000 -0.009088 0.000000 -0.023068
#
#
# Mechanical properties :
#
#
# Convention : Reuss Voigt Hill
#
# Bulk Modulus (GPa) = 24.48475 90.80695 57.64585
# Shear Modulus (GPa) = 26.69123 26.13947 26.41535
#
# Velocity S-wave (km/s) = 3.40684 3.37144 3.38919
# Velocity P-wave (km/s) = 5.11102 7.39205 6.35472
#
# Compressibility (1/GPa) = 0.04084174
#
# Stress axis : x y z
#
# Youngs Moduli (GPa) = 17.46770 198.44619 115.45525
#
# Poissons Ratio (x) = 1.01695 0.95740
# Poissons Ratio (y) = 0.08951 0.18896
# Poissons Ratio (z) = 0.14485 0.32479
#
# Static dielectric constant tensor:
#      x y z
#    x 1.945230 0.000000 0.040110 
#    y 0.000000 1.912970 0.000000 
#    z 0.040110 0.000000 1.844220 
# 
# From -- ./inp_files/8463.got.cif
#   From: 2010.05.17/outbox.cif.g08.bks.cpg/sg3_5_cif.got.tgz:8463.got - 2010.06.03 18:33:08.
