data_PCOD9112514
_publ_section_title
;
Structure prediction by ZEFSAII (Michael W. Deem and Ramdas Pophale) SiO2 
 PCOD9112514
Probable space group: P 2
;
_chemical_formula_sum "Si O2"
_cell_formula_units_Z 15
_cell_length_a 12.383098
_cell_length_b 7.470681
_cell_length_c 9.534381
_cell_angle_alpha 90.000000
_cell_angle_beta 120.677634
_cell_angle_gamma 90.000000
_cell_volume 758.588865
_symmetry_space_group_name_H-M "P 2"
_symmetry_group_IT_number 3
_symmetry_cell_setting 'monoclinic'
loop_
_space_group_symop_operation_xyz
x,y,z
-x,y,-z
loop_
_atom_site_type_symbol
_atom_site_label
_atom_site_fract_x
_atom_site_fract_y
_atom_site_fract_z
Si Si1 0.128295 0.860430 0.363594
Si Si2 0.319224 0.028905 0.102500
Si Si3 0.183767 0.576674 0.160623
Si Si4 0.454428 0.679107 0.310962
Si Si5 0.674495 0.745844 0.270967
Si Si6 0.500000 0.036062 0.000000
Si Si7 0.122457 0.191615 0.175195
Si Si8 0.143630 0.737307 0.843907
O O1 0.167709 0.747519 0.251002
O O2 0.229714 0.823403 0.550228
O O3 0.989516 0.790675 0.308758
O O4 0.121457 0.066074 0.310219
O O5 0.245237 0.143409 0.165754
O O6 0.403342 0.875203 0.231891
O O7 0.411807 0.130247 0.056167
O O8 0.212868 0.915800 0.948261
O O9 0.331508 0.556900 0.225000
O O10 0.130021 0.403311 0.201283
O O11 0.123655 0.617219 0.969153
O O12 0.500000 0.684701 0.500000
O O13 0.568909 0.632393 0.283035
O O14 0.759789 0.657964 0.206131
O O15 0.596235 0.904608 0.145152
O O16 0.000000 0.149284 0.000000
#
# Coordination Sequence:
#
# PCOD9112514 Si02
#       8
#     2   2   2   2   2   1   2   2
#     4  12  20  38  62  91 122 159 204 256 307 365
#     4   9  17  32  56  80 114 154 192 242 293 352
#     4  11  23  36  62  89 121 162 209 246 306 364
#     4  10  17  36  57  85 120 155 202 256 296 360
#     4  10  20  34  67  88 119 166 200 254 318 359
#     4   8  18  34  54  88 114 150 206 234 298 374
#     4  12  21  36  61  92 123 160 204 252 303 366
#     4  10  19  37  58  92 119 160 204 247 308 375
#
# _framework density 19.773555000000002
#
# number of rings (size 3 to 8) (size 9 to 14) (size 15 to 20)
#    0.000    1.600    5.333    2.400    0.000    0.000 
#    0.000    4.667    5.867    1.600    0.000    0.000 
#    0.000    0.000    0.000    0.000    0.000    0.000 
#
# Total GULP energy -83644.711846 kJ/mol
# GULP energy per Si atom -5576.314123 kJ/mol
# Density = 1.972855 g / cm^3
# Si number density = 19.773555 Si / 1000 Ang^3
#
#
#
# Elastic Constant Matrix: (Units=GPa)
#
#
# Indices 1 2 3 4 5 6 
#
# 1 109.0015 11.1077 13.5143 0.0000 -0.9287 0.0000
# 2 11.1077 49.6738 12.5506 0.0000 2.9526 0.0000
# 3 13.5143 12.5506 97.7947 0.0000 14.2558 0.0000
# 4 0.0000 0.0000 0.0000 8.2010 0.0000 1.7918
# 5 -0.9287 2.9526 14.2558 0.0000 33.1454 0.0000
# 6 0.0000 0.0000 0.0000 1.7918 0.0000 13.6578
#
#
#
# Elastic Compliance Matrix: (Units=1/GPa)
#
#
# Indices 1 2 3 4 5 6 
#
# 1 0.009524 -0.001880 -0.001214 0.000000 0.000957 0.000000
# 2 -0.001880 0.021195 -0.002323 0.000000 -0.000942 0.000000
# 3 -0.001214 -0.002323 0.011380 0.000000 -0.004721 0.000000
# 4 0.000000 0.000000 0.000000 0.125535 0.000000 -0.016469
# 5 0.000957 -0.000942 -0.004721 0.000000 0.032312 0.000000
# 6 0.000000 0.000000 0.000000 -0.016469 0.000000 0.075379
#
#
# Mechanical properties :
#
#
# Convention : Reuss Voigt Hill
#
# Bulk Modulus (GPa) = 31.98532 36.75722 34.37127
# Shear Modulus (GPa) = 16.85888 25.62066 21.23977
#
# Velocity S-wave (km/s) = 2.92309 3.60349 3.28098
# Velocity P-wave (km/s) = 5.25391 5.99525 5.63678
#
# Compressibility (1/GPa) = 0.03126434
#
# Stress axis : x y z
#
# Youngs Moduli (GPa) = 104.99284 47.18181 87.87567
#
# Poissons Ratio (x) = 0.08869 0.10671
# Poissons Ratio (y) = 0.19737 0.20414
# Poissons Ratio (z) = 0.12750 0.10960
#
# Static dielectric constant tensor:
#      x y z
#    x 1.772210 0.000000 -0.007560 
#    y 0.000000 1.671980 0.000000 
#    z -0.007560 0.000000 1.696320 
# 
# From -- ./inp_files/7245.got.cif
#   From: 2010.05.17/outbox.cif.g08.bks.cpg/sg3_4_cif.got.tgz:7245.got - 2010.06.03 18:33:08.
