data_PCOD9112953
_publ_section_title
;
Structure prediction by ZEFSAII (Michael W. Deem and Ramdas Pophale) SiO2 
 PCOD9112953
Probable space group: P 2
;
_chemical_formula_sum "Si O2"
_cell_formula_units_Z 14
_cell_length_a 14.147714
_cell_length_b 8.805607
_cell_length_c 10.655263
_cell_angle_alpha 90.000000
_cell_angle_beta 30.817886
_cell_angle_gamma 90.000000
_cell_volume 680.054015
_symmetry_space_group_name_H-M "P 2"
_symmetry_group_IT_number 3
_symmetry_cell_setting 'monoclinic'
loop_
_space_group_symop_operation_xyz
x,y,z
-x,y,-z
loop_
_atom_site_type_symbol
_atom_site_label
_atom_site_fract_x
_atom_site_fract_y
_atom_site_fract_z
Si Si1 0.857641 0.381550 0.394352
Si Si2 0.710612 0.574734 0.789935
Si Si3 0.570690 0.832020 0.106811
Si Si4 0.470805 0.179253 0.180693
Si Si5 0.781504 0.674704 0.376949
Si Si6 0.782690 0.712098 0.092539
Si Si7 0.259882 0.403997 0.987121
O O1 0.824913 0.502664 0.546158
O O2 0.734212 0.235194 0.554743
O O3 0.788310 0.490497 0.361381
O O4 0.070134 0.338681 0.149960
O O5 0.775077 0.489379 0.841015
O O6 0.500000 0.532319 0.000000
O O7 0.689330 0.749873 0.860727
O O8 0.383239 0.734307 0.346609
O O9 0.691638 0.821893 0.095145
O O10 0.513374 0.002626 0.146019
O O11 0.500000 0.214352 0.000000
O O12 0.595995 0.276960 0.134614
O O13 0.743957 0.741656 0.282120
O O14 0.993268 0.712692 0.174304
O O15 0.698655 0.546163 0.151379
#
# Coordination Sequence:
#
# PCOD9112953 Si02
#       7
#     2   2   2   2   2   2   2
#     4  11  20  36  62  85 112 152 191 237 289 335
#     4  11  17  35  57  82 111 147 193 236 278 333
#     4  11  23  36  57  84 120 156 185 236 289 343
#     4  12  24  37  53  86 127 154 184 227 288 356
#     4  10  20  39  65  86 110 148 199 245 284 326
#     4   9  21  40  62  88 109 145 203 248 276 332
#     4  10  20  36  61  83 114 149 190 239 285 332
#
# _framework density 20.586599
#
# number of rings (size 3 to 8) (size 9 to 14) (size 15 to 20)
#    0.000    1.429    4.286    2.143    0.000    1.143 
#    0.000    2.857    3.143    3.429    0.000    0.000 
#    0.000    0.000    0.000    0.000    0.000    0.000 
#
# Total GULP energy -78037.589919 kJ/mol
# GULP energy per Si atom -5574.113566 kJ/mol
# Density = 2.053974 g / cm^3
# Si number density = 20.586599 Si / 1000 Ang^3
#
#
#
# Elastic Constant Matrix: (Units=GPa)
#
#
# Indices 1 2 3 4 5 6 
#
# 1 92.9374 25.2896 11.3428 0.0000 -6.5171 0.0000
# 2 25.2896 101.6440 3.1335 0.0000 -14.7977 0.0000
# 3 11.3428 3.1335 41.4627 0.0000 -6.7001 0.0000
# 4 0.0000 0.0000 0.0000 -16.6393 0.0000 3.1089
# 5 -6.5171 -14.7977 -6.7001 0.0000 29.6890 0.0000
# 6 0.0000 0.0000 0.0000 3.1089 0.0000 21.6217
#
#
#
# Elastic Compliance Matrix: (Units=1/GPa)
#
#
# Indices 1 2 3 4 5 6 
#
# 1 0.011920 -0.002794 -0.002960 0.000000 0.000556 0.000000
# 2 -0.002794 0.011263 0.000748 0.000000 0.005169 0.000000
# 3 -0.002960 0.000748 0.025766 0.000000 0.005538 0.000000
# 4 0.000000 0.000000 0.000000 -0.058526 0.000000 0.008415
# 5 0.000556 0.005169 0.005538 0.000000 0.037631 0.000000
# 6 0.000000 0.000000 0.000000 0.008415 0.000000 0.045040
#
#
# Mechanical properties :
#
#
# Convention : Reuss Voigt Hill
#
# Bulk Modulus (GPa) = 25.68125 35.06400 30.37262
# Shear Modulus (GPa) = 52.03773 20.01948 36.02860
#
# Velocity S-wave (km/s) = 5.03313 3.12180 4.18796
# Velocity P-wave (km/s) = 6.80282 5.48303 6.17826
#
# Compressibility (1/GPa) = 0.03893891
#
# Stress axis : x y z
#
# Youngs Moduli (GPa) = 83.88997 88.78770 38.81058
#
# Poissons Ratio (x) = 0.24804 0.11488
# Poissons Ratio (y) = 0.23436 -0.02905
# Poissons Ratio (z) = 0.24831 -0.06645
#
# Static dielectric constant tensor:
#      x y z
#    x 1.839750 0.000000 0.040060 
#    y 0.000000 1.741860 0.000000 
#    z 0.040060 0.000000 1.781760 
# 
# From -- ./inp_files/12182.got.cif
#   From: 2010.05.17/outbox.cif.g08.bks.cpg/sg3_7_cif.got.tgz:12182.got - 2010.06.03 18:33:08.
