data_PCOD9112299
_publ_section_title
;
Structure prediction by ZEFSAII (Michael W. Deem and Ramdas Pophale) SiO2 
 PCOD9112299
Probable space group: P -1
;
_chemical_formula_sum "Si O2"
_cell_formula_units_Z 15
_cell_length_a 12.136347
_cell_length_b 14.421967
_cell_length_c 9.143920
_cell_angle_alpha 96.703982
_cell_angle_beta 109.317381
_cell_angle_gamma 29.717021
_cell_volume 697.175122
_symmetry_space_group_name_H-M "P -1"
_symmetry_group_IT_number 2
_symmetry_cell_setting 'triclinic'
loop_
_space_group_symop_operation_xyz
x,y,z
-x,-y,-z
loop_
_atom_site_type_symbol
_atom_site_label
_atom_site_fract_x
_atom_site_fract_y
_atom_site_fract_z
Si Si1 0.739622 0.997188 0.244096
Si Si2 0.530675 0.981968 0.335995
Si Si3 0.500000 0.500000 0.000000
Si Si4 0.435036 0.404075 0.213518
Si Si5 0.018877 0.587274 0.947137
Si Si6 0.271637 0.814600 0.159779
Si Si7 0.187484 0.808237 0.441807
Si Si8 0.447736 0.213502 0.862096
O O1 0.694484 0.950421 0.336629
O O2 0.571571 0.206820 0.249371
O O3 0.619491 0.056008 0.044773
O O4 0.025100 0.831433 0.336185
O O5 0.251636 0.192346 0.186986
O O6 0.500000 0.000000 0.500000
O O7 0.633403 0.813891 0.280804
O O8 0.512935 0.398791 0.096189
O O9 0.429188 0.616472 0.130614
O O10 0.551854 0.382093 0.390919
O O11 0.145438 0.577791 0.101881
O O12 0.210853 0.433971 0.869570
O O13 0.000000 0.500000 0.000000
O O14 0.234737 0.831012 0.318790
O O15 0.393274 0.825812 0.168938
O O16 0.000000 0.000000 0.000000
O O17 0.000000 0.000000 0.500000
#
# Coordination Sequence:
#
# PCOD9112299 Si02
#       8
#     2   2   1   2   2   2   2   2
#     4  10  20  46  65 106 139 186 238 286 361 429
#     4  12  28  44  75 108 137 190 245 301 359 428
#     4  12  24  44  66 102 140 180 252 280 358 438
#     4  10  22  41  69 101 141 183 236 293 358 423
#     4  11  23  46  74  99 145 194 233 295 356 428
#     4  12  24  43  71 105 145 187 237 297 359 429
#     4  10  22  41  72 102 146 183 231 301 358 427
#     4  11  24  45  72 106 138 191 245 287 366 433
#
# _framework density 21.515395999999999
#
# number of rings (size 3 to 8) (size 9 to 14) (size 15 to 20)
#    0.000    1.067    6.667    1.200    5.600    2.133 
#    0.000    0.000    0.000    0.000    0.000    0.000 
#    0.000    0.000    0.000    0.000    0.000    0.000 
#
# Total GULP energy -83578.935223 kJ/mol
# GULP energy per Si atom -5571.929015 kJ/mol
# Density = 2.146643 g / cm^3
# Si number density = 21.515396 Si / 1000 Ang^3
#
#
#
# Elastic Constant Matrix: (Units=GPa)
#
#
# Indices 1 2 3 4 5 6 
#
# 1 146.2423 12.3163 29.1143 11.3477 -24.2263 -11.1430
# 2 12.3163 38.2420 2.7374 6.7449 -0.4404 4.2510
# 3 29.1143 2.7374 100.7254 11.4833 -12.2990 -11.1122
# 4 11.3477 6.7449 11.4833 41.4256 -10.3990 9.3011
# 5 -24.2263 -0.4404 -12.2990 -10.3990 41.3515 7.6251
# 6 -11.1430 4.2510 -11.1122 9.3011 7.6251 34.7529
#
#
#
# Elastic Compliance Matrix: (Units=1/GPa)
#
#
# Indices 1 2 3 4 5 6 
#
# 1 0.008188 -0.002535 -0.001535 -0.000881 0.003750 0.001858
# 2 -0.002535 0.027913 -0.000144 -0.003535 -0.001570 -0.002983
# 3 -0.001535 -0.000144 0.011287 -0.003312 0.000919 0.003819
# 4 -0.000881 -0.003535 -0.003312 0.030327 0.008079 -0.010798
# 5 0.003750 -0.001570 0.000919 0.008079 0.029968 -0.007049
# 6 0.001858 -0.002983 0.003819 -0.010798 -0.007049 0.035393
#
#
# Mechanical properties :
#
#
# Convention : Reuss Voigt Hill
#
# Bulk Modulus (GPa) = 25.66679 41.50509 33.58594
# Shear Modulus (GPa) = 30.39718 39.57545 34.98631
#
# Velocity S-wave (km/s) = 3.76281 4.29348 4.03688
# Velocity P-wave (km/s) = 5.55282 6.62656 6.11331
#
# Compressibility (1/GPa) = 0.03896086
#
# Stress axis : x y z
#
# Youngs Moduli (GPa) = 122.12933 35.82565 88.60086
#
# Poissons Ratio (x) = 0.09083 0.13597
# Poissons Ratio (y) = 0.30962 0.01271
# Poissons Ratio (z) = 0.18742 0.00514
#
# Static dielectric constant tensor:
#      x y z
#    x 1.768990 0.004530 0.042790 
#    y 0.004530 1.811150 0.001440 
#    z 0.042790 0.001440 1.809160 
# 
# From -- ./inp_files/273467.got.cif
#   From: 2010.05.17/outbox.cif.g08.bks.cpg/sg2_137_cif.got.tgz:273467.got - 2010.06.03 11:33:40.
