data_PCOD9112819
_publ_section_title
;
Structure prediction by ZEFSAII (Michael W. Deem and Ramdas Pophale) SiO2 
 PCOD9112819
Probable space group: P 2
;
_chemical_formula_sum "Si O2"
_cell_formula_units_Z 8
_cell_length_a 7.977666
_cell_length_b 5.342012
_cell_length_c 8.818252
_cell_angle_alpha 90.000000
_cell_angle_beta 58.311348
_cell_angle_gamma 90.000000
_cell_volume 319.778661
_symmetry_space_group_name_H-M "P 2"
_symmetry_group_IT_number 3
_symmetry_cell_setting 'monoclinic'
loop_
_space_group_symop_operation_xyz
x,y,z
-x,y,-z
loop_
_atom_site_type_symbol
_atom_site_label
_atom_site_fract_x
_atom_site_fract_y
_atom_site_fract_z
Si Si1 0.179091 0.054550 0.033988
Si Si2 0.447256 0.194203 0.346285
Si Si3 0.217052 0.687190 0.464971
Si Si4 0.037055 0.555226 0.160475
O O1 0.369476 0.130553 0.848854
O O2 0.116126 0.283696 0.172192
O O3 0.000000 0.018761 0.000000
O O4 0.188353 0.784815 0.109595
O O5 0.500000 0.196490 0.500000
O O6 0.361522 0.466211 0.347388
O O7 0.296533 0.963528 0.402201
O O8 0.000000 0.653709 0.500000
O O9 0.167443 0.635373 0.665891
O O10 0.000000 0.519154 0.000000
#
# Coordination Sequence:
#
# PCOD9112819 Si02
#       4
#     2   2   2   2
#     4  10  20  36  61  93 122 158 215 273 309 364
#     4  12  23  42  70  99 127 176 228 265 318 400
#     4  12  26  44  65  99 139 171 211 277 338 382
#     4  10  19  38  62  87 122 169 211 257 313 382
#
# _framework density 25.017305
#
# number of rings (size 3 to 8) (size 9 to 14) (size 15 to 20)
#    0.000    1.000    0.000   10.500    0.000    0.000 
#    0.000    7.500    0.000    0.000    0.000    0.000 
#    0.000    0.000    0.000    0.000    0.000    0.000 
#
# Total GULP energy -44805.053659 kJ/mol
# GULP energy per Si atom -5600.631707 kJ/mol
# Density = 2.496036 g / cm^3
# Si number density = 25.017305 Si / 1000 Ang^3
#
#
#
# Elastic Constant Matrix: (Units=GPa)
#
#
# Indices 1 2 3 4 5 6 
#
# 1 69.5470 20.8966 -5.3101 0.0000 -3.8778 0.0000
# 2 20.8966 194.6701 -5.8916 0.0000 -12.3691 0.0000
# 3 -5.3101 -5.8916 66.5916 0.0000 -27.1975 0.0000
# 4 0.0000 0.0000 0.0000 32.7608 0.0000 -21.9617
# 5 -3.8778 -12.3691 -27.1975 0.0000 40.6067 0.0000
# 6 0.0000 0.0000 0.0000 -21.9617 0.0000 35.5475
#
#
#
# Elastic Compliance Matrix: (Units=1/GPa)
#
#
# Indices 1 2 3 4 5 6 
#
# 1 0.015091 -0.001406 0.002055 0.000000 0.002389 0.000000
# 2 -0.001406 0.005486 0.001378 0.000000 0.002460 0.000000
# 3 0.002055 0.001378 0.021411 0.000000 0.014957 0.000000
# 4 0.000000 0.000000 0.000000 0.052104 0.000000 0.032190
# 5 0.002389 0.002460 0.014957 0.000000 0.035622 0.000000
# 6 0.000000 0.000000 0.000000 0.032190 0.000000 0.048019
#
#
# Mechanical properties :
#
#
# Convention : Reuss Voigt Hill
#
# Bulk Modulus (GPa) = 21.71950 38.91097 30.31523
# Shear Modulus (GPa) = 26.45132 43.19056 34.82094
#
# Velocity S-wave (km/s) = 3.25517 4.15954 3.73483
# Velocity P-wave (km/s) = 4.77795 6.21743 5.54460
#
# Compressibility (1/GPa) = 0.04604158
#
# Stress axis : x y z
#
# Youngs Moduli (GPa) = 66.26323 182.28915 46.70429
#
# Poissons Ratio (x) = 0.25629 -0.09597
# Poissons Ratio (y) = 0.09316 -0.06435
# Poissons Ratio (z) = -0.13616 -0.25115
#
# Static dielectric constant tensor:
#      x y z
#    x 2.337410 0.000000 0.330400 
#    y 0.000000 2.023170 0.000000 
#    z 0.330400 0.000000 2.222070 
# 
# From -- ./inp_files/4630.got.cif
#   From: 2010.05.17/outbox.cif.g08.bks.cpg/sg3_3_cif.got.tgz:4630.got - 2010.06.03 18:33:08.
