data_PCOD9112055
_publ_section_title
;
Structure prediction by ZEFSAII (Michael W. Deem and Ramdas Pophale) SiO2 
 PCOD9112055
Probable space group: P -1
;
_chemical_formula_sum "Si O2"
_cell_formula_units_Z 15
_cell_length_a 15.284232
_cell_length_b 15.921608
_cell_length_c 6.599379
_cell_angle_alpha 55.473607
_cell_angle_beta 59.434521
_cell_angle_gamma 27.456072
_cell_volume 609.969799
_symmetry_space_group_name_H-M "P -1"
_symmetry_group_IT_number 2
_symmetry_cell_setting 'triclinic'
loop_
_space_group_symop_operation_xyz
x,y,z
-x,-y,-z
loop_
_atom_site_type_symbol
_atom_site_label
_atom_site_fract_x
_atom_site_fract_y
_atom_site_fract_z
Si Si1 0.557998 0.879110 0.783839
Si Si2 0.084146 0.525319 0.245368
Si Si3 0.292530 0.634169 0.664033
Si Si4 0.591517 0.511261 0.675057
Si Si5 0.000000 0.000000 0.500000
Si Si6 0.960574 0.213776 0.907023
Si Si7 0.235684 0.931653 0.644313
Si Si8 0.764347 0.857006 0.877763
O O1 0.699157 0.676366 0.799632
O O2 0.675779 0.846529 0.851258
O O3 0.500000 0.000000 0.500000
O O4 0.373478 0.003163 0.959067
O O5 0.057087 0.649849 0.238915
O O6 0.000000 0.500000 0.500000
O O7 0.959108 0.650905 0.022060
O O8 0.459937 0.523532 0.767311
O O9 0.346012 0.510423 0.598013
O O10 0.088492 0.788308 0.806879
O O11 0.218882 0.799129 0.420492
O O12 0.782225 0.332384 0.818173
O O13 0.451060 0.710747 0.670679
O O14 0.100501 0.970090 0.628386
O O15 0.152887 0.015754 0.851012
O O16 0.214796 0.058918 0.389823
#
# Coordination Sequence:
#
# PCOD9112055 Si02
#       8
#     2   2   2   2   1   2   2   2
#     4  11  25  47  72 100 138 181 233 288 350 416
#     4  12  26  45  71 101 141 180 232 293 345 414
#     4  10  22  46  66 100 135 183 225 286 342 412
#     4  10  24  44  67  98 140 177 230 285 343 415
#     4  10  20  44  68  94 140 176 228 274 346 400
#     4  12  26  43  70 101 138 177 238 277 353 415
#     4  11  25  43  70 101 137 185 227 287 344 415
#     4  11  26  46  71 102 139 183 232 286 352 414
#
# _framework density 24.591380999999998
#
# number of rings (size 3 to 8) (size 9 to 14) (size 15 to 20)
#    0.000    1.067    2.667    2.400    3.733    2.133 
#    7.200    0.000    0.000    0.000    0.000    0.000 
#    0.000    0.000    0.000    0.000    0.000    0.000 
#
# Total GULP energy -83753.535066 kJ/mol
# GULP energy per Si atom -5583.569004 kJ/mol
# Density = 2.453541 g / cm^3
# Si number density = 24.591381 Si / 1000 Ang^3
#
#
#
# Elastic Constant Matrix: (Units=GPa)
#
#
# Indices 1 2 3 4 5 6 
#
# 1 48.2538 10.6290 6.4077 8.2225 11.2874 9.9579
# 2 10.6290 165.5340 46.3197 25.7565 10.7530 14.9159
# 3 6.4077 46.3197 124.3124 12.9695 -9.2107 7.5244
# 4 8.2225 25.7565 12.9695 49.2442 -5.4612 15.5185
# 5 11.2874 10.7530 -9.2107 -5.4612 39.2673 -6.5667
# 6 9.9579 14.9159 7.5244 15.5185 -6.5667 35.9193
#
#
#
# Elastic Compliance Matrix: (Units=1/GPa)
#
#
# Indices 1 2 3 4 5 6 
#
# 1 0.024949 0.000486 -0.001421 -0.002766 -0.009246 -0.007316
# 2 0.000486 0.007679 -0.002705 -0.003139 -0.003660 -0.002070
# 3 -0.001421 -0.002705 0.009409 -0.000585 0.003343 0.000410
# 4 -0.002766 -0.003139 -0.000585 0.025549 0.003705 -0.008168
# 5 -0.009246 -0.003660 0.003343 0.003705 0.031693 0.007576
# 6 -0.007316 -0.002070 0.000410 -0.008168 0.007576 0.035556
#
#
# Mechanical properties :
#
#
# Convention : Reuss Voigt Hill
#
# Bulk Modulus (GPa) = 28.77010 51.64589 40.20799
# Shear Modulus (GPa) = 32.53044 43.20243 37.86643
#
# Velocity S-wave (km/s) = 3.64103 4.19598 3.92832
# Velocity P-wave (km/s) = 5.42225 6.67250 6.07960
#
# Compressibility (1/GPa) = 0.03475831
#
# Stress axis : x y z
#
# Youngs Moduli (GPa) = 40.08127 130.21895 106.27884
#
# Poissons Ratio (x) = -0.06325 0.15099
# Poissons Ratio (y) = -0.01947 0.28746
# Poissons Ratio (z) = 0.05694 0.35222
#
# Static dielectric constant tensor:
#      x y z
#    x 1.688870 -0.517060 0.601630 
#    y -0.517060 0.809010 1.405270 
#    z 0.601630 1.405270 0.495040 
# 
# From -- ./inp_files/89728.got.cif
#   From: 2010.05.17/outbox.cif.g08.bks.cpg/sg2_45_cif.got.tgz:89728.got - 2010.06.03 11:33:40.
