data_PCOD9112301
_publ_section_title
;
Structure prediction by ZEFSAII (Michael W. Deem and Ramdas Pophale) SiO2 
 PCOD9112301
Probable space group: P -1
;
_chemical_formula_sum "Si O2"
_cell_formula_units_Z 15
_cell_length_a 8.689960
_cell_length_b 7.878486
_cell_length_c 12.605075
_cell_angle_alpha 75.275933
_cell_angle_beta 122.974367
_cell_angle_gamma 125.623713
_cell_volume 585.985430
_symmetry_space_group_name_H-M "P -1"
_symmetry_group_IT_number 2
_symmetry_cell_setting 'triclinic'
loop_
_space_group_symop_operation_xyz
x,y,z
-x,-y,-z
loop_
_atom_site_type_symbol
_atom_site_label
_atom_site_fract_x
_atom_site_fract_y
_atom_site_fract_z
Si Si1 0.054947 0.695761 0.709318
Si Si2 0.907361 0.325661 0.851446
Si Si3 0.842497 0.011512 0.706872
Si Si4 0.548691 0.981035 0.900931
Si Si5 0.715921 0.683054 0.296094
Si Si6 0.326739 0.256483 0.499548
Si Si7 0.707132 0.703810 0.900754
Si Si8 0.000000 0.500000 0.500000
O O1 0.311104 0.863922 0.777679
O O2 0.012020 0.538809 0.624156
O O3 0.977074 0.556036 0.808072
O O4 0.907822 0.784075 0.613014
O O5 0.807633 0.168318 0.738128
O O6 0.722234 0.212917 0.887669
O O7 0.115230 0.322566 0.969732
O O8 0.091241 0.148424 0.735008
O O9 0.677877 0.905820 0.560864
O O10 0.799432 0.835096 0.804342
O O11 0.644743 0.838974 0.929503
O O12 0.500000 0.000000 0.000000
O O13 0.662026 0.771277 0.366566
O O14 0.506271 0.518812 0.175427
O O15 0.815007 0.561065 0.407925
O O16 0.500000 0.500000 0.500000
#
# Coordination Sequence:
#
# PCOD9112301 Si02
#       8
#     2   2   2   2   2   2   2   1
#     4  11  25  47  71  99 145 183 232 294 359 405
#     4  11  26  47  73 103 140 192 236 285 356 428
#     4  11  22  44  71 102 135 184 236 280 354 419
#     4  11  25  44  68 106 142 184 234 295 347 419
#     4  11  22  44  73  98 138 186 230 286 355 409
#     4  11  25  46  70 105 146 179 233 303 343 419
#     4  11  24  45  72 103 144 183 240 290 345 427
#     4  10  20  46  66 100 132 174 234 288 332 420
#
# _framework density 25.597906999999999
#
# number of rings (size 3 to 8) (size 9 to 14) (size 15 to 20)
#    0.000    1.067    4.000    2.000    3.733    3.733 
#    7.200    2.000    0.000    0.000    0.000    0.000 
#    0.000    0.000    0.000    0.000    0.000    0.000 
#
# Total GULP energy -83814.722953 kJ/mol
# GULP energy per Si atom -5587.648197 kJ/mol
# Density = 2.553964 g / cm^3
# Si number density = 25.597907 Si / 1000 Ang^3
#
#
#
# Elastic Constant Matrix: (Units=GPa)
#
#
# Indices 1 2 3 4 5 6 
#
# 1 102.0791 41.9657 53.4159 -4.4842 -21.6355 13.3678
# 2 41.9657 102.5538 29.6608 7.0615 -9.9326 30.1053
# 3 53.4159 29.6608 97.9204 8.1434 -11.2069 1.8597
# 4 -4.4842 7.0615 8.1434 24.0373 3.1891 3.6950
# 5 -21.6355 -9.9326 -11.2069 3.1891 60.2634 -5.1913
# 6 13.3678 30.1053 1.8597 3.6950 -5.1913 46.9091
#
#
#
# Elastic Compliance Matrix: (Units=1/GPa)
#
#
# Indices 1 2 3 4 5 6 
#
# 1 0.017120 -0.004182 -0.008236 0.007080 0.003374 -0.002053
# 2 -0.004182 0.014453 -0.001668 -0.003280 0.000076 -0.007751
# 3 -0.008236 -0.001668 0.015766 -0.006955 0.000359 0.003380
# 4 0.007080 -0.003280 -0.006955 0.047070 -0.002091 -0.003576
# 5 0.003374 0.000076 0.000359 -0.002091 0.018094 0.001142
# 6 -0.002053 -0.007751 0.003380 -0.003576 0.001142 0.027151
#
#
# Mechanical properties :
#
#
# Convention : Reuss Voigt Hill
#
# Bulk Modulus (GPa) = 52.17235 61.40424 56.78830
# Shear Modulus (GPa) = 28.70011 38.07602 33.38807
#
# Velocity S-wave (km/s) = 3.35205 3.86095 3.61547
# Velocity P-wave (km/s) = 5.95041 6.62692 6.29775
#
# Compressibility (1/GPa) = 0.01916724
#
# Stress axis : x y z
#
# Youngs Moduli (GPa) = 58.41016 69.18846 63.42834
#
# Poissons Ratio (x) = 0.28933 0.52241
# Poissons Ratio (y) = 0.24426 0.10581
# Poissons Ratio (z) = 0.48108 0.11541
#
# Static dielectric constant tensor:
#      x y z
#    x 2.031490 -0.016020 -0.013830 
#    y -0.016020 2.016470 -0.020280 
#    z -0.013830 -0.020280 1.898270 
# 
# From -- ./inp_files/382090.got.cif
#   From: 2010.05.17/outbox.cif.g08.bks.cpg/sg2_192_cif.got.tgz:382090.got - 2010.06.03 11:33:40.
