data_PCOD9112363
_publ_section_title
;
Structure prediction by ZEFSAII (Michael W. Deem and Ramdas Pophale) SiO2 
 PCOD9112363
Probable space group: P -1
;
_chemical_formula_sum "Si O2"
_cell_formula_units_Z 16
_cell_length_a 7.813289
_cell_length_b 10.207532
_cell_length_c 11.671601
_cell_angle_alpha 91.807546
_cell_angle_beta 111.008860
_cell_angle_gamma 133.558486
_cell_volume 573.849898
_symmetry_space_group_name_H-M "P -1"
_symmetry_group_IT_number 2
_symmetry_cell_setting 'triclinic'
loop_
_space_group_symop_operation_xyz
x,y,z
-x,-y,-z
loop_
_atom_site_type_symbol
_atom_site_label
_atom_site_fract_x
_atom_site_fract_y
_atom_site_fract_z
Si Si1 0.354756 0.343604 0.361491
Si Si2 0.357492 0.785538 0.597290
Si Si3 0.089062 0.901983 0.174004
Si Si4 0.018672 0.681747 0.858946
Si Si5 0.380244 0.265733 0.078217
Si Si6 0.031039 0.464099 0.691037
Si Si7 0.498176 0.126643 0.891465
Si Si8 0.115553 0.058578 0.657291
O O1 0.500000 0.500000 0.500000
O O2 0.516660 0.292969 0.395030
O O3 0.062113 0.153331 0.339051
O O4 0.256554 0.377001 0.229291
O O5 0.614581 0.004719 0.718336
O O6 0.125633 0.631673 0.631510
O O7 0.200033 0.738515 0.441669
O O8 0.212405 0.091241 0.130750
O O9 0.969311 0.873831 0.271161
O O10 0.813918 0.729081 0.027491
O O11 0.950806 0.505330 0.782371
O O12 0.286068 0.893618 0.863774
O O13 0.181591 0.746378 0.019419
O O14 0.685252 0.459276 0.207061
O O15 0.437543 0.194822 0.985115
O O16 0.419715 0.170360 0.762631
O O17 0.000000 0.000000 0.500000
#
# Coordination Sequence:
#
# PCOD9112363 Si02
#       8
#     2   2   2   2   2   2   2   2
#     4  10  17  27  43  66  91 118 150 192 228 267
#     4   9  16  24  36  61  92 114 142 176 234 271
#     4   8  14  24  39  59  85 114 143 184 220 262
#     4   9  15  25  41  64  91 114 144 191 234 263
#     4   8  13  23  38  59  85 110 144 185 226 256
#     4   9  15  23  37  59  92 117 136 179 235 278
#     4   8  15  25  41  64  88 117 150 188 228 271
#     4   9  17  28  43  65  95 125 151 183 228 282
#
# _framework density 27.881857
#
# number of rings (size 3 to 8) (size 9 to 14) (size 15 to 20)
#    0.000    3.250    1.250    0.750    0.000    0.000 
#    0.000    0.000    0.000    0.750    0.000   70.875 
#    0.000  104.500    0.000    0.000    0.000    0.000 
#
# Total GULP energy -89131.453412 kJ/mol
# GULP energy per Si atom -5570.715838 kJ/mol
# Density = 2.781840 g / cm^3
# Si number density = 27.881857 Si / 1000 Ang^3
#
#
#
# Elastic Constant Matrix: (Units=GPa)
#
#
# Indices 1 2 3 4 5 6 
#
# 1 108.6364 24.8237 45.6226 -1.6804 37.2877 21.6986
# 2 24.8237 57.7231 42.0073 -3.0912 6.5483 3.1769
# 3 45.6226 42.0073 269.7516 13.4446 37.1235 8.9350
# 4 -1.6804 -3.0912 13.4446 43.3329 4.3757 5.6245
# 5 37.2877 6.5483 37.1235 4.3757 47.2158 9.6802
# 6 21.6986 3.1769 8.9350 5.6245 9.6802 16.0981
#
#
#
# Elastic Compliance Matrix: (Units=1/GPa)
#
#
# Indices 1 2 3 4 5 6 
#
# 1 0.017345 -0.004864 -0.000487 0.003735 -0.009327 -0.017844
# 2 -0.004864 0.021298 -0.003017 0.001761 0.002733 0.001768
# 3 -0.000487 -0.003017 0.004710 -0.001520 -0.002953 0.000945
# 4 0.003735 0.001761 -0.001520 0.025612 -0.001833 -0.012384
# 5 -0.009327 0.002733 -0.002953 -0.001833 0.031622 -0.004703
# 6 -0.017844 0.001768 0.000945 -0.012384 -0.004703 0.092453
#
#
# Mechanical properties :
#
#
# Convention : Reuss Voigt Hill
#
# Bulk Modulus (GPa) = 37.57045 73.44647 55.50846
# Shear Modulus (GPa) = 22.86780 42.90653 32.88716
#
# Velocity S-wave (km/s) = 2.86696 3.92710 3.43814
# Velocity P-wave (km/s) = 4.94605 6.85288 5.97601
#
# Compressibility (1/GPa) = 0.02661666
#
# Stress axis : x y z
#
# Youngs Moduli (GPa) = 57.65493 46.95282 212.30750
#
# Poissons Ratio (x) = 0.22838 0.10349
# Poissons Ratio (y) = 0.28044 0.64043
# Poissons Ratio (z) = 0.02810 0.14163
#
# Static dielectric constant tensor:
#      x y z
#    x 2.251120 -0.000840 -0.082510 
#    y -0.000840 2.169730 -0.062410 
#    z -0.082510 -0.062410 2.177600 
# 
# From -- ./inp_files/268550.got.cif
#   From: 2010.05.17/outbox.cif.g08.bks.cpg/sg2_135_cif.got.tgz:268550.got - 2010.06.03 11:33:40.
