data_PCOD9112793
_publ_section_title
;
Structure prediction by ZEFSAII (Michael W. Deem and Ramdas Pophale) SiO2 
 PCOD9112793
Probable space group: P 2
;
_chemical_formula_sum "Si O2"
_cell_formula_units_Z 14
_cell_length_a 17.831878
_cell_length_b 7.514227
_cell_length_c 6.656309
_cell_angle_alpha 90.000000
_cell_angle_beta 131.100023
_cell_angle_gamma 90.000000
_cell_volume 672.100951
_symmetry_space_group_name_H-M "P 2"
_symmetry_group_IT_number 3
_symmetry_cell_setting 'monoclinic'
loop_
_space_group_symop_operation_xyz
x,y,z
-x,y,-z
loop_
_atom_site_type_symbol
_atom_site_label
_atom_site_fract_x
_atom_site_fract_y
_atom_site_fract_z
Si Si1 0.257156 0.465250 0.406722
Si Si2 0.408548 0.354930 0.980456
Si Si3 0.607134 0.604872 0.683275
Si Si4 0.240261 0.075188 0.218851
Si Si5 0.604461 0.967160 0.196613
Si Si6 0.884536 0.790199 0.746886
Si Si7 0.763419 0.850033 0.171671
O O1 0.302427 0.407859 0.699652
O O2 0.352474 0.546559 0.459856
O O3 0.226560 0.284199 0.237782
O O4 0.172387 0.611792 0.280846
O O5 0.413167 0.142568 0.970610
O O6 0.500000 0.414922 0.000000
O O7 0.413727 0.437927 0.208005
O O8 0.500000 0.704498 0.500000
O O9 0.704251 0.705595 0.937806
O O10 0.348953 0.024023 0.507385
O O11 0.162863 0.956291 0.212084
O O12 0.231234 0.016396 0.971432
O O13 0.689546 0.865933 0.230593
O O14 0.500000 0.867783 0.000000
O O15 0.864249 0.811247 0.470721
O O16 0.000000 0.779222 0.000000
#
# Coordination Sequence:
#
# PCOD9112793 Si02
#       7
#     2   2   2   2   2   2   2
#     4  11  22  42  65  92 131 167 214 261 321 382
#     4  10  19  37  56  86 128 171 211 254 304 375
#     4  12  23  33  61  95 132 175 208 250 312 385
#     4  10  23  42  64  92 129 165 211 272 319 381
#     4   9  21  35  57  87 125 172 213 251 309 378
#     4  11  25  46  71  91 121 167 219 276 337 379
#     4  11  23  40  61  91 131 165 215 269 317 380
#
# _framework density 20.830204999999999
#
# number of rings (size 3 to 8) (size 9 to 14) (size 15 to 20)
#    0.000    1.429    4.286    0.857    2.000    1.714 
#    0.000    0.000    3.143    0.000    0.000    0.000 
#    0.000    0.000    0.000    0.000    0.000    0.000 
#
# Total GULP energy -78095.763382 kJ/mol
# GULP energy per Si atom -5578.268813 kJ/mol
# Density = 2.078279 g / cm^3
# Si number density = 20.830205 Si / 1000 Ang^3
#
#
#
# Elastic Constant Matrix: (Units=GPa)
#
#
# Indices 1 2 3 4 5 6 
#
# 1 51.4982 9.4536 32.6273 0.0000 12.1794 0.0000
# 2 9.4536 69.9886 27.3298 0.0000 10.5188 0.0000
# 3 32.6273 27.3298 133.6659 0.0000 9.6728 0.0000
# 4 0.0000 0.0000 0.0000 23.6872 0.0000 -6.5301
# 5 12.1794 10.5188 9.6728 0.0000 37.4032 0.0000
# 6 0.0000 0.0000 0.0000 -6.5301 0.0000 25.1914
#
#
#
# Elastic Compliance Matrix: (Units=1/GPa)
#
#
# Indices 1 2 3 4 5 6 
#
# 1 0.024448 -0.000195 -0.005458 0.000000 -0.006495 0.000000
# 2 -0.000195 0.016024 -0.002963 0.000000 -0.003677 0.000000
# 3 -0.005458 -0.002963 0.009406 0.000000 0.000178 0.000000
# 4 0.000000 0.000000 0.000000 0.045466 0.000000 0.011786
# 5 -0.006495 -0.003677 0.000178 0.000000 0.029838 0.000000
# 6 0.000000 0.000000 0.000000 0.011786 0.000000 0.042751
#
#
# Mechanical properties :
#
#
# Convention : Reuss Voigt Hill
#
# Bulk Modulus (GPa) = 30.63039 43.77488 37.20263
# Shear Modulus (GPa) = 25.50415 29.63918 27.57166
#
# Velocity S-wave (km/s) = 3.50291 3.77622 3.64213
# Velocity P-wave (km/s) = 5.57649 6.33039 5.96536
#
# Compressibility (1/GPa) = 0.03264732
#
# Stress axis : x y z
#
# Youngs Moduli (GPa) = 40.90366 62.40700 106.31019
#
# Poissons Ratio (x) = 0.01217 0.58021
# Poissons Ratio (y) = 0.00797 0.31496
# Poissons Ratio (z) = 0.22324 0.18489
#
# Static dielectric constant tensor:
#      x y z
#    x 1.770690 0.000000 0.007050 
#    y 0.000000 1.796430 0.000000 
#    z 0.007050 0.000000 1.899960 
# 
# From -- ./inp_files/2175.got.cif
#   From: 2010.05.17/outbox.cif.g08.bks.cpg/sg3_2_cif.got.tgz:2175.got - 2010.06.03 18:33:08.
