data_PCOD9112763
_publ_section_title
;
Structure prediction by ZEFSAII (Michael W. Deem and Ramdas Pophale) SiO2 
 PCOD9112763
Probable space group: P 2
;
_chemical_formula_sum "Si O2"
_cell_formula_units_Z 14
_cell_length_a 10.140453
_cell_length_b 5.263971
_cell_length_c 30.928870
_cell_angle_alpha 90.000000
_cell_angle_beta 21.259061
_cell_angle_gamma 90.000000
_cell_volume 598.611755
_symmetry_space_group_name_H-M "P 2"
_symmetry_group_IT_number 3
_symmetry_cell_setting 'monoclinic'
loop_
_space_group_symop_operation_xyz
x,y,z
-x,y,-z
loop_
_atom_site_type_symbol
_atom_site_label
_atom_site_fract_x
_atom_site_fract_y
_atom_site_fract_z
Si Si1 0.402756 0.036190 0.685876
Si Si2 0.192621 0.238143 0.562625
Si Si3 0.438317 0.057371 0.068634
Si Si4 0.489114 0.957549 0.759878
Si Si5 0.450994 0.532148 0.625777
Si Si6 0.484864 0.448850 0.811977
Si Si7 0.433718 0.557200 0.115087
O O1 0.382395 0.971775 0.742571
O O2 0.541202 0.320239 0.634919
O O3 0.993899 0.054577 0.793265
O O4 0.575717 0.806385 0.605555
O O5 0.500000 0.131179 0.500000
O O6 0.360698 0.411521 0.473756
O O7 0.923138 0.019380 0.628002
O O8 0.921317 0.409742 0.673921
O O9 0.561427 0.338169 0.043337
O O10 0.573274 0.831040 0.057495
O O11 0.500000 0.997447 0.000000
O O12 0.337215 0.191423 0.835152
O O13 0.398060 0.693216 0.809917
O O14 0.012365 0.554290 0.750793
O O15 0.422880 0.489469 0.881327
#
# Coordination Sequence:
#
# PCOD9112763 Si02
#       7
#     2   2   2   2   2   2   2
#     4  10  22  38  56  79 114 149 183 227 287 334
#     4  10  22  36  55  80 111 148 197 232 255 314
#     4  10  21  37  63  88 109 139 183 236 286 338
#     4  10  22  37  53  79 110 158 181 226 274 323
#     4  10  20  35  55  79 111 149 188 229 271 319
#     4  10  21  36  55  79 111 149 189 224 271 319
#     4  10  19  36  59  86 111 143 182 233 282 330
#
# _framework density 23.387443999999999
#
# number of rings (size 3 to 8) (size 9 to 14) (size 15 to 20)
#    0.857    1.143    1.429    2.143    2.000    2.286 
#    0.000    0.000    0.000    5.143    0.000    0.000 
#    0.000    0.000    0.000    0.000    0.000    0.000 
#
# Total GULP energy -78197.164421 kJ/mol
# GULP energy per Si atom -5585.511744 kJ/mol
# Density = 2.333421 g / cm^3
# Si number density = 23.387444 Si / 1000 Ang^3
#
#
#
# Elastic Constant Matrix: (Units=GPa)
#
#
# Indices 1 2 3 4 5 6 
#
# 1 78.8059 9.9787 -14.0491 -0.0005 3.1764 -0.0006
# 2 9.9787 111.8783 -7.5450 0.0008 0.1052 0.0018
# 3 -14.0491 -7.5450 26.3987 -0.0030 -9.5659 -0.0047
# 4 -0.0005 0.0008 -0.0030 9.2474 -0.0006 12.0266
# 5 3.1764 0.1052 -9.5659 -0.0006 45.4375 -0.0005
# 6 -0.0006 0.0018 -0.0047 12.0266 -0.0005 31.4842
#
#
#
# Elastic Compliance Matrix: (Units=1/GPa)
#
#
# Indices 1 2 3 4 5 6 
#
# 1 0.014098 -0.000752 0.007504 0.000003 0.000596 0.000000
# 2 -0.000752 0.009168 0.002416 0.000000 0.000540 0.000000
# 3 0.007504 0.002416 0.045872 0.000013 0.009127 0.000002
# 4 0.000003 0.000000 0.000013 0.214899 0.000004 -0.082089
# 5 0.000596 0.000540 0.009127 0.000004 0.023887 0.000000
# 6 0.000000 0.000000 0.000002 -0.082089 0.000000 0.063119
#
#
# Mechanical properties :
#
#
# Convention : Reuss Voigt Hill
#
# Bulk Modulus (GPa) = 11.43201 21.53911 16.48556
# Shear Modulus (GPa) = 13.09361 32.48037 22.78699
#
# Velocity S-wave (km/s) = 2.36870 3.73070 3.12481
# Velocity P-wave (km/s) = 3.51847 5.27135 4.48145
#
# Compressibility (1/GPa) = 0.08747372
#
# Stress axis : x y z
#
# Youngs Moduli (GPa) = 70.93012 109.07791 21.79981
#
# Poissons Ratio (x) = 0.08202 -0.16359
# Poissons Ratio (y) = 0.05334 -0.05266
# Poissons Ratio (z) = -0.53226 -0.26350
#
# Static dielectric constant tensor:
#      x y z
#    x 1.828010 0.000000 -0.063090 
#    y 0.000000 1.856120 0.000000 
#    z -0.063090 0.000000 1.952240 
# 
# From -- ./inp_files/8329.got.cif
#   From: 2010.05.17/outbox.cif.g08.bks.cpg/sg3_5_cif.got.tgz:8329.got - 2010.06.03 18:33:08.
