data_PCOD9112270
_publ_section_title
;
Structure prediction by ZEFSAII (Michael W. Deem and Ramdas Pophale) SiO2 
 PCOD9112270
Probable space group: P -1
;
_chemical_formula_sum "Si O2"
_cell_formula_units_Z 16
_cell_length_a 27.264963
_cell_length_b 5.993687
_cell_length_c 9.131685
_cell_angle_alpha 54.418407
_cell_angle_beta 145.513151
_cell_angle_gamma 112.186648
_cell_volume 670.128302
_symmetry_space_group_name_H-M "P -1"
_symmetry_group_IT_number 2
_symmetry_cell_setting 'triclinic'
loop_
_space_group_symop_operation_xyz
x,y,z
-x,-y,-z
loop_
_atom_site_type_symbol
_atom_site_label
_atom_site_fract_x
_atom_site_fract_y
_atom_site_fract_z
Si Si1 0.627254 0.865056 0.458782
Si Si2 0.319375 0.644205 0.748944
Si Si3 0.193379 0.140378 0.930242
Si Si4 0.033049 0.169894 0.734583
Si Si5 0.724747 0.466038 0.649334
Si Si6 0.540193 0.762068 0.566044
Si Si7 0.162742 0.100684 0.316231
Si Si8 0.918755 0.733188 0.646298
O O1 0.637020 0.605579 0.471069
O O2 0.559082 0.912182 0.405103
O O3 0.621895 0.132360 0.239031
O O4 0.724202 0.789275 0.807490
O O5 0.295953 0.545529 0.569378
O O6 0.233870 0.822891 0.553200
O O7 0.370849 0.402790 0.071174
O O8 0.121734 0.073561 0.893985
O O9 0.136977 0.350701 0.593982
O O10 0.236751 0.842726 0.076601
O O11 0.000000 0.500000 0.500000
O O12 0.067328 0.111346 0.006381
O O13 0.961899 0.986129 0.598140
O O14 0.798950 0.650592 0.760302
O O15 0.500000 0.500000 0.500000
O O16 0.500000 0.000000 0.500000
O O17 0.148575 0.158405 0.429613
O O18 0.000000 0.500000 0.000000
#
# Coordination Sequence:
#
# PCOD9112270 Si02
#       8
#     2   2   2   2   2   2   2   2
#     4  10  25  47  80 105 142 197 247 298 372 454
#     4  10  25  47  79 105 147 198 249 302 365 462
#     4  11  23  43  67  97 133 196 249 298 359 457
#     4  12  23  43  62  94 142 187 241 310 375 429
#     4  10  20  45  73 100 133 187 258 293 356 434
#     4  12  32  51  79 123 160 188 241 312 389 461
#     4  11  23  42  66 101 138 190 251 302 363 447
#     4  12  27  38  64  99 147 188 241 322 384 424
#
# _framework density 23.876021999999999
#
# number of rings (size 3 to 8) (size 9 to 14) (size 15 to 20)
#    0.000    1.000    3.750    3.000   10.500    1.000 
#    0.000    0.000    0.000    0.000    0.000    0.000 
#    0.000    0.000    0.000    0.000    0.000    0.000 
#
# Total GULP energy -89415.127184 kJ/mol
# GULP energy per Si atom -5588.445449 kJ/mol
# Density = 2.382168 g / cm^3
# Si number density = 23.876022 Si / 1000 Ang^3
#
#
#
# Elastic Constant Matrix: (Units=GPa)
#
#
# Indices 1 2 3 4 5 6 
#
# 1 129.1473 20.4252 -8.0174 -12.1219 0.5000 -22.3921
# 2 20.4252 73.7742 12.5101 -14.8242 10.6241 -11.8932
# 3 -8.0174 12.5101 96.0048 -5.0733 -11.8045 -7.7037
# 4 -12.1219 -14.8242 -5.0733 35.9168 -7.2721 -3.7347
# 5 0.5000 10.6241 -11.8045 -7.2721 25.6069 -5.6569
# 6 -22.3921 -11.8932 -7.7037 -3.7347 -5.6569 38.1549
#
#
#
# Elastic Compliance Matrix: (Units=1/GPa)
#
#
# Indices 1 2 3 4 5 6 
#
# 1 0.009737 -0.001738 0.002356 0.004489 0.004380 0.006737
# 2 -0.001738 0.016904 -0.002533 0.005181 -0.005932 0.003365
# 3 0.002356 -0.002533 0.012644 0.003864 0.009005 0.004859
# 4 0.004489 0.005181 0.003864 0.035519 0.011900 0.010271
# 5 0.004380 -0.005932 0.009005 0.011900 0.051462 0.011334
# 6 0.006737 0.003365 0.004859 0.010271 0.011334 0.034878
#
#
# Mechanical properties :
#
#
# Convention : Reuss Voigt Hill
#
# Bulk Modulus (GPa) = 28.20569 38.75136 33.47853
# Shear Modulus (GPa) = 28.28179 38.20294 33.24236
#
# Velocity S-wave (km/s) = 3.44543 4.00441 3.73539
# Velocity P-wave (km/s) = 5.25994 6.13562 5.71458
#
# Compressibility (1/GPa) = 0.03545384
#
# Stress axis : x y z
#
# Youngs Moduli (GPa) = 102.70462 59.15922 79.08698
#
# Poissons Ratio (x) = 0.10281 -0.18632
# Poissons Ratio (y) = 0.17849 0.20036
# Poissons Ratio (z) = -0.24197 0.14987
#
# Static dielectric constant tensor:
#      x y z
#    x 1.916580 0.005270 0.019770 
#    y 0.005270 2.036130 0.014530 
#    z 0.019770 0.014530 1.898090 
# 
# From -- ./inp_files/52278.got.cif
#   From: 2010.05.17/outbox.cif.g08.bks.cpg/sg2_27_cif.got.tgz:52278.got - 2010.06.03 11:33:40.
