data_PCOD9112660
_publ_section_title
;
Structure prediction by ZEFSAII (Michael W. Deem and Ramdas Pophale) SiO2 
 PCOD9112660
Probable space group: P 2
;
_chemical_formula_sum "Si O2"
_cell_formula_units_Z 16
_cell_length_a 5.250558
_cell_length_b 17.319312
_cell_length_c 9.470704
_cell_angle_alpha 90.000000
_cell_angle_beta 62.144240
_cell_angle_gamma 90.000000
_cell_volume 761.435027
_symmetry_space_group_name_H-M "P 2"
_symmetry_group_IT_number 3
_symmetry_cell_setting 'monoclinic'
loop_
_space_group_symop_operation_xyz
x,y,z
-x,y,-z
loop_
_atom_site_type_symbol
_atom_site_label
_atom_site_fract_x
_atom_site_fract_y
_atom_site_fract_z
Si Si1 0.843188 0.526510 0.888112
Si Si2 0.325491 0.002950 0.410126
Si Si3 0.343239 0.765108 0.692927
Si Si4 0.664020 0.913472 0.103572
Si Si5 0.157568 0.358742 0.109630
Si Si6 0.847411 0.674151 0.691303
Si Si7 0.206159 0.170485 0.550028
Si Si8 0.841673 0.184449 0.892246
O O1 0.928697 0.441702 0.804468
O O2 0.888470 0.595991 0.768230
O O3 0.500000 0.525162 0.000000
O O4 0.000000 0.537095 0.000000
O O5 0.500000 0.972638 0.500000
O O6 0.487824 0.980837 0.226766
O O7 0.000000 0.972074 0.500000
O O8 0.307186 0.095041 0.435767
O O9 0.500000 0.775528 0.500000
O O10 0.347120 0.840972 0.787084
O O11 0.524415 0.701339 0.735824
O O12 0.021597 0.738039 0.736843
O O13 0.500000 0.896324 0.000000
O O14 0.000000 0.934072 0.000000
O O15 0.107908 0.272449 0.178678
O O16 0.500000 0.361172 0.000000
O O17 0.000000 0.358263 0.000000
O O18 0.000000 0.666881 0.500000
O O19 0.500000 0.214802 0.500000
O O20 0.000000 0.215896 0.500000
O O21 0.027587 0.138661 0.729299
O O22 0.500000 0.170323 0.000000
O O23 0.000000 0.176959 0.000000
#
# Coordination Sequence:
#
# PCOD9112660 Si02
#       8
#     2   2   2   2   2   2   2   2
#     4  10  19  32  53  78 109 150 189 230 282 333
#     4  10  22  43  63  82 116 156 183 221 288 357
#     4  10  22  39  58  78 110 153 186 226 291 348
#     4  12  25  40  62  91 115 142 193 248 284 330
#     4   8  16  30  50  78 110 145 185 231 284 331
#     4  10  21  36  54  80 112 148 189 231 280 337
#     4  10  21  39  59  84 117 152 184 226 289 352
#     4  10  19  35  60  87 114 148 197 245 278 326
#
# _framework density 21.012955000000002
#
# number of rings (size 3 to 8) (size 9 to 14) (size 15 to 20)
#    0.000    2.000    0.000    3.375    0.000    4.500 
#    0.000   15.625    0.000    2.250    0.000    0.000 
#    0.000    0.000    0.000    0.000    0.000    0.000 
#
# Total GULP energy -89222.978948 kJ/mol
# GULP energy per Si atom -5576.436184 kJ/mol
# Density = 2.096513 g / cm^3
# Si number density = 21.012955 Si / 1000 Ang^3
#
#
#
# Elastic Constant Matrix: (Units=GPa)
#
#
# Indices 1 2 3 4 5 6 
#
# 1 190.0643 -2.0310 47.0108 0.0000 7.3589 0.0000
# 2 -2.0310 57.2375 17.7088 0.0000 6.9316 0.0000
# 3 47.0108 17.7088 70.1437 0.0000 8.7117 0.0000
# 4 0.0000 0.0000 0.0000 6.0220 0.0000 -10.5790
# 5 7.3589 6.9316 8.7117 0.0000 34.3635 0.0000
# 6 0.0000 0.0000 0.0000 -10.5790 0.0000 -16.0713
#
#
#
# Elastic Compliance Matrix: (Units=1/GPa)
#
#
# Indices 1 2 3 4 5 6 
#
# 1 0.006466 0.001752 -0.004708 0.000000 -0.000544 0.000000
# 2 0.001752 0.019671 -0.005783 0.000000 -0.002877 0.000000
# 3 -0.004708 -0.005783 0.019206 0.000000 -0.002694 0.000000
# 4 0.000000 0.000000 0.000000 0.077008 0.000000 -0.050691
# 5 -0.000544 -0.002877 -0.002694 0.000000 0.030481 0.000000
# 6 0.000000 0.000000 0.000000 -0.050691 0.000000 -0.028855
#
#
# Mechanical properties :
#
#
# Convention : Reuss Voigt Hill
#
# Bulk Modulus (GPa) = 35.88760 49.20251 42.54506
# Shear Modulus (GPa) = 33.16903 21.84663 27.50783
#
# Velocity S-wave (km/s) = 3.97735 3.22790 3.62206
# Velocity P-wave (km/s) = 6.18128 6.11217 6.14682
#
# Compressibility (1/GPa) = 0.02786478
#
# Stress axis : x y z
#
# Youngs Moduli (GPa) = 154.66297 50.83654 52.06576
#
# Poissons Ratio (x) = -0.08907 0.24513
# Poissons Ratio (y) = -0.27097 0.30110
# Poissons Ratio (z) = 0.72816 0.29399
#
# Static dielectric constant tensor:
#      x y z
#    x 1.916930 0.000000 0.031840 
#    y 0.000000 1.829420 0.000000 
#    z 0.031840 0.000000 1.782470 
# 
# From -- ./inp_files/4587.got.cif
#   From: 2010.05.17/outbox.cif.g08.bks.cpg/sg3_3_cif.got.tgz:4587.got - 2010.06.03 18:33:08.
