data_PCOD9112956
_publ_section_title
;
Structure prediction by ZEFSAII (Michael W. Deem and Ramdas Pophale) SiO2 
 PCOD9112956
Probable space group: P 2
;
_chemical_formula_sum "Si O2"
_cell_formula_units_Z 16
_cell_length_a 24.763712
_cell_length_b 6.720136
_cell_length_c 30.804600
_cell_angle_alpha 90.000000
_cell_angle_beta 9.484207
_cell_angle_gamma 90.000000
_cell_volume 844.700306
_symmetry_space_group_name_H-M "P 2"
_symmetry_group_IT_number 3
_symmetry_cell_setting 'monoclinic'
loop_
_space_group_symop_operation_xyz
x,y,z
-x,y,-z
loop_
_atom_site_type_symbol
_atom_site_label
_atom_site_fract_x
_atom_site_fract_y
_atom_site_fract_z
Si Si1 0.663372 0.241090 0.655748
Si Si2 0.253609 0.978673 0.155536
Si Si3 0.345979 0.075374 0.986637
Si Si4 0.163703 0.802890 0.655457
Si Si5 0.846360 0.968598 0.986312
Si Si6 0.726884 0.641318 0.563364
Si Si7 0.772762 0.402678 0.436946
Si Si8 0.753910 0.065315 0.155265
O O1 0.340602 0.157088 0.886972
O O2 0.679473 0.477331 0.638371
O O3 0.978334 0.146868 0.382581
O O4 0.634812 0.150086 0.726519
O O5 0.421235 0.025246 0.976539
O O6 0.500000 0.974123 0.000000
O O7 0.049412 0.774210 0.313978
O O8 0.075493 0.250996 0.199228
O O9 0.159115 0.886863 0.113271
O O10 0.179858 0.566649 0.638041
O O11 0.478587 0.897132 0.382337
O O12 0.135187 0.893915 0.726193
O O13 0.921668 0.018725 0.976173
O O14 0.575901 0.792960 0.198885
O O15 0.749883 0.522004 0.500107
O O16 0.450198 0.269805 0.686376
O O17 0.000000 0.069847 0.000000
#
# Coordination Sequence:
#
# PCOD9112956 Si02
#       8
#     2   2   2   2   2   2   2   2
#     4  10  20  37  61  84 112 148 198 242 287 341
#     4  11  23  37  56  83 122 157 188 240 303 352
#     4  10  20  36  61  86 110 150 194 243 286 348
#     4  10  20  37  61  84 112 148 198 242 287 341
#     4  10  20  36  61  86 110 150 194 243 286 348
#     4  11  18  37  62  87 111 149 201 244 283 341
#     4  11  18  37  62  87 111 149 201 244 283 341
#     4  11  23  37  56  83 122 157 188 240 303 352
#
# _framework density 18.941631000000001
#
# number of rings (size 3 to 8) (size 9 to 14) (size 15 to 20)
#    0.000    1.500    5.000    2.250    0.000    2.000 
#    0.000    0.000    0.000    0.000    0.000    0.000 
#    0.000    0.000    0.000    0.000    0.000    0.000 
#
# Total GULP energy -89350.511378 kJ/mol
# GULP energy per Si atom -5584.406961 kJ/mol
# Density = 1.889852 g / cm^3
# Si number density = 18.941631 Si / 1000 Ang^3
#
#
#
# Elastic Constant Matrix: (Units=GPa)
#
#
# Indices 1 2 3 4 5 6 
#
# 1 141.8748 28.8784 23.0539 0.0000 12.3421 0.0000
# 2 28.8784 103.2398 5.5730 0.0000 -3.1959 0.0000
# 3 23.0539 5.5730 14.3946 0.0000 7.7688 0.0000
# 4 0.0000 0.0000 0.0000 11.8231 0.0000 9.0194
# 5 12.3421 -3.1959 7.7688 0.0000 32.5690 0.0000
# 6 0.0000 0.0000 0.0000 9.0194 0.0000 30.1110
#
#
#
# Elastic Compliance Matrix: (Units=1/GPa)
#
#
# Indices 1 2 3 4 5 6 
#
# 1 0.009904 -0.001979 -0.014881 0.000000 -0.000398 0.000000
# 2 -0.001979 0.010423 -0.002091 0.000000 0.002272 0.000000
# 3 -0.014881 -0.002091 0.104653 0.000000 -0.019529 0.000000
# 4 0.000000 0.000000 0.000000 0.109631 0.000000 -0.032839
# 5 -0.000398 0.002272 -0.019529 0.000000 0.035736 0.000000
# 6 0.000000 0.000000 0.000000 -0.032839 0.000000 0.043047
#
#
# Mechanical properties :
#
#
# Convention : Reuss Voigt Hill
#
# Bulk Modulus (GPa) = 11.48415 41.61331 26.54873
# Shear Modulus (GPa) = 13.14673 28.36754 20.75713
#
# Velocity S-wave (km/s) = 2.63737 3.87412 3.31395
# Velocity P-wave (km/s) = 3.91795 6.48295 5.35626
#
# Compressibility (1/GPa) = 0.08707657
#
# Stress axis : x y z
#
# Youngs Moduli (GPa) = 100.96875 95.94085 9.55542
#
# Poissons Ratio (x) = 0.18991 0.14219
# Poissons Ratio (y) = 0.19986 0.01998
# Poissons Ratio (z) = 1.50251 0.20064
#
# Static dielectric constant tensor:
#      x y z
#    x 1.704460 0.000000 0.039990 
#    y 0.000000 1.658060 0.000000 
#    z 0.039990 0.000000 1.639280 
# 
# From -- ./inp_files/8899.got.cif
#   From: 2010.05.17/outbox.cif.g08.bks.cpg/sg3_5_cif.got.tgz:8899.got - 2010.06.03 18:33:08.
