data_PCOD9112615
_publ_section_title
;
Structure prediction by ZEFSAII (Michael W. Deem and Ramdas Pophale) SiO2 
 PCOD9112615
Probable space group: P 2
;
_chemical_formula_sum "Si O2"
_cell_formula_units_Z 14
_cell_length_a 8.032327
_cell_length_b 8.848984
_cell_length_c 17.356043
_cell_angle_alpha 90.000000
_cell_angle_beta 148.285554
_cell_angle_gamma 90.000000
_cell_volume 648.503079
_symmetry_space_group_name_H-M "P 2"
_symmetry_group_IT_number 3
_symmetry_cell_setting 'monoclinic'
loop_
_space_group_symop_operation_xyz
x,y,z
-x,y,-z
loop_
_atom_site_type_symbol
_atom_site_label
_atom_site_fract_x
_atom_site_fract_y
_atom_site_fract_z
Si Si1 0.144448 0.346160 0.348999
Si Si2 0.639331 0.618605 0.761448
Si Si3 0.746746 0.671102 0.543490
Si Si4 0.736903 0.355696 0.332465
Si Si5 0.655860 0.142195 0.881279
Si Si6 0.197624 0.402397 0.934041
Si Si7 0.749352 0.886750 0.333690
O O1 0.500000 0.290995 0.500000
O O2 0.144054 0.527521 0.364163
O O3 0.915755 0.296045 0.327365
O O4 0.020072 0.319994 0.215238
O O5 0.444300 0.604027 0.604637
O O6 0.451656 0.511923 0.747733
O O7 0.548381 0.790156 0.748688
O O8 0.986141 0.542027 0.885688
O O9 0.500000 0.759642 0.500000
O O10 0.029506 0.771606 0.625616
O O11 0.467462 0.233855 0.242551
O O12 0.000000 0.370501 0.500000
O O13 0.402716 0.007994 0.783933
O O14 0.701368 0.275035 0.963518
O O15 0.000000 0.078058 0.000000
O O16 0.500000 0.452080 0.000000
O O17 0.000000 0.941489 0.500000
#
# Coordination Sequence:
#
# PCOD9112615 Si02
#       7
#     2   2   2   2   2   2   2
#     4  11  20  36  67 108 133 164 229 292 346 395
#     4  11  20  39  72 102 131 167 236 292 337 395
#     4  10  18  36  72 105 133 162 229 302 342 393
#     4  12  20  38  71 103 124 176 232 293 334 396
#     4  12  27  45  62  94 148 186 230 271 342 431
#     4  12  24  42  66 102 148 181 222 287 351 415
#     4  10  23  46  69 101 134 184 234 285 343 410
#
# _framework density 21.588180000000001
#
# number of rings (size 3 to 8) (size 9 to 14) (size 15 to 20)
#    0.000    0.857    8.571    0.857    0.000    0.000 
#    5.143    3.571    0.000    0.000    0.000    0.000 
#    0.000    0.000    0.000    0.000    0.000    0.000 
#
# Total GULP energy -77958.405085 kJ/mol
# GULP energy per Si atom -5568.457506 kJ/mol
# Density = 2.153904 g / cm^3
# Si number density = 21.588180 Si / 1000 Ang^3
#
#
#
# Elastic Constant Matrix: (Units=GPa)
#
#
# Indices 1 2 3 4 5 6 
#
# 1 115.1072 31.0197 46.8995 0.0000 20.4617 0.0000
# 2 31.0197 66.1945 47.0372 0.0000 11.3480 0.0000
# 3 46.8995 47.0372 130.6091 0.0000 23.3428 0.0000
# 4 0.0000 0.0000 0.0000 44.4899 0.0000 4.0847
# 5 20.4617 11.3480 23.3428 0.0000 33.7281 0.0000
# 6 0.0000 0.0000 0.0000 4.0847 0.0000 13.6453
#
#
#
# Elastic Compliance Matrix: (Units=1/GPa)
#
#
# Indices 1 2 3 4 5 6 
#
# 1 0.011121 -0.002936 -0.002176 0.000000 -0.004253 0.000000
# 2 -0.002936 0.021199 -0.006418 0.000000 -0.000910 0.000000
# 3 -0.002176 -0.006418 0.011557 0.000000 -0.004519 0.000000
# 4 0.000000 0.000000 0.000000 0.023112 0.000000 -0.006919
# 5 -0.004253 -0.000910 -0.004519 0.000000 0.035663 0.000000
# 6 0.000000 0.000000 0.000000 -0.006919 0.000000 0.075356
#
#
# Mechanical properties :
#
#
# Convention : Reuss Voigt Hill
#
# Bulk Modulus (GPa) = 48.03652 62.42486 55.23069
# Shear Modulus (GPa) = 24.03758 30.83628 27.43693
#
# Velocity S-wave (km/s) = 3.34048 3.78350 3.56887
# Velocity P-wave (km/s) = 6.09737 6.93293 6.52853
#
# Compressibility (1/GPa) = 0.02081749
#
# Stress axis : x y z
#
# Youngs Moduli (GPa) = 89.91622 47.17131 86.53032
#
# Poissons Ratio (x) = 0.13851 0.18828
# Poissons Ratio (y) = 0.26403 0.55533
# Poissons Ratio (z) = 0.19565 0.30273
#
# Static dielectric constant tensor:
#      x y z
#    x 1.912120 0.000000 0.040010 
#    y 0.000000 1.829910 0.000000 
#    z 0.040010 0.000000 1.834540 
# 
# From -- ./inp_files/7502.got.cif
#   From: 2010.05.17/outbox.cif.g08.bks.cpg/sg3_4_cif.got.tgz:7502.got - 2010.06.03 18:33:08.
