data_PCOD9112335
_publ_section_title
;
Structure prediction by ZEFSAII (Michael W. Deem and Ramdas Pophale) SiO2 
 PCOD9112335
Probable space group: P -1
;
_chemical_formula_sum "Si O2"
_cell_formula_units_Z 14
_cell_length_a 8.516905
_cell_length_b 8.964238
_cell_length_c 9.044613
_cell_angle_alpha 94.494380
_cell_angle_beta 119.129871
_cell_angle_gamma 110.927371
_cell_volume 535.804497
_symmetry_space_group_name_H-M "P -1"
_symmetry_group_IT_number 2
_symmetry_cell_setting 'triclinic'
loop_
_space_group_symop_operation_xyz
x,y,z
-x,-y,-z
loop_
_atom_site_type_symbol
_atom_site_label
_atom_site_fract_x
_atom_site_fract_y
_atom_site_fract_z
Si Si1 0.894204 0.460390 0.110833
Si Si2 0.164440 0.073268 0.710260
Si Si3 0.500000 0.500000 0.000000
Si Si4 0.071467 0.219171 0.216793
Si Si5 0.488302 0.007600 0.251936
Si Si6 0.500000 0.500000 0.500000
Si Si7 0.687307 0.766986 0.947268
Si Si8 0.283204 0.730480 0.365553
O O1 0.673533 0.440953 0.018396
O O2 0.924034 0.304131 0.173451
O O3 0.047498 0.626554 0.282637
O O4 0.000000 0.500000 0.000000
O O5 0.345633 0.032555 0.750648
O O6 0.036912 0.967164 0.783187
O O7 0.000000 0.000000 0.500000
O O8 0.279640 0.256481 0.861344
O O9 0.496754 0.418119 0.168147
O O10 0.284159 0.323819 0.403118
O O11 0.137070 0.216539 0.078281
O O12 0.387578 0.096280 0.112565
O O13 0.603220 0.140973 0.442793
O O14 0.327780 0.840650 0.246336
O O15 0.371149 0.597559 0.390806
#
# Coordination Sequence:
#
# PCOD9112335 Si02
#       8
#     2   2   1   2   2   1   2   2
#     4  11  25  45  75 112 152 209 254 328 391 470
#     4  12  29  45  73 113 152 206 266 325 386 471
#     4  12  28  48  72 114 154 200 276 324 382 470
#     4  11  24  48  75 111 153 202 263 314 409 465
#     4  11  25  48  76 113 154 203 262 328 392 474
#     4  10  20  46  72 114 148 202 248 326 382 478
#     4  12  27  47  77 108 157 207 259 331 394 467
#     4  10  24  44  80 111 156 201 264 319 402 459
#
# _framework density 26.128934999999998
#
# number of rings (size 3 to 8) (size 9 to 14) (size 15 to 20)
#    0.000    0.857    2.857    2.571    8.000    1.143 
#    0.000    2.143    0.000    0.000    0.000    0.000 
#    0.000    0.000    0.000    0.000    0.000    0.000 
#
# Total GULP energy -77992.478733 kJ/mol
# GULP energy per Si atom -5570.891338 kJ/mol
# Density = 2.606946 g / cm^3
# Si number density = 26.128935 Si / 1000 Ang^3
#
#
#
# Elastic Constant Matrix: (Units=GPa)
#
#
# Indices 1 2 3 4 5 6 
#
# 1 170.4180 39.5842 44.1923 -10.3424 21.0440 -13.5822
# 2 39.5842 87.7800 12.0252 -12.1397 9.4707 2.5334
# 3 44.1923 12.0252 110.8032 10.7161 21.1333 -2.0789
# 4 -10.3424 -12.1397 10.7161 44.7133 0.3432 7.2789
# 5 21.0440 9.4707 21.1333 0.3432 48.8325 -8.6910
# 6 -13.5822 2.5334 -2.0789 7.2789 -8.6910 43.1858
#
#
#
# Elastic Compliance Matrix: (Units=1/GPa)
#
#
# Indices 1 2 3 4 5 6 
#
# 1 0.007575 -0.002804 -0.002563 0.001298 -0.001274 0.001949
# 2 -0.002804 0.013465 -0.000407 0.003547 -0.001721 -0.002636
# 3 -0.002563 -0.000407 0.011100 -0.003264 -0.003675 -0.000437
# 4 0.001298 0.003547 -0.003264 0.025124 -0.000785 -0.004350
# 5 -0.001274 -0.001721 -0.003675 -0.000785 0.023746 0.004435
# 6 0.001949 -0.002636 -0.000437 -0.004350 0.004435 0.025528
#
#
# Mechanical properties :
#
#
# Convention : Reuss Voigt Hill
#
# Bulk Modulus (GPa) = 48.56471 62.28939 55.42705
# Shear Modulus (GPa) = 40.01594 45.55962 42.78778
#
# Velocity S-wave (km/s) = 3.91766 4.18023 4.05107
# Velocity P-wave (km/s) = 6.25228 6.86950 6.56814
#
# Compressibility (1/GPa) = 0.02059108
#
# Stress axis : x y z
#
# Youngs Moduli (GPa) = 132.00883 74.26822 90.09149
#
# Poissons Ratio (x) = 0.20827 0.23090
# Poissons Ratio (y) = 0.37019 0.03668
# Poissons Ratio (z) = 0.33833 0.03024
#
# Static dielectric constant tensor:
#      x y z
#    x 1.451230 -1.363000 -0.980120 
#    y -1.363000 -1.438590 -2.011660 
#    z -0.980120 -2.011660 1.230150 
# 
# From -- ./inp_files/155096.got.cif
#   From: 2010.05.17/outbox.cif.g08.bks.cpg/sg2_78_cif.got.tgz:155096.got - 2010.06.03 11:33:40.
