data_PCOD9112779
_publ_section_title
;
Structure prediction by ZEFSAII (Michael W. Deem and Ramdas Pophale) SiO2 
 PCOD9112779
Probable space group: P 2
;
_chemical_formula_sum "Si O2"
_cell_formula_units_Z 15
_cell_length_a 12.693582
_cell_length_b 7.749851
_cell_length_c 9.170945
_cell_angle_alpha 90.000000
_cell_angle_beta 59.975625
_cell_angle_gamma 90.000000
_cell_volume 781.116017
_symmetry_space_group_name_H-M "P 2"
_symmetry_group_IT_number 3
_symmetry_cell_setting 'monoclinic'
loop_
_space_group_symop_operation_xyz
x,y,z
-x,y,-z
loop_
_atom_site_type_symbol
_atom_site_label
_atom_site_fract_x
_atom_site_fract_y
_atom_site_fract_z
Si Si1 0.003124 0.544830 0.662523
Si Si2 0.566823 0.339873 0.113532
Si Si3 0.230432 0.530641 0.691047
Si Si4 0.970208 0.127501 0.682556
Si Si5 0.125346 0.156855 0.830287
Si Si6 0.234015 0.638604 0.003668
Si Si7 0.500000 0.445497 0.500000
Si Si8 0.729183 0.015088 0.006565
O O1 0.980433 0.336866 0.684812
O O2 0.000000 0.601116 0.500000
O O3 0.135707 0.582286 0.634025
O O4 0.891727 0.628363 0.823881
O O5 0.679286 0.474756 0.030910
O O6 0.513912 0.361980 0.320963
O O7 0.500000 0.367227 0.000000
O O8 0.618887 0.146655 0.071577
O O9 0.201989 0.327019 0.738559
O O10 0.198904 0.630416 0.859123
O O11 0.373903 0.547482 0.568001
O O12 0.836453 0.070830 0.822076
O O13 0.000000 0.073141 0.500000
O O14 0.072639 0.063667 0.724709
O O15 0.206202 0.043988 0.881379
O O16 0.000000 0.212289 0.000000
O O17 0.301588 0.816050 0.991935
#
# Coordination Sequence:
#
# PCOD9112779 Si02
#       8
#     2   2   2   2   2   2   1   2
#     4  10  20  34  61  93 129 164 209 264 331 380
#     4  11  25  45  70  88 129 172 212 271 325 374
#     4  10  19  36  61  88 125 166 212 263 315 380
#     4   9  18  32  57  90 125 160 203 254 316 389
#     4   9  16  32  58  84 118 158 199 248 314 379
#     4  11  22  39  63  92 121 165 212 264 320 396
#     4  10  22  40  68  98 120 172 232 254 312 392
#     4  11  21  39  61  91 123 160 214 254 326 383
#
# _framework density 19.203292999999999
#
# number of rings (size 3 to 8) (size 9 to 14) (size 15 to 20)
#    0.000    1.867    4.000    2.000    1.867    5.333 
#    0.000    2.667    0.000    0.000    0.000    0.000 
#    0.000    0.000    0.000    0.000    0.000    0.000 
#
# Total GULP energy -83523.469685 kJ/mol
# GULP energy per Si atom -5568.231312 kJ/mol
# Density = 1.915959 g / cm^3
# Si number density = 19.203293 Si / 1000 Ang^3
#
#
#
# Elastic Constant Matrix: (Units=GPa)
#
#
# Indices 1 2 3 4 5 6 
#
# 1 109.9629 14.1468 63.5594 0.0000 17.0165 0.0000
# 2 14.1468 46.0105 13.2704 0.0000 -5.3140 0.0000
# 3 63.5594 13.2704 134.9397 0.0000 18.4369 0.0000
# 4 0.0000 0.0000 0.0000 -26.9313 0.0000 -8.2972
# 5 17.0165 -5.3140 18.4369 0.0000 29.8557 0.0000
# 6 0.0000 0.0000 0.0000 -8.2972 0.0000 5.6347
#
#
#
# Elastic Compliance Matrix: (Units=1/GPa)
#
#
# Indices 1 2 3 4 5 6 
#
# 1 0.013312 -0.003128 -0.005297 0.000000 -0.004873 0.000000
# 2 -0.003128 0.024074 -0.001882 0.000000 0.007230 0.000000
# 3 -0.005297 -0.001882 0.010620 0.000000 -0.003874 0.000000
# 4 0.000000 0.000000 0.000000 -0.025543 0.000000 -0.037613
# 5 -0.004873 0.007230 -0.003874 0.000000 0.039951 0.000000
# 6 0.000000 0.000000 0.000000 -0.037613 0.000000 0.122085
#
#
# Mechanical properties :
#
#
# Convention : Reuss Voigt Hill
#
# Bulk Modulus (GPa) = 36.50680 52.54070 44.52375
# Shear Modulus (GPa) = 23.33792 15.04094 19.18943
#
# Velocity S-wave (km/s) = 3.48991 2.80169 3.16457
# Velocity P-wave (km/s) = 5.94064 6.15513 6.04884
#
# Compressibility (1/GPa) = 0.02739216
#
# Stress axis : x y z
#
# Youngs Moduli (GPa) = 75.11947 41.53899 94.16160
#
# Poissons Ratio (x) = 0.12994 0.49876
# Poissons Ratio (y) = 0.23499 0.17720
# Poissons Ratio (z) = 0.39789 0.07817
#
# Static dielectric constant tensor:
#      x y z
#    x 1.669920 0.000000 0.039970 
#    y 0.000000 1.675010 0.000000 
#    z 0.039970 0.000000 1.698680 
# 
# From -- ./inp_files/7153.got.cif
#   From: 2010.05.17/outbox.cif.g08.bks.cpg/sg3_4_cif.got.tgz:7153.got - 2010.06.03 18:33:08.
