data_PCOD9112576
_publ_section_title
;
Structure prediction by ZEFSAII (Michael W. Deem and Ramdas Pophale) SiO2 
 PCOD9112576
Probable space group: P 2
;
_chemical_formula_sum "Si O2"
_cell_formula_units_Z 13
_cell_length_a 15.174045
_cell_length_b 8.346382
_cell_length_c 15.109847
_cell_angle_alpha 90.000000
_cell_angle_beta 161.687916
_cell_angle_gamma 90.000000
_cell_volume 601.250937
_symmetry_space_group_name_H-M "P 2"
_symmetry_group_IT_number 3
_symmetry_cell_setting 'monoclinic'
loop_
_space_group_symop_operation_xyz
x,y,z
-x,y,-z
loop_
_atom_site_type_symbol
_atom_site_label
_atom_site_fract_x
_atom_site_fract_y
_atom_site_fract_z
Si Si1 0.358222 0.766660 0.596682
Si Si2 0.480198 0.502531 0.376688
Si Si3 0.020738 0.365531 0.821247
Si Si4 0.814471 0.630489 0.148468
Si Si5 0.373729 0.092768 0.089482
Si Si6 0.902333 0.095148 0.495663
Si Si7 0.000000 0.785425 0.500000
O O1 0.431083 0.676343 0.575655
O O2 0.028444 0.748728 0.299337
O O3 0.488244 0.941490 0.730082
O O4 0.508452 0.662330 0.817306
O O5 0.500000 0.490199 0.500000
O O6 0.696513 0.378732 0.536029
O O7 0.177200 0.464705 0.047585
O O8 0.089070 0.456341 0.793836
O O9 0.172949 0.196258 0.960300
O O10 0.848690 0.676880 0.282897
O O11 0.650178 0.173437 0.309179
O O12 0.169300 0.060353 0.811407
O O13 0.000000 0.184388 0.500000
O O14 0.807965 0.918184 0.368732
#
# Coordination Sequence:
#
# PCOD9112576 Si02
#       7
#     2   2   2   2   2   2   1
#     4  10  18  35  58  84 110 147 197 242 294 352
#     4  10  21  40  63  85 113 153 199 244 298 376
#     4  10  23  37  59  87 122 158 188 239 319 369
#     4  10  20  34  54  83 112 156 201 240 288 350
#     4  12  19  37  56  86 119 158 192 247 309 359
#     4  10  21  31  57  80 113 157 209 250 292 331
#     4  10  18  34  56  84 112 162 212 256 274 342
#
# _framework density 21.621587999999999
#
# number of rings (size 3 to 8) (size 9 to 14) (size 15 to 20)
#    0.462    1.231    3.077    1.846    0.000    1.846 
#    1.385    0.769    6.769    5.538    0.000    0.000 
#    0.000    0.000    0.000    0.000    0.000    0.000 
#
# Total GULP energy -72546.359238 kJ/mol
# GULP energy per Si atom -5580.489172 kJ/mol
# Density = 2.157238 g / cm^3
# Si number density = 21.621588 Si / 1000 Ang^3
#
#
#
# Elastic Constant Matrix: (Units=GPa)
#
#
# Indices 1 2 3 4 5 6 
#
# 1 82.0592 16.1752 11.4864 0.0000 -13.4572 0.0000
# 2 16.1752 53.4251 2.0663 0.0000 2.3401 0.0000
# 3 11.4864 2.0663 87.4854 0.0000 3.9346 0.0000
# 4 0.0000 0.0000 0.0000 32.7515 0.0000 4.3034
# 5 -13.4572 2.3401 3.9346 0.0000 33.7790 0.0000
# 6 0.0000 0.0000 0.0000 4.3034 0.0000 19.3638
#
#
#
# Elastic Compliance Matrix: (Units=1/GPa)
#
#
# Indices 1 2 3 4 5 6 
#
# 1 0.014407 -0.004558 -0.002067 0.000000 0.006296 0.000000
# 2 -0.004558 0.020230 0.000267 0.000000 -0.003248 0.000000
# 3 -0.002067 0.000267 0.011795 0.000000 -0.002216 0.000000
# 4 0.000000 0.000000 0.000000 0.031451 0.000000 -0.006990
# 5 0.006296 -0.003248 -0.002216 0.000000 0.032596 0.000000
# 6 0.000000 0.000000 0.000000 -0.006990 0.000000 0.053196
#
#
# Mechanical properties :
#
#
# Convention : Reuss Voigt Hill
#
# Bulk Modulus (GPa) = 29.65995 31.38062 30.52028
# Shear Modulus (GPa) = 26.64833 30.06163 28.35498
#
# Velocity S-wave (km/s) = 3.51449 3.73279 3.62528
# Velocity P-wave (km/s) = 5.49694 5.75529 5.62760
#
# Compressibility (1/GPa) = 0.03371550
#
# Stress axis : x y z
#
# Youngs Moduli (GPa) = 69.41299 49.43245 84.78003
#
# Poissons Ratio (x) = 0.22529 0.17524
# Poissons Ratio (y) = 0.31636 -0.02261
# Poissons Ratio (z) = 0.14348 -0.01318
#
# Static dielectric constant tensor:
#      x y z
#    x 1.805440 0.000000 0.015020 
#    y 0.000000 1.877210 0.000000 
#    z 0.015020 0.000000 1.766830 
# 
# From -- ./inp_files/14015.got.cif
#   From: 2010.05.17/outbox.cif.g08.bks.cpg/sg3_8_cif.got.tgz:14015.got - 2010.06.03 18:33:08.
