data_PCOD9112065
_publ_section_title
;
Structure prediction by ZEFSAII (Michael W. Deem and Ramdas Pophale) SiO2 
 PCOD9112065
Probable space group: P -1
;
_chemical_formula_sum "Si O2"
_cell_formula_units_Z 16
_cell_length_a 13.910800
_cell_length_b 16.253495
_cell_length_c 8.640129
_cell_angle_alpha 132.325638
_cell_angle_beta 145.899031
_cell_angle_gamma 41.184381
_cell_volume 714.517955
_symmetry_space_group_name_H-M "P -1"
_symmetry_group_IT_number 2
_symmetry_cell_setting 'triclinic'
loop_
_space_group_symop_operation_xyz
x,y,z
-x,-y,-z
loop_
_atom_site_type_symbol
_atom_site_label
_atom_site_fract_x
_atom_site_fract_y
_atom_site_fract_z
Si Si1 0.166288 0.249793 0.811491
Si Si2 0.329162 0.164092 0.603326
Si Si3 0.025920 0.636811 0.811378
Si Si4 0.151288 0.533141 0.524950
Si Si5 0.195359 0.796096 0.398536
Si Si6 0.026164 0.915773 0.637169
Si Si7 0.682716 0.087522 0.761125
Si Si8 0.444092 0.295042 0.452161
O O1 0.305272 0.222081 0.813594
O O2 0.959566 0.358065 0.611057
O O3 0.137883 0.128086 0.650146
O O4 0.261202 0.284569 0.123839
O O5 0.541384 0.112850 0.751951
O O6 0.180289 0.265798 0.414635
O O7 0.268261 0.053638 0.396197
O O8 0.163581 0.585971 0.777900
O O9 0.990990 0.528968 0.708304
O O10 0.095647 0.709599 0.113613
O O11 0.351285 0.426579 0.587229
O O12 0.178345 0.832131 0.601361
O O13 0.406366 0.725661 0.512881
O O14 0.068803 0.934972 0.330254
O O15 0.138485 0.892632 0.919083
O O16 0.563234 0.182652 0.587756
#
# Coordination Sequence:
#
# PCOD9112065 Si02
#       8
#     2   2   2   2   2   2   2   2
#     4  11  25  44  67  93 135 176 219 265 327 390
#     4  10  21  39  67  96 130 169 214 267 333 385
#     4  10  20  44  68  97 125 177 215 272 320 390
#     4  10  23  43  69  91 130 178 225 262 324 382
#     4  11  25  42  69  94 138 167 221 270 333 383
#     4  11  25  44  66  99 135 174 212 270 336 390
#     4  11  23  38  67 100 135 164 217 270 328 391
#     4  12  25  42  65 100 133 174 221 269 320 390
#
# _framework density 22.392719
#
# number of rings (size 3 to 8) (size 9 to 14) (size 15 to 20)
#    0.000    1.250    2.500    2.625    3.500    4.500 
#    0.000    1.250    0.000    0.000    0.000    0.000 
#    0.000    0.000    0.000    0.000    0.000    0.000 
#
# Total GULP energy -89483.742460 kJ/mol
# GULP energy per Si atom -5592.733904 kJ/mol
# Density = 2.234175 g / cm^3
# Si number density = 22.392719 Si / 1000 Ang^3
#
#
#
# Elastic Constant Matrix: (Units=GPa)
#
#
# Indices 1 2 3 4 5 6 
#
# 1 69.3256 9.0584 7.7013 -2.7764 -3.3860 -28.7704
# 2 9.0584 55.1822 9.2455 22.0215 -10.5025 -6.2399
# 3 7.7013 9.2455 77.5667 7.6874 -15.2707 -5.1730
# 4 -2.7764 22.0215 7.6874 18.2878 1.7823 -5.9662
# 5 -3.3860 -10.5025 -15.2707 1.7823 28.8823 0.4657
# 6 -28.7704 -6.2399 -5.1730 -5.9662 0.4657 42.0166
#
#
#
# Elastic Compliance Matrix: (Units=1/GPa)
#
#
# Indices 1 2 3 4 5 6 
#
# 1 0.025603 -0.014548 -0.003752 0.029880 -0.006426 0.019223
# 2 -0.014548 0.053124 0.006939 -0.075640 0.026147 -0.012248
# 3 -0.003752 0.006939 0.016382 -0.017675 0.011871 -0.002163
# 4 0.029880 -0.075640 -0.017675 0.172522 -0.044510 0.032041
# 5 -0.006426 0.026147 0.011871 -0.044510 0.052497 -0.005958
# 6 0.019223 -0.012248 -0.002163 0.032041 -0.005958 0.039493
#
#
# Mechanical properties :
#
#
# Convention : Reuss Voigt Hill
#
# Bulk Modulus (GPa) = 13.81451 28.23167 21.02309
# Shear Modulus (GPa) = 12.30098 29.57528 20.93813
#
# Velocity S-wave (km/s) = 2.34632 3.63816 3.06116
# Velocity P-wave (km/s) = 3.67735 5.50302 4.68007
#
# Compressibility (1/GPa) = 0.07238764
#
# Stress axis : x y z
#
# Youngs Moduli (GPa) = 39.05835 18.82377 61.04286
#
# Poissons Ratio (x) = 0.27384 0.22906
# Poissons Ratio (y) = 0.56821 -0.42360
# Poissons Ratio (z) = 0.14656 -0.13063
#
# Static dielectric constant tensor:
#      x y z
#    x 1.886010 -0.020480 0.006310 
#    y -0.020480 1.791570 0.014070 
#    z 0.006310 0.014070 1.768520 
# 
# From -- ./inp_files/216412.got.cif
#   From: 2010.05.17/outbox.cif.g08.bks.cpg/sg2_109_cif.got.tgz:216412.got - 2010.06.03 11:33:40.
