data_PCOD9112445
_publ_section_title
;
Structure prediction by ZEFSAII (Michael W. Deem and Ramdas Pophale) SiO2 
 PCOD9112445
Probable space group: P 2
;
_chemical_formula_sum "Si O2"
_cell_formula_units_Z 14
_cell_length_a 8.126382
_cell_length_b 8.685363
_cell_length_c 14.577747
_cell_angle_alpha 90.000000
_cell_angle_beta 141.553570
_cell_angle_gamma 90.000000
_cell_volume 639.755774
_symmetry_space_group_name_H-M "P 2"
_symmetry_group_IT_number 3
_symmetry_cell_setting 'monoclinic'
loop_
_space_group_symop_operation_xyz
x,y,z
-x,y,-z
loop_
_atom_site_type_symbol
_atom_site_label
_atom_site_fract_x
_atom_site_fract_y
_atom_site_fract_z
Si Si1 0.735684 0.790770 0.941181
Si Si2 0.443142 0.791516 0.587021
Si Si3 0.784776 0.040295 0.108602
Si Si4 0.784829 0.533407 0.119668
Si Si5 0.842113 0.781341 0.292927
Si Si6 0.626438 0.452908 0.657263
Si Si7 0.363381 0.124040 0.341102
O O1 0.733528 0.667032 0.022406
O O2 0.772845 0.954288 0.006121
O O3 0.433646 0.787820 0.772017
O O4 0.000000 0.758746 0.000000
O O5 0.500000 0.788464 0.500000
O O6 0.544689 0.620782 0.660725
O O7 0.127749 0.803813 0.461791
O O8 0.579460 0.954228 0.676036
O O9 0.051826 0.133818 0.224343
O O10 0.815394 0.911375 0.201963
O O11 0.500000 0.114402 0.000000
O O12 0.848517 0.617829 0.243507
O O13 0.056039 0.455751 0.209003
O O14 0.500000 0.451609 0.000000
O O15 0.500000 0.449271 0.500000
O O16 0.549963 0.286219 0.667699
O O17 0.500000 0.120173 0.500000
#
# Coordination Sequence:
#
# PCOD9112445 Si02
#       7
#     2   2   2   2   2   2   2
#     4   9  18  29  48  73  98 130 170 202 237 295
#     4  10  14  26  47  69 101 132 145 196 247 286
#     4   9  16  28  47  71  97 127 159 205 248 282
#     4   9  16  28  47  71  97 127 159 205 248 282
#     4   9  14  27  46  72  96 125 159 198 248 283
#     4  10  18  27  46  77 103 126 159 198 248 296
#     4  10  18  27  46  77 103 126 159 198 248 296
#
# _framework density 21.88335
#
# number of rings (size 3 to 8) (size 9 to 14) (size 15 to 20)
#    0.000    2.571    5.714    2.571    0.000    0.571 
#    0.000    0.000    0.000    4.286    0.000    2.000 
#    0.000    0.000    0.000    0.000    0.000    0.000 
#
# Total GULP energy -77959.370399 kJ/mol
# GULP energy per Si atom -5568.526457 kJ/mol
# Density = 2.183354 g / cm^3
# Si number density = 21.883350 Si / 1000 Ang^3
#
#
#
# Elastic Constant Matrix: (Units=GPa)
#
#
# Indices 1 2 3 4 5 6 
#
# 1 64.5735 23.5962 25.7663 0.0000 26.8656 0.0000
# 2 23.5962 173.8647 33.9922 0.0000 15.0516 0.0000
# 3 25.7663 33.9922 181.6582 0.0000 41.7273 0.0000
# 4 0.0000 0.0000 0.0000 111.6536 0.0000 -29.2315
# 5 26.8656 15.0516 41.7273 0.0000 30.3508 0.0000
# 6 0.0000 0.0000 0.0000 -29.2315 0.0000 13.3318
#
#
#
# Elastic Compliance Matrix: (Units=1/GPa)
#
#
# Indices 1 2 3 4 5 6 
#
# 1 0.025646 -0.001783 0.002495 0.000000 -0.025248 0.000000
# 2 -0.001783 0.006185 -0.000822 0.000000 -0.000359 0.000000
# 3 0.002495 -0.000822 0.008358 0.000000 -0.013292 0.000000
# 4 0.000000 0.000000 0.000000 0.021026 0.000000 0.046102
# 5 -0.025248 -0.000359 -0.013292 0.000000 0.073749 0.000000
# 6 0.000000 0.000000 0.000000 0.046102 0.000000 0.176093
#
#
# Mechanical properties :
#
#
# Convention : Reuss Voigt Hill
#
# Bulk Modulus (GPa) = 25.01817 65.20064 45.10940
# Shear Modulus (GPa) = 15.40356 53.51669 34.46012
#
# Velocity S-wave (km/s) = 2.65598 4.95061 3.97258
# Velocity P-wave (km/s) = 4.56760 7.90806 6.45757
#
# Compressibility (1/GPa) = 0.03997096
#
# Stress axis : x y z
#
# Youngs Moduli (GPa) = 38.99202 161.67209 119.64710
#
# Poissons Ratio (x) = 0.28822 -0.29858
# Poissons Ratio (y) = 0.06951 0.09835
# Poissons Ratio (z) = -0.09730 0.13290
#
# Static dielectric constant tensor:
#      x y z
#    x 1.861050 0.000000 -0.041330 
#    y 0.000000 1.825490 0.000000 
#    z -0.041330 0.000000 1.836270 
# 
# From -- ./inp_files/7100.got.cif
#   From: 2010.05.17/outbox.cif.g08.bks.cpg/sg3_4_cif.got.tgz:7100.got - 2010.06.03 18:33:08.
