data_PCOD9112937
_publ_section_title
;
Structure prediction by ZEFSAII (Michael W. Deem and Ramdas Pophale) SiO2 
 PCOD9112937
Probable space group: P 2
;
_chemical_formula_sum "Si O2"
_cell_formula_units_Z 14
_cell_length_a 9.785116
_cell_length_b 9.916875
_cell_length_c 12.103974
_cell_angle_alpha 90.000000
_cell_angle_beta 142.791921
_cell_angle_gamma 90.000000
_cell_volume 710.259371
_symmetry_space_group_name_H-M "P 2"
_symmetry_group_IT_number 3
_symmetry_cell_setting 'monoclinic'
loop_
_space_group_symop_operation_xyz
x,y,z
-x,y,-z
loop_
_atom_site_type_symbol
_atom_site_label
_atom_site_fract_x
_atom_site_fract_y
_atom_site_fract_z
Si Si1 0.913347 0.434250 0.249969
Si Si2 0.555176 0.357608 0.406505
Si Si3 0.000000 0.614847 0.500000
Si Si4 0.223786 0.563910 0.070410
Si Si5 0.178076 0.133415 0.772527
Si Si6 0.592257 0.788947 0.285039
Si Si7 0.500000 0.915121 0.000000
Si Si8 0.676140 0.086048 0.388481
O O1 0.861119 0.520620 0.325914
O O2 0.795403 0.287616 0.174220
O O3 0.182747 0.403956 0.434888
O O4 0.848863 0.514584 0.098411
O O5 0.500000 0.361478 0.500000
O O6 0.388167 0.453781 0.231999
O O7 0.529607 0.206599 0.342894
O O8 0.823046 0.706419 0.453999
O O9 0.373321 0.699062 0.164140
O O10 0.000000 0.578717 0.000000
O O11 0.264470 0.118508 0.701560
O O12 0.916139 0.096575 0.604345
O O13 0.312202 0.019042 0.924816
O O14 0.588347 0.934121 0.340829
O O15 0.601162 0.825138 0.160860
#
# Coordination Sequence:
#
# PCOD9112937 Si02
#       8
#     2   2   1   2   2   2   1   2
#     4  11  23  39  66 100 127 167 218 268 325 383
#     4  11  22  45  65  90 126 172 226 269 312 370
#     4  12  22  40  66  98 136 172 206 262 336 394
#     4  12  26  43  65  95 129 178 221 265 316 379
#     4   9  19  35  62  93 128 159 203 271 330 375
#     4  11  23  39  62  95 134 171 208 261 327 391
#     4  10  20  36  58  96 130 166 204 264 328 390
#     4   9  20  40  61  89 125 166 212 257 327 387
#
# _framework density 19.711110000000001
#
# number of rings (size 3 to 8) (size 9 to 14) (size 15 to 20)
#    0.000    1.429    2.857    4.286    4.000    0.000 
#    0.000    5.714    0.000    0.000    0.000    0.000 
#    0.000    0.000    0.000    0.000    0.000    0.000 
#
# Total GULP energy -78185.893035 kJ/mol
# GULP energy per Si atom -5584.706645 kJ/mol
# Density = 1.966625 g / cm^3
# Si number density = 19.711110 Si / 1000 Ang^3
#
#
#
# Elastic Constant Matrix: (Units=GPa)
#
#
# Indices 1 2 3 4 5 6 
#
# 1 47.3797 42.3069 19.4267 0.0000 3.4459 0.0000
# 2 42.3069 157.7091 45.9239 0.0000 4.6246 0.0000
# 3 19.4267 45.9239 67.1930 0.0000 5.4643 0.0000
# 4 0.0000 0.0000 0.0000 19.6448 0.0000 10.7507
# 5 3.4459 4.6246 5.4643 0.0000 32.3469 0.0000
# 6 0.0000 0.0000 0.0000 10.7507 0.0000 11.2489
#
#
#
# Elastic Compliance Matrix: (Units=1/GPa)
#
#
# Indices 1 2 3 4 5 6 
#
# 1 0.028567 -0.006554 -0.003659 0.000000 -0.001488 0.000000
# 2 -0.006554 0.009422 -0.004554 0.000000 0.000121 0.000000
# 3 -0.003659 -0.004554 0.019232 0.000000 -0.002208 0.000000
# 4 0.000000 0.000000 0.000000 0.106720 0.000000 -0.101992
# 5 -0.001488 0.000121 -0.002208 0.000000 0.031429 0.000000
# 6 0.000000 0.000000 0.000000 -0.101992 0.000000 0.186372
#
#
# Mechanical properties :
#
#
# Convention : Reuss Voigt Hill
#
# Bulk Modulus (GPa) = 36.11815 54.17743 45.14779
# Shear Modulus (GPa) = 11.89046 23.62308 17.75677
#
# Velocity S-wave (km/s) = 2.45875 3.46564 3.00467
# Velocity P-wave (km/s) = 5.14044 6.59997 5.91539
#
# Compressibility (1/GPa) = 0.02768691
#
# Stress axis : x y z
#
# Youngs Moduli (GPa) = 35.00539 106.13827 51.99546
#
# Poissons Ratio (x) = 0.69567 0.19023
# Poissons Ratio (y) = 0.22944 0.23680
# Poissons Ratio (z) = 0.12807 0.48337
#
# Static dielectric constant tensor:
#      x y z
#    x 1.680540 0.000000 0.013350 
#    y 0.000000 1.698890 0.000000 
#    z 0.013350 0.000000 1.709520 
# 
# From -- ./inp_files/10889.got.cif
#   From: 2010.05.17/outbox.cif.g08.bks.cpg/sg3_6_cif.got.tgz:10889.got - 2010.06.03 18:33:08.
