data_PCOD9112807
_publ_section_title
;
Structure prediction by ZEFSAII (Michael W. Deem and Ramdas Pophale) SiO2 
 PCOD9112807
Probable space group: P 2
;
_chemical_formula_sum "Si O2"
_cell_formula_units_Z 16
_cell_length_a 17.178208
_cell_length_b 9.178715
_cell_length_c 5.260132
_cell_angle_alpha 90.000000
_cell_angle_beta 60.407939
_cell_angle_gamma 90.000000
_cell_volume 721.203155
_symmetry_space_group_name_H-M "P 2"
_symmetry_group_IT_number 3
_symmetry_cell_setting 'monoclinic'
loop_
_space_group_symop_operation_xyz
x,y,z
-x,y,-z
loop_
_atom_site_type_symbol
_atom_site_label
_atom_site_fract_x
_atom_site_fract_y
_atom_site_fract_z
Si Si1 0.397078 0.291160 0.205919
Si Si2 0.261078 0.551489 0.488393
Si Si3 0.133437 0.719591 0.327710
Si Si4 0.730416 0.850477 0.277755
Si Si5 0.884617 0.975158 0.317282
Si Si6 0.081592 0.466891 0.063075
Si Si7 0.880114 0.152513 0.830317
Si Si8 0.665682 0.129725 0.191731
O O1 0.333611 0.432514 0.300124
O O2 0.381579 0.215972 0.503731
O O3 0.500000 0.331271 0.000000
O O4 0.369489 0.182322 0.022689
O O5 0.210842 0.623969 0.332769
O O6 0.298300 0.690397 0.586288
O O7 0.178377 0.478086 0.770753
O O8 0.084135 0.818517 0.619908
O O9 0.186989 0.824930 0.049935
O O10 0.079556 0.606494 0.246705
O O11 0.779168 0.936121 0.431885
O O12 0.660075 0.957200 0.260971
O O13 0.914922 0.050668 0.006537
O O14 0.897533 0.086295 0.526264
O O15 0.081876 0.313461 0.203631
O O16 0.000000 0.472243 0.000000
O O17 0.772286 0.161617 0.031374
#
# Coordination Sequence:
#
# PCOD9112807 Si02
#       8
#     2   2   2   2   2   2   2   2
#     4  12  26  43  68 102 139 174 225 278 339 405
#     4  10  23  41  69  99 130 186 222 277 341 403
#     4  10  20  39  67  98 129 177 227 269 342 398
#     4   9  20  37  68  99 125 172 227 270 332 403
#     4  10  19  37  65  95 130 165 227 269 330 396
#     4  11  25  42  64  99 139 176 232 284 336 400
#     4  11  21  38  69  97 125 176 217 277 330 394
#     4  11  21  41  70  97 130 177 222 280 332 401
#
# _framework density 22.185148999999999
#
# number of rings (size 3 to 8) (size 9 to 14) (size 15 to 20)
#    0.000    1.500    3.750    2.625    5.250    0.500 
#    0.000    1.250   11.000    0.000    0.000    0.000 
#    0.000    0.000    0.000    0.000    0.000    0.000 
#
# Total GULP energy -89498.631712 kJ/mol
# GULP energy per Si atom -5593.664482 kJ/mol
# Density = 2.213465 g / cm^3
# Si number density = 22.185149 Si / 1000 Ang^3
#
#
#
# Elastic Constant Matrix: (Units=GPa)
#
#
# Indices 1 2 3 4 5 6 
#
# 1 79.2855 49.0127 51.8942 0.0000 -3.8562 0.0000
# 2 49.0127 137.1212 45.4738 0.0000 4.3931 0.0000
# 3 51.8942 45.4738 123.7748 0.0000 3.1120 0.0000
# 4 0.0000 0.0000 0.0000 -161.2700 0.0000 -154.6349
# 5 -3.8562 4.3931 3.1120 0.0000 43.0985 0.0000
# 6 0.0000 0.0000 0.0000 -154.6349 0.0000 -146.1234
#
#
#
# Elastic Compliance Matrix: (Units=1/GPa)
#
#
# Indices 1 2 3 4 5 6 
#
# 1 0.020304 -0.005126 -0.006701 0.000000 0.002823 0.000000
# 2 -0.005126 0.009616 -0.001350 0.000000 -0.001341 0.000000
# 3 -0.006701 -0.001350 0.011417 0.000000 -0.001286 0.000000
# 4 0.000000 0.000000 0.000000 0.421560 0.000000 -0.446115
# 5 0.002823 -0.001341 -0.001286 0.000000 0.023685 0.000000
# 6 0.000000 0.000000 0.000000 -0.446115 0.000000 0.465257
#
#
# Mechanical properties :
#
#
# Convention : Reuss Voigt Hill
#
# Bulk Modulus (GPa) = 66.73794 70.32700 68.53247
# Shear Modulus (GPa) = 5.08550 -39.93893 -17.42671
#
# Velocity S-wave (km/s) = 1.51568 -4.24754 -2.80574
# Velocity P-wave (km/s) = 5.76286 2.77729 4.52349
#
# Compressibility (1/GPa) = 0.01498398
#
# Stress axis : x y z
#
# Youngs Moduli (GPa) = 49.25032 103.99693 87.59025
#
# Poissons Ratio (x) = 0.53308 0.58691
# Poissons Ratio (y) = 0.25245 0.11824
# Poissons Ratio (z) = 0.33001 0.14038
#
# Static dielectric constant tensor:
#      x y z
#    x 1.986080 0.000000 0.043830 
#    y 0.000000 1.838010 0.000000 
#    z 0.043830 0.000000 1.863590 
# 
# From -- ./inp_files/3702.got.cif
#   From: 2010.05.17/outbox.cif.g08.bks.cpg/sg3_2_cif.got.tgz:3702.got - 2010.06.03 18:33:08.
