data_PCOD9112177
_publ_section_title
;
Structure prediction by ZEFSAII (Michael W. Deem and Ramdas Pophale) SiO2 
 PCOD9112177
Probable space group: P -1
;
_chemical_formula_sum "Si O2"
_cell_formula_units_Z 12
_cell_length_a 7.892907
_cell_length_b 8.955978
_cell_length_c 11.854212
_cell_angle_alpha 111.590352
_cell_angle_beta 98.651968
_cell_angle_gamma 132.086260
_cell_volume 472.934296
_symmetry_space_group_name_H-M "P -1"
_symmetry_group_IT_number 2
_symmetry_cell_setting 'triclinic'
loop_
_space_group_symop_operation_xyz
x,y,z
-x,-y,-z
loop_
_atom_site_type_symbol
_atom_site_label
_atom_site_fract_x
_atom_site_fract_y
_atom_site_fract_z
Si Si1 0.939844 0.302852 0.015094
Si Si2 0.012609 0.604581 0.688860
Si Si3 0.133367 0.020526 0.696728
Si Si4 0.261683 0.248902 0.014217
Si Si5 0.542008 0.307160 0.243902
Si Si6 0.578212 0.693225 0.429427
O O1 0.898113 0.303155 0.144700
O O2 0.000000 0.500000 0.000000
O O3 0.221932 0.407386 0.066326
O O4 0.686185 0.004998 0.857705
O O5 0.680166 0.384326 0.586901
O O6 0.159409 0.546439 0.655459
O O7 0.126388 0.832768 0.687238
O O8 0.225005 0.179592 0.862596
O O9 0.301623 0.161097 0.637427
O O10 0.834243 0.874181 0.590927
O O11 0.520912 0.350136 0.123462
O O12 0.000000 0.000000 0.000000
O O13 0.487444 0.438111 0.334640
#
# Coordination Sequence:
#
# PCOD9112177 Si02
#       6
#     2   2   2   2   2   2
#     4  11  24  41  71 112 142 181 240 298 357 422
#     4  12  24  44  73 104 145 185 237 299 353 419
#     4  11  25  48  75 100 149 192 236 296 355 429
#     4  10  20  44  73 105 138 185 235 292 359 412
#     4  11  24  44  72 107 142 184 238 298 356 418
#     4  11  27  49  72 107 143 193 241 289 359 427
#
# _framework density 25.373502999999999
#
# number of rings (size 3 to 8) (size 9 to 14) (size 15 to 20)
#    0.000    1.000    5.000    2.000    4.667    1.333 
#    0.000    3.333    0.000    0.000    0.000    0.000 
#    0.000    0.000    0.000    0.000    0.000    0.000 
#
# Total GULP energy -67171.881048 kJ/mol
# GULP energy per Si atom -5597.656754 kJ/mol
# Density = 2.531575 g / cm^3
# Si number density = 25.373503 Si / 1000 Ang^3
#
#
#
# Elastic Constant Matrix: (Units=GPa)
#
#
# Indices 1 2 3 4 5 6 
#
# 1 149.6612 59.8598 38.8260 -21.1661 49.1776 -10.5373
# 2 59.8598 168.0090 16.7968 -43.6917 9.1044 -3.4747
# 3 38.8260 16.7968 81.4106 -15.6903 15.2020 4.4611
# 4 -21.1661 -43.6917 -15.6903 42.6147 5.3710 5.8296
# 5 49.1776 9.1044 15.2020 5.3710 45.9750 -13.7934
# 6 -10.5373 -3.4747 4.4611 5.8296 -13.7934 39.6567
#
#
#
# Elastic Compliance Matrix: (Units=1/GPa)
#
#
# Indices 1 2 3 4 5 6 
#
# 1 0.013736 -0.002422 -0.002010 0.005809 -0.014943 -0.002388
# 2 -0.002422 0.009037 0.001334 0.008943 -0.001206 -0.001736
# 3 -0.002010 0.001334 0.015832 0.007670 -0.005854 -0.005362
# 4 0.005809 0.008943 0.007670 0.042267 -0.018851 -0.011306
# 5 -0.014943 -0.001206 -0.005854 -0.018851 0.046801 0.015632
# 6 -0.002388 -0.001736 -0.005362 -0.011306 0.015632 0.032132
#
#
# Mechanical properties :
#
#
# Convention : Reuss Voigt Hill
#
# Bulk Modulus (GPa) = 30.85576 70.00511 50.43044
# Shear Modulus (GPa) = 28.28016 44.55582 36.41799
#
# Velocity S-wave (km/s) = 3.34212 4.19501 3.79261
# Velocity P-wave (km/s) = 5.20385 7.14940 6.25276
#
# Compressibility (1/GPa) = 0.03240886
#
# Stress axis : x y z
#
# Youngs Moduli (GPa) = 72.80373 110.66118 63.16344
#
# Poissons Ratio (x) = 0.26800 0.12697
# Poissons Ratio (y) = 0.17631 -0.08428
# Poissons Ratio (z) = 0.14635 -0.14766
#
# Static dielectric constant tensor:
#      x y z
#    x 2.004400 0.032580 0.005350 
#    y 0.032580 2.068270 0.098700 
#    z 0.005350 0.098700 2.144400 
# 
# From -- ./inp_files/379661.got.cif
#   From: 2010.05.17/outbox.cif.g08.bks.cpg/sg2_190_cif.got.tgz:379661.got - 2010.06.03 11:33:40.
