data_PCOD9112355
_publ_section_title
;
Structure prediction by ZEFSAII (Michael W. Deem and Ramdas Pophale) SiO2 
 PCOD9112355
Probable space group: P -1
;
_chemical_formula_sum "Si O2"
_cell_formula_units_Z 10
_cell_length_a 11.921493
_cell_length_b 9.254839
_cell_length_c 10.136869
_cell_angle_alpha 50.891401
_cell_angle_beta 133.637552
_cell_angle_gamma 93.644104
_cell_volume 470.754330
_symmetry_space_group_name_H-M "P -1"
_symmetry_group_IT_number 2
_symmetry_cell_setting 'triclinic'
loop_
_space_group_symop_operation_xyz
x,y,z
-x,-y,-z
loop_
_atom_site_type_symbol
_atom_site_label
_atom_site_fract_x
_atom_site_fract_y
_atom_site_fract_z
Si Si1 0.141180 0.297039 0.849696
Si Si2 0.909139 0.433404 0.856156
Si Si3 0.475139 0.238228 0.811894
Si Si4 0.892154 0.022220 0.158365
Si Si5 0.327169 0.494889 0.820227
O O1 0.333923 0.284735 0.012752
O O2 0.000000 0.500000 0.500000
O O3 0.026847 0.388989 0.841970
O O4 0.177101 0.056572 0.974008
O O5 0.666750 0.640158 0.503221
O O6 0.936926 0.197329 0.055756
O O7 0.000000 0.500000 0.000000
O O8 0.356093 0.434529 0.722110
O O9 0.700272 0.150574 0.027518
O O10 0.500000 0.000000 0.000000
O O11 0.108550 0.760714 0.529336
O O12 0.500000 0.500000 0.000000
#
# Coordination Sequence:
#
# PCOD9112355 Si02
#       5
#     2   2   2   2   2
#     4  10  20  47  69  93 138 186 225 279 342 417
#     4  12  27  44  71 110 142 180 236 295 352 407
#     4  12  24  47  74 100 142 191 232 284 352 422
#     4  11  24  45  71  99 145 182 230 291 353 406
#     4  11  25  44  74 105 136 185 242 283 344 420
#
# _framework density 21.242504
#
# number of rings (size 3 to 8) (size 9 to 14) (size 15 to 20)
#    0.000    0.800    6.000    2.400    5.600    0.800 
#    0.000    2.000    0.000    0.000    0.000    0.000 
#    0.000    0.000    0.000    0.000    0.000    0.000 
#
# Total GULP energy -55837.174529 kJ/mol
# GULP energy per Si atom -5583.717453 kJ/mol
# Density = 2.119416 g / cm^3
# Si number density = 21.242504 Si / 1000 Ang^3
#
#
#
# Elastic Constant Matrix: (Units=GPa)
#
#
# Indices 1 2 3 4 5 6 
#
# 1 158.0223 62.3756 17.9848 8.5307 11.1554 13.4316
# 2 62.3756 136.9460 27.9157 5.7057 -11.5981 37.7146
# 3 17.9848 27.9157 31.9971 -4.6292 5.7446 13.0791
# 4 8.5307 5.7057 -4.6292 27.0686 7.5335 2.3923
# 5 11.1554 -11.5981 5.7446 7.5335 38.9054 -3.0147
# 6 13.4316 37.7146 13.0791 2.3923 -3.0147 54.4220
#
#
#
# Elastic Compliance Matrix: (Units=1/GPa)
#
#
# Indices 1 2 3 4 5 6 
#
# 1 0.008231 -0.003970 -0.001136 -0.001171 -0.003082 0.000874
# 2 -0.003970 0.013196 -0.008932 -0.004479 0.006837 -0.005443
# 3 -0.001136 -0.008932 0.046406 0.014156 -0.012394 -0.005991
# 4 -0.001171 -0.004479 0.014156 0.044206 -0.011852 -0.002609
# 5 -0.003082 0.006837 -0.012394 -0.011852 0.032854 0.001342
# 6 0.000874 -0.005443 -0.005991 -0.002609 0.001342 0.023560
#
#
# Mechanical properties :
#
#
# Convention : Reuss Voigt Hill
#
# Bulk Modulus (GPa) = 25.15285 60.39084 42.77184
# Shear Modulus (GPa) = 23.83433 38.65848 31.24640
#
# Velocity S-wave (km/s) = 3.35328 4.27062 3.83944
# Velocity P-wave (km/s) = 5.18258 7.26695 6.31140
#
# Compressibility (1/GPa) = 0.03975693
#
# Stress axis : x y z
#
# Youngs Moduli (GPa) = 121.48879 75.78201 21.54897
#
# Poissons Ratio (x) = 0.30088 0.02448
# Poissons Ratio (y) = 0.48236 0.19247
# Poissons Ratio (z) = 0.13801 0.67686
#
# Static dielectric constant tensor:
#      x y z
#    x 1.797150 0.017090 0.031400 
#    y 0.017090 1.797840 -0.005360 
#    z 0.031400 -0.005360 1.824020 
# 
# From -- ./inp_files/143957.got.cif
#   From: 2010.05.17/outbox.cif.g08.bks.cpg/sg2_72_cif.got.tgz:143957.got - 2010.06.03 11:33:40.
