data_PCOD9112964
_publ_section_title
;
Structure prediction by ZEFSAII (Michael W. Deem and Ramdas Pophale) SiO2 
 PCOD9112964
Probable space group: P 2
;
_chemical_formula_sum "Si O2"
_cell_formula_units_Z 14
_cell_length_a 9.256119
_cell_length_b 7.960994
_cell_length_c 19.398099
_cell_angle_alpha 90.000000
_cell_angle_beta 152.452021
_cell_angle_gamma 90.000000
_cell_volume 661.087425
_symmetry_space_group_name_H-M "P 2"
_symmetry_group_IT_number 3
_symmetry_cell_setting 'monoclinic'
loop_
_space_group_symop_operation_xyz
x,y,z
-x,y,-z
loop_
_atom_site_type_symbol
_atom_site_label
_atom_site_fract_x
_atom_site_fract_y
_atom_site_fract_z
Si Si1 0.167495 0.910330 0.820066
Si Si2 0.626494 0.188114 0.843812
Si Si3 0.819876 0.575767 0.677482
Si Si4 0.719215 0.291830 0.160230
Si Si5 0.431788 0.815384 0.789308
Si Si6 0.000000 0.627254 0.500000
Si Si7 0.000000 0.609817 0.000000
Si Si8 0.565735 0.425994 0.704724
O O1 0.226423 0.839509 0.769274
O O2 0.940512 0.762000 0.752712
O O3 0.102989 0.111950 0.781804
O O4 0.500000 0.906852 0.000000
O O5 0.476412 0.267780 0.850627
O O6 0.502942 0.253520 0.717849
O O7 0.546054 0.995104 0.814010
O O8 0.000000 0.206058 0.000000
O O9 0.500000 0.599680 0.500000
O O10 0.746488 0.452899 0.710967
O O11 0.071290 0.459235 0.743700
O O12 0.500000 0.317756 0.000000
O O13 0.221662 0.733349 0.642305
O O14 0.748177 0.713662 0.937024
O O15 0.765891 0.514290 0.444894
O O16 0.218739 0.513400 0.145877
#
# Coordination Sequence:
#
# PCOD9112964 Si02
#       8
#     2   2   2   2   2   1   1   2
#     4  10  22  42  69  94 126 171 220 274 324 385
#     4  11  22  40  68  98 129 169 221 282 324 382
#     4  12  26  43  66  97 136 182 213 269 336 403
#     4  10  24  43  68  98 134 171 227 275 328 393
#     4  10  21  40  63  95 128 166 216 264 331 381
#     4  10  24  42  60  94 128 174 208 266 318 402
#     4  10  20  36  64  94 122 158 216 274 306 384
#     4  11  24  40  65  95 130 170 222 266 331 385
#
# _framework density 21.177230000000002
#
# number of rings (size 3 to 8) (size 9 to 14) (size 15 to 20)
#    0.000    1.429    1.429    3.000    6.000    1.143 
#    7.714    0.000    0.000    0.000    0.000    0.000 
#    0.000    0.000    0.000    0.000    0.000    0.000 
#
# Total GULP energy -78047.901166 kJ/mol
# GULP energy per Si atom -5574.850083 kJ/mol
# Density = 2.112903 g / cm^3
# Si number density = 21.177230 Si / 1000 Ang^3
#
#
#
# Elastic Constant Matrix: (Units=GPa)
#
#
# Indices 1 2 3 4 5 6 
#
# 1 55.7784 9.5000 2.3771 0.0000 4.5469 0.0000
# 2 9.5000 83.6174 23.9822 0.0000 13.9175 0.0000
# 3 2.3771 23.9822 69.7514 0.0000 12.8391 0.0000
# 4 0.0000 0.0000 0.0000 6.6871 0.0000 -0.3135
# 5 4.5469 13.9175 12.8391 0.0000 29.2928 0.0000
# 6 0.0000 0.0000 0.0000 -0.3135 0.0000 20.6157
#
#
#
# Elastic Compliance Matrix: (Units=1/GPa)
#
#
# Indices 1 2 3 4 5 6 
#
# 1 0.018401 -0.001848 0.000405 0.000000 -0.002156 0.000000
# 2 -0.001848 0.014071 -0.003913 0.000000 -0.004683 0.000000
# 3 0.000405 -0.003913 0.016684 0.000000 -0.005516 0.000000
# 4 0.000000 0.000000 0.000000 0.149649 0.000000 0.002276
# 5 -0.002156 -0.004683 -0.005516 0.000000 0.039116 0.000000
# 6 0.000000 0.000000 0.000000 0.002276 0.000000 0.048541
#
#
# Mechanical properties :
#
#
# Convention : Reuss Voigt Hill
#
# Bulk Modulus (GPa) = 26.01168 31.20732 28.60950
# Shear Modulus (GPa) = 16.12963 22.87163 19.50063
#
# Velocity S-wave (km/s) = 2.76279 3.28992 3.03781
# Velocity P-wave (km/s) = 4.74203 5.40367 5.08363
#
# Compressibility (1/GPa) = 0.03844427
#
# Stress axis : x y z
#
# Youngs Moduli (GPa) = 54.34401 71.06835 59.93935
#
# Poissons Ratio (x) = 0.13133 -0.02428
# Poissons Ratio (y) = 0.10043 0.23453
# Poissons Ratio (z) = -0.02201 0.27808
#
# Static dielectric constant tensor:
#      x y z
#    x 1.860510 0.000000 -0.031040 
#    y 0.000000 1.871800 0.000000 
#    z -0.031040 0.000000 1.566290 
# 
# From -- ./inp_files/15014.got.cif
#   From: 2010.05.17/outbox.cif.g08.bks.cpg/sg3_8_cif.got.tgz:15014.got - 2010.06.03 18:33:08.
