data_PCOD9112092
_publ_section_title
;
Structure prediction by ZEFSAII (Michael W. Deem and Ramdas Pophale) SiO2 
 PCOD9112092
Probable space group: P -1
;
_chemical_formula_sum "Si O2"
_cell_formula_units_Z 14
_cell_length_a 11.861723
_cell_length_b 6.801679
_cell_length_c 10.426639
_cell_angle_alpha 130.888866
_cell_angle_beta 73.055544
_cell_angle_gamma 114.260001
_cell_volume 579.475446
_symmetry_space_group_name_H-M "P -1"
_symmetry_group_IT_number 2
_symmetry_cell_setting 'triclinic'
loop_
_space_group_symop_operation_xyz
x,y,z
-x,-y,-z
loop_
_atom_site_type_symbol
_atom_site_label
_atom_site_fract_x
_atom_site_fract_y
_atom_site_fract_z
Si Si1 0.643421 0.546817 0.506974
Si Si2 0.930084 0.230512 0.613118
Si Si3 0.913781 0.165237 0.154555
Si Si4 0.482916 0.212841 0.818872
Si Si5 0.285761 0.849282 0.188368
Si Si6 0.725677 0.056068 0.388737
Si Si7 0.693343 0.261339 0.144809
O O1 0.500000 0.500000 0.500000
O O2 0.685016 0.324075 0.479033
O O3 0.702950 0.529266 0.339701
O O4 0.690885 0.827825 0.686150
O O5 0.857855 0.273978 0.784022
O O6 0.816053 0.121921 0.506983
O O7 0.016916 0.534449 0.682463
O O8 0.000000 0.000000 0.500000
O O9 0.817566 0.005721 0.226124
O O10 0.824570 0.207772 0.090523
O O11 0.000000 0.000000 0.000000
O O12 0.619250 0.186422 0.749270
O O13 0.405491 0.171540 0.694957
O O14 0.407662 0.976921 0.844072
O O15 0.500000 0.500000 0.000000
O O16 0.330175 0.741285 0.997973
#
# Coordination Sequence:
#
# PCOD9112092 Si02
#       7
#     2   2   2   2   2   2   2
#     4  10  20  44  70 100 133 180 229 276 356 418
#     4  12  28  46  68 105 141 184 244 291 344 421
#     4  10  24  45  70  98 134 190 238 288 357 407
#     4  10  23  42  68 109 139 174 235 289 356 419
#     4  12  25  42  72 103 140 186 225 290 361 416
#     4  10  24  46  72  97 140 181 234 292 346 428
#     4  10  24  44  68 103 139 182 231 289 349 431
#
# _framework density 24.159780000000001
#
# number of rings (size 3 to 8) (size 9 to 14) (size 15 to 20)
#    0.000    1.714    2.857    2.571    8.000    3.429 
#    0.000    0.000    0.000    0.000    0.000    0.000 
#    0.000    0.000    0.000    0.000    0.000    0.000 
#
# Total GULP energy -78205.632189 kJ/mol
# GULP energy per Si atom -5586.116585 kJ/mol
# Density = 2.410479 g / cm^3
# Si number density = 24.159780 Si / 1000 Ang^3
#
#
#
# Elastic Constant Matrix: (Units=GPa)
#
#
# Indices 1 2 3 4 5 6 
#
# 1 189.5643 16.3149 48.4431 -7.2160 -17.4127 -0.2824
# 2 16.3149 24.1925 11.5433 -1.2895 0.5191 6.4728
# 3 48.4431 11.5433 94.9840 7.0970 -5.1716 -12.5567
# 4 -7.2160 -1.2895 7.0970 43.6848 -1.3165 -1.5439
# 5 -17.4127 0.5191 -5.1716 -1.3165 55.3408 -3.7893
# 6 -0.2824 6.4728 -12.5567 -1.5439 -3.7893 31.9059
#
#
#
# Elastic Compliance Matrix: (Units=1/GPa)
#
#
# Indices 1 2 3 4 5 6 
#
# 1 0.006518 -0.002834 -0.003031 0.001531 0.001812 -0.000271
# 2 -0.002834 0.050045 -0.006631 0.001540 -0.002838 -0.013050
# 3 -0.003031 -0.006631 0.014027 -0.002710 0.000821 0.006805
# 4 0.001531 0.001540 -0.002710 0.023648 0.000768 -0.000130
# 5 0.001812 -0.002838 0.000821 0.000768 0.018981 0.003206
# 6 -0.000271 -0.013050 0.006805 -0.000130 0.003206 0.037040
#
#
# Mechanical properties :
#
#
# Convention : Reuss Voigt Hill
#
# Bulk Modulus (GPa) = 21.93154 51.26039 36.59596
# Shear Modulus (GPa) = 26.25339 41.68226 33.96783
#
# Velocity S-wave (km/s) = 3.30002 4.15815 3.75369
# Velocity P-wave (km/s) = 4.85980 6.65709 5.82814
#
# Compressibility (1/GPa) = 0.04559644
#
# Stress axis : x y z
#
# Youngs Moduli (GPa) = 153.41733 19.98206 71.29172
#
# Poissons Ratio (x) = 0.05663 0.21612
# Poissons Ratio (y) = 0.43478 0.47275
# Poissons Ratio (z) = 0.46508 0.13251
#
# Static dielectric constant tensor:
#      x y z
#    x 1.909530 -0.001390 0.016140 
#    y -0.001390 2.018360 -0.025820 
#    z 0.016140 -0.025820 2.015450 
# 
# From -- ./inp_files/418560.got.cif
#   From: 2010.05.17/outbox.cif.g08.bks.cpg/sg2_210_cif.got.tgz:418560.got - 2010.06.03 11:33:40.
