data_PCOD9112107
_publ_section_title
;
Structure prediction by ZEFSAII (Michael W. Deem and Ramdas Pophale) SiO2 
 PCOD9112107
Probable space group: P -1
;
_chemical_formula_sum "Si O2"
_cell_formula_units_Z 15
_cell_length_a 20.067771
_cell_length_b 15.043490
_cell_length_c 5.451941
_cell_angle_alpha 64.065405
_cell_angle_beta 98.559371
_cell_angle_gamma 151.543635
_cell_volume 589.021177
_symmetry_space_group_name_H-M "P -1"
_symmetry_group_IT_number 2
_symmetry_cell_setting 'triclinic'
loop_
_space_group_symop_operation_xyz
x,y,z
-x,-y,-z
loop_
_atom_site_type_symbol
_atom_site_label
_atom_site_fract_x
_atom_site_fract_y
_atom_site_fract_z
Si Si1 0.688220 0.747773 0.685086
Si Si2 0.220591 0.761183 0.816456
Si Si3 0.585798 0.450548 0.646291
Si Si4 0.846300 0.778315 0.005712
Si Si5 0.222153 0.891281 0.154439
Si Si6 0.500000 0.000000 0.500000
Si Si7 0.770923 0.524707 0.923708
Si Si8 0.971630 0.260067 0.416471
O O1 0.654196 0.649800 0.522172
O O2 0.800639 0.995624 0.503059
O O3 0.500000 0.500000 0.000000
O O4 0.805280 0.821979 0.783766
O O5 0.235045 0.839875 0.470473
O O6 0.387553 0.919174 0.722386
O O7 0.210834 0.809238 0.006579
O O8 0.061450 0.473877 0.077676
O O9 0.670535 0.529390 0.348819
O O10 0.649758 0.450473 0.862479
O O11 0.388186 0.179446 0.866501
O O12 0.887341 0.737430 0.921047
O O13 0.000000 0.000000 0.000000
O O14 0.074088 0.766176 0.303222
O O15 0.658964 0.289176 0.258893
O O16 0.887780 0.635496 0.645137
#
# Coordination Sequence:
#
# PCOD9112107 Si02
#       8
#     2   2   2   2   2   1   2   2
#     4  11  24  46  68 104 144 191 251 306 373 446
#     4  11  26  47  73 108 148 194 242 307 381 444
#     4  11  23  43  73  99 148 192 242 312 371 449
#     4  11  24  44  70 106 144 194 246 313 377 441
#     4  12  25  48  74 105 150 193 243 305 385 445
#     4  10  20  44  70 108 136 188 242 302 354 460
#     4  10  22  44  67 100 144 183 245 297 376 434
#     4  11  24  46  69 104 141 193 245 309 363 453
#
# _framework density 25.465978
#
# number of rings (size 3 to 8) (size 9 to 14) (size 15 to 20)
#    0.000    1.067    2.667    3.200    1.867    3.200 
#   24.000    0.000    0.000    0.000    0.000    0.000 
#    0.000    0.000    0.000    0.000    0.000    0.000 
#
# Total GULP energy -83667.555792 kJ/mol
# GULP energy per Si atom -5577.837053 kJ/mol
# Density = 2.540802 g / cm^3
# Si number density = 25.465978 Si / 1000 Ang^3
#
#
#
# Elastic Constant Matrix: (Units=GPa)
#
#
# Indices 1 2 3 4 5 6 
#
# 1 136.7400 77.3275 52.3922 -0.8532 -37.0948 -35.1573
# 2 77.3275 123.1366 65.3131 -11.6164 -2.3289 -27.2978
# 3 52.3922 65.3131 136.0344 -26.9647 -36.6901 -16.2325
# 4 -0.8532 -11.6164 -26.9647 52.1265 -6.1782 -3.9980
# 5 -37.0948 -2.3289 -36.6901 -6.1782 60.5274 1.5237
# 6 -35.1573 -27.2978 -16.2325 -3.9980 1.5237 40.2719
#
#
#
# Elastic Compliance Matrix: (Units=1/GPa)
#
#
# Indices 1 2 3 4 5 6 
#
# 1 0.017633 -0.010050 0.002698 0.001583 0.011981 0.009372
# 2 -0.010050 0.018548 -0.008032 -0.001364 -0.010475 0.000822
# 3 0.002698 -0.008032 0.015102 0.007649 0.011196 0.003334
# 4 0.001583 -0.001364 0.007649 0.024230 0.007886 0.005648
# 5 0.011981 -0.010475 0.011196 0.007886 0.030864 0.007487
# 6 0.009372 0.000822 0.003334 0.005648 0.007487 0.035191
#
#
# Mechanical properties :
#
#
# Convention : Reuss Voigt Hill
#
# Bulk Modulus (GPa) = 48.74779 87.33074 68.03927
# Shear Modulus (GPa) = 27.90557 43.97704 35.94131
#
# Velocity S-wave (km/s) = 3.31388 4.16010 3.76086
# Velocity P-wave (km/s) = 5.81603 7.57910 6.75533
#
# Compressibility (1/GPa) = 0.02051375
#
# Stress axis : x y z
#
# Youngs Moduli (GPa) = 56.71290 53.91350 66.21646
#
# Poissons Ratio (x) = 0.54185 -0.17864
# Poissons Ratio (y) = 0.56998 0.53186
# Poissons Ratio (z) = -0.15300 0.43304
#
# Static dielectric constant tensor:
#      x y z
#    x 2.098210 0.029340 0.053850 
#    y 0.029340 2.036520 0.049690 
#    z 0.053850 0.049690 1.989950 
# 
# From -- ./inp_files/119251.got.cif
#   From: 2010.05.17/outbox.cif.g08.bks.cpg/sg2_60_cif.got.tgz:119251.got - 2010.06.03 11:33:40.
