data_PCOD9112056
_publ_section_title
;
Structure prediction by ZEFSAII (Michael W. Deem and Ramdas Pophale) SiO2 
 PCOD9112056
Probable space group: P -1
;
_chemical_formula_sum "Si O2"
_cell_formula_units_Z 15
_cell_length_a 10.992012
_cell_length_b 6.812419
_cell_length_c 13.260539
_cell_angle_alpha 106.570610
_cell_angle_beta 56.386297
_cell_angle_gamma 132.454703
_cell_volume 603.767360
_symmetry_space_group_name_H-M "P -1"
_symmetry_group_IT_number 2
_symmetry_cell_setting 'triclinic'
loop_
_space_group_symop_operation_xyz
x,y,z
-x,-y,-z
loop_
_atom_site_type_symbol
_atom_site_label
_atom_site_fract_x
_atom_site_fract_y
_atom_site_fract_z
Si Si1 0.132080 0.080040 0.047657
Si Si2 0.071264 0.406921 0.368786
Si Si3 0.719649 0.825430 0.477364
Si Si4 0.763247 0.374542 0.866777
Si Si5 0.428920 0.553474 0.323481
Si Si6 0.500000 0.000000 0.500000
Si Si7 0.646986 0.117917 0.094584
Si Si8 0.249797 0.415871 0.762009
O O1 0.229371 0.372317 0.088709
O O2 0.972236 0.839391 0.160943
O O3 0.288124 0.053622 0.946119
O O4 0.000000 0.000000 0.000000
O O5 0.066284 0.507658 0.275244
O O6 0.284954 0.514385 0.302441
O O7 0.000000 0.500000 0.500000
O O8 0.935828 0.090542 0.396619
O O9 0.689981 0.702477 0.582898
O O10 0.682891 0.611599 0.380750
O O11 0.610198 0.938022 0.519924
O O12 0.575415 0.090450 0.866397
O O13 0.768883 0.309153 0.970364
O O14 0.615864 0.587330 0.220572
O O15 0.496158 0.812046 0.392293
O O16 0.702974 0.308455 0.191695
#
# Coordination Sequence:
#
# PCOD9112056 Si02
#       8
#     2   2   2   2   2   1   2   2
#     4  12  25  48  73 107 143 182 242 302 364 433
#     4  12  26  47  73 107 145 196 239 297 364 430
#     4  11  24  48  69 109 146 193 242 297 362 432
#     4  11  27  49  73 104 147 191 243 298 363 428
#     4  11  26  44  70 105 149 189 243 294 358 434
#     4  10  20  44  68  94 142 188 240 292 356 420
#     4  11  27  50  75 107 142 192 245 299 365 434
#     4  11  24  45  72 109 140 190 236 297 368 419
#
# _framework density 24.844004999999999
#
# number of rings (size 3 to 8) (size 9 to 14) (size 15 to 20)
#    0.000    0.800    4.000    2.800    3.733    4.267 
#    7.200    0.000    0.000    0.000    0.000    0.000 
#    0.000    0.000    0.000    0.000    0.000    0.000 
#
# Total GULP energy -83628.243925 kJ/mol
# GULP energy per Si atom -5575.216262 kJ/mol
# Density = 2.478746 g / cm^3
# Si number density = 24.844005 Si / 1000 Ang^3
#
#
#
# Elastic Constant Matrix: (Units=GPa)
#
#
# Indices 1 2 3 4 5 6 
#
# 1 37.7535 -8.2277 2.2207 1.5867 1.2072 -4.1246
# 2 -8.2277 113.1630 33.7818 17.1637 5.9974 3.0746
# 3 2.2207 33.7818 99.7460 3.4083 13.4073 -17.9711
# 4 1.5867 17.1637 3.4083 49.6774 -6.0209 0.9901
# 5 1.2072 5.9974 13.4073 -6.0209 36.2084 -1.0547
# 6 -4.1246 3.0746 -17.9711 0.9901 -1.0547 27.8461
#
#
#
# Elastic Compliance Matrix: (Units=1/GPa)
#
#
# Indices 1 2 3 4 5 6 
#
# 1 0.027554 0.002441 -0.000573 -0.001914 -0.001328 0.003460
# 2 0.002441 0.010941 -0.004104 -0.003639 -0.001078 -0.003407
# 3 -0.000573 -0.004104 0.013608 -0.000174 -0.004107 0.009001
# 4 -0.001914 -0.003639 -0.000174 0.022002 0.004372 -0.000611
# 5 -0.001328 -0.001078 -0.004107 0.004372 0.030038 -0.001746
# 6 0.003460 -0.003407 0.009001 -0.000611 -0.001746 0.042565
#
#
# Mechanical properties :
#
#
# Convention : Reuss Voigt Hill
#
# Bulk Modulus (GPa) = 20.99469 34.02356 27.50913
# Shear Modulus (GPa) = 29.92971 37.60555 33.76763
#
# Velocity S-wave (km/s) = 3.47465 3.89481 3.69071
# Velocity P-wave (km/s) = 4.95647 5.82672 5.40912
#
# Compressibility (1/GPa) = 0.04763108
#
# Stress axis : x y z
#
# Youngs Moduli (GPa) = 36.29206 91.39703 73.48617
#
# Poissons Ratio (x) = -0.22311 0.04210
# Poissons Ratio (y) = -0.08859 0.30162
# Poissons Ratio (z) = 0.02079 0.37513
#
# Static dielectric constant tensor:
#      x y z
#    x 2.029970 0.011260 0.023410 
#    y 0.011260 1.913310 -0.057380 
#    z 0.023410 -0.057380 1.982290 
# 
# From -- ./inp_files/511147.got.cif
#   From: 2010.05.17/outbox.cif.g08.bks.cpg/sg2_256_cif.got.tgz:511147.got - 2010.06.03 11:33:40.
