data_PCOD9112880
_publ_section_title
;
Structure prediction by ZEFSAII (Michael W. Deem and Ramdas Pophale) SiO2 
 PCOD9112880
Probable space group: P 2
;
_chemical_formula_sum "Si O2"
_cell_formula_units_Z 16
_cell_length_a 13.789301
_cell_length_b 10.169435
_cell_length_c 8.003917
_cell_angle_alpha 90.000000
_cell_angle_beta 140.764894
_cell_angle_gamma 90.000000
_cell_volume 709.912678
_symmetry_space_group_name_H-M "P 2"
_symmetry_group_IT_number 3
_symmetry_cell_setting 'monoclinic'
loop_
_space_group_symop_operation_xyz
x,y,z
-x,y,-z
loop_
_atom_site_type_symbol
_atom_site_label
_atom_site_fract_x
_atom_site_fract_y
_atom_site_fract_z
Si Si1 0.318585 0.040430 0.305131
Si Si2 0.670563 0.575363 0.663926
Si Si3 0.670097 0.182751 0.162896
Si Si4 0.329826 0.440603 0.699437
Si Si5 0.839638 0.678585 0.376472
Si Si6 0.168777 0.820894 0.276136
Si Si7 0.179875 0.934014 0.782952
Si Si8 0.672466 0.313296 0.797010
O O1 0.500000 0.037840 0.500000
O O2 0.269548 0.193465 0.241971
O O3 0.281555 0.945881 0.410500
O O4 0.222236 0.978922 0.024261
O O5 0.500000 0.611600 0.500000
O O6 0.662162 0.502154 0.472985
O O7 0.769834 0.705286 0.764540
O O8 0.741988 0.459395 0.875291
O O9 0.737682 0.293993 0.375700
O O10 0.756905 0.047308 0.252821
O O11 0.500000 0.152073 0.000000
O O12 0.667957 0.254030 0.977288
O O13 0.242465 0.543020 0.698630
O O14 0.500000 0.428971 0.000000
O O15 0.848296 0.753169 0.566463
O O16 0.000000 0.653625 0.500000
O O17 0.751158 0.788558 0.150496
O O18 0.000000 0.865339 0.000000
O O19 0.000000 0.923883 0.500000
O O20 0.500000 0.334789 0.500000
#
# Coordination Sequence:
#
# PCOD9112880 Si02
#       8
#     2   2   2   2   2   2   2   2
#     4  10  22  40  62  89 117 154 198 239 288 348
#     4  10  20  36  57  82 112 149 191 238 288 343
#     4  10  20  34  56  86 114 148 192 238 285 343
#     4  10  21  35  56  86 113 146 193 239 286 341
#     4  10  23  39  56  80 114 153 192 237 292 347
#     4  11  23  38  58  85 116 152 195 242 293 348
#     4  10  22  40  59  84 119 156 192 237 294 347
#     4   9  18  34  57  82 112 146 187 240 290 335
#
# _framework density 22.537982
#
# number of rings (size 3 to 8) (size 9 to 14) (size 15 to 20)
#    0.000    2.000    0.000    4.875    0.000   11.000 
#    0.000    4.375    0.000    0.000    0.000    0.000 
#    0.000    0.000    0.000    0.000    0.000    0.000 
#
# Total GULP energy -89352.201560 kJ/mol
# GULP energy per Si atom -5584.512597 kJ/mol
# Density = 2.248668 g / cm^3
# Si number density = 22.537982 Si / 1000 Ang^3
#
#
#
# Elastic Constant Matrix: (Units=GPa)
#
#
# Indices 1 2 3 4 5 6 
#
# 1 126.7791 69.1486 13.9276 0.0000 10.2002 0.0000
# 2 69.1486 116.4618 -4.4749 0.0000 27.5952 0.0000
# 3 13.9276 -4.4749 32.7447 0.0000 -3.2294 0.0000
# 4 0.0000 0.0000 0.0000 23.5594 0.0000 1.8890
# 5 10.2002 27.5952 -3.2294 0.0000 29.2406 0.0000
# 6 0.0000 0.0000 0.0000 1.8890 0.0000 41.4997
#
#
#
# Elastic Compliance Matrix: (Units=1/GPa)
#
#
# Indices 1 2 3 4 5 6 
#
# 1 0.013135 -0.008749 -0.006491 0.000000 0.002958 0.000000
# 2 -0.008749 0.016895 0.004811 0.000000 -0.012361 0.000000
# 3 -0.006491 0.004811 0.034104 0.000000 0.001491 0.000000
# 4 0.000000 0.000000 0.000000 0.042601 0.000000 -0.001939
# 5 0.002958 -0.012361 0.001491 0.000000 0.044997 0.000000
# 6 0.000000 0.000000 0.000000 -0.001939 0.000000 0.024185
#
#
# Mechanical properties :
#
#
# Convention : Reuss Voigt Hill
#
# Bulk Modulus (GPa) = 23.10698 48.13203 35.61950
# Shear Modulus (GPa) = 23.67424 32.01888 27.84656
#
# Velocity S-wave (km/s) = 3.24453 3.77326 3.51884
# Velocity P-wave (km/s) = 4.93058 6.35497 5.68754
#
# Compressibility (1/GPa) = 0.04327698
#
# Stress axis : x y z
#
# Youngs Moduli (GPa) = 76.13443 59.18971 29.32170
#
# Poissons Ratio (x) = 0.51784 0.19031
# Poissons Ratio (y) = 0.66609 -0.14107
# Poissons Ratio (z) = 0.49416 -0.28476
#
# Static dielectric constant tensor:
#      x y z
#    x 1.914490 0.000000 -0.057540 
#    y 0.000000 1.877750 0.000000 
#    z -0.057540 0.000000 1.815300 
# 
# From -- ./inp_files/7763.got.cif
#   From: 2010.05.17/outbox.cif.g08.bks.cpg/sg3_4_cif.got.tgz:7763.got - 2010.06.03 18:33:08.
