data_PCOD9112973
_publ_section_title
;
Structure prediction by ZEFSAII (Michael W. Deem and Ramdas Pophale) SiO2 
 PCOD9112973
Probable space group: P 2
;
_chemical_formula_sum "Si O2"
_cell_formula_units_Z 16
_cell_length_a 15.340484
_cell_length_b 5.539076
_cell_length_c 24.190599
_cell_angle_alpha 90.000000
_cell_angle_beta 163.217240
_cell_angle_gamma 90.000000
_cell_volume 593.520294
_symmetry_space_group_name_H-M "P 2"
_symmetry_group_IT_number 3
_symmetry_cell_setting 'monoclinic'
loop_
_space_group_symop_operation_xyz
x,y,z
-x,y,-z
loop_
_atom_site_type_symbol
_atom_site_label
_atom_site_fract_x
_atom_site_fract_y
_atom_site_fract_z
Si Si1 0.862862 0.561290 0.268164
Si Si2 0.743907 0.586052 0.683771
Si Si3 0.806017 0.967843 0.040042
Si Si4 0.250612 0.067541 0.758748
Si Si5 0.683991 0.201626 0.727432
Si Si6 0.282456 0.605907 0.628559
Si Si7 0.906925 0.224274 0.688462
Si Si8 0.451675 0.107975 0.704229
O O1 0.660093 0.339134 0.168534
O O2 0.134794 0.582314 0.477596
O O3 0.962978 0.431734 0.272633
O O4 0.738158 0.835124 0.193194
O O5 0.500000 0.741599 0.500000
O O6 0.657316 0.480139 0.690750
O O7 0.782757 0.368513 0.665087
O O8 0.068902 0.700850 0.886627
O O9 0.021607 0.097807 0.125318
O O10 0.879387 0.042959 0.149126
O O11 0.450666 0.000094 0.827811
O O12 0.901494 0.089859 0.528721
O O13 0.367800 0.096986 0.510897
O O14 0.659872 0.156525 0.777346
O O15 0.455068 0.353415 0.742216
O O16 0.000000 0.626392 0.500000
O O17 0.499994 0.838163 0.756698
#
# Coordination Sequence:
#
# PCOD9112973 Si02
#       8
#     2   2   2   2   2   2   2   2
#     4  10  22  40  58  83 120 154 194 246 309 344
#     4   9  20  33  52  77 113 158 207 248 291 325
#     4  11  23  34  55  81 120 163 214 237 290 347
#     4  10  23  39  56  83 119 161 195 240 295 354
#     4  10  20  37  56  82 115 159 198 255 292 340
#     4  10  20  37  64  95 119 147 191 252 313 369
#     4  10  20  37  52  80 113 161 201 251 291 329
#     4  10  21  39  62  91 121 151 191 244 307 354
#
# _framework density 26.957799000000001
#
# number of rings (size 3 to 8) (size 9 to 14) (size 15 to 20)
#    0.000    2.000    2.500    2.250    7.000    1.500 
#    0.000    0.000    0.000    0.000    0.000   21.000 
#    0.000    0.000    0.000    0.000    0.000    0.000 
#
# Total GULP energy -89297.169436 kJ/mol
# GULP energy per Si atom -5581.073090 kJ/mol
# Density = 2.689644 g / cm^3
# Si number density = 26.957799 Si / 1000 Ang^3
#
#
#
# Elastic Constant Matrix: (Units=GPa)
#
#
# Indices 1 2 3 4 5 6 
#
# 1 140.9512 50.6873 42.3367 0.0000 23.9469 0.0000
# 2 50.6873 154.3851 19.9067 0.0000 10.1704 0.0000
# 3 42.3367 19.9067 97.4749 0.0000 19.2522 0.0000
# 4 0.0000 0.0000 0.0000 34.4686 0.0000 5.5288
# 5 23.9469 10.1704 19.2522 0.0000 38.0069 0.0000
# 6 0.0000 0.0000 0.0000 5.5288 0.0000 45.7379
#
#
#
# Elastic Compliance Matrix: (Units=1/GPa)
#
#
# Indices 1 2 3 4 5 6 
#
# 1 0.009509 -0.002499 -0.002854 0.000000 -0.003877 0.000000
# 2 -0.002499 0.007360 -0.000378 0.000000 -0.000204 0.000000
# 3 -0.002854 -0.000378 0.012446 0.000000 -0.004405 0.000000
# 4 0.000000 0.000000 0.000000 0.029586 0.000000 -0.003576
# 5 -0.003877 -0.000204 -0.004405 0.000000 0.031040 0.000000
# 6 0.000000 0.000000 0.000000 -0.003576 0.000000 0.022296
#
#
# Mechanical properties :
#
#
# Convention : Reuss Voigt Hill
#
# Bulk Modulus (GPa) = 56.00919 68.74140 62.37530
# Shear Modulus (GPa) = 38.56598 42.30137 40.43368
#
# Velocity S-wave (km/s) = 3.78644 3.96557 3.87704
# Velocity P-wave (km/s) = 6.31964 6.82075 6.57497
#
# Compressibility (1/GPa) = 0.01785421
#
# Stress axis : x y z
#
# Youngs Moduli (GPa) = 105.16197 135.87413 80.34813
#
# Poissons Ratio (x) = 0.33949 0.22932
# Poissons Ratio (y) = 0.26276 0.03033
# Poissons Ratio (z) = 0.30015 0.05130
#
# Static dielectric constant tensor:
#      x y z
#    x 2.213710 0.000000 -0.193620 
#    y 0.000000 2.181960 0.000000 
#    z -0.193620 0.000000 2.399190 
# 
# From -- ./inp_files/16555.got.cif
#   From: 2010.05.17/outbox.cif.g08.bks.cpg/sg3_9_cif.got.tgz:16555.got - 2010.06.03 18:33:08.
