data_PCOD9112477
_publ_section_title
;
Structure prediction by ZEFSAII (Michael W. Deem and Ramdas Pophale) SiO2 
 PCOD9112477
Probable space group: P 2
;
_chemical_formula_sum "Si O2"
_cell_formula_units_Z 15
_cell_length_a 12.351864
_cell_length_b 8.611054
_cell_length_c 8.393176
_cell_angle_alpha 90.000000
_cell_angle_beta 133.007316
_cell_angle_gamma 90.000000
_cell_volume 652.816149
_symmetry_space_group_name_H-M "P 2"
_symmetry_group_IT_number 3
_symmetry_cell_setting 'monoclinic'
loop_
_space_group_symop_operation_xyz
x,y,z
-x,y,-z
loop_
_atom_site_type_symbol
_atom_site_label
_atom_site_fract_x
_atom_site_fract_y
_atom_site_fract_z
Si Si1 0.998628 0.145370 0.182551
Si Si2 0.171463 0.306189 0.745330
Si Si3 0.967565 0.807609 0.235912
Si Si4 0.300911 0.768120 0.559491
Si Si5 0.500000 0.097146 0.500000
Si Si6 0.312054 0.144664 0.598690
Si Si7 0.320045 0.799145 0.230478
Si Si8 0.294354 0.649593 0.881194
O O1 0.863758 0.244345 0.113185
O O2 0.160800 0.213889 0.373360
O O3 0.993520 0.989845 0.282440
O O4 0.000000 0.105789 0.000000
O O5 0.285603 0.202490 0.753667
O O6 0.247660 0.471932 0.838505
O O7 0.000000 0.312182 0.500000
O O8 0.861676 0.743867 0.266721
O O9 0.125234 0.729847 0.375568
O O10 0.857352 0.795141 0.973365
O O11 0.357524 0.729274 0.439814
O O12 0.360555 0.686261 0.776260
O O13 0.316730 0.955527 0.599321
O O14 0.376518 0.976621 0.304397
O O15 0.436702 0.186065 0.591623
O O16 0.369824 0.715906 0.117541
#
# Coordination Sequence:
#
# PCOD9112477 Si02
#       8
#     2   2   2   2   1   2   2   2
#     4  10  18  33  56  86 124 152 189 251 307 367
#     4  10  20  36  51  90 133 157 190 235 320 387
#     4   9  17  31  53  87 116 145 195 240 304 359
#     4  10  16  34  56  85 119 149 188 252 309 352
#     4  10  18  40  62  90 120 152 224 268 284 340
#     4   9  20  34  60  86 116 161 195 250 307 356
#     4   9  21  32  57  89 111 152 204 254 292 351
#     4  10  21  33  55  89 124 158 191 241 308 380
#
# _framework density 22.977374000000001
#
# number of rings (size 3 to 8) (size 9 to 14) (size 15 to 20)
#    0.800    1.600    0.000    4.800    0.000    2.133 
#    7.200    2.667    0.000    3.200   13.867    0.000 
#    0.000    0.000    0.000    0.000    0.000    0.000 
#
# Total GULP energy -83512.229039 kJ/mol
# GULP energy per Si atom -5567.481936 kJ/mol
# Density = 2.292508 g / cm^3
# Si number density = 22.977374 Si / 1000 Ang^3
#
#
#
# Elastic Constant Matrix: (Units=GPa)
#
#
# Indices 1 2 3 4 5 6 
#
# 1 185.7135 47.6211 44.5643 0.0000 -45.3950 0.0000
# 2 47.6211 50.6807 13.8412 0.0000 -25.7043 0.0000
# 3 44.5643 13.8412 97.8828 0.0000 -18.9477 0.0000
# 4 0.0000 0.0000 0.0000 4.0577 0.0000 -4.7736
# 5 -45.3950 -25.7043 -18.9477 0.0000 41.1232 0.0000
# 6 0.0000 0.0000 0.0000 -4.7736 0.0000 -13.9622
#
#
#
# Elastic Compliance Matrix: (Units=1/GPa)
#
#
# Indices 1 2 3 4 5 6 
#
# 1 0.008390 -0.004542 -0.002124 0.000000 0.005443 0.000000
# 2 -0.004542 0.031387 0.000502 0.000000 0.014835 0.000000
# 3 -0.002124 0.000502 0.011769 0.000000 0.003392 0.000000
# 4 0.000000 0.000000 0.000000 0.175755 0.000000 -0.060089
# 5 0.005443 0.014835 0.003392 0.000000 0.041162 0.000000
# 6 0.000000 0.000000 0.000000 -0.060089 0.000000 -0.051078
#
#
# Mechanical properties :
#
#
# Convention : Reuss Voigt Hill
#
# Bulk Modulus (GPa) = 25.49961 60.70334 43.10147
# Shear Modulus (GPa) = 20.59438 21.46042 21.02740
#
# Velocity S-wave (km/s) = 2.99706 3.05943 3.02840
# Velocity P-wave (km/s) = 4.80607 6.24149 5.57021
#
# Compressibility (1/GPa) = 0.03921629
#
# Stress axis : x y z
#
# Youngs Moduli (GPa) = 119.19624 31.86063 84.97051
#
# Poissons Ratio (x) = 0.14472 0.18044
# Poissons Ratio (y) = 0.54143 -0.04262
# Poissons Ratio (z) = 0.25312 -0.01598
#
# Static dielectric constant tensor:
#      x y z
#    x 1.926660 0.000000 0.016660 
#    y 0.000000 1.808330 0.000000 
#    z 0.016660 0.000000 1.963060 
# 
# From -- ./inp_files/7233.got.cif
#   From: 2010.05.17/outbox.cif.g08.bks.cpg/sg3_4_cif.got.tgz:7233.got - 2010.06.03 18:33:08.
