data_PCOD9112340
_publ_section_title
;
Structure prediction by ZEFSAII (Michael W. Deem and Ramdas Pophale) SiO2 
 PCOD9112340
Probable space group: P -1
;
_chemical_formula_sum "Si O2"
_cell_formula_units_Z 16
_cell_length_a 11.942157
_cell_length_b 9.362200
_cell_length_c 19.074176
_cell_angle_alpha 43.407370
_cell_angle_beta 143.056346
_cell_angle_gamma 111.033724
_cell_volume 743.128241
_symmetry_space_group_name_H-M "P -1"
_symmetry_group_IT_number 2
_symmetry_cell_setting 'triclinic'
loop_
_space_group_symop_operation_xyz
x,y,z
-x,-y,-z
loop_
_atom_site_type_symbol
_atom_site_label
_atom_site_fract_x
_atom_site_fract_y
_atom_site_fract_z
Si Si1 0.861435 0.332095 0.683685
Si Si2 0.221585 0.963946 0.159422
Si Si3 0.695275 0.476324 0.150973
Si Si4 0.788709 0.511292 0.424999
Si Si5 0.872825 0.733807 0.640918
Si Si6 0.888033 0.528818 0.007850
Si Si7 0.395764 0.706135 0.688917
Si Si8 0.359268 0.996878 0.068987
O O1 0.713460 0.235021 0.675759
O O2 0.821450 0.452619 0.544805
O O3 0.845910 0.525341 0.664986
O O4 0.110477 0.086846 0.889837
O O5 0.170448 0.215021 0.078151
O O6 0.378788 0.911619 0.190353
O O7 0.000000 0.000000 0.000000
O O8 0.689116 0.377119 0.258625
O O9 0.923731 0.294170 0.291357
O O10 0.500000 0.500000 0.000000
O O11 0.652454 0.747963 0.033741
O O12 0.728072 0.325826 0.426693
O O13 0.000000 0.500000 0.500000
O O14 0.566309 0.781598 0.208206
O O15 0.672117 0.013061 0.436409
O O16 0.951060 0.668185 0.783721
O O17 0.660846 0.538996 0.879628
O O18 0.000000 0.500000 0.000000
#
# Coordination Sequence:
#
# PCOD9112340 Si02
#       8
#     2   2   2   2   2   2   2   2
#     4  10  24  44  75 101 136 189 240 291 344 420
#     4  10  20  46  74 101 131 184 246 287 340 418
#     4  11  21  43  75  98 132 189 233 291 352 415
#     4  12  29  45  68 109 147 186 234 293 355 418
#     4  11  24  46  72 106 139 183 243 290 354 429
#     4  12  27  47  71 105 150 184 234 297 362 420
#     4  12  29  45  69 109 147 186 230 296 369 413
#     4  10  23  44  72  98 137 182 243 286 345 418
#
# _framework density 21.530605000000001
#
# number of rings (size 3 to 8) (size 9 to 14) (size 15 to 20)
#    0.000    1.000    5.000    1.875   10.500    3.000 
#    0.000    0.000    0.000    0.000    0.000    0.000 
#    0.000    0.000    0.000    0.000    0.000    0.000 
#
# Total GULP energy -89413.245121 kJ/mol
# GULP energy per Si atom -5588.327820 kJ/mol
# Density = 2.148160 g / cm^3
# Si number density = 21.530605 Si / 1000 Ang^3
#
#
#
# Elastic Constant Matrix: (Units=GPa)
#
#
# Indices 1 2 3 4 5 6 
#
# 1 123.3092 12.1426 40.9614 -0.9570 -24.3208 -11.5101
# 2 12.1426 51.7588 9.4325 5.5443 3.8254 -2.5427
# 3 40.9614 9.4325 87.0924 -7.6353 -4.9369 -8.8663
# 4 -0.9570 5.5443 -7.6353 30.1637 -5.6970 -2.8699
# 5 -24.3208 3.8254 -4.9369 -5.6970 28.6086 -6.6777
# 6 -11.5101 -2.5427 -8.8663 -2.8699 -6.6777 29.1492
#
#
#
# Elastic Compliance Matrix: (Units=1/GPa)
#
#
# Indices 1 2 3 4 5 6 
#
# 1 0.013020 -0.003273 -0.004053 0.003110 0.013041 0.006916
# 2 -0.003273 0.021597 -0.002047 -0.006308 -0.007852 -0.002451
# 3 -0.004053 -0.002047 0.014376 0.004371 0.000935 0.003238
# 4 0.003110 -0.006308 0.004371 0.039053 0.014140 0.009092
# 5 0.013041 -0.007852 0.000935 0.014140 0.054411 0.018606
# 6 0.006916 -0.002451 0.003238 0.009092 0.018606 0.042966
#
#
# Mechanical properties :
#
#
# Convention : Reuss Voigt Hill
#
# Bulk Modulus (GPa) = 33.06212 43.02595 38.04403
# Shear Modulus (GPa) = 23.33706 30.89258 27.11482
#
# Velocity S-wave (km/s) = 3.29584 3.79201 3.55260
# Velocity P-wave (km/s) = 5.46558 6.26095 5.87674
#
# Compressibility (1/GPa) = 0.03024609
#
# Stress axis : x y z
#
# Youngs Moduli (GPa) = 76.80374 46.30288 69.56021
#
# Poissons Ratio (x) = 0.15155 0.28194
# Poissons Ratio (y) = 0.25138 0.14241
# Poissons Ratio (z) = 0.31130 0.09480
#
# Static dielectric constant tensor:
#      x y z
#    x 1.742000 0.015690 -0.018870 
#    y 0.015690 1.790920 0.055590 
#    z -0.018870 0.055590 1.776390 
# 
# From -- ./inp_files/566565.got.cif
#   From: 2010.05.17/outbox.cif.g08.bks.cpg/sg2_284_cif.got.tgz:566565.got - 2010.06.03 11:33:40.
