data_PCOD9112536
_publ_section_title
;
Structure prediction by ZEFSAII (Michael W. Deem and Ramdas Pophale) SiO2 
 PCOD9112536
Probable space group: P 2
;
_chemical_formula_sum "Si O2"
_cell_formula_units_Z 14
_cell_length_a 19.675057
_cell_length_b 5.699009
_cell_length_c 9.062678
_cell_angle_alpha 90.000000
_cell_angle_beta 35.243085
_cell_angle_gamma 90.000000
_cell_volume 586.384926
_symmetry_space_group_name_H-M "P 2"
_symmetry_group_IT_number 3
_symmetry_cell_setting 'monoclinic'
loop_
_space_group_symop_operation_xyz
x,y,z
-x,y,-z
loop_
_atom_site_type_symbol
_atom_site_label
_atom_site_fract_x
_atom_site_fract_y
_atom_site_fract_z
Si Si1 0.177336 0.889370 0.363517
Si Si2 0.259068 0.808274 0.529233
Si Si3 0.547430 0.043508 0.639838
Si Si4 0.110208 0.511989 0.235978
Si Si5 0.728058 0.133020 0.073487
Si Si6 0.529603 0.547944 0.773546
Si Si7 0.069200 0.889771 0.091007
O O1 0.247223 0.781636 0.376341
O O2 0.131439 0.704678 0.324639
O O3 0.059084 0.993743 0.649018
O O4 0.255498 0.059390 0.124865
O O5 0.327390 0.588724 0.482334
O O6 0.349846 0.014211 0.415875
O O7 0.132398 0.866372 0.822438
O O8 0.613874 0.058549 0.364981
O O9 0.493552 0.300053 0.766928
O O10 0.485710 0.788653 0.771019
O O11 0.069236 0.626728 0.156663
O O12 0.000000 0.365745 0.500000
O O13 0.237834 0.403220 0.984224
O O14 0.836341 0.024464 0.975196
O O15 0.500000 0.554449 0.000000
#
# Coordination Sequence:
#
# PCOD9112536 Si02
#       7
#     2   2   2   2   2   2   2
#     4  10  19  30  49  79 116 153 178 227 273 329
#     4   9  20  33  52  84 113 144 187 229 285 326
#     4   9  21  35  62  85 107 140 183 231 275 334
#     4   9  17  28  47  71 104 152 193 223 260 314
#     4  10  18  31  50  77 112 145 196 220 271 320
#     4  10  20  39  63  89 105 137 187 239 286 328
#     4   9  17  32  49  74 111 150 194 226 261 322
#
# _framework density 23.875101000000001
#
# number of rings (size 3 to 8) (size 9 to 14) (size 15 to 20)
#    0.857    1.714    0.000    3.857    2.000    1.143 
#    0.000    0.000    0.000    6.000    0.000    0.000 
#    0.000    0.000    0.000    0.000    0.000    0.000 
#
# Total GULP energy -77955.499091 kJ/mol
# GULP energy per Si atom -5568.249935 kJ/mol
# Density = 2.382076 g / cm^3
# Si number density = 23.875101 Si / 1000 Ang^3
#
#
#
# Elastic Constant Matrix: (Units=GPa)
#
#
# Indices 1 2 3 4 5 6 
#
# 1 57.3041 -0.6648 31.1940 0.0000 -1.1410 0.0000
# 2 -0.6648 96.4564 44.4872 0.0000 -1.7712 0.0000
# 3 31.1940 44.4872 126.2670 0.0000 17.9952 0.0000
# 4 0.0000 0.0000 0.0000 26.8401 0.0000 -6.7955
# 5 -1.1410 -1.7712 17.9952 0.0000 37.6471 0.0000
# 6 0.0000 0.0000 0.0000 -6.7955 0.0000 7.8302
#
#
#
# Elastic Compliance Matrix: (Units=1/GPa)
#
#
# Indices 1 2 3 4 5 6 
#
# 1 0.021467 0.003522 -0.007148 0.000000 0.004233 0.000000
# 2 0.003522 0.013251 -0.006055 0.000000 0.003625 0.000000
# 3 -0.007148 -0.006055 0.012760 0.000000 -0.006601 0.000000
# 4 0.000000 0.000000 0.000000 0.047750 0.000000 0.041440
# 5 0.004233 0.003625 -0.006601 0.000000 0.030016 0.000000
# 6 0.000000 0.000000 0.000000 0.041440 0.000000 0.163674
#
#
# Mechanical properties :
#
#
# Convention : Reuss Voigt Hill
#
# Bulk Modulus (GPa) = 35.56688 47.78448 41.67568
# Shear Modulus (GPa) = 15.74057 28.13088 21.93573
#
# Velocity S-wave (km/s) = 2.57045 3.43629 3.03441
# Velocity P-wave (km/s) = 4.87227 5.98347 5.45623
#
# Compressibility (1/GPa) = 0.02811604
#
# Stress axis : x y z
#
# Youngs Moduli (GPa) = 46.58366 75.46550 78.37164
#
# Poissons Ratio (x) = -0.26581 0.56017
# Poissons Ratio (y) = -0.16408 0.47458
# Poissons Ratio (z) = 0.33296 0.45698
#
# Static dielectric constant tensor:
#      x y z
#    x 1.909430 0.000000 -0.059960 
#    y 0.000000 2.017260 0.000000 
#    z -0.059960 0.000000 1.975110 
# 
# From -- ./inp_files/9520.got.cif
#   From: 2010.05.17/outbox.cif.g08.bks.cpg/sg3_5_cif.got.tgz:9520.got - 2010.06.03 18:33:08.
