data_PCOD9112224
_publ_section_title
;
Structure prediction by ZEFSAII (Michael W. Deem and Ramdas Pophale) SiO2 
 PCOD9112224
Probable space group: P -1
;
_chemical_formula_sum "Si O2"
_cell_formula_units_Z 10
_cell_length_a 9.110338
_cell_length_b 9.575677
_cell_length_c 8.404031
_cell_angle_alpha 91.413437
_cell_angle_beta 115.280591
_cell_angle_gamma 39.715529
_cell_volume 360.299660
_symmetry_space_group_name_H-M "P -1"
_symmetry_group_IT_number 2
_symmetry_cell_setting 'triclinic'
loop_
_space_group_symop_operation_xyz
x,y,z
-x,-y,-z
loop_
_atom_site_type_symbol
_atom_site_label
_atom_site_fract_x
_atom_site_fract_y
_atom_site_fract_z
Si Si1 0.301442 0.597983 0.259811
Si Si2 0.642167 0.253164 0.993063
Si Si3 0.729497 0.039291 0.318069
Si Si4 0.028867 0.608638 0.638353
Si Si5 0.205716 0.220638 0.118534
O O1 0.500000 0.500000 0.500000
O O2 0.288586 0.748150 0.151782
O O3 0.508811 0.313436 0.297434
O O4 0.971564 0.770426 0.059548
O O5 0.359110 0.355683 0.855192
O O6 0.500000 0.500000 0.000000
O O7 0.848890 0.037655 0.219761
O O8 0.529016 0.042312 0.209180
O O9 0.997157 0.778370 0.534464
O O10 0.815569 0.781515 0.699158
O O11 0.000000 0.500000 0.500000
O O12 0.000000 0.500000 0.000000
#
# Coordination Sequence:
#
# PCOD9112224 Si02
#       5
#     2   2   2   2   2
#     4  10  22  42  71  97 134 171 214 271 331 388
#     4  10  21  43  64  95 138 164 218 274 317 383
#     4  10  23  44  70  94 133 174 215 271 327 377
#     4  12  25  41  70  98 130 176 222 264 325 389
#     4  10  20  45  64  94 136 167 219 277 309 390
#
# _framework density 27.754674999999999
#
# number of rings (size 3 to 8) (size 9 to 14) (size 15 to 20)
#    0.000    1.600    6.000    0.600    5.600    4.000 
#    0.000    3.000    0.000    0.000    0.000    0.000 
#    0.000    0.000    0.000    0.000    0.000    0.000 
#
# Total GULP energy -55761.084425 kJ/mol
# GULP energy per Si atom -5576.108443 kJ/mol
# Density = 2.769150 g / cm^3
# Si number density = 27.754675 Si / 1000 Ang^3
#
#
#
# Elastic Constant Matrix: (Units=GPa)
#
#
# Indices 1 2 3 4 5 6 
#
# 1 161.2003 18.2476 88.8713 9.7550 -18.5129 8.4781
# 2 18.2476 82.3071 59.7952 17.4745 -8.7925 27.3110
# 3 88.8713 59.7952 198.0819 -1.0816 -11.0154 10.2158
# 4 9.7550 17.4745 -1.0816 77.4840 22.4286 5.3198
# 5 -18.5129 -8.7925 -11.0154 22.4286 82.2158 -17.2986
# 6 8.4781 27.3110 10.2158 5.3198 -17.2986 33.7341
#
#
#
# Elastic Compliance Matrix: (Units=1/GPa)
#
#
# Indices 1 2 3 4 5 6 
#
# 1 0.008876 0.002555 -0.004577 -0.002208 0.001929 -0.001576
# 2 0.002555 0.023467 -0.007400 -0.004502 -0.000213 -0.016799
# 3 -0.004577 -0.007400 0.009129 0.002227 -0.000403 0.003819
# 4 -0.002208 -0.004502 0.002227 0.015910 -0.005388 -0.001746
# 5 0.001929 -0.000213 -0.000403 -0.005388 0.015838 0.008781
# 6 -0.001576 -0.016799 0.003819 -0.001746 0.008781 0.047261
#
#
# Mechanical properties :
#
#
# Convention : Reuss Voigt Hill
#
# Bulk Modulus (GPa) = 44.19608 86.15749 65.17678
# Shear Modulus (GPa) = 34.04452 56.99846 45.52149
#
# Velocity S-wave (km/s) = 3.50612 4.53664 4.05426
# Velocity P-wave (km/s) = 5.68761 7.65189 6.74167
#
# Compressibility (1/GPa) = 0.02262644
#
# Stress axis : x y z
#
# Youngs Moduli (GPa) = 112.66880 42.61366 109.54590
#
# Poissons Ratio (x) = -0.10888 0.50138
# Poissons Ratio (y) = -0.28787 0.81067
# Poissons Ratio (z) = 0.51567 0.31535
#
# Static dielectric constant tensor:
#      x y z
#    x 2.300010 -0.224860 0.031050 
#    y -0.224860 2.511200 0.056320 
#    z 0.031050 0.056320 2.153590 
# 
# From -- ./inp_files/144309.got.cif
#   From: 2010.05.17/outbox.cif.g08.bks.cpg/sg2_73_cif.got.tgz:144309.got - 2010.06.03 11:33:40.
