data_PCOD9112259
_publ_section_title
;
Structure prediction by ZEFSAII (Michael W. Deem and Ramdas Pophale) SiO2 
 PCOD9112259
Probable space group: P -1
;
_chemical_formula_sum "Si O2"
_cell_formula_units_Z 13
_cell_length_a 8.484596
_cell_length_b 13.184914
_cell_length_c 8.932510
_cell_angle_alpha 40.545160
_cell_angle_beta 126.204187
_cell_angle_gamma 129.886993
_cell_volume 487.603551
_symmetry_space_group_name_H-M "P -1"
_symmetry_group_IT_number 2
_symmetry_cell_setting 'triclinic'
loop_
_space_group_symop_operation_xyz
x,y,z
-x,-y,-z
loop_
_atom_site_type_symbol
_atom_site_label
_atom_site_fract_x
_atom_site_fract_y
_atom_site_fract_z
Si Si1 0.000000 0.000000 0.000000
Si Si2 0.329744 0.090127 0.810446
Si Si3 0.251686 0.952559 0.394162
Si Si4 0.062709 0.823711 0.749951
Si Si5 0.974514 0.386048 0.465943
Si Si6 0.660955 0.395920 0.756973
Si Si7 0.326372 0.486259 0.040105
O O1 0.175839 0.095683 0.132393
O O2 0.195871 0.060504 0.918066
O O3 0.473803 0.284703 0.670901
O O4 0.166364 0.003318 0.685891
O O5 0.500000 0.000000 0.000000
O O6 0.135987 0.859747 0.580007
O O7 0.117877 0.817347 0.337384
O O8 0.500000 0.000000 0.500000
O O9 0.192055 0.711957 0.011158
O O10 0.828245 0.702402 0.794185
O O11 0.809006 0.420348 0.224999
O O12 0.000000 0.500000 0.500000
O O13 0.191080 0.446114 0.431002
O O14 0.600178 0.430453 0.850475
O O15 0.500000 0.500000 0.000000
#
# Coordination Sequence:
#
# PCOD9112259 Si02
#       7
#     1   2   2   2   2   2   2
#     4  12  30  46  76 114 148 200 266 306 370 466
#     4  10  24  43  72 104 147 191 245 311 371 440
#     4  12  26  48  77 106 153 198 254 313 380 447
#     4  10  21  44  70 100 142 194 236 300 380 444
#     4  11  25  44  70 105 146 193 244 310 383 447
#     4  10  20  45  71 100 143 195 240 305 379 446
#     4  11  23  42  72 106 143 189 248 302 379 453
#
# _framework density 26.661003999999998
#
# number of rings (size 3 to 8) (size 9 to 14) (size 15 to 20)
#    0.000    1.231    3.077    2.769   10.769    0.615 
#    2.769    1.538    0.000    0.000    0.000    0.000 
#    0.000    0.000    0.000    0.000    0.000    0.000 
#
# Total GULP energy -72612.506557 kJ/mol
# GULP energy per Si atom -5585.577427 kJ/mol
# Density = 2.660032 g / cm^3
# Si number density = 26.661004 Si / 1000 Ang^3
#
#
#
# Elastic Constant Matrix: (Units=GPa)
#
#
# Indices 1 2 3 4 5 6 
#
# 1 178.1290 77.8239 26.5158 -7.5997 -9.4790 25.9820
# 2 77.8239 214.8880 44.8872 5.3586 -30.3410 9.0383
# 3 26.5158 44.8872 98.1170 -0.0727 -10.0202 16.2322
# 4 -7.5997 5.3586 -0.0727 46.6330 8.2421 -4.7779
# 5 -9.4790 -30.3410 -10.0202 8.2421 49.2777 5.0218
# 6 25.9820 9.0383 16.2322 -4.7779 5.0218 53.1670
#
#
#
# Elastic Compliance Matrix: (Units=1/GPa)
#
#
# Indices 1 2 3 4 5 6 
#
# 1 0.007206 -0.002458 -0.000356 0.001180 -0.000104 -0.002879
# 2 -0.002458 0.006468 -0.001991 -0.001718 0.003368 0.000237
# 3 -0.000356 -0.001991 0.011902 -0.000420 0.001532 -0.003304
# 4 0.001180 -0.001718 -0.000420 0.022960 -0.004999 0.002379
# 5 -0.000104 0.003368 0.001532 -0.004999 0.023871 -0.003694
# 6 -0.002879 0.000237 -0.003304 0.002379 -0.003694 0.021747
#
#
# Mechanical properties :
#
#
# Convention : Reuss Voigt Hill
#
# Bulk Modulus (GPa) = 62.63967 87.73200 75.18584
# Shear Modulus (GPa) = 45.83519 52.60936 49.22227
#
# Velocity S-wave (km/s) = 4.15080 4.44697 4.30144
# Velocity P-wave (km/s) = 6.82042 7.70359 7.27542
#
# Compressibility (1/GPa) = 0.01596432
#
# Stress axis : x y z
#
# Youngs Moduli (GPa) = 138.78081 154.60218 84.02005
#
# Poissons Ratio (x) = 0.38004 0.02993
# Poissons Ratio (y) = 0.34115 0.16731
# Poissons Ratio (z) = 0.04943 0.30787
#
# Static dielectric constant tensor:
#      x y z
#    x 2.182740 -0.000020 0.097530 
#    y -0.000020 2.124880 0.148880 
#    z 0.097530 0.148880 1.772150 
# 
# From -- ./inp_files/156416.got.cif
#   From: 2010.05.17/outbox.cif.g08.bks.cpg/sg2_79_cif.got.tgz:156416.got - 2010.06.03 11:33:40.
