data_PCOD9112847
_publ_section_title
;
Structure prediction by ZEFSAII (Michael W. Deem and Ramdas Pophale) SiO2 
 PCOD9112847
Probable space group: P 2
;
_chemical_formula_sum "Si O2"
_cell_formula_units_Z 15
_cell_length_a 8.643255
_cell_length_b 6.405482
_cell_length_c 16.182155
_cell_angle_alpha 90.000000
_cell_angle_beta 129.360418
_cell_angle_gamma 90.000000
_cell_volume 692.694199
_symmetry_space_group_name_H-M "P 2"
_symmetry_group_IT_number 3
_symmetry_cell_setting 'monoclinic'
loop_
_space_group_symop_operation_xyz
x,y,z
-x,y,-z
loop_
_atom_site_type_symbol
_atom_site_label
_atom_site_fract_x
_atom_site_fract_y
_atom_site_fract_z
Si Si1 0.711269 0.860360 0.929494
Si Si2 0.080974 0.685051 0.322031
Si Si3 0.731962 0.030717 0.207658
Si Si4 0.983891 0.303558 0.403414
Si Si5 0.943956 0.167195 0.128690
Si Si6 0.653803 0.988978 0.486459
Si Si7 0.713724 0.906211 0.740262
Si Si8 0.000000 0.485491 0.000000
O O1 0.729121 0.937388 0.842064
O O2 0.803450 0.629069 0.949531
O O3 0.483580 0.921947 0.873430
O O4 0.851627 0.980393 0.041440
O O5 0.024425 0.469137 0.344737
O O6 0.179593 0.703347 0.264099
O O7 0.251239 0.789503 0.436631
O O8 0.889432 0.838419 0.258457
O O9 0.779656 0.182786 0.145689
O O10 0.788859 0.170112 0.307779
O O11 0.164894 0.139447 0.470985
O O12 0.000000 0.407672 0.500000
O O13 0.145498 0.094277 0.244106
O O14 0.998659 0.344726 0.081970
O O15 0.500000 0.089236 0.500000
O O16 0.513791 0.921225 0.364093
#
# Coordination Sequence:
#
# PCOD9112847 Si02
#       8
#     2   2   2   2   2   2   2   1
#     4  12  23  43  66 101 132 179 225 290 342 412
#     4   9  22  41  60  95 130 176 224 285 338 409
#     4  10  25  43  69  93 140 187 221 273 360 410
#     4  11  23  41  64  96 138 175 228 282 335 413
#     4  11  23  46  65  97 140 177 228 290 348 409
#     4   9  20  40  61  90 125 172 217 276 337 400
#     4  10  19  41  66  88 137 176 224 278 356 404
#     4  12  24  42  74 100 138 172 242 296 334 404
#
# _framework density 21.654578999999998
#
# number of rings (size 3 to 8) (size 9 to 14) (size 15 to 20)
#    0.000    1.600    2.667    2.000    1.867    5.867 
#    4.800    1.333    0.000    0.000    0.000    0.000 
#    0.000    0.000    0.000    0.000    0.000    0.000 
#
# Total GULP energy -83569.173238 kJ/mol
# GULP energy per Si atom -5571.278216 kJ/mol
# Density = 2.160529 g / cm^3
# Si number density = 21.654579 Si / 1000 Ang^3
#
#
#
# Elastic Constant Matrix: (Units=GPa)
#
#
# Indices 1 2 3 4 5 6 
#
# 1 85.4095 36.2245 46.8994 0.0000 3.5484 0.0000
# 2 36.2245 71.6408 25.5050 0.0000 6.5751 0.0000
# 3 46.8994 25.5050 114.1969 0.0000 19.1790 0.0000
# 4 0.0000 0.0000 0.0000 17.7574 0.0000 -9.9188
# 5 3.5484 6.5751 19.1790 0.0000 42.9778 0.0000
# 6 0.0000 0.0000 0.0000 -9.9188 0.0000 26.4197
#
#
#
# Elastic Compliance Matrix: (Units=1/GPa)
#
#
# Indices 1 2 3 4 5 6 
#
# 1 0.018049 -0.007130 -0.006219 0.000000 0.002376 0.000000
# 2 -0.007130 0.018012 -0.000790 0.000000 -0.001814 0.000000
# 3 -0.006219 -0.000790 0.012303 0.000000 -0.004856 0.000000
# 4 0.000000 0.000000 0.000000 0.071258 0.000000 0.026752
# 5 0.002376 -0.001814 -0.004856 0.000000 0.025516 0.000000
# 6 0.000000 0.000000 0.000000 0.026752 0.000000 0.047894
#
#
# Mechanical properties :
#
#
# Convention : Reuss Voigt Hill
#
# Bulk Modulus (GPa) = 49.78775 54.27832 52.03303
# Shear Modulus (GPa) = 21.92952 28.27221 25.10086
#
# Velocity S-wave (km/s) = 3.18574 3.61723 3.40832
# Velocity P-wave (km/s) = 6.04761 6.52424 6.29044
#
# Compressibility (1/GPa) = 0.02008526
#
# Stress axis : x y z
#
# Youngs Moduli (GPa) = 55.40609 55.52008 81.28270
#
# Poissons Ratio (x) = 0.39587 0.50549
# Poissons Ratio (y) = 0.39505 0.06419
# Poissons Ratio (z) = 0.34456 0.04385
#
# Static dielectric constant tensor:
#      x y z
#    x 1.885760 0.000000 -0.023900 
#    y 0.000000 1.833960 0.000000 
#    z -0.023900 0.000000 1.822670 
# 
# From -- ./inp_files/14873.got.cif
#   From: 2010.05.17/outbox.cif.g08.bks.cpg/sg3_8_cif.got.tgz:14873.got - 2010.06.03 18:33:08.
