data_PCOD9112554
_publ_section_title
;
Structure prediction by ZEFSAII (Michael W. Deem and Ramdas Pophale) SiO2 
 PCOD9112554
Probable space group: P 2
;
_chemical_formula_sum "Si O2"
_cell_formula_units_Z 10
_cell_length_a 7.546423
_cell_length_b 11.486987
_cell_length_c 9.090711
_cell_angle_alpha 90.000000
_cell_angle_beta 146.075361
_cell_angle_gamma 90.000000
_cell_volume 439.803515
_symmetry_space_group_name_H-M "P 2"
_symmetry_group_IT_number 3
_symmetry_cell_setting 'monoclinic'
loop_
_space_group_symop_operation_xyz
x,y,z
-x,y,-z
loop_
_atom_site_type_symbol
_atom_site_label
_atom_site_fract_x
_atom_site_fract_y
_atom_site_fract_z
Si Si1 0.733889 0.317640 0.448010
Si Si2 0.239269 0.200884 0.949810
Si Si3 0.062808 0.942967 0.870440
Si Si4 0.621828 0.558711 0.252789
Si Si5 0.674669 0.810353 0.367910
O O1 0.460425 0.221048 0.243288
O O2 0.564174 0.441152 0.304619
O O3 0.000000 0.307365 0.500000
O O4 0.957957 0.294748 0.740880
O O5 0.087752 0.074344 0.830302
O O6 0.500000 0.216226 0.000000
O O7 0.410823 0.885650 0.103508
O O8 0.000000 0.946674 0.000000
O O9 0.797527 0.868623 0.602757
O O10 0.534872 0.679143 0.273394
O O11 0.000000 0.561634 0.500000
O O12 0.500000 0.553407 0.000000
O O13 0.000000 0.807824 0.500000
#
# Coordination Sequence:
#
# PCOD9112554 Si02
#       5
#     2   2   2   2   2
#     4   9  17  30  53  84 113 139 180 237 290 335
#     4  10  19  33  55  82 111 148 191 234 280 342
#     4  12  25  40  58  84 123 161 196 243 297 346
#     4  10  18  32  56  87 117 143 183 242 296 339
#     4  11  22  39  63  89 115 153 202 244 287 348
#
# _framework density 22.737427
#
# number of rings (size 3 to 8) (size 9 to 14) (size 15 to 20)
#    0.000    1.600    0.000    9.000    0.000    1.600 
#    0.000    0.000    0.000    7.200    0.000    0.000 
#    0.000    0.000    0.000    0.000    0.000    0.000 
#
# Total GULP energy -55799.537551 kJ/mol
# GULP energy per Si atom -5579.953755 kJ/mol
# Density = 2.268568 g / cm^3
# Si number density = 22.737427 Si / 1000 Ang^3
#
#
#
# Elastic Constant Matrix: (Units=GPa)
#
#
# Indices 1 2 3 4 5 6 
#
# 1 19.2616 -13.6004 25.7996 0.0000 8.0518 0.0000
# 2 -13.6004 128.0351 80.8556 0.0000 16.8346 0.0000
# 3 25.7996 80.8556 176.0966 0.0000 -3.7771 0.0000
# 4 0.0000 0.0000 0.0000 35.3103 0.0000 -6.6049
# 5 8.0518 16.8346 -3.7771 0.0000 6.5608 0.0000
# 6 0.0000 0.0000 0.0000 -6.6049 0.0000 -11.8888
#
#
#
# Elastic Compliance Matrix: (Units=1/GPa)
#
#
# Indices 1 2 3 4 5 6 
#
# 1 -0.015989 -0.021251 0.013862 0.000000 0.082132 0.000000
# 2 -0.021251 -0.001719 0.004614 0.000000 0.033149 0.000000
# 3 0.013862 0.004614 0.000922 0.000000 -0.028321 0.000000
# 4 0.000000 0.000000 0.000000 0.025654 0.000000 -0.014252
# 5 0.082132 0.033149 -0.028321 0.000000 -0.049740 0.000000
# 6 0.000000 0.000000 0.000000 -0.014252 0.000000 -0.076195
#
#
# Mechanical properties :
#
#
# Convention : Reuss Voigt Hill
#
# Bulk Modulus (GPa) = -44.76805 56.61142 5.92169
# Shear Modulus (GPa) = -42.03038 21.35237 -10.33900
#
# Velocity S-wave (km/s) = -4.30410 3.06777 -2.13471
# Velocity P-wave (km/s) = 6.66575 6.12375 1.86171
#
# Compressibility (1/GPa) = -0.02233736
#
# Stress axis : x y z
#
# Youngs Moduli (GPa) = -62.54425 -581.58921 1084.76840
#
# Poissons Ratio (x) = -12.35954 -15.03682
# Poissons Ratio (y) = -1.32915 -5.00511
# Poissons Ratio (z) = 0.86697 2.68345
#
# Static dielectric constant tensor:
#      x y z
#    x 1.881800 0.000000 -0.037880 
#    y 0.000000 1.944610 0.000000 
#    z -0.037880 0.000000 1.817920 
# 
# From -- ./inp_files/5684.got.cif
#   From: 2010.05.17/outbox.cif.g08.bks.cpg/sg3_3_cif.got.tgz:5684.got - 2010.06.03 18:33:08.
