data_PCOD9112657
_publ_section_title
;
Structure prediction by ZEFSAII (Michael W. Deem and Ramdas Pophale) SiO2 
 PCOD9112657
Probable space group: P 2
;
_chemical_formula_sum "Si O2"
_cell_formula_units_Z 14
_cell_length_a 8.029890
_cell_length_b 16.734984
_cell_length_c 6.806091
_cell_angle_alpha 90.000000
_cell_angle_beta 40.577362
_cell_angle_gamma 90.000000
_cell_volume 594.925667
_symmetry_space_group_name_H-M "P 2"
_symmetry_group_IT_number 3
_symmetry_cell_setting 'monoclinic'
loop_
_space_group_symop_operation_xyz
x,y,z
-x,y,-z
loop_
_atom_site_type_symbol
_atom_site_label
_atom_site_fract_x
_atom_site_fract_y
_atom_site_fract_z
Si Si1 0.087668 0.423330 0.152227
Si Si2 0.081681 0.756331 0.144521
Si Si3 0.225760 0.925352 0.137194
Si Si4 0.769261 0.098828 0.864506
Si Si5 0.415229 0.682918 0.345518
Si Si6 0.416628 0.501866 0.344181
Si Si7 0.270764 0.261560 0.863453
O O1 0.813878 0.440559 0.495605
O O2 0.309215 0.486691 0.000920
O O3 0.231292 0.338026 0.040256
O O4 0.000000 0.429958 0.000000
O O5 0.181686 0.846845 0.048407
O O6 0.813182 0.744410 0.494934
O O7 0.317529 0.701807 0.999198
O O8 0.000000 0.730357 0.000000
O O9 0.000000 0.923925 0.500000
O O10 0.193665 0.012508 0.064934
O O11 0.500000 0.918938 0.000000
O O12 0.000000 0.111240 0.500000
O O13 0.500000 0.087643 0.000000
O O14 0.720606 0.176860 0.037231
O O15 0.500000 0.690616 0.500000
O O16 0.326004 0.592280 0.397807
O O17 0.500000 0.492774 0.500000
O O18 0.500000 0.272820 0.500000
O O19 0.000000 0.259018 0.000000
#
# Coordination Sequence:
#
# PCOD9112657 Si02
#       7
#     2   2   2   2   2   2   2
#     4   9  16  26  43  71 106 137 169 213 262 311
#     4  10  19  32  51  78 107 133 169 221 269 307
#     4  10  21  38  57  77 103 139 182 219 261 328
#     4  10  22  40  59  80 109 147 187 223 269 337
#     4   9  17  28  45  73 107 137 170 213 260 311
#     4   9  15  25  42  67 103 141 169 204 259 313
#     4  11  21  35  56  86 116 140 179 233 281 321
#
# _framework density 23.532350000000001
#
# number of rings (size 3 to 8) (size 9 to 14) (size 15 to 20)
#    0.000    2.286    0.000    4.714    0.000    4.000 
#    0.000    2.143    0.000    0.000    0.000   20.000 
#    0.000    0.000    0.000    0.000    0.000    0.000 
#
# Total GULP energy -78141.081213 kJ/mol
# GULP energy per Si atom -5581.505801 kJ/mol
# Density = 2.347879 g / cm^3
# Si number density = 23.532350 Si / 1000 Ang^3
#
#
#
# Elastic Constant Matrix: (Units=GPa)
#
#
# Indices 1 2 3 4 5 6 
#
# 1 43.3143 14.3848 36.3160 0.0000 -16.7931 0.0000
# 2 14.3848 130.8320 44.5661 0.0000 -35.4153 0.0000
# 3 36.3160 44.5661 164.8687 0.0000 -24.8684 0.0000
# 4 0.0000 0.0000 0.0000 35.7265 0.0000 -4.2431
# 5 -16.7931 -35.4153 -24.8684 0.0000 40.9635 0.0000
# 6 0.0000 0.0000 0.0000 -4.2431 0.0000 25.4617
#
#
#
# Elastic Compliance Matrix: (Units=1/GPa)
#
#
# Indices 1 2 3 4 5 6 
#
# 1 0.031550 0.001357 -0.005712 0.000000 0.010640 0.000000
# 2 0.001357 0.010404 -0.001839 0.000000 0.008434 0.000000
# 3 -0.005712 -0.001839 0.007956 0.000000 0.000899 0.000000
# 4 0.000000 0.000000 0.000000 0.028556 0.000000 0.004759
# 5 0.010640 0.008434 0.000899 0.000000 0.036612 0.000000
# 6 0.000000 0.000000 0.000000 0.004759 0.000000 0.040068
#
#
# Mechanical properties :
#
#
# Convention : Reuss Voigt Hill
#
# Bulk Modulus (GPa) = 26.65044 58.83876 42.74460
# Shear Modulus (GPa) = 27.77162 36.68021 32.22591
#
# Velocity S-wave (km/s) = 3.43905 3.95234 3.70460
# Velocity P-wave (km/s) = 5.20760 6.77389 6.04172
#
# Compressibility (1/GPa) = 0.03752283
#
# Stress axis : x y z
#
# Youngs Moduli (GPa) = 31.69546 96.11904 125.68856
#
# Poissons Ratio (x) = -0.13041 0.71787
# Poissons Ratio (y) = -0.04300 0.23113
# Poissons Ratio (z) = 0.18103 0.17675
#
# Static dielectric constant tensor:
#      x y z
#    x 1.923290 0.000000 0.075320 
#    y 0.000000 1.970960 0.000000 
#    z 0.075320 0.000000 1.899880 
# 
# From -- ./inp_files/6170.got.cif
#   From: 2010.05.17/outbox.cif.g08.bks.cpg/sg3_4_cif.got.tgz:6170.got - 2010.06.03 18:33:08.
