data_PCOD9112240
_publ_section_title
;
Structure prediction by ZEFSAII (Michael W. Deem and Ramdas Pophale) SiO2 
 PCOD9112240
Probable space group: P -1
;
_chemical_formula_sum "Si O2"
_cell_formula_units_Z 14
_cell_length_a 5.293683
_cell_length_b 22.226458
_cell_length_c 10.266150
_cell_angle_alpha 148.971180
_cell_angle_beta 69.210557
_cell_angle_gamma 109.295002
_cell_volume 581.235995
_symmetry_space_group_name_H-M "P -1"
_symmetry_group_IT_number 2
_symmetry_cell_setting 'triclinic'
loop_
_space_group_symop_operation_xyz
x,y,z
-x,-y,-z
loop_
_atom_site_type_symbol
_atom_site_label
_atom_site_fract_x
_atom_site_fract_y
_atom_site_fract_z
Si Si1 0.731564 0.085616 0.309658
Si Si2 0.133215 0.393886 0.709733
Si Si3 0.760246 0.490163 0.347843
Si Si4 0.731243 0.821785 0.554756
Si Si5 0.530320 0.843330 0.025264
Si Si6 0.082143 0.709790 0.687411
Si Si7 0.832692 0.221419 0.788278
O O1 0.546551 0.117961 0.285425
O O2 0.698271 0.191552 0.617754
O O3 0.052682 0.097304 0.253065
O O4 0.621469 0.968746 0.183893
O O5 0.315180 0.456721 0.681421
O O6 0.265246 0.306843 0.623445
O O7 0.918983 0.317350 0.517537
O O8 0.000000 0.500000 0.000000
O O9 0.500000 0.500000 0.500000
O O10 0.002353 0.580441 0.518591
O O11 0.840245 0.357974 0.072442
O O12 0.869935 0.819576 0.380779
O O13 0.336384 0.844487 0.189426
O O14 0.809379 0.781170 0.890498
O O15 0.342994 0.771869 0.820805
#
# Coordination Sequence:
#
# PCOD9112240 Si02
#       7
#     2   2   2   2   2   2   2
#     4  10  24  41  67 100 135 182 236 273 340 395
#     4  10  20  46  70 102 137 183 226 282 340 416
#     4  10  20  45  68 103 138 174 224 289 346 406
#     4  10  22  41  65 100 129 178 232 277 326 406
#     4  12  23  45  65 100 141 181 221 294 329 415
#     4  10  26  40  69  97 138 174 227 272 360 390
#     4  10  22  39  70  99 135 177 237 272 348 400
#
# _framework density 24.086601000000002
#
# number of rings (size 3 to 8) (size 9 to 14) (size 15 to 20)
#    1.714    0.000    2.857    1.286    2.000    2.286 
#    5.143    6.429    0.000    0.000    0.000    0.000 
#    0.000    0.000    0.000    0.000    0.000    0.000 
#
# Total GULP energy -78189.414225 kJ/mol
# GULP energy per Si atom -5584.958159 kJ/mol
# Density = 2.403178 g / cm^3
# Si number density = 24.086601 Si / 1000 Ang^3
#
#
#
# Elastic Constant Matrix: (Units=GPa)
#
#
# Indices 1 2 3 4 5 6 
#
# 1 125.2654 9.6950 9.8499 10.6457 -4.1779 15.5678
# 2 9.6950 124.0490 10.0483 8.8512 -10.2289 6.6683
# 3 9.8499 10.0483 73.3921 4.8230 8.5936 13.3367
# 4 10.6457 8.8512 4.8230 55.0440 -0.2390 6.4792
# 5 -4.1779 -10.2289 8.5936 -0.2390 20.8143 1.4866
# 6 15.5678 6.6683 13.3367 6.4792 1.4866 27.0775
#
#
#
# Elastic Compliance Matrix: (Units=1/GPa)
#
#
# Indices 1 2 3 4 5 6 
#
# 1 0.008774 -0.000136 -0.000508 -0.001076 0.002222 -0.004625
# 2 -0.000136 0.008747 -0.001437 -0.001070 0.004952 -0.001384
# 3 -0.000508 -0.001437 0.015948 -0.000303 -0.006914 -0.006757
# 4 -0.001076 -0.001070 -0.000303 0.018986 -0.000149 -0.003503
# 5 0.002222 0.004952 -0.006914 -0.000149 0.053920 -0.002016
# 6 -0.004625 -0.001384 -0.006757 -0.003503 -0.002016 0.044208
#
#
# Mechanical properties :
#
#
# Convention : Reuss Voigt Hill
#
# Bulk Modulus (GPa) = 34.12195 42.43254 38.27725
# Shear Modulus (GPa) = 30.39258 40.12806 35.26032
#
# Velocity S-wave (km/s) = 3.55604 4.08608 3.83024
# Velocity P-wave (km/s) = 5.57294 6.31794 5.95710
#
# Compressibility (1/GPa) = 0.02930665
#
# Stress axis : x y z
#
# Youngs Moduli (GPa) = 113.97423 114.31945 62.70509
#
# Poissons Ratio (x) = 0.01554 0.03185
# Poissons Ratio (y) = 0.01549 0.09013
# Poissons Ratio (z) = 0.05788 0.16432
#
# Static dielectric constant tensor:
#      x y z
#    x 1.986080 0.011600 -0.004070 
#    y 0.011600 1.961670 -0.025630 
#    z -0.004070 -0.025630 1.951790 
# 
# From -- ./inp_files/371085.got.cif
#   From: 2010.05.17/outbox.cif.g08.bks.cpg/sg2_186_cif.got.tgz:371085.got - 2010.06.03 11:33:40.
