data_PCOD9112975
_publ_section_title
;
Structure prediction by ZEFSAII (Michael W. Deem and Ramdas Pophale) SiO2 
 PCOD9112975
Probable space group: P 2
;
_chemical_formula_sum "Si O2"
_cell_formula_units_Z 16
_cell_length_a 7.668057
_cell_length_b 19.303897
_cell_length_c 9.137264
_cell_angle_alpha 90.000000
_cell_angle_beta 145.788888
_cell_angle_gamma 90.000000
_cell_volume 760.450852
_symmetry_space_group_name_H-M "P 2"
_symmetry_group_IT_number 3
_symmetry_cell_setting 'monoclinic'
loop_
_space_group_symop_operation_xyz
x,y,z
-x,y,-z
loop_
_atom_site_type_symbol
_atom_site_label
_atom_site_fract_x
_atom_site_fract_y
_atom_site_fract_z
Si Si1 0.371656 0.864860 0.749358
Si Si2 0.730893 0.232315 0.018637
Si Si3 0.354493 0.614662 0.740179
Si Si4 0.789451 0.389946 0.088741
Si Si5 0.370092 0.019940 0.747515
Si Si6 0.765320 0.156946 0.478248
Si Si7 0.634590 0.738246 0.753345
Si Si8 0.602001 0.472683 0.406925
O O1 0.484633 0.807245 0.716241
O O2 0.000000 0.863731 0.500000
O O3 0.487311 0.942990 0.791515
O O4 0.500000 0.848878 0.000000
O O5 0.502759 0.213455 0.728505
O O6 0.500000 0.228661 0.000000
O O7 0.859950 0.309781 0.104573
O O8 0.006424 0.177073 0.232466
O O9 0.553829 0.672905 0.798223
O O10 0.350910 0.542868 0.650011
O O11 0.000000 0.640228 0.500000
O O12 0.500000 0.602250 0.000000
O O13 0.082255 0.428502 0.361999
O O14 0.500000 0.391667 0.000000
O O15 0.662874 0.428521 0.857670
O O16 0.401707 0.082553 0.654519
O O17 0.000000 0.011727 0.500000
O O18 0.500000 0.039090 0.000000
O O19 0.000000 0.159780 0.500000
O O20 0.500000 0.724927 0.500000
O O21 0.000000 0.747732 0.000000
O O22 0.500000 0.489818 0.500000
#
# Coordination Sequence:
#
# PCOD9112975 Si02
#       8
#     2   2   2   2   2   2   2   2
#     4  10  20  37  59  87 121 160 201 242 289 347
#     4   9  17  27  46  74 109 145 185 238 293 341
#     4  12  25  44  68  91 118 155 194 239 291 349
#     4  11  22  39  60  86 118 156 200 245 295 352
#     4   9  16  26  46  75 112 150 189 238 291 341
#     4   9  14  24  41  72 111 145 181 236 299 338
#     4  12  25  42  64  93 125 157 194 240 289 346
#     4  12  25  41  61  88 120 154 194 242 293 350
#
# _framework density 21.040150000000001
#
# number of rings (size 3 to 8) (size 9 to 14) (size 15 to 20)
#    0.000    1.500    0.000    7.875    0.000    3.000 
#    0.000    0.000    0.000    0.000    0.000    8.750 
#    0.000    0.000    0.000    0.000    0.000    0.000 
#
# Total GULP energy -89436.403501 kJ/mol
# GULP energy per Si atom -5589.775219 kJ/mol
# Density = 2.099226 g / cm^3
# Si number density = 21.040150 Si / 1000 Ang^3
#
#
#
# Elastic Constant Matrix: (Units=GPa)
#
#
# Indices 1 2 3 4 5 6 
#
# 1 57.4626 36.3395 26.3002 0.0000 -0.2833 0.0000
# 2 36.3395 142.6694 32.2923 0.0000 2.9384 0.0000
# 3 26.3002 32.2923 129.6764 0.0000 5.2987 0.0000
# 4 0.0000 0.0000 0.0000 40.2377 0.0000 5.8005
# 5 -0.2833 2.9384 5.2987 0.0000 30.5995 0.0000
# 6 0.0000 0.0000 0.0000 5.8005 0.0000 -18.5017
#
#
#
# Elastic Compliance Matrix: (Units=1/GPa)
#
#
# Indices 1 2 3 4 5 6 
#
# 1 0.022007 -0.004885 -0.003298 0.000000 0.001244 0.000000
# 2 -0.004885 0.008517 -0.001103 0.000000 -0.000672 0.000000
# 3 -0.003298 -0.001103 0.008714 0.000000 -0.001433 0.000000
# 4 0.000000 0.000000 0.000000 0.023778 0.000000 0.007455
# 5 0.001244 -0.000672 -0.001433 0.000000 0.033005 0.000000
# 6 0.000000 0.000000 0.000000 0.007455 0.000000 -0.051712
#
#
# Mechanical properties :
#
#
# Convention : Reuss Voigt Hill
#
# Bulk Modulus (GPa) = 48.38597 57.74137 53.06367
# Shear Modulus (GPa) = 71.66687 26.12554 48.89620
#
# Velocity S-wave (km/s) = 5.84259 3.52760 4.82596
# Velocity P-wave (km/s) = 8.28018 6.64040 7.50521
#
# Compressibility (1/GPa) = 0.02066715
#
# Stress axis : x y z
#
# Youngs Moduli (GPa) = 45.43963 117.41450 114.76407
#
# Poissons Ratio (x) = 0.57353 0.37847
# Poissons Ratio (y) = 0.22196 0.12655
# Poissons Ratio (z) = 0.14985 0.12948
#
# Static dielectric constant tensor:
#      x y z
#    x 1.763880 0.000000 -0.011770 
#    y 0.000000 1.770440 0.000000 
#    z -0.011770 0.000000 1.710410 
# 
# From -- ./inp_files/6329.got.cif
#   From: 2010.05.17/outbox.cif.g08.bks.cpg/sg3_4_cif.got.tgz:6329.got - 2010.06.03 18:33:08.
