data_PCOD9112139
_publ_section_title
;
Structure prediction by ZEFSAII (Michael W. Deem and Ramdas Pophale) SiO2 
 PCOD9112139
Probable space group: P -1
;
_chemical_formula_sum "Si O2"
_cell_formula_units_Z 16
_cell_length_a 8.256856
_cell_length_b 9.123477
_cell_length_c 10.622376
_cell_angle_alpha 85.420585
_cell_angle_beta 80.980249
_cell_angle_gamma 116.021608
_cell_volume 700.159701
_symmetry_space_group_name_H-M "P -1"
_symmetry_group_IT_number 2
_symmetry_cell_setting 'triclinic'
loop_
_space_group_symop_operation_xyz
x,y,z
-x,-y,-z
loop_
_atom_site_type_symbol
_atom_site_label
_atom_site_fract_x
_atom_site_fract_y
_atom_site_fract_z
Si Si1 0.289538 0.184205 0.604434
Si Si2 0.698483 0.893761 0.680418
Si Si3 0.958859 0.227567 0.754448
Si Si4 0.649327 0.107327 0.367835
Si Si5 0.419691 0.591932 0.280008
Si Si6 0.643451 0.189746 0.944440
Si Si7 0.003944 0.438507 0.365224
Si Si8 0.491961 0.619677 0.884153
O O1 0.252200 0.151600 0.460871
O O2 0.494017 0.326720 0.602368
O O3 0.143077 0.218767 0.696148
O O4 0.281951 0.020416 0.679260
O O5 0.482762 0.848804 0.702863
O O6 0.685307 0.780323 0.810210
O O7 0.816724 0.087464 0.683463
O O8 0.835995 0.183947 0.898244
O O9 0.004432 0.417680 0.724298
O O10 0.830087 0.265128 0.377902
O O11 0.500000 0.000000 0.500000
O O12 0.413277 0.732759 0.177581
O O13 0.537527 0.501465 0.222188
O O14 0.207161 0.455357 0.322147
O O15 0.641789 0.311902 0.045433
O O16 0.500000 0.000000 0.000000
O O17 0.000000 0.500000 0.500000
O O18 0.500000 0.500000 0.000000
#
# Coordination Sequence:
#
# PCOD9112139 Si02
#       8
#     2   2   2   2   2   2   2   2
#     4  11  24  41  64 106 140 166 223 272 347 405
#     4  11  22  41  71  94 141 178 214 276 344 400
#     4  11  24  40  67 102 131 178 224 279 333 399
#     4  10  22  40  61  95 137 178 211 259 333 409
#     4  10  24  42  66  99 135 175 224 279 329 396
#     4  10  20  44  71  89 127 184 231 271 334 388
#     4  11  22  38  64  94 139 174 214 268 334 405
#     4  10  23  41  72  95 126 182 235 273 327 393
#
# _framework density 22.851928999999998
#
# number of rings (size 3 to 8) (size 9 to 14) (size 15 to 20)
#    0.000    1.500    1.250    4.875    5.250    0.500 
#    0.000    1.250    5.500    0.000    0.000    0.000 
#    0.000    0.000    0.000    0.000    0.000    0.000 
#
# Total GULP energy -89112.054870 kJ/mol
# GULP energy per Si atom -5569.503429 kJ/mol
# Density = 2.279992 g / cm^3
# Si number density = 22.851929 Si / 1000 Ang^3
#
#
#
# Elastic Constant Matrix: (Units=GPa)
#
#
# Indices 1 2 3 4 5 6 
#
# 1 115.4831 57.8750 31.5414 11.9187 -39.9857 2.8679
# 2 57.8750 140.6296 27.8451 10.6503 -11.8591 18.4790
# 3 31.5414 27.8451 71.4885 -2.9323 -24.2125 -3.1722
# 4 11.9187 10.6503 -2.9323 39.8278 -2.4498 -8.9303
# 5 -39.9857 -11.8591 -24.2125 -2.4498 26.7404 11.7527
# 6 2.8679 18.4790 -3.1722 -8.9303 11.7527 46.3835
#
#
#
# Elastic Compliance Matrix: (Units=1/GPa)
#
#
# Indices 1 2 3 4 5 6 
#
# 1 0.028928 -0.006703 0.006329 -0.006128 0.051083 -0.012808
# 2 -0.006703 0.010455 -0.004107 -0.002127 -0.008270 -0.002346
# 3 0.006329 -0.004107 0.023068 0.001755 0.030724 -0.004624
# 4 -0.006128 -0.002127 0.001755 0.029153 -0.010021 0.009498
# 5 0.051083 -0.008270 0.030724 -0.010021 0.154035 -0.038721
# 6 -0.012808 -0.002346 -0.004624 0.009498 -0.038721 0.034609
#
#
# Mechanical properties :
#
#
# Convention : Reuss Voigt Hill
#
# Bulk Modulus (GPa) = 18.69545 62.45824 40.57685
# Shear Modulus (GPa) = 16.28458 36.61299 26.44878
#
# Velocity S-wave (km/s) = 2.67238 4.00707 3.40575
# Velocity P-wave (km/s) = 4.20963 6.98569 5.76719
#
# Compressibility (1/GPa) = 0.05348895
#
# Stress axis : x y z
#
# Youngs Moduli (GPa) = 34.56869 95.65148 43.35029
#
# Poissons Ratio (x) = 0.64119 -0.27438
# Poissons Ratio (y) = 0.23173 0.17803
# Poissons Ratio (z) = -0.21880 0.39281
#
# Static dielectric constant tensor:
#      x y z
#    x 1.962690 -0.069080 0.034050 
#    y -0.069080 1.888860 -0.036180 
#    z 0.034050 -0.036180 1.922720 
# 
# From -- ./inp_files/379142.got.cif
#   From: 2010.05.17/outbox.cif.g08.bks.cpg/sg2_190_cif.got.tgz:379142.got - 2010.06.03 11:33:40.
