data_PCOD9112221
_publ_section_title
;
Structure prediction by ZEFSAII (Michael W. Deem and Ramdas Pophale) SiO2 
 PCOD9112221
Probable space group: P -1
;
_chemical_formula_sum "Si O2"
_cell_formula_units_Z 12
_cell_length_a 21.345374
_cell_length_b 5.851752
_cell_length_c 12.529835
_cell_angle_alpha 132.458482
_cell_angle_beta 27.901998
_cell_angle_gamma 122.536456
_cell_volume 532.456190
_symmetry_space_group_name_H-M "P -1"
_symmetry_group_IT_number 2
_symmetry_cell_setting 'triclinic'
loop_
_space_group_symop_operation_xyz
x,y,z
-x,-y,-z
loop_
_atom_site_type_symbol
_atom_site_label
_atom_site_fract_x
_atom_site_fract_y
_atom_site_fract_z
Si Si1 0.838814 0.941623 0.607209
Si Si2 0.116025 0.025714 0.684907
Si Si3 0.863509 0.345145 0.904923
Si Si4 0.819257 0.265853 0.175936
Si Si5 0.316023 0.009968 0.554024
Si Si6 0.464086 0.158234 0.985110
O O1 0.853199 0.099570 0.519872
O O2 0.973437 0.672280 0.331356
O O3 0.844256 0.177904 0.770971
O O4 0.694714 0.833318 0.789487
O O5 0.153164 0.379759 0.742447
O O6 0.217542 0.876750 0.575190
O O7 0.956110 0.064115 0.956519
O O8 0.823646 0.167488 0.014916
O O9 0.765124 0.675247 0.170940
O O10 0.679362 0.234767 0.433734
O O11 0.446477 0.058190 0.306906
O O12 0.500000 0.500000 0.000000
O O13 0.500000 0.000000 0.000000
#
# Coordination Sequence:
#
# PCOD9112221 Si02
#       6
#     2   2   2   2   2   2
#     4  10  20  45  63  97 134 177 224 278 342 396
#     4   9  17  33  59  85 124 161 217 278 319 388
#     4   9  22  41  66  93 135 173 226 280 334 408
#     4   9  18  33  56  92 120 162 217 274 331 381
#     4  11  21  37  64  93 128 172 225 274 338 405
#     4  12  27  46  70 103 139 179 226 286 342 406
#
# _framework density 22.537064999999998
#
# number of rings (size 3 to 8) (size 9 to 14) (size 15 to 20)
#    0.000    2.000    1.667    2.500    2.333    2.000 
#    3.000    5.000    0.000    0.000    0.000    0.000 
#    0.000    0.000    0.000    0.000    0.000    0.000 
#
# Total GULP energy -66889.310299 kJ/mol
# GULP energy per Si atom -5574.109192 kJ/mol
# Density = 2.248577 g / cm^3
# Si number density = 22.537065 Si / 1000 Ang^3
#
#
#
# Elastic Constant Matrix: (Units=GPa)
#
#
# Indices 1 2 3 4 5 6 
#
# 1 95.3165 18.6651 43.5606 -4.2075 24.9270 2.8583
# 2 18.6651 57.1605 54.0867 -15.3134 -4.0297 -8.6834
# 3 43.5606 54.0867 153.3103 -18.6779 18.0167 -4.5711
# 4 -4.2075 -15.3134 -18.6779 47.1415 -0.6283 3.5950
# 5 24.9270 -4.0297 18.0167 -0.6283 40.7439 -5.9745
# 6 2.8583 -8.6834 -4.5711 3.5950 -5.9745 15.0412
#
#
#
# Elastic Compliance Matrix: (Units=1/GPa)
#
#
# Indices 1 2 3 4 5 6 
#
# 1 0.015655 -0.006764 -0.001124 -0.000509 -0.011467 -0.011654
# 2 -0.006764 0.037138 -0.011785 0.005142 0.016701 0.024549
# 3 -0.001124 -0.011785 0.011720 0.001076 -0.006504 -0.005869
# 4 -0.000509 0.005142 0.001076 0.023425 0.000406 -0.002046
# 5 -0.011467 0.016701 -0.006504 0.000406 0.039843 0.025573
# 6 -0.011654 0.024549 -0.005869 -0.002046 0.025573 0.091734
#
#
# Mechanical properties :
#
#
# Convention : Reuss Voigt Hill
#
# Bulk Modulus (GPa) = 39.73151 59.82357 49.77754
# Shear Modulus (GPa) = 18.70902 33.21698 25.96300
#
# Velocity S-wave (km/s) = 2.88435 3.84328 3.39781
# Velocity P-wave (km/s) = 5.36286 6.80416 6.12605
#
# Compressibility (1/GPa) = 0.02516894
#
# Stress axis : x y z
#
# Youngs Moduli (GPa) = 63.87643 26.92638 85.32343
#
# Poissons Ratio (x) = 0.18212 0.09590
# Poissons Ratio (y) = 0.43204 1.00551
# Poissons Ratio (z) = 0.07180 0.31732
#
# Static dielectric constant tensor:
#      x y z
#    x 1.851140 -0.090240 -0.005120 
#    y -0.090240 1.934300 0.030300 
#    z -0.005120 0.030300 1.906920 
# 
# From -- ./inp_files/65357.got.cif
#   From: 2010.05.17/outbox.cif.g08.bks.cpg/sg2_33_cif.got.tgz:65357.got - 2010.06.03 11:33:40.
