data_PCOD9112782
_publ_section_title
;
Structure prediction by ZEFSAII (Michael W. Deem and Ramdas Pophale) SiO2 
 PCOD9112782
Probable space group: P 2
;
_chemical_formula_sum "Si O2"
_cell_formula_units_Z 13
_cell_length_a 5.121392
_cell_length_b 13.421275
_cell_length_c 7.838113
_cell_angle_alpha 90.000000
_cell_angle_beta 91.228371
_cell_angle_gamma 90.000000
_cell_volume 538.633670
_symmetry_space_group_name_H-M "P 2"
_symmetry_group_IT_number 3
_symmetry_cell_setting 'monoclinic'
loop_
_space_group_symop_operation_xyz
x,y,z
-x,y,-z
loop_
_atom_site_type_symbol
_atom_site_label
_atom_site_fract_x
_atom_site_fract_y
_atom_site_fract_z
Si Si1 0.795607 0.664480 0.341219
Si Si2 0.011546 0.973543 0.290709
Si Si3 0.858616 0.194668 0.685611
Si Si4 0.000000 0.592466 0.000000
Si Si5 0.331332 0.314362 0.699529
Si Si6 0.500000 0.456193 0.000000
Si Si7 0.500000 0.480581 0.500000
Si Si8 0.490719 0.870598 0.698751
O O1 0.625494 0.564974 0.375289
O O2 0.606241 0.757708 0.309060
O O3 0.000000 0.679590 0.500000
O O4 0.957651 0.652438 0.171579
O O5 0.000000 0.970613 0.500000
O O6 0.107299 0.083444 0.244364
O O7 0.222043 0.892781 0.232286
O O8 0.728368 0.941033 0.222866
O O9 0.063179 0.271239 0.771871
O O10 0.000000 0.192186 0.500000
O O11 0.557285 0.229424 0.679180
O O12 0.250813 0.523983 0.026947
O O13 0.459840 0.387243 0.837257
O O14 0.287807 0.390732 0.538238
O O15 0.500000 0.901366 0.500000
#
# Coordination Sequence:
#
# PCOD9112782 Si02
#       8
#     2   2   2   1   2   1   1   2
#     4  12  26  43  71 102 140 189 231 289 343 417
#     4   9  19  34  60  93 131 160 213 283 336 395
#     4  11  21  38  62  98 127 167 221 283 339 400
#     4  12  28  46  68  98 146 184 242 278 348 402
#     4  12  24  39  65  92 134 177 222 277 337 406
#     4  12  26  46  60  94 136 192 226 284 330 416
#     4  12  24  40  66  94 136 180 226 278 342 392
#     4  10  19  36  61  95 127 169 216 274 338 400
#
# _framework density 24.135144
#
# number of rings (size 3 to 8) (size 9 to 14) (size 15 to 20)
#    0.000    0.923    3.846    4.154    2.154    2.462 
#    0.000    0.000    0.000    3.692    0.000    4.308 
#    0.000    0.000    0.000    0.000    0.000    0.000 
#
# Total GULP energy -72491.427044 kJ/mol
# GULP energy per Si atom -5576.263619 kJ/mol
# Density = 2.408021 g / cm^3
# Si number density = 24.135144 Si / 1000 Ang^3
#
#
#
# Elastic Constant Matrix: (Units=GPa)
#
#
# Indices 1 2 3 4 5 6 
#
# 1 146.6503 63.3783 23.5603 0.0000 -19.9889 0.0000
# 2 63.3783 152.0362 15.4075 0.0000 -8.6573 0.0000
# 3 23.5603 15.4075 70.6804 0.0000 -13.2456 0.0000
# 4 0.0000 0.0000 0.0000 -4.9167 0.0000 -8.7260
# 5 -19.9889 -8.6573 -13.2456 0.0000 19.5756 0.0000
# 6 0.0000 0.0000 0.0000 -8.7260 0.0000 46.3578
#
#
#
# Elastic Compliance Matrix: (Units=1/GPa)
#
#
# Indices 1 2 3 4 5 6 
#
# 1 0.009481 -0.003424 -0.001012 0.000000 0.007482 0.000000
# 2 -0.003424 0.008052 -0.000689 0.000000 -0.000401 0.000000
# 3 -0.001012 -0.000689 0.016474 0.000000 0.009809 0.000000
# 4 0.000000 0.000000 0.000000 -0.152457 0.000000 -0.028697
# 5 0.007482 -0.000401 0.009809 0.000000 0.065184 0.000000
# 6 0.000000 0.000000 0.000000 -0.028697 0.000000 0.016170
#
#
# Mechanical properties :
#
#
# Convention : Reuss Voigt Hill
#
# Bulk Modulus (GPa) = 42.09250 63.78435 52.93843
# Shear Modulus (GPa) = -264.15145 30.00472 -117.07337
#
# Velocity S-wave (km/s) = -10.47303 3.52972 -6.97228
# Velocity P-wave (km/s) = 11.34758 6.56485 6.54486
#
# Compressibility (1/GPa) = 0.02375720
#
# Stress axis : x y z
#
# Youngs Moduli (GPa) = 105.47412 124.19950 60.70197
#
# Poissons Ratio (x) = 0.42522 0.06142
# Poissons Ratio (y) = 0.36111 0.04183
# Poissons Ratio (z) = 0.10672 0.08559
#
# Static dielectric constant tensor:
#      x y z
#    x 1.999930 0.000000 -0.034670 
#    y 0.000000 1.897340 0.000000 
#    z -0.034670 0.000000 2.127020 
# 
# From -- ./inp_files/4320.got.cif
#   From: 2010.05.17/outbox.cif.g08.bks.cpg/sg3_3_cif.got.tgz:4320.got - 2010.06.03 18:33:08.
