data_PCOD9112955
_publ_section_title
;
Structure prediction by ZEFSAII (Michael W. Deem and Ramdas Pophale) SiO2 
 PCOD9112955
Probable space group: P 2
;
_chemical_formula_sum "Si O2"
_cell_formula_units_Z 13
_cell_length_a 9.709805
_cell_length_b 5.074657
_cell_length_c 10.705090
_cell_angle_alpha 90.000000
_cell_angle_beta 91.006014
_cell_angle_gamma 90.000000
_cell_volume 527.400547
_symmetry_space_group_name_H-M "P 2"
_symmetry_group_IT_number 3
_symmetry_cell_setting 'monoclinic'
loop_
_space_group_symop_operation_xyz
x,y,z
-x,y,-z
loop_
_atom_site_type_symbol
_atom_site_label
_atom_site_fract_x
_atom_site_fract_y
_atom_site_fract_z
Si Si1 0.219253 0.616500 0.112971
Si Si2 0.357248 0.644829 0.388418
Si Si3 0.786487 0.149982 0.550607
Si Si4 0.063307 0.124927 0.177035
Si Si5 0.798758 0.343496 0.291629
Si Si6 0.618951 0.853747 0.263563
Si Si7 0.500000 0.747859 0.000000
O O1 0.282720 0.639722 0.252602
O O2 0.140359 0.346328 0.100046
O O3 0.353500 0.611659 0.027417
O O4 0.108012 0.852977 0.112805
O O5 0.342264 0.346406 0.431656
O O6 0.509433 0.742478 0.361033
O O7 0.268638 0.853436 0.467689
O O8 0.872153 0.135982 0.680731
O O9 0.857459 0.287610 0.432442
O O10 0.907731 0.220460 0.196610
O O11 0.743595 0.636939 0.261709
O O12 0.670894 0.144558 0.291117
O O13 0.538128 0.885908 0.130562
#
# Coordination Sequence:
#
# PCOD9112955 Si02
#       7
#     2   2   2   2   2   2   1
#     4   9  20  38  66  85 112 153 201 245 286 351
#     4   9  19  36  57  88 116 154 203 241 288 338
#     4  10  20  36  61  85 122 165 192 231 287 349
#     4  10  21  40  59  90 125 158 190 231 288 357
#     4  12  24  38  58  91 125 157 195 236 287 355
#     4  11  25  40  61  87 119 153 199 256 293 343
#     4  10  24  48  68  86 110 154 202 250 314 342
#
# _framework density 24.649198999999999
#
# number of rings (size 3 to 8) (size 9 to 14) (size 15 to 20)
#    0.000    1.846    0.000    3.231    0.000    9.846 
#    0.000   10.769    0.000    0.000    0.000    0.000 
#    0.000    0.000    0.000    0.000    0.000    0.000 
#
# Total GULP energy -72604.881563 kJ/mol
# GULP energy per Si atom -5584.990889 kJ/mol
# Density = 2.459310 g / cm^3
# Si number density = 24.649199 Si / 1000 Ang^3
#
#
#
# Elastic Constant Matrix: (Units=GPa)
#
#
# Indices 1 2 3 4 5 6 
#
# 1 70.8817 -6.4382 24.4901 0.0000 -3.9586 0.0000
# 2 -6.4382 76.2599 6.0565 0.0000 19.0913 0.0000
# 3 24.4901 6.0565 97.6918 0.0000 6.9317 0.0000
# 4 0.0000 0.0000 0.0000 -16.6312 0.0000 -12.1084
# 5 -3.9586 19.0913 6.9317 0.0000 40.0620 0.0000
# 6 0.0000 0.0000 0.0000 -12.1084 0.0000 -4.1542
#
#
#
# Elastic Compliance Matrix: (Units=1/GPa)
#
#
# Indices 1 2 3 4 5 6 
#
# 1 0.015746 0.001237 -0.004143 0.000000 0.001683 0.000000
# 2 0.001237 0.015004 -0.000751 0.000000 -0.006898 0.000000
# 3 -0.004143 -0.000751 0.011466 0.000000 -0.002035 0.000000
# 4 0.000000 0.000000 0.000000 0.053586 0.000000 -0.156188
# 5 0.001683 -0.006898 -0.002035 0.000000 0.028767 0.000000
# 6 0.000000 0.000000 0.000000 -0.156188 0.000000 0.214528
#
#
# Mechanical properties :
#
#
# Convention : Reuss Voigt Hill
#
# Bulk Modulus (GPa) = 28.65221 32.56113 30.60667
# Shear Modulus (GPa) = 13.96473 18.57033 16.26753
#
# Velocity S-wave (km/s) = 2.38279 2.74776 2.57176
# Velocity P-wave (km/s) = 4.38400 4.82757 4.61112
#
# Compressibility (1/GPa) = 0.03490132
#
# Stress axis : x y z
#
# Youngs Moduli (GPa) = 63.50830 66.64905 87.21466
#
# Poissons Ratio (x) = -0.08244 0.36137
# Poissons Ratio (y) = -0.07856 0.06548
# Poissons Ratio (z) = 0.26314 0.05004
#
# Static dielectric constant tensor:
#      x y z
#    x 2.001350 0.000000 0.026890 
#    y 0.000000 1.862000 0.000000 
#    z 0.026890 0.000000 2.066120 
# 
# From -- ./inp_files/10225.got.cif
#   From: 2010.05.17/outbox.cif.g08.bks.cpg/sg3_6_cif.got.tgz:10225.got - 2010.06.03 18:33:08.
