data_PCOD9112634
_publ_section_title
;
Structure prediction by ZEFSAII (Michael W. Deem and Ramdas Pophale) SiO2 
 PCOD9112634
Probable space group: P 2
;
_chemical_formula_sum "Si O2"
_cell_formula_units_Z 15
_cell_length_a 7.969746
_cell_length_b 7.348752
_cell_length_c 13.661432
_cell_angle_alpha 90.000000
_cell_angle_beta 120.830092
_cell_angle_gamma 90.000000
_cell_volume 687.054411
_symmetry_space_group_name_H-M "P 2"
_symmetry_group_IT_number 3
_symmetry_cell_setting 'monoclinic'
loop_
_space_group_symop_operation_xyz
x,y,z
-x,y,-z
loop_
_atom_site_type_symbol
_atom_site_label
_atom_site_fract_x
_atom_site_fract_y
_atom_site_fract_z
Si Si1 0.712837 0.257910 0.949319
Si Si2 0.714077 0.204722 0.744022
Si Si3 0.282431 0.757501 0.472931
Si Si4 0.084413 0.102553 0.387713
Si Si5 0.249969 0.271585 0.823246
Si Si6 0.955411 0.573551 0.774559
Si Si7 0.639809 0.384187 0.445214
Si Si8 0.000000 0.588912 0.000000
O O1 0.759050 0.140468 0.866843
O O2 0.480520 0.281501 0.881013
O O3 0.817811 0.451831 0.964379
O O4 0.781940 0.192835 0.076092
O O5 0.791166 0.086699 0.677216
O O6 0.824496 0.396489 0.760572
O O7 0.487820 0.262284 0.665477
O O8 0.500000 0.807734 0.500000
O O9 0.155942 0.676457 0.344744
O O10 0.313285 0.594438 0.560367
O O11 0.158689 0.929967 0.469770
O O12 0.166414 0.279291 0.466813
O O13 0.866311 0.145510 0.287845
O O14 0.152945 0.473614 0.795929
O O15 0.976081 0.677395 0.885067
O O16 0.500000 0.390936 0.500000
#
# Coordination Sequence:
#
# PCOD9112634 Si02
#       8
#     2   2   2   2   2   2   2   1
#     4   9  17  29  56  74 102 136 166 215 265 307
#     4   9  15  30  48  76 100 129 175 214 248 301
#     4  11  17  28  52  78 102 140 168 214 251 292
#     4  10  19  29  50  78 102 135 172 209 253 304
#     4   9  17  32  48  78 102 135 173 206 264 316
#     4   9  15  28  48  70 105 125 169 210 249 304
#     4   9  15  29  46  74 104 127 172 211 245 299
#     4   8  16  28  48  80  96 126 168 216 254 306
#
# _framework density 21.832333999999999
#
# number of rings (size 3 to 8) (size 9 to 14) (size 15 to 20)
#    0.000    2.667    5.333    2.000    0.000    0.000 
#    0.000    2.000    0.000    9.600    6.933    0.000 
#    0.000    0.000    0.000    0.000    0.000    0.000 
#
# Total GULP energy -83553.639678 kJ/mol
# GULP energy per Si atom -5570.242645 kJ/mol
# Density = 2.178264 g / cm^3
# Si number density = 21.832334 Si / 1000 Ang^3
#
#
#
# Elastic Constant Matrix: (Units=GPa)
#
#
# Indices 1 2 3 4 5 6 
#
# 1 68.1367 15.9055 23.3956 0.0000 16.8180 0.0000
# 2 15.9055 48.3624 4.2787 0.0000 16.1064 0.0000
# 3 23.3956 4.2787 71.2991 0.0000 23.8993 0.0000
# 4 0.0000 0.0000 0.0000 17.9955 0.0000 5.0245
# 5 16.8180 16.1064 23.8993 0.0000 43.0470 0.0000
# 6 0.0000 0.0000 0.0000 5.0245 0.0000 -2.2517
#
#
#
# Elastic Compliance Matrix: (Units=1/GPa)
#
#
# Indices 1 2 3 4 5 6 
#
# 1 0.018047 -0.004620 -0.004743 0.000000 -0.002689 0.000000
# 2 -0.004620 0.025014 0.003130 0.000000 -0.009292 0.000000
# 3 -0.004743 0.003130 0.018633 0.000000 -0.009663 0.000000
# 4 0.000000 0.000000 0.000000 0.034238 0.000000 0.076401
# 5 -0.002689 -0.009292 -0.009663 0.000000 0.033122 0.000000
# 6 0.000000 0.000000 0.000000 0.076401 0.000000 -0.273633
#
#
# Mechanical properties :
#
#
# Convention : Reuss Voigt Hill
#
# Bulk Modulus (GPa) = 20.31444 30.55086 25.43265
# Shear Modulus (GPa) = -43.21480 21.37274 -10.92103
#
# Velocity S-wave (km/s) = -4.45387 3.13221 -2.23899
# Velocity P-wave (km/s) = 4.13815 5.20622 2.23389
#
# Compressibility (1/GPa) = 0.04922608
#
# Stress axis : x y z
#
# Youngs Moduli (GPa) = 55.41007 39.97708 53.66832
#
# Poissons Ratio (x) = 0.18471 0.25457
# Poissons Ratio (y) = 0.25601 -0.16796
# Poissons Ratio (z) = 0.26283 -0.12511
#
# Static dielectric constant tensor:
#      x y z
#    x 1.878320 0.000000 -0.057290 
#    y 0.000000 1.801600 0.000000 
#    z -0.057290 0.000000 1.894840 
# 
# From -- ./inp_files/14936.got.cif
#   From: 2010.05.17/outbox.cif.g08.bks.cpg/sg3_8_cif.got.tgz:14936.got - 2010.06.03 18:33:08.
