data_PCOD9112610
_publ_section_title
;
Structure prediction by ZEFSAII (Michael W. Deem and Ramdas Pophale) SiO2 
 PCOD9112610
Probable space group: P 2
;
_chemical_formula_sum "Si O2"
_cell_formula_units_Z 13
_cell_length_a 5.804173
_cell_length_b 12.787759
_cell_length_c 7.413104
_cell_angle_alpha 90.000000
_cell_angle_beta 88.335109
_cell_angle_gamma 90.000000
_cell_volume 549.985841
_symmetry_space_group_name_H-M "P 2"
_symmetry_group_IT_number 3
_symmetry_cell_setting 'monoclinic'
loop_
_space_group_symop_operation_xyz
x,y,z
-x,y,-z
loop_
_atom_site_type_symbol
_atom_site_label
_atom_site_fract_x
_atom_site_fract_y
_atom_site_fract_z
Si Si1 0.000000 0.661990 0.500000
Si Si2 0.120177 0.055696 0.301000
Si Si3 0.500000 0.981301 0.500000
Si Si4 0.479805 0.376042 0.717896
Si Si5 0.407536 0.604608 0.307645
Si Si6 0.145600 0.854497 0.745340
Si Si7 0.981827 0.283303 0.721710
Si Si8 0.500000 0.768884 0.000000
O O1 0.149805 0.582778 0.376382
O O2 0.073458 0.745550 0.654215
O O3 0.000000 0.060395 0.500000
O O4 0.043263 0.162741 0.214555
O O5 0.389154 0.051255 0.345597
O O6 0.045218 0.944241 0.223874
O O7 0.315340 0.906513 0.595168
O O8 0.500000 0.365248 0.500000
O O9 0.468138 0.500280 0.756141
O O10 0.232421 0.326835 0.778752
O O11 0.732483 0.335175 0.777962
O O12 0.500000 0.644026 0.500000
O O13 0.417034 0.694654 0.162778
O O14 0.291495 0.832847 0.920097
O O15 0.000000 0.286739 0.500000
#
# Coordination Sequence:
#
# PCOD9112610 Si02
#       8
#     1   2   1   2   2   2   2   1
#     4  12  22  42  68  92 138 190 230 290 360 410
#     4   9  19  31  59  92 134 173 224 276 348 413
#     4  10  18  36  62  90 140 178 218 286 344 410
#     4   9  20  34  59  91 133 170 227 292 342 417
#     4  11  25  43  67  96 136 180 234 290 355 412
#     4  11  22  38  59  97 132 179 228 282 342 420
#     4   9  18  32  57  96 128 172 225 281 349 415
#     4  12  26  44  68 100 134 188 236 290 350 428
#
# _framework density 23.636973000000001
#
# number of rings (size 3 to 8) (size 9 to 14) (size 15 to 20)
#    0.000    1.846    3.846    0.923   12.923    0.615 
#    0.000    0.000    0.000    0.923    4.000    0.000 
#    0.000    0.000    0.000    0.000    0.000    0.000 
#
# Total GULP energy -72489.094941 kJ/mol
# GULP energy per Si atom -5576.084226 kJ/mol
# Density = 2.358317 g / cm^3
# Si number density = 23.636973 Si / 1000 Ang^3
#
#
#
# Elastic Constant Matrix: (Units=GPa)
#
#
# Indices 1 2 3 4 5 6 
#
# 1 116.3128 53.1453 16.9428 0.0000 19.5908 0.0000
# 2 53.1453 94.6146 29.1043 0.0000 21.4844 0.0000
# 3 16.9428 29.1043 89.8662 0.0000 19.1713 0.0000
# 4 0.0000 0.0000 0.0000 6.5952 0.0000 6.4065
# 5 19.5908 21.4844 19.1713 0.0000 26.9595 0.0000
# 6 0.0000 0.0000 0.0000 6.4065 0.0000 34.2727
#
#
#
# Elastic Compliance Matrix: (Units=1/GPa)
#
#
# Indices 1 2 3 4 5 6 
#
# 1 0.011945 -0.005892 0.000597 0.000000 -0.004409 0.000000
# 2 -0.005892 0.016242 -0.002713 0.000000 -0.006733 0.000000
# 3 0.000597 -0.002713 0.013586 0.000000 -0.007933 0.000000
# 4 0.000000 0.000000 0.000000 0.185266 0.000000 -0.034631
# 5 -0.004409 -0.006733 -0.007933 0.000000 0.051303 0.000000
# 6 0.000000 0.000000 0.000000 -0.034631 0.000000 0.035651
#
#
# Mechanical properties :
#
#
# Convention : Reuss Voigt Hill
#
# Bulk Modulus (GPa) = 38.82466 55.46429 47.14448
# Shear Modulus (GPa) = 14.76683 27.00557 20.88620
#
# Velocity S-wave (km/s) = 2.50218 3.38378 2.97581
# Velocity P-wave (km/s) = 4.98086 6.22757 5.63877
#
# Compressibility (1/GPa) = 0.02575682
#
# Stress axis : x y z
#
# Youngs Moduli (GPa) = 83.71379 61.56801 73.60445
#
# Poissons Ratio (x) = 0.36277 -0.04392
# Poissons Ratio (y) = 0.49325 0.19970
# Poissons Ratio (z) = -0.04996 0.16704
#
# Static dielectric constant tensor:
#      x y z
#    x 2.362710 0.000000 0.137570 
#    y 0.000000 1.874930 0.000000 
#    z 0.137570 0.000000 1.894650 
# 
# From -- ./inp_files/4330.got.cif
#   From: 2010.05.17/outbox.cif.g08.bks.cpg/sg3_3_cif.got.tgz:4330.got - 2010.06.03 18:33:08.
