data_PCOD9112435
_publ_section_title
;
Structure prediction by ZEFSAII (Michael W. Deem and Ramdas Pophale) SiO2 
 PCOD9112435
Probable space group: P -1
;
_chemical_formula_sum "Si O2"
_cell_formula_units_Z 12
_cell_length_a 5.347183
_cell_length_b 9.548934
_cell_length_c 18.593911
_cell_angle_alpha 142.489887
_cell_angle_beta 128.781842
_cell_angle_gamma 59.443024
_cell_volume 450.511380
_symmetry_space_group_name_H-M "P -1"
_symmetry_group_IT_number 2
_symmetry_cell_setting 'triclinic'
loop_
_space_group_symop_operation_xyz
x,y,z
-x,-y,-z
loop_
_atom_site_type_symbol
_atom_site_label
_atom_site_fract_x
_atom_site_fract_y
_atom_site_fract_z
Si Si1 0.061483 0.763906 0.025847
Si Si2 0.840880 0.105853 0.586251
Si Si3 0.330286 0.295080 0.947192
Si Si4 0.726632 0.198277 0.375523
Si Si5 0.952395 0.388922 0.181691
Si Si6 0.986606 0.671649 0.667785
O O1 0.418220 0.849988 0.114014
O O2 0.901723 0.770282 0.921563
O O3 0.881271 0.852593 0.098634
O O4 0.134183 0.493175 0.950495
O O5 0.850624 0.379338 0.690059
O O6 0.500000 0.000000 0.500000
O O7 0.000000 0.000000 0.500000
O O8 0.074892 0.032485 0.663488
O O9 0.585175 0.419623 0.098120
O O10 0.928443 0.399620 0.533769
O O11 0.376272 0.220403 0.357772
O O12 0.772910 0.263208 0.326427
O O13 0.926712 0.296801 0.219714
#
# Coordination Sequence:
#
# PCOD9112435 Si02
#       6
#     2   2   2   2   2   2
#     4   8  16  29  49  78 104 122 163 221 269 291
#     4  12  25  36  52  77 109 141 179 217 255 305
#     4   8  16  30  48  78 104 123 160 227 262 299
#     4  10  22  38  46  73 105 141 173 218 259 291
#     4  10  21  32  58  79 100 139 180 211 257 312
#     4  10  21  34  56  67 102 141 181 212 252 305
#
# _framework density 26.636393999999999
#
# number of rings (size 3 to 8) (size 9 to 14) (size 15 to 20)
#    1.000    1.333    1.667    1.000    9.333    0.000 
#    0.000    0.000    0.000    0.000    0.000    9.333 
#    0.000    0.000    0.000    0.000    0.000    0.000 
#
# Total GULP energy -67090.380253 kJ/mol
# GULP energy per Si atom -5590.865021 kJ/mol
# Density = 2.657577 g / cm^3
# Si number density = 26.636394 Si / 1000 Ang^3
#
#
#
# Elastic Constant Matrix: (Units=GPa)
#
#
# Indices 1 2 3 4 5 6 
#
# 1 197.5031 24.9176 22.2570 -0.0956 -0.7312 38.2803
# 2 24.9176 98.9114 6.7095 -11.6580 6.6536 28.8241
# 3 22.2570 6.7095 78.5871 -12.9375 -4.0919 11.6172
# 4 -0.0956 -11.6580 -12.9375 50.3365 5.3258 -7.7098
# 5 -0.7312 6.6536 -4.0919 5.3258 52.8164 -1.2621
# 6 38.2803 28.8241 11.6172 -7.7098 -1.2621 47.5275
#
#
#
# Elastic Compliance Matrix: (Units=1/GPa)
#
#
# Indices 1 2 3 4 5 6 
#
# 1 0.006134 -0.000226 -0.001201 -0.001068 0.000016 -0.004683
# 2 -0.000226 0.012645 0.000303 0.002099 -0.001958 -0.007272
# 3 -0.001201 0.000303 0.013915 0.003259 0.000645 -0.002072
# 4 -0.001068 0.002099 0.003259 0.021764 -0.002167 0.002264
# 5 0.000016 -0.001958 0.000645 -0.002167 0.019477 0.001182
# 6 -0.004683 -0.007272 -0.002072 0.002264 0.001182 0.030128
#
#
# Mechanical properties :
#
#
# Convention : Reuss Voigt Hill
#
# Bulk Modulus (GPa) = 32.84424 53.64107 43.24266
# Shear Modulus (GPa) = 42.93320 51.54391 47.23855
#
# Velocity S-wave (km/s) = 4.01911 4.40374 4.21581
# Velocity P-wave (km/s) = 5.82194 6.78522 6.32196
#
# Compressibility (1/GPa) = 0.03044674
#
# Stress axis : x y z
#
# Youngs Moduli (GPa) = 163.01869 79.08379 71.86317
#
# Poissons Ratio (x) = 0.01789 0.08629
# Poissons Ratio (y) = 0.03688 -0.02179
# Poissons Ratio (z) = 0.19575 -0.02398
#
# Static dielectric constant tensor:
#      x y z
#    x 2.154290 0.002550 0.002860 
#    y 0.002550 2.067430 0.002380 
#    z 0.002860 0.002380 2.221160 
# 
# From -- ./inp_files/99176.got.cif
#   From: 2010.05.17/outbox.cif.g08.bks.cpg/sg2_50_cif.got.tgz:99176.got - 2010.06.03 11:33:40.
