data_PCOD9112658
_publ_section_title
;
Structure prediction by ZEFSAII (Michael W. Deem and Ramdas Pophale) SiO2 
 PCOD9112658
Probable space group: P 2
;
_chemical_formula_sum "Si O2"
_cell_formula_units_Z 12
_cell_length_a 7.646145
_cell_length_b 9.811010
_cell_length_c 9.935440
_cell_angle_alpha 90.000000
_cell_angle_beta 129.770969
_cell_angle_gamma 90.000000
_cell_volume 572.859498
_symmetry_space_group_name_H-M "P 2"
_symmetry_group_IT_number 3
_symmetry_cell_setting 'monoclinic'
loop_
_space_group_symop_operation_xyz
x,y,z
-x,y,-z
loop_
_atom_site_type_symbol
_atom_site_label
_atom_site_fract_x
_atom_site_fract_y
_atom_site_fract_z
Si Si1 0.251415 0.943060 0.566412
Si Si2 0.962466 0.449808 0.757606
Si Si3 0.333430 0.257609 0.547977
Si Si4 0.632097 0.761313 0.875801
Si Si5 0.072720 0.757211 0.251218
Si Si6 0.625609 0.453364 0.854102
O O1 0.438491 0.870597 0.751572
O O2 0.219131 0.858548 0.413350
O O3 0.000000 0.932379 0.500000
O O4 0.304164 0.100803 0.569337
O O5 0.887027 0.337329 0.614451
O O6 0.938787 0.604759 0.693483
O O7 0.791556 0.451224 0.803390
O O8 0.210600 0.422135 0.940220
O O9 0.500000 0.262909 0.500000
O O10 0.438185 0.343874 0.722163
O O11 0.791079 0.754183 0.821724
O O12 0.537831 0.606759 0.837445
O O13 0.810463 0.792766 0.083807
#
# Coordination Sequence:
#
# PCOD9112658 Si02
#       6
#     2   2   2   2   2   2
#     4  12  25  36  48  74 116 154 179 210 256 314
#     4   8  15  30  55  83 102 121 163 224 275 309
#     4  10  19  32  52  76 104 138 175 214 258 312
#     4   9  18  36  62  85 103 130 175 227 271 313
#     4   9  18  36  62  85 103 130 175 227 271 313
#     4   8  15  30  55  83 102 121 163 224 275 309
#
# _framework density 20.947544000000001
#
# number of rings (size 3 to 8) (size 9 to 14) (size 15 to 20)
#    0.000    2.667    0.000    4.500    0.000    4.667 
#    0.000    6.667    0.000    2.000    0.000    0.000 
#    0.000    0.000    0.000    0.000    0.000    0.000 
#
# Total GULP energy -66979.002288 kJ/mol
# GULP energy per Si atom -5581.583524 kJ/mol
# Density = 2.089987 g / cm^3
# Si number density = 20.947544 Si / 1000 Ang^3
#
#
#
# Elastic Constant Matrix: (Units=GPa)
#
#
# Indices 1 2 3 4 5 6 
#
# 1 29.5519 13.9485 14.4804 0.0000 4.7858 0.0000
# 2 13.9485 169.7760 120.7288 0.0000 19.5454 0.0000
# 3 14.4804 120.7288 130.3697 0.0000 26.4389 0.0000
# 4 0.0000 0.0000 0.0000 43.9693 0.0000 43.8708
# 5 4.7858 19.5454 26.4389 0.0000 20.2058 0.0000
# 6 0.0000 0.0000 0.0000 43.8708 0.0000 38.0048
#
#
#
# Elastic Compliance Matrix: (Units=1/GPa)
#
#
# Indices 1 2 3 4 5 6 
#
# 1 0.036115 -0.000740 -0.002364 0.000000 -0.004745 0.000000
# 2 -0.000740 0.017767 -0.017588 0.000000 0.006003 0.000000
# 3 -0.002364 -0.017588 0.028118 0.000000 -0.019219 0.000000
# 4 0.000000 0.000000 0.000000 -0.149856 0.000000 0.172987
# 5 -0.004745 0.006003 -0.019219 0.000000 0.069956 0.000000
# 6 0.000000 0.000000 0.000000 0.172987 0.000000 -0.173375
#
#
# Mechanical properties :
#
#
# Convention : Reuss Voigt Hill
#
# Bulk Modulus (GPa) = 24.62089 69.77921 47.20005
# Shear Modulus (GPa) = -42.97254 32.47196 -5.25029
#
# Velocity S-wave (km/s) = -4.53419 3.94147 -1.58488
# Velocity P-wave (km/s) = 3.95383 7.35509 4.38546
#
# Compressibility (1/GPa) = 0.04061592
#
# Stress axis : x y z
#
# Youngs Moduli (GPa) = 27.68954 56.28428 35.56412
#
# Poissons Ratio (x) = 0.04165 0.08407
# Poissons Ratio (y) = 0.02049 0.62551
# Poissons Ratio (z) = 0.06545 0.98994
#
# Static dielectric constant tensor:
#      x y z
#    x 1.873670 0.000000 -0.046960 
#    y 0.000000 1.734430 0.000000 
#    z -0.046960 0.000000 1.771200 
# 
# From -- ./inp_files/7270.got.cif
#   From: 2010.05.17/outbox.cif.g08.bks.cpg/sg3_4_cif.got.tgz:7270.got - 2010.06.03 18:33:08.
