data_PCOD9112542
_publ_section_title
;
Structure prediction by ZEFSAII (Michael W. Deem and Ramdas Pophale) SiO2 
 PCOD9112542
Probable space group: P 2
;
_chemical_formula_sum "Si O2"
_cell_formula_units_Z 10
_cell_length_a 7.101580
_cell_length_b 11.037329
_cell_length_c 9.014771
_cell_angle_alpha 90.000000
_cell_angle_beta 32.935391
_cell_angle_gamma 90.000000
_cell_volume 384.173486
_symmetry_space_group_name_H-M "P 2"
_symmetry_group_IT_number 3
_symmetry_cell_setting 'monoclinic'
loop_
_space_group_symop_operation_xyz
x,y,z
-x,y,-z
loop_
_atom_site_type_symbol
_atom_site_label
_atom_site_fract_x
_atom_site_fract_y
_atom_site_fract_z
Si Si1 0.912132 0.811730 0.385311
Si Si2 0.266458 0.176879 0.503899
Si Si3 0.667760 0.957726 0.132280
Si Si4 0.095368 0.558328 0.767754
Si Si5 0.762446 0.316365 0.008095
O O1 0.952295 0.677170 0.297891
O O2 0.000000 0.816384 0.500000
O O3 0.165054 0.901063 0.125719
O O4 0.508862 0.851375 0.654288
O O5 0.500000 0.169172 0.500000
O O6 0.892038 0.209634 0.814087
O O7 0.390868 0.287996 0.319625
O O8 0.368994 0.059339 0.340564
O O9 0.000000 0.007798 0.000000
O O10 0.500000 0.520173 0.500000
O O11 0.850839 0.446525 0.883233
O O12 0.000000 0.588719 0.000000
O O13 0.000000 0.313073 0.000000
#
# Coordination Sequence:
#
# PCOD9112542 Si02
#       5
#     2   2   2   2   2
#     4  12  26  42  59  84 123 162 198 245 300 348
#     4  10  18  31  55  90 122 145 182 242 299 342
#     4  12  23  39  64  91 117 154 203 246 288 350
#     4  11  21  36  61  88 115 150 197 244 286 346
#     4   9  17  30  52  87 122 147 181 239 300 344
#
# _framework density 26.029910999999998
#
# number of rings (size 3 to 8) (size 9 to 14) (size 15 to 20)
#    0.000    1.200    0.000   11.400    0.000    0.000 
#    0.000    0.000    0.000    7.200    0.000    0.000 
#    0.000    0.000    0.000    0.000    0.000    0.000 
#
# Total GULP energy -55988.977082 kJ/mol
# GULP energy per Si atom -5598.897708 kJ/mol
# Density = 2.597067 g / cm^3
# Si number density = 26.029911 Si / 1000 Ang^3
#
#
#
# Elastic Constant Matrix: (Units=GPa)
#
#
# Indices 1 2 3 4 5 6 
#
# 1 74.5055 11.8045 29.9830 0.0000 13.0364 0.0000
# 2 11.8045 172.2615 81.5926 0.0000 22.2039 0.0000
# 3 29.9830 81.5926 228.7373 0.0000 20.6328 0.0000
# 4 0.0000 0.0000 0.0000 63.8382 0.0000 16.1252
# 5 13.0364 22.2039 20.6328 0.0000 33.5912 0.0000
# 6 0.0000 0.0000 0.0000 16.1252 0.0000 -16.4417
#
#
#
# Elastic Compliance Matrix: (Units=1/GPa)
#
#
# Indices 1 2 3 4 5 6 
#
# 1 0.014901 0.000407 -0.001644 0.000000 -0.005043 0.000000
# 2 0.000407 0.007353 -0.002354 0.000000 -0.003572 0.000000
# 3 -0.001644 -0.002354 0.005536 0.000000 -0.001206 0.000000
# 4 0.000000 0.000000 0.000000 0.012554 0.000000 0.012313
# 5 -0.005043 -0.003572 -0.001206 0.000000 0.034829 0.000000
# 6 0.000000 0.000000 0.000000 0.012313 0.000000 -0.048745
#
#
# Mechanical properties :
#
#
# Convention : Reuss Voigt Hill
#
# Bulk Modulus (GPa) = 48.52236 80.25160 64.38698
# Shear Modulus (GPa) = 123.52416 39.67248 81.59832
#
# Velocity S-wave (km/s) = 6.89621 3.90822 5.60499
# Velocity P-wave (km/s) = 9.06045 7.15982 8.16562
#
# Compressibility (1/GPa) = 0.02060906
#
# Stress axis : x y z
#
# Youngs Moduli (GPa) = 67.10925 136.00603 180.64346
#
# Poissons Ratio (x) = -0.05541 0.29692
# Poissons Ratio (y) = -0.02734 0.42522
# Poissons Ratio (z) = 0.11031 0.32015
#
# Static dielectric constant tensor:
#      x y z
#    x 2.151090 0.000000 -0.018510 
#    y 0.000000 2.079730 0.000000 
#    z -0.018510 0.000000 1.965920 
# 
# From -- ./inp_files/5698.got.cif
#   From: 2010.05.17/outbox.cif.g08.bks.cpg/sg3_3_cif.got.tgz:5698.got - 2010.06.03 18:33:08.
