data_PCOD9112388
_publ_section_title
;
Structure prediction by ZEFSAII (Michael W. Deem and Ramdas Pophale) SiO2 
 PCOD9112388
Probable space group: P -1
;
_chemical_formula_sum "Si O2"
_cell_formula_units_Z 16
_cell_length_a 16.574399
_cell_length_b 8.350795
_cell_length_c 10.589266
_cell_angle_alpha 70.320351
_cell_angle_beta 147.378215
_cell_angle_gamma 110.047237
_cell_volume 738.900316
_symmetry_space_group_name_H-M "P -1"
_symmetry_group_IT_number 2
_symmetry_cell_setting 'triclinic'
loop_
_space_group_symop_operation_xyz
x,y,z
-x,-y,-z
loop_
_atom_site_type_symbol
_atom_site_label
_atom_site_fract_x
_atom_site_fract_y
_atom_site_fract_z
Si Si1 0.548097 0.364460 0.437650
Si Si2 0.773231 0.229603 0.577670
Si Si3 0.483652 0.379651 0.886995
Si Si4 0.967293 0.702460 0.916429
Si Si5 0.021636 0.470765 0.389460
Si Si6 0.264660 0.429575 0.165026
Si Si7 0.154533 0.173008 0.535223
Si Si8 0.668958 0.094549 0.221484
O O1 0.632870 0.258556 0.475842
O O2 0.535316 0.532874 0.294028
O O3 0.376563 0.319796 0.266486
O O4 0.643758 0.414579 0.676587
O O5 0.854136 0.398075 0.561231
O O6 0.717403 0.094264 0.432505
O O7 0.900818 0.197097 0.854512
O O8 0.325660 0.263981 0.727448
O O9 0.500000 0.500000 0.000000
O O10 0.633248 0.286064 0.098256
O O11 0.818206 0.689617 0.805920
O O12 0.936133 0.789810 0.720918
O O13 0.000000 0.500000 0.000000
O O14 0.072842 0.281586 0.498010
O O15 0.000000 0.500000 0.500000
O O16 0.864616 0.498996 0.106985
O O17 0.195671 0.979868 0.654131
O O18 0.500000 0.000000 0.000000
#
# Coordination Sequence:
#
# PCOD9112388 Si02
#       8
#     2   2   2   2   2   2   2   2
#     4  11  19  33  61  86 117 143 201 248 288 337
#     4  11  20  39  62  85 114 159 198 240 297 358
#     4  11  19  34  61  85 110 153 199 243 289 350
#     4  11  17  37  61  84 119 153 198 245 292 356
#     4  11  22  36  61  90 117 152 201 241 295 358
#     4  10  21  31  53  99 111 143 192 255 290 338
#     4  11  20  38  57  84 120 154 188 253 294 343
#     4  10  24  35  55  93 118 151 204 239 300 353
#
# _framework density 21.653801999999999
#
# number of rings (size 3 to 8) (size 9 to 14) (size 15 to 20)
#    0.000    1.250    7.500    0.000    3.500    0.500 
#    0.000    0.625    0.000    0.750    3.250    0.000 
#    0.000    0.000    0.000    0.000    0.000    0.000 
#
# Total GULP energy -89136.576845 kJ/mol
# GULP energy per Si atom -5571.036053 kJ/mol
# Density = 2.160452 g / cm^3
# Si number density = 21.653802 Si / 1000 Ang^3
#
#
#
# Elastic Constant Matrix: (Units=GPa)
#
#
# Indices 1 2 3 4 5 6 
#
# 1 118.1427 24.5463 17.5102 -5.0755 21.2905 -32.8144
# 2 24.5463 42.0354 34.1137 -10.1808 1.4264 -24.3554
# 3 17.5102 34.1137 119.6471 3.2978 -4.1193 -22.7622
# 4 -5.0755 -10.1808 3.2978 34.1257 -6.9297 6.1644
# 5 21.2905 1.4264 -4.1193 -6.9297 39.6761 1.7419
# 6 -32.8144 -24.3554 -22.7622 6.1644 1.7419 29.5395
#
#
#
# Elastic Compliance Matrix: (Units=1/GPa)
#
#
# Indices 1 2 3 4 5 6 
#
# 1 0.015131 0.001692 0.000866 -0.002869 -0.009471 0.020028
# 2 0.001692 0.054781 -0.008978 0.009773 -0.003785 0.038313
# 3 0.000866 -0.008978 0.011547 -0.004232 0.000171 0.003331
# 4 -0.002869 0.009773 -0.004232 0.034733 0.007081 -0.006057
# 5 -0.009471 -0.003785 0.000171 0.007081 0.032419 -0.016899
# 6 0.020028 0.038313 0.003331 -0.006057 -0.016899 0.092518
#
#
# Mechanical properties :
#
#
# Convention : Reuss Voigt Hill
#
# Bulk Modulus (GPa) = 14.57289 48.01842 31.29565
# Shear Modulus (GPa) = 18.06098 34.24526 26.15312
#
# Velocity S-wave (km/s) = 2.89118 3.98111 3.47909
# Velocity P-wave (km/s) = 4.22963 6.58452 5.53379
#
# Compressibility (1/GPa) = 0.06862057
#
# Stress axis : x y z
#
# Youngs Moduli (GPa) = 66.09114 18.25455 86.60150
#
# Poissons Ratio (x) = -0.03089 -0.07504
# Poissons Ratio (y) = -0.11184 0.77748
# Poissons Ratio (z) = -0.05727 0.16388
#
# Static dielectric constant tensor:
#      x y z
#    x 1.811450 0.004400 0.031790 
#    y 0.004400 1.960840 0.007120 
#    z 0.031790 0.007120 1.817450 
# 
# From -- ./inp_files/460576.got.cif
#   From: 2010.05.17/outbox.cif.g08.bks.cpg/sg2_231_cif.got.tgz:460576.got - 2010.06.03 11:33:40.
