data_PCOD9112547
_publ_section_title
;
Structure prediction by ZEFSAII (Michael W. Deem and Ramdas Pophale) SiO2 
 PCOD9112547
Probable space group: P 2
;
_chemical_formula_sum "Si O2"
_cell_formula_units_Z 14
_cell_length_a 11.796939
_cell_length_b 13.271753
_cell_length_c 11.692127
_cell_angle_alpha 90.000000
_cell_angle_beta 155.562456
_cell_angle_gamma 90.000000
_cell_volume 757.317172
_symmetry_space_group_name_H-M "P 2"
_symmetry_group_IT_number 3
_symmetry_cell_setting 'monoclinic'
loop_
_space_group_symop_operation_xyz
x,y,z
-x,y,-z
loop_
_atom_site_type_symbol
_atom_site_label
_atom_site_fract_x
_atom_site_fract_y
_atom_site_fract_z
Si Si1 0.517754 0.496080 0.155466
Si Si2 0.729476 0.921319 0.460133
Si Si3 0.217105 0.764153 0.299811
Si Si4 0.961850 0.130351 0.602472
Si Si5 0.017643 0.622088 0.719258
Si Si6 0.527130 0.262777 0.888346
Si Si7 0.274803 0.827793 0.888901
O O1 0.798228 0.552904 0.450300
O O2 0.463885 0.379443 0.138227
O O3 0.500000 0.503325 0.000000
O O4 0.266912 0.552542 0.985392
O O5 0.764958 0.869873 0.615833
O O6 0.439236 0.877464 0.147563
O O7 0.802198 0.038682 0.516717
O O8 0.979412 0.878633 0.612590
O O9 0.500000 0.738289 0.500000
O O10 0.132906 0.682249 0.317918
O O11 0.000000 0.769635 0.000000
O O12 0.756062 0.222810 0.419333
O O13 0.000000 0.106316 0.500000
O O14 0.240399 0.175733 0.912830
O O15 0.186486 0.710938 0.809292
O O16 0.500000 0.266824 0.000000
O O17 0.500000 0.845757 0.000000
#
# Coordination Sequence:
#
# PCOD9112547 Si02
#       7
#     2   2   2   2   2   2   2
#     4  11  21  35  54  83 119 151 180 217 262 327
#     4  11  22  35  56  81 106 146 186 218 275 333
#     4  11  23  41  57  76 104 136 184 242 279 321
#     4  10  18  32  52  80 113 146 178 213 256 323
#     4  11  22  35  55  80 105 146 189 221 273 329
#     4   9  19  32  50  77 114 150 179 210 254 311
#     4  11  21  34  49  79 118 145 170 215 266 334
#
# _framework density 18.48631
#
# number of rings (size 3 to 8) (size 9 to 14) (size 15 to 20)
#    0.000    1.429    0.000    8.143    0.000    5.714 
#    0.000    0.000    0.000    0.000    0.000   20.000 
#    0.000    0.000    0.000    0.000    0.000    0.000 
#
# Total GULP energy -77949.056912 kJ/mol
# GULP energy per Si atom -5567.789779 kJ/mol
# Density = 1.844423 g / cm^3
# Si number density = 18.486310 Si / 1000 Ang^3
#
#
#
# Elastic Constant Matrix: (Units=GPa)
#
#
# Indices 1 2 3 4 5 6 
#
# 1 31.1332 -11.2706 -2.4277 0.0000 -1.1170 0.0000
# 2 -11.2706 89.2108 -2.0334 0.0000 -4.4055 0.0000
# 3 -2.4277 -2.0334 84.7919 0.0000 5.0476 0.0000
# 4 0.0000 0.0000 0.0000 11.6181 0.0000 10.4057
# 5 -1.1170 -4.4055 5.0476 0.0000 26.4284 0.0000
# 6 0.0000 0.0000 0.0000 10.4057 0.0000 11.2124
#
#
#
# Elastic Compliance Matrix: (Units=1/GPa)
#
#
# Indices 1 2 3 4 5 6 
#
# 1 0.033858 0.004397 0.000957 0.000000 0.001981 0.000000
# 2 0.004397 0.011876 0.000285 0.000000 0.002111 0.000000
# 3 0.000957 0.000285 0.011959 0.000000 -0.002196 0.000000
# 4 0.000000 0.000000 0.000000 0.509922 0.000000 -0.473235
# 5 0.001981 0.002111 -0.002196 0.000000 0.038693 0.000000
# 6 0.000000 0.000000 0.000000 -0.473235 0.000000 0.528374
#
#
# Mechanical properties :
#
#
# Convention : Reuss Voigt Hill
#
# Bulk Modulus (GPa) = 14.49913 19.29696 16.89804
# Shear Modulus (GPa) = 4.36151 24.57630 14.46890
#
# Velocity S-wave (km/s) = 1.53767 3.65009 2.80068
# Velocity P-wave (km/s) = 3.31855 5.31276 4.42935
#
# Compressibility (1/GPa) = 0.06896967
#
# Stress axis : x y z
#
# Youngs Moduli (GPa) = 29.53552 84.20582 83.62226
#
# Poissons Ratio (x) = -0.37026 -0.08002
# Poissons Ratio (y) = -0.12987 -0.02383
# Poissons Ratio (z) = -0.02826 -0.02400
#
# Static dielectric constant tensor:
#      x y z
#    x 1.660630 0.000000 -0.023000 
#    y 0.000000 1.718380 0.000000 
#    z -0.023000 0.000000 1.673120 
# 
# From -- ./inp_files/11942.got.cif
#   From: 2010.05.17/outbox.cif.g08.bks.cpg/sg3_6_cif.got.tgz:11942.got - 2010.06.03 18:33:08.
