data_PCOD9112519
_publ_section_title
;
Structure prediction by ZEFSAII (Michael W. Deem and Ramdas Pophale) SiO2 
 PCOD9112519
Probable space group: P 2
;
_chemical_formula_sum "Si O2"
_cell_formula_units_Z 16
_cell_length_a 7.064403
_cell_length_b 7.546703
_cell_length_c 13.481053
_cell_angle_alpha 90.000000
_cell_angle_beta 110.296819
_cell_angle_gamma 90.000000
_cell_volume 674.088428
_symmetry_space_group_name_H-M "P 2"
_symmetry_group_IT_number 3
_symmetry_cell_setting 'monoclinic'
loop_
_space_group_symop_operation_xyz
x,y,z
-x,y,-z
loop_
_atom_site_type_symbol
_atom_site_label
_atom_site_fract_x
_atom_site_fract_y
_atom_site_fract_z
Si Si1 0.416948 0.444800 0.198527
Si Si2 0.007570 0.831056 0.739174
Si Si3 0.000862 0.428803 0.747145
Si Si4 0.835923 0.131536 0.587392
Si Si5 0.574001 0.143903 0.351961
Si Si6 0.807884 0.399044 0.026759
Si Si7 0.261315 0.816994 0.970647
Si Si8 0.619077 0.848382 0.802203
O O1 0.202296 0.438420 0.219860
O O2 0.565170 0.327780 0.290754
O O3 0.468957 0.651745 0.196445
O O4 0.377389 0.367199 0.081099
O O5 0.056608 0.627199 0.724540
O O6 0.786747 0.825267 0.749057
O O7 0.153944 0.894641 0.854807
O O8 0.972432 0.964775 0.643424
O O9 0.950683 0.305309 0.646226
O O10 0.164907 0.349213 0.853947
O O11 0.757589 0.130797 0.461330
O O12 0.629869 0.133248 0.617177
O O13 0.543475 0.986854 0.266792
O O14 0.819168 0.615523 0.033772
O O15 0.000000 0.331293 0.000000
O O16 0.500000 0.809720 0.000000
O O17 0.253392 0.906379 0.077205
#
# Coordination Sequence:
#
# PCOD9112519 Si02
#       8
#     2   2   2   2   2   2   2   2
#     4   8  14  25  42  64  90 118 149 187 227 268
#     4   9  17  30  48  69  95 125 152 184 231 279
#     4   8  14  25  42  64  90 118 149 187 227 268
#     4   9  17  27  42  69  98 122 155 194 227 265
#     4   9  17  27  42  69  98 122 155 194 227 265
#     4   8  14  27  46  68  93 121 152 185 231 284
#     4  10  18  29  48  72  95 119 152 193 233 276
#     4   9  17  30  48  69  95 125 152 184 231 279
#
# _framework density 23.735759000000002
#
# number of rings (size 3 to 8) (size 9 to 14) (size 15 to 20)
#    0.000    3.250    0.000    2.625    0.000    2.000 
#    0.000    8.750    0.000   12.750    0.000    0.000 
#    0.000    0.000    0.000    0.000    0.000    0.000 
#
# Total GULP energy -89367.244782 kJ/mol
# GULP energy per Si atom -5585.452799 kJ/mol
# Density = 2.368173 g / cm^3
# Si number density = 23.735759 Si / 1000 Ang^3
#
#
#
# Elastic Constant Matrix: (Units=GPa)
#
#
# Indices 1 2 3 4 5 6 
#
# 1 72.0435 11.5549 19.4309 0.0000 11.7099 0.0000
# 2 11.5549 118.9202 107.8390 0.0000 21.5159 0.0000
# 3 19.4309 107.8390 240.6553 0.0000 42.5534 0.0000
# 4 0.0000 0.0000 0.0000 39.9821 0.0000 7.1832
# 5 11.7099 21.5159 42.5534 0.0000 41.7038 0.0000
# 6 0.0000 0.0000 0.0000 7.1832 0.0000 1.0606
#
#
#
# Elastic Compliance Matrix: (Units=1/GPa)
#
#
# Indices 1 2 3 4 5 6 
#
# 1 0.014620 -0.000468 -0.000351 0.000000 -0.003506 0.000000
# 2 -0.000468 0.014215 -0.006172 0.000000 -0.000905 0.000000
# 3 -0.000351 -0.006172 0.007771 0.000000 -0.004646 0.000000
# 4 0.000000 0.000000 0.000000 -0.115382 0.000000 0.781435
# 5 -0.003506 -0.000905 -0.004646 0.000000 0.030171 0.000000
# 6 0.000000 0.000000 0.000000 0.781435 0.000000 -4.349518
#
#
# Mechanical properties :
#
#
# Convention : Reuss Voigt Hill
#
# Bulk Modulus (GPa) = 44.20092 78.80763 61.50428
# Shear Modulus (GPa) = -1.14244 36.06892 17.46324
#
# Velocity S-wave (km/s) = -0.69452 3.90244 2.71539
# Velocity P-wave (km/s) = 4.24492 7.31980 5.98326
#
# Compressibility (1/GPa) = 0.02262396
#
# Stress axis : x y z
#
# Youngs Moduli (GPa) = 68.39940 70.34741 128.68323
#
# Poissons Ratio (x) = 0.03294 0.04514
# Poissons Ratio (y) = 0.03203 0.79425
# Poissons Ratio (z) = 0.02399 0.43419
#
# Static dielectric constant tensor:
#      x y z
#    x 2.027370 0.000000 -0.037150 
#    y 0.000000 1.880560 0.000000 
#    z -0.037150 0.000000 1.880930 
# 
# From -- ./inp_files/10581.got.cif
#   From: 2010.05.17/outbox.cif.g08.bks.cpg/sg3_6_cif.got.tgz:10581.got - 2010.06.03 18:33:08.
