data_PCOD9112730
_publ_section_title
;
Structure prediction by ZEFSAII (Michael W. Deem and Ramdas Pophale) SiO2 
 PCOD9112730
Probable space group: P 2
;
_chemical_formula_sum "Si O2"
_cell_formula_units_Z 16
_cell_length_a 9.607542
_cell_length_b 5.539985
_cell_length_c 17.869123
_cell_angle_alpha 90.000000
_cell_angle_beta 133.843847
_cell_angle_gamma 90.000000
_cell_volume 685.958915
_symmetry_space_group_name_H-M "P 2"
_symmetry_group_IT_number 3
_symmetry_cell_setting 'monoclinic'
loop_
_space_group_symop_operation_xyz
x,y,z
-x,y,-z
loop_
_atom_site_type_symbol
_atom_site_label
_atom_site_fract_x
_atom_site_fract_y
_atom_site_fract_z
Si Si1 0.776160 0.099600 0.429921
Si Si2 0.673363 0.020211 0.894432
Si Si3 0.619136 0.281254 0.122420
Si Si4 0.406041 0.599150 0.639283
Si Si5 0.151521 0.539671 0.243912
Si Si6 0.951278 0.038111 0.862321
Si Si7 0.623936 0.781242 0.123522
Si Si8 0.292219 0.373950 0.452880
O O1 0.693110 0.353917 0.364622
O O2 0.768899 0.156570 0.516096
O O3 0.000000 0.062285 0.500000
O O4 0.658441 0.864827 0.358476
O O5 0.532629 0.803744 0.867823
O O6 0.542911 0.244196 0.873888
O O7 0.762582 0.028440 0.846015
O O8 0.858559 0.006022 0.017239
O O9 0.728541 0.529897 0.169602
O O10 0.736004 0.032788 0.167334
O O11 0.500000 0.284599 0.000000
O O12 0.634080 0.555627 0.714553
O O13 0.323508 0.589514 0.523487
O O14 0.045081 0.308893 0.168338
O O15 0.176927 0.467175 0.339414
O O16 0.063553 0.803552 0.196040
O O17 0.500000 0.781499 0.000000
O O18 0.500000 0.299046 0.500000
#
# Coordination Sequence:
#
# PCOD9112730 Si02
#       8
#     2   2   2   2   2   2   2   2
#     4  10  19  34  64  96 115 156 194 229 284 346
#     4   9  21  36  52  78 110 146 198 242 299 337
#     4   8  15  28  53  73  91 126 181 234 279 344
#     4   9  20  36  61  84 119 149 190 231 278 357
#     4  11  23  39  53  88 113 157 194 240 288 344
#     4  11  25  32  56  79 117 151 192 245 296 336
#     4   8  15  28  53  75  90 125 180 234 279 346
#     4   8  20  36  63  85 118 149 196 228 278 354
#
# _framework density 23.325012000000001
#
# number of rings (size 3 to 8) (size 9 to 14) (size 15 to 20)
#    1.500    1.250    0.000    1.125    5.250    1.500 
#    0.000    0.000    0.000    9.000    0.000    0.000 
#    0.000    0.000    0.000    0.000    0.000    0.000 
#
# Total GULP energy -89134.298189 kJ/mol
# GULP energy per Si atom -5570.893637 kJ/mol
# Density = 2.327192 g / cm^3
# Si number density = 23.325012 Si / 1000 Ang^3
#
#
#
# Elastic Constant Matrix: (Units=GPa)
#
#
# Indices 1 2 3 4 5 6 
#
# 1 82.3887 45.2970 26.6608 0.0000 -3.4311 0.0000
# 2 45.2970 219.3588 15.5474 0.0000 10.9086 0.0000
# 3 26.6608 15.5474 55.6318 0.0000 -1.8429 0.0000
# 4 0.0000 0.0000 0.0000 45.5942 0.0000 -8.8407
# 5 -3.4311 10.9086 -1.8429 0.0000 31.0167 0.0000
# 6 0.0000 0.0000 0.0000 -8.8407 0.0000 30.2710
#
#
#
# Elastic Compliance Matrix: (Units=1/GPa)
#
#
# Indices 1 2 3 4 5 6 
#
# 1 0.016060 -0.002955 -0.006791 0.000000 0.002412 0.000000
# 2 -0.002955 0.005288 -0.000134 0.000000 -0.002195 0.000000
# 3 -0.006791 -0.000134 0.021286 0.000000 0.000561 0.000000
# 4 0.000000 0.000000 0.000000 0.023249 0.000000 0.006790
# 5 0.002412 -0.002195 0.000561 0.000000 0.033313 0.000000
# 6 0.000000 0.000000 0.000000 0.006790 0.000000 0.035018
#
#
# Mechanical properties :
#
#
# Convention : Reuss Voigt Hill
#
# Bulk Modulus (GPa) = 43.71903 59.15441 51.43672
# Shear Modulus (GPa) = 30.94091 39.36798 35.15445
#
# Velocity S-wave (km/s) = 3.64608 4.11274 3.88642
# Velocity P-wave (km/s) = 6.04229 6.92596 6.49916
#
# Compressibility (1/GPa) = 0.02287333
#
# Stress axis : x y z
#
# Youngs Moduli (GPa) = 62.26559 189.12180 46.97950
#
# Poissons Ratio (x) = 0.55886 0.31903
# Poissons Ratio (y) = 0.18400 0.00631
# Poissons Ratio (z) = 0.42284 0.02539
#
# Static dielectric constant tensor:
#      x y z
#    x 1.658560 0.000000 0.113470 
#    y 0.000000 1.938910 0.000000 
#    z 0.113470 0.000000 1.759030 
# 
# From -- ./inp_files/15223.got.cif
#   From: 2010.05.17/outbox.cif.g08.bks.cpg/sg3_8_cif.got.tgz:15223.got - 2010.06.03 18:33:08.
