data_PCOD9112625
_publ_section_title
;
Structure prediction by ZEFSAII (Michael W. Deem and Ramdas Pophale) SiO2 
 PCOD9112625
Probable space group: P 2
;
_chemical_formula_sum "Si O2"
_cell_formula_units_Z 14
_cell_length_a 15.095586
_cell_length_b 8.678702
_cell_length_c 15.223235
_cell_angle_alpha 90.000000
_cell_angle_beta 160.715951
_cell_angle_gamma 90.000000
_cell_volume 658.652996
_symmetry_space_group_name_H-M "P 2"
_symmetry_group_IT_number 3
_symmetry_cell_setting 'monoclinic'
loop_
_space_group_symop_operation_xyz
x,y,z
-x,y,-z
loop_
_atom_site_type_symbol
_atom_site_label
_atom_site_fract_x
_atom_site_fract_y
_atom_site_fract_z
Si Si1 0.965575 0.052170 0.732315
Si Si2 0.625342 0.635658 0.302188
Si Si3 0.200660 0.397787 0.389703
Si Si4 0.422233 0.872567 0.243555
Si Si5 0.789375 0.441446 0.862317
Si Si6 0.500000 0.709953 0.500000
Si Si7 0.946778 0.891581 0.357018
Si Si8 0.500000 0.651550 0.000000
O O1 0.925603 0.232175 0.708536
O O2 0.107336 0.006794 0.773002
O O3 0.666361 0.984555 0.447669
O O4 0.145608 0.966206 0.974502
O O5 0.748895 0.505689 0.479651
O O6 0.416691 0.728091 0.169965
O O7 0.559590 0.561806 0.145678
O O8 0.819541 0.776052 0.455985
O O9 0.493534 0.382263 0.615101
O O10 0.968876 0.476767 0.114801
O O11 0.508640 0.811973 0.420550
O O12 0.725383 0.588818 0.742089
O O13 0.000000 0.341075 0.000000
O O14 0.720329 0.769473 0.169473
O O15 0.000000 0.973308 0.500000
#
# Coordination Sequence:
#
# PCOD9112625 Si02
#       8
#     2   2   2   2   2   1   2   1
#     4  11  25  46  64 102 141 184 220 288 360 427
#     4  10  21  38  70 101 136 180 238 297 341 414
#     4  12  26  43  71 101 148 185 227 288 371 423
#     4  11  24  43  70  96 135 177 238 287 343 411
#     4  12  24  45  70 100 133 185 236 290 346 419
#     4  12  26  42  74 104 130 178 246 296 344 406
#     4   9  20  38  67  98 131 177 236 284 340 414
#     4  10  18  38  68 104 130 174 240 298 344 400
#
# _framework density 21.255503000000001
#
# number of rings (size 3 to 8) (size 9 to 14) (size 15 to 20)
#    0.000    1.143    4.286    0.857    8.000    0.000 
#    5.143    2.143    0.000    0.857    0.000    0.000 
#    0.000    0.000    0.000    0.000    0.000    0.000 
#
# Total GULP energy -77953.830181 kJ/mol
# GULP energy per Si atom -5568.130727 kJ/mol
# Density = 2.120712 g / cm^3
# Si number density = 21.255503 Si / 1000 Ang^3
#
#
#
# Elastic Constant Matrix: (Units=GPa)
#
#
# Indices 1 2 3 4 5 6 
#
# 1 123.0336 52.4360 41.9556 0.0000 -23.3918 0.0000
# 2 52.4360 94.7429 36.5253 0.0000 -17.0230 0.0000
# 3 41.9556 36.5253 121.5596 0.0000 -13.3358 0.0000
# 4 0.0000 0.0000 0.0000 23.1567 0.0000 -1.9027
# 5 -23.3918 -17.0230 -13.3358 0.0000 42.6997 0.0000
# 6 0.0000 0.0000 0.0000 -1.9027 0.0000 10.4467
#
#
#
# Elastic Compliance Matrix: (Units=1/GPa)
#
#
# Indices 1 2 3 4 5 6 
#
# 1 0.011687 -0.004973 -0.002127 0.000000 0.003755 0.000000
# 2 -0.004973 0.014670 -0.002432 0.000000 0.002364 0.000000
# 3 -0.002127 -0.002432 0.009793 0.000000 0.000923 0.000000
# 4 0.000000 0.000000 0.000000 0.043840 0.000000 0.007985
# 5 0.003755 0.002364 0.000923 0.000000 0.026708 0.000000
# 6 0.000000 0.000000 0.000000 0.007985 0.000000 0.097178
#
#
# Mechanical properties :
#
#
# Convention : Reuss Voigt Hill
#
# Bulk Modulus (GPa) = 58.53395 66.79665 62.66530
# Shear Modulus (GPa) = 21.86891 29.15525 25.51208
#
# Velocity S-wave (km/s) = 3.21106 3.70761 3.46823
# Velocity P-wave (km/s) = 6.43008 7.05849 6.75160
#
# Compressibility (1/GPa) = 0.01708410
#
# Stress axis : x y z
#
# Youngs Moduli (GPa) = 85.56628 68.16743 102.11679
#
# Poissons Ratio (x) = 0.33902 0.21724
# Poissons Ratio (y) = 0.42555 0.24834
# Poissons Ratio (z) = 0.18203 0.16578
#
# Static dielectric constant tensor:
#      x y z
#    x 1.706210 0.000000 -0.118170 
#    y 0.000000 1.757430 0.000000 
#    z -0.118170 0.000000 1.834500 
# 
# From -- ./inp_files/14038.got.cif
#   From: 2010.05.17/outbox.cif.g08.bks.cpg/sg3_8_cif.got.tgz:14038.got - 2010.06.03 18:33:08.
