data_PCOD9112261
_publ_section_title
;
Structure prediction by ZEFSAII (Michael W. Deem and Ramdas Pophale) SiO2 
 PCOD9112261
Probable space group: P -1
;
_chemical_formula_sum "Si O2"
_cell_formula_units_Z 14
_cell_length_a 14.448240
_cell_length_b 14.263860
_cell_length_c 7.633088
_cell_angle_alpha 73.686430
_cell_angle_beta 131.420968
_cell_angle_gamma 143.027560
_cell_volume 592.906131
_symmetry_space_group_name_H-M "P -1"
_symmetry_group_IT_number 2
_symmetry_cell_setting 'triclinic'
loop_
_space_group_symop_operation_xyz
x,y,z
-x,-y,-z
loop_
_atom_site_type_symbol
_atom_site_label
_atom_site_fract_x
_atom_site_fract_y
_atom_site_fract_z
Si Si1 0.153827 0.804381 0.099405
Si Si2 0.583526 0.832018 0.828237
Si Si3 0.889308 0.867552 0.093445
Si Si4 0.820982 0.592037 0.103223
Si Si5 0.637741 0.836066 0.294437
Si Si6 0.419083 0.871578 0.119739
Si Si7 0.911568 0.552609 0.610233
O O1 0.371544 0.894108 0.231479
O O2 0.026425 0.692264 0.178581
O O3 0.960737 0.657827 0.779493
O O4 0.235482 0.970340 0.128445
O O5 0.660425 0.773565 0.913770
O O6 0.602216 0.856891 0.046882
O O7 0.315364 0.665261 0.522505
O O8 0.831416 0.716275 0.061180
O O9 0.094889 0.013988 0.419541
O O10 0.000000 0.000000 0.000000
O O11 0.564808 0.381910 0.827487
O O12 0.866106 0.579545 0.359911
O O13 0.585021 0.890640 0.329323
O O14 0.156550 0.659497 0.846682
O O15 0.500000 0.000000 0.000000
#
# Coordination Sequence:
#
# PCOD9112261 Si02
#       7
#     2   2   2   2   2   2   2
#     4  10  22  42  69  98 137 176 212 280 335 384
#     4  11  22  44  68  97 130 184 220 269 344 384
#     4  12  26  42  66  99 136 171 233 277 319 408
#     4  11  24  43  67 104 131 178 225 270 340 388
#     4  11  25  44  70  98 134 178 221 277 336 391
#     4  10  20  45  71  96 140 171 218 278 329 407
#     4   9  24  42  69  99 137 167 228 266 329 411
#
# _framework density 23.612507000000001
#
# number of rings (size 3 to 8) (size 9 to 14) (size 15 to 20)
#    0.857    0.571    2.857    2.143    2.000    6.857 
#    2.571    4.286    0.000    0.000    0.000    0.000 
#    0.000    0.000    0.000    0.000    0.000    0.000 
#
# Total GULP energy -78305.919931 kJ/mol
# GULP energy per Si atom -5593.279995 kJ/mol
# Density = 2.355876 g / cm^3
# Si number density = 23.612507 Si / 1000 Ang^3
#
#
#
# Elastic Constant Matrix: (Units=GPa)
#
#
# Indices 1 2 3 4 5 6 
#
# 1 108.4557 21.1463 5.8881 -8.3571 -11.8292 1.0828
# 2 21.1463 105.9867 17.1270 13.0668 -21.1621 -8.1924
# 3 5.8881 17.1270 75.5568 18.8269 -12.3528 2.7547
# 4 -8.3571 13.0668 18.8269 27.3425 2.0173 4.4141
# 5 -11.8292 -21.1621 -12.3528 2.0173 35.1196 -1.4829
# 6 1.0828 -8.1924 2.7547 4.4141 -1.4829 27.7081
#
#
#
# Elastic Compliance Matrix: (Units=1/GPa)
#
#
# Indices 1 2 3 4 5 6 
#
# 1 0.010331 -0.002422 -0.001362 0.005458 0.001152 -0.001792
# 2 -0.002422 0.012936 0.000533 -0.008792 0.007912 0.005690
# 3 -0.001362 0.000533 0.017679 -0.013511 0.006898 0.000975
# 4 0.005458 -0.008792 -0.013511 0.054352 -0.011788 -0.010759
# 5 0.001152 0.007912 0.006898 -0.011788 0.036964 0.005465
# 6 -0.001792 0.005690 0.000975 -0.010759 0.005465 0.039753
#
#
# Mechanical properties :
#
#
# Convention : Reuss Voigt Hill
#
# Bulk Modulus (GPa) = 29.03372 42.03576 35.53474
# Shear Modulus (GPa) = 26.31612 34.42322 30.36967
#
# Velocity S-wave (km/s) = 3.34203 3.82231 3.59021
# Velocity P-wave (km/s) = 5.21679 6.10909 5.68049
#
# Compressibility (1/GPa) = 0.03444271
#
# Stress axis : x y z
#
# Youngs Moduli (GPa) = 96.79912 77.30499 56.56398
#
# Poissons Ratio (x) = 0.18727 0.07705
# Poissons Ratio (y) = 0.23449 -0.03016
# Poissons Ratio (z) = 0.13186 -0.04122
#
# Static dielectric constant tensor:
#      x y z
#    x 1.923890 -0.015890 0.030710 
#    y -0.015890 1.879860 -0.027370 
#    z 0.030710 -0.027370 1.930520 
# 
# From -- ./inp_files/315140.got.cif
#   From: 2010.05.17/outbox.cif.g08.bks.cpg/sg2_158_cif.got.tgz:315140.got - 2010.06.03 11:33:40.
