data_PCOD9112360
_publ_section_title
;
Structure prediction by ZEFSAII (Michael W. Deem and Ramdas Pophale) SiO2 
 PCOD9112360
Probable space group: P -1
;
_chemical_formula_sum "Si O2"
_cell_formula_units_Z 12
_cell_length_a 21.722775
_cell_length_b 5.065932
_cell_length_c 4.952994
_cell_angle_alpha 91.083927
_cell_angle_beta 99.974437
_cell_angle_gamma 58.192603
_cell_volume 454.493383
_symmetry_space_group_name_H-M "P -1"
_symmetry_group_IT_number 2
_symmetry_cell_setting 'triclinic'
loop_
_space_group_symop_operation_xyz
x,y,z
-x,-y,-z
loop_
_atom_site_type_symbol
_atom_site_label
_atom_site_fract_x
_atom_site_fract_y
_atom_site_fract_z
Si Si1 0.453532 0.853641 0.375078
Si Si2 0.339356 0.753645 0.478662
Si Si3 0.122656 0.809294 0.034519
Si Si4 0.010274 0.726166 0.700572
Si Si5 0.216888 0.710208 0.606266
Si Si6 0.364705 0.343392 0.953811
O O1 0.500000 0.500000 0.500000
O O2 0.573505 0.011473 0.943546
O O3 0.500000 0.000000 0.500000
O O4 0.386187 0.504168 0.744380
O O5 0.256506 0.887138 0.526245
O O6 0.372948 0.962347 0.444403
O O7 0.349460 0.555853 0.211953
O O8 0.180565 0.655305 0.319321
O O9 0.088232 0.611219 0.900795
O O10 0.158277 0.869644 0.803579
O O11 0.053411 0.118498 0.118845
O O12 0.000000 0.500000 0.500000
O O13 0.000000 0.000000 0.500000
O O14 0.285862 0.409605 0.797829
#
# Coordination Sequence:
#
# PCOD9112360 Si02
#       6
#     2   2   2   2   2   2
#     4  12  26  49  82 111 154 209 260 329 406 477
#     4  10  23  46  75 110 155 199 268 328 397 476
#     4  11  22  45  84 115 158 216 268 322 410 465
#     4  11  26  48  81 117 165 202 272 326 386 484
#     4  10  20  47  76 110 160 210 264 334 400 472
#     4  10  23  46  75 110 155 199 268 328 397 476
#
# _framework density 26.403023000000001
#
# number of rings (size 3 to 8) (size 9 to 14) (size 15 to 20)
#    1.000    0.333    5.000    0.000    0.000    5.333 
#    0.000    6.667    0.000    0.000    0.000    0.000 
#    0.000    0.000    0.000    0.000    0.000    0.000 
#
# Total GULP energy -67131.792647 kJ/mol
# GULP energy per Si atom -5594.316054 kJ/mol
# Density = 2.634293 g / cm^3
# Si number density = 26.403023 Si / 1000 Ang^3
#
#
#
# Elastic Constant Matrix: (Units=GPa)
#
#
# Indices 1 2 3 4 5 6 
#
# 1 211.2372 63.9127 102.8120 7.5163 11.5869 10.5180
# 2 63.9127 79.4605 54.8990 -5.5742 28.8311 22.4314
# 3 102.8120 54.8990 210.9498 -8.6413 13.0996 11.5487
# 4 7.5163 -5.5742 -8.6413 57.4484 -13.7414 2.9145
# 5 11.5869 28.8311 13.0996 -13.7414 74.1720 -2.8656
# 6 10.5180 22.4314 11.5487 2.9145 -2.8656 41.7174
#
#
#
# Elastic Compliance Matrix: (Units=1/GPa)
#
#
# Indices 1 2 3 4 5 6 
#
# 1 0.007467 -0.005331 -0.002492 -0.001700 0.001103 0.001868
# 2 -0.005331 0.025582 -0.002782 0.001268 -0.008862 -0.012339
# 3 -0.002492 -0.002782 0.006683 0.001173 0.000517 0.000228
# 4 -0.001700 0.001268 0.001173 0.018724 0.002970 -0.001682
# 5 0.001103 -0.008862 0.000517 0.002970 0.017419 0.005333
# 6 0.001868 -0.012339 0.000228 -0.001682 0.005333 0.030555
#
#
# Mechanical properties :
#
#
# Convention : Reuss Voigt Hill
#
# Bulk Modulus (GPa) = 53.99098 104.98833 79.48966
# Shear Modulus (GPa) = 37.36525 53.33579 45.35052
#
# Velocity S-wave (km/s) = 3.76598 4.49939 4.14892
# Velocity P-wave (km/s) = 6.27721 8.17574 7.28855
#
# Compressibility (1/GPa) = 0.01852161
#
# Stress axis : x y z
#
# Youngs Moduli (GPa) = 133.92370 39.09004 149.64211
#
# Poissons Ratio (x) = 0.20839 0.37295
# Poissons Ratio (y) = 0.71394 0.41627
# Poissons Ratio (z) = 0.33378 0.10874
#
# Static dielectric constant tensor:
#      x y z
#    x 2.062410 -0.064800 0.000890 
#    y -0.064800 2.186450 0.013390 
#    z 0.000890 0.013390 2.078500 
# 
# From -- ./inp_files/125472.got.cif
#   From: 2010.05.17/outbox.cif.g08.bks.cpg/sg2_63_cif.got.tgz:125472.got - 2010.06.03 11:33:40.
