data_PCOD9112158
_publ_section_title
;
Structure prediction by ZEFSAII (Michael W. Deem and Ramdas Pophale) SiO2 
 PCOD9112158
Probable space group: P -1
;
_chemical_formula_sum "Si O2"
_cell_formula_units_Z 12
_cell_length_a 16.233943
_cell_length_b 5.614990
_cell_length_c 9.505687
_cell_angle_alpha 79.211843
_cell_angle_beta 128.451591
_cell_angle_gamma 124.229068
_cell_volume 543.053832
_symmetry_space_group_name_H-M "P -1"
_symmetry_group_IT_number 2
_symmetry_cell_setting 'triclinic'
loop_
_space_group_symop_operation_xyz
x,y,z
-x,-y,-z
loop_
_atom_site_type_symbol
_atom_site_label
_atom_site_fract_x
_atom_site_fract_y
_atom_site_fract_z
Si Si1 0.846357 0.754325 0.865967
Si Si2 0.126165 0.796792 0.658932
Si Si3 0.724866 0.663372 0.444356
Si Si4 0.543386 0.561463 0.874592
Si Si5 0.219981 0.887602 0.042720
Si Si6 0.352994 0.726729 0.857880
O O1 0.786129 0.678795 0.654192
O O2 0.815708 0.439636 0.924054
O O3 0.794281 0.926437 0.872325
O O4 0.000000 0.000000 0.000000
O O5 0.246382 0.776550 0.775024
O O6 0.000000 0.500000 0.500000
O O7 0.168061 0.070759 0.571923
O O8 0.125610 0.846366 0.818789
O O9 0.592852 0.645739 0.325969
O O10 0.671997 0.381209 0.318092
O O11 0.629502 0.895520 0.871626
O O12 0.500000 0.500000 0.000000
O O13 0.650447 0.493733 0.007276
O O14 0.500000 0.000000 0.000000
#
# Coordination Sequence:
#
# PCOD9112158 Si02
#       6
#     2   2   2   2   2   2
#     4  12  30  50  72 104 163 201 244 309 386 456
#     4  12  25  42  74 109 142 196 263 310 366 451
#     4  11  25  44  72 106 145 199 245 310 378 450
#     4  10  20  44  72 108 140 182 251 316 371 425
#     4  12  26  48  74 108 147 201 251 311 378 451
#     4  11  21  41  75 103 145 191 245 317 382 425
#
# _framework density 22.097256000000002
#
# number of rings (size 3 to 8) (size 9 to 14) (size 15 to 20)
#    0.000    0.667    5.000    3.500    4.667    2.000 
#    0.000    0.000    0.000    0.000    0.000    0.000 
#    0.000    0.000    0.000    0.000    0.000    0.000 
#
# Total GULP energy -66934.499562 kJ/mol
# GULP energy per Si atom -5577.874963 kJ/mol
# Density = 2.204696 g / cm^3
# Si number density = 22.097256 Si / 1000 Ang^3
#
#
#
# Elastic Constant Matrix: (Units=GPa)
#
#
# Indices 1 2 3 4 5 6 
#
# 1 76.6581 37.3766 29.7078 7.8231 -7.9482 -5.7697
# 2 37.3766 181.1963 68.8588 8.1919 -11.6099 19.5530
# 3 29.7078 68.8588 165.1845 22.7950 -18.7507 20.4682
# 4 7.8231 8.1919 22.7950 44.7905 2.1271 3.2551
# 5 -7.9482 -11.6099 -18.7507 2.1271 28.8096 9.7955
# 6 -5.7697 19.5530 20.4682 3.2551 9.7955 36.4806
#
#
#
# Elastic Compliance Matrix: (Units=1/GPa)
#
#
# Indices 1 2 3 4 5 6 
#
# 1 0.015876 -0.003000 -0.002035 -0.001585 0.000140 0.005364
# 2 -0.003000 0.007405 -0.001814 0.000278 0.002342 -0.004079
# 3 -0.002035 -0.001814 0.009286 -0.003932 0.007122 -0.006121
# 4 -0.001585 0.000278 -0.003932 0.024723 -0.005033 0.000952
# 5 0.000140 0.002342 0.007122 -0.005033 0.046578 -0.017287
# 6 0.005364 -0.004079 -0.006121 0.000952 -0.017287 0.038438
#
#
# Mechanical properties :
#
#
# Convention : Reuss Voigt Hill
#
# Bulk Modulus (GPa) = 52.99826 77.21391 65.10609
# Shear Modulus (GPa) = 30.80846 41.15585 35.98216
#
# Velocity S-wave (km/s) = 3.73798 4.32034 4.03966
# Velocity P-wave (km/s) = 6.53193 7.73988 7.16142
#
# Compressibility (1/GPa) = 0.01886854
#
# Stress axis : x y z
#
# Youngs Moduli (GPa) = 62.98739 135.04714 107.69255
#
# Poissons Ratio (x) = 0.40512 0.21914
# Poissons Ratio (y) = 0.18895 0.19540
# Poissons Ratio (z) = 0.12817 0.24503
#
# Static dielectric constant tensor:
#      x y z
#    x 1.980560 -0.116450 -0.002000 
#    y -0.116450 2.000820 -0.054970 
#    z -0.002000 -0.054970 1.779600 
# 
# From -- ./inp_files/297060.got.cif
#   From: 2010.05.17/outbox.cif.g08.bks.cpg/sg2_149_cif.got.tgz:297060.got - 2010.06.03 11:33:40.
