data_PCOD9112915
_publ_section_title
;
Structure prediction by ZEFSAII (Michael W. Deem and Ramdas Pophale) SiO2 
 PCOD9112915
Probable space group: P 2
;
_chemical_formula_sum "Si O2"
_cell_formula_units_Z 14
_cell_length_a 8.815967
_cell_length_b 5.279610
_cell_length_c 20.930358
_cell_angle_alpha 90.000000
_cell_angle_beta 33.721156
_cell_angle_gamma 90.000000
_cell_volume 540.829082
_symmetry_space_group_name_H-M "P 2"
_symmetry_group_IT_number 3
_symmetry_cell_setting 'monoclinic'
loop_
_space_group_symop_operation_xyz
x,y,z
-x,y,-z
loop_
_atom_site_type_symbol
_atom_site_label
_atom_site_fract_x
_atom_site_fract_y
_atom_site_fract_z
Si Si1 0.687563 0.356530 0.536728
Si Si2 0.482883 0.623494 0.728964
Si Si3 0.056146 0.214009 0.730343
Si Si4 0.939551 0.386263 0.902648
Si Si5 0.197791 0.858491 0.575613
Si Si6 0.555989 0.407005 0.845369
Si Si7 0.741014 0.008291 0.119767
O O1 0.667718 0.466387 0.615814
O O2 0.826988 0.589783 0.450405
O O3 0.370194 0.308693 0.625454
O O4 0.820134 0.087202 0.470928
O O5 0.466108 0.920202 0.750910
O O6 0.176193 0.590504 0.808085
O O7 0.521896 0.536225 0.788661
O O8 0.930763 0.204611 0.844748
O O9 0.858651 0.411636 0.764840
O O10 0.037715 0.965128 0.693073
O O11 0.082407 0.226079 0.908437
O O12 0.657033 0.496348 0.026408
O O13 0.500000 0.848600 0.500000
O O14 0.452219 0.119758 0.867202
O O15 0.000000 0.845093 0.000000
#
# Coordination Sequence:
#
# PCOD9112915 Si02
#       7
#     2   2   2   2   2   2   2
#     4  10  23  40  69  90 117 167 225 264 309 383
#     4  10  20  35  63  86 123 171 214 258 315 384
#     4  10  21  39  63  95 125 165 208 275 331 376
#     4   9  19  36  61  91 123 174 208 260 305 409
#     4  10  21  41  64  92 120 161 219 269 313 373
#     4  10  20  37  58  93 137 158 208 261 337 381
#     4   9  18  34  57  85 123 168 209 249 304 386
#
# _framework density 25.886182999999999
#
# number of rings (size 3 to 8) (size 9 to 14) (size 15 to 20)
#    0.000    2.286    0.000    3.857    8.000    0.000 
#    7.714    0.714    0.000    3.429    0.000    0.000 
#    0.000    0.000    0.000    0.000    0.000    0.000 
#
# Total GULP energy -78033.532154 kJ/mol
# GULP energy per Si atom -5573.823725 kJ/mol
# Density = 2.582727 g / cm^3
# Si number density = 25.886183 Si / 1000 Ang^3
#
#
#
# Elastic Constant Matrix: (Units=GPa)
#
#
# Indices 1 2 3 4 5 6 
#
# 1 53.3233 -6.5858 30.9559 0.0000 4.8862 0.0000
# 2 -6.5858 78.0120 17.8541 0.0000 3.3449 0.0000
# 3 30.9559 17.8541 93.0093 0.0000 18.8243 0.0000
# 4 0.0000 0.0000 0.0000 15.4859 0.0000 -0.2934
# 5 4.8862 3.3449 18.8243 0.0000 42.2284 0.0000
# 6 0.0000 0.0000 0.0000 -0.2934 0.0000 -0.2576
#
#
#
# Elastic Compliance Matrix: (Units=1/GPa)
#
#
# Indices 1 2 3 4 5 6 
#
# 1 0.024472 0.004114 -0.009118 0.000000 0.000907 0.000000
# 2 0.004114 0.014099 -0.004126 0.000000 0.000246 0.000000
# 3 -0.009118 -0.004126 0.015717 0.000000 -0.005624 0.000000
# 4 0.000000 0.000000 0.000000 0.063211 0.000000 -0.071981
# 5 0.000907 0.000246 -0.005624 0.000000 0.026063 0.000000
# 6 0.000000 0.000000 0.000000 -0.071981 0.000000 -3.799786
#
#
# Mechanical properties :
#
#
# Convention : Reuss Voigt Hill
#
# Bulk Modulus (GPa) = 27.75608 34.31033 31.03320
# Shear Modulus (GPa) = -1.37895 23.63270 11.12687
#
# Velocity S-wave (km/s) = -0.73065 3.02478 2.07550
# Velocity P-wave (km/s) = 3.16762 5.04798 4.21402
#
# Compressibility (1/GPa) = 0.03602815
#
# Stress axis : x y z
#
# Youngs Moduli (GPa) = 40.86324 70.92467 63.62690
#
# Poissons Ratio (x) = -0.29177 0.58016
# Poissons Ratio (y) = -0.16810 0.26250
# Poissons Ratio (z) = 0.37260 0.29260
#
# Static dielectric constant tensor:
#      x y z
#    x 2.007530 0.000000 0.004840 
#    y 0.000000 2.286300 0.000000 
#    z 0.004840 0.000000 2.269470 
# 
# From -- ./inp_files/15704.got.cif
#   From: 2010.05.17/outbox.cif.g08.bks.cpg/sg3_8_cif.got.tgz:15704.got - 2010.06.03 18:33:08.
