data_PCOD9112687
_publ_section_title
;
Structure prediction by ZEFSAII (Michael W. Deem and Ramdas Pophale) SiO2 
 PCOD9112687
Probable space group: P 2
;
_chemical_formula_sum "Si O2"
_cell_formula_units_Z 13
_cell_length_a 5.230825
_cell_length_b 4.984660
_cell_length_c 18.738644
_cell_angle_alpha 90.000000
_cell_angle_beta 81.101897
_cell_angle_gamma 90.000000
_cell_volume 482.709055
_symmetry_space_group_name_H-M "P 2"
_symmetry_group_IT_number 3
_symmetry_cell_setting 'monoclinic'
loop_
_space_group_symop_operation_xyz
x,y,z
-x,y,-z
loop_
_atom_site_type_symbol
_atom_site_label
_atom_site_fract_x
_atom_site_fract_y
_atom_site_fract_z
Si Si1 0.363965 0.253650 0.080027
Si Si2 0.328174 0.098282 0.226598
Si Si3 0.082887 0.735343 0.618171
Si Si4 0.500000 0.923646 0.500000
Si Si5 0.963499 0.597759 0.230467
Si Si6 0.044399 0.753677 0.081251
Si Si7 0.271233 0.233840 0.376988
O O1 0.491201 0.158955 0.148467
O O2 0.294138 0.565047 0.085570
O O3 0.110410 0.064995 0.085795
O O4 0.500000 0.194536 0.000000
O O5 0.439789 0.178624 0.298366
O O6 0.085156 0.303917 0.228390
O O7 0.207824 0.803166 0.230427
O O8 0.196227 0.657008 0.690952
O O9 0.846121 0.530356 0.614611
O O10 0.285989 0.736586 0.545948
O O11 0.973424 0.035727 0.624485
O O12 0.398038 0.117483 0.442045
O O13 0.862629 0.666137 0.155500
O O14 0.000000 0.694886 0.000000
#
# Coordination Sequence:
#
# PCOD9112687 Si02
#       7
#     2   2   2   1   2   2   2
#     4  10  19  33  55  84 116 155 196 243 300 360
#     4   8  16  34  58  78 115 163 197 236 310 375
#     4  10  23  43  65  93 130 170 209 270 326 379
#     4  12  26  42  72 104 124 170 234 266 328 408
#     4   8  16  34  58  78 115 163 197 236 310 375
#     4  10  19  33  55  84 116 155 196 243 300 360
#     4  10  23  43  65  93 130 170 209 270 326 379
#
# _framework density 26.931334
#
# number of rings (size 3 to 8) (size 9 to 14) (size 15 to 20)
#    0.000    2.462    0.000    1.385    0.000    4.923 
#    2.769    0.000    0.000    0.000    0.000    0.000 
#    0.000    0.000    0.000    0.000    0.000    0.000 
#
# Total GULP energy -72732.301349 kJ/mol
# GULP energy per Si atom -5594.792411 kJ/mol
# Density = 2.687004 g / cm^3
# Si number density = 26.931334 Si / 1000 Ang^3
#
#
#
# Elastic Constant Matrix: (Units=GPa)
#
#
# Indices 1 2 3 4 5 6 
#
# 1 49.6535 23.5738 40.1256 0.0000 7.7285 0.0000
# 2 23.5738 112.5246 22.6460 0.0000 3.7193 0.0000
# 3 40.1256 22.6460 298.9268 0.0000 27.4737 0.0000
# 4 0.0000 0.0000 0.0000 58.1631 0.0000 7.5655
# 5 7.7285 3.7193 27.4737 0.0000 10.6013 0.0000
# 6 0.0000 0.0000 0.0000 7.5655 0.0000 40.6699
#
#
#
# Elastic Compliance Matrix: (Units=1/GPa)
#
#
# Indices 1 2 3 4 5 6 
#
# 1 0.025821 -0.004608 -0.002016 0.000000 -0.011984 0.000000
# 2 -0.004608 0.009874 -0.000157 0.000000 0.000303 0.000000
# 3 -0.002016 -0.000157 0.004578 0.000000 -0.010340 0.000000
# 4 0.000000 0.000000 0.000000 0.017619 0.000000 -0.003278
# 5 -0.011984 0.000303 -0.010340 0.000000 0.129755 0.000000
# 6 0.000000 0.000000 0.000000 -0.003278 0.000000 0.025198
#
#
# Mechanical properties :
#
#
# Convention : Reuss Voigt Hill
#
# Bulk Modulus (GPa) = 37.43642 70.42175 53.92909
# Shear Modulus (GPa) = 21.24853 46.87083 34.05968
#
# Velocity S-wave (km/s) = 2.81194 4.17632 3.56010
# Velocity P-wave (km/s) = 4.94708 7.03284 6.08007
#
# Compressibility (1/GPa) = 0.02671195
#
# Stress axis : x y z
#
# Youngs Moduli (GPa) = 38.72777 101.27688 218.43257
#
# Poissons Ratio (x) = 0.46666 0.44026
# Poissons Ratio (y) = 0.17845 0.03437
# Poissons Ratio (z) = 0.07806 0.01594
#
# Static dielectric constant tensor:
#      x y z
#    x 2.116330 0.000000 -0.006560 
#    y 0.000000 1.982020 0.000000 
#    z -0.006560 0.000000 2.227820 
# 
# From -- ./inp_files/3957.got.cif
#   From: 2010.05.17/outbox.cif.g08.bks.cpg/sg3_2_cif.got.tgz:3957.got - 2010.06.03 18:33:08.
