data_PCOD9112902
_publ_section_title
;
Structure prediction by ZEFSAII (Michael W. Deem and Ramdas Pophale) SiO2 
 PCOD9112902
Probable space group: P 2
;
_chemical_formula_sum "Si O2"
_cell_formula_units_Z 15
_cell_length_a 21.877852
_cell_length_b 6.497140
_cell_length_c 9.423546
_cell_angle_alpha 90.000000
_cell_angle_beta 146.441864
_cell_angle_gamma 90.000000
_cell_volume 740.450096
_symmetry_space_group_name_H-M "P 2"
_symmetry_group_IT_number 3
_symmetry_cell_setting 'monoclinic'
loop_
_space_group_symop_operation_xyz
x,y,z
-x,y,-z
loop_
_atom_site_type_symbol
_atom_site_label
_atom_site_fract_x
_atom_site_fract_y
_atom_site_fract_z
Si Si1 0.030226 0.280450 0.389837
Si Si2 0.353982 0.544426 0.372970
Si Si3 0.500000 0.235971 0.500000
Si Si4 0.814172 0.957835 0.439680
Si Si5 0.690092 0.911193 0.926090
Si Si6 0.263256 0.843520 0.405652
Si Si7 0.018395 0.664659 0.880958
Si Si8 0.798729 0.167919 0.914802
O O1 0.000000 0.263520 0.500000
O O2 0.016049 0.514276 0.312529
O O3 0.141036 0.175293 0.540445
O O4 0.923793 0.178090 0.108172
O O5 0.452956 0.387594 0.530471
O O6 0.349219 0.716767 0.241044
O O7 0.347041 0.669780 0.507838
O O8 0.247429 0.395467 0.150905
O O9 0.594896 0.084841 0.742404
O O10 0.745284 0.923322 0.450815
O O11 0.927870 0.842381 0.694811
O O12 0.739134 0.857667 0.172433
O O13 0.788848 0.023069 0.031942
O O14 0.279115 0.050843 0.346184
O O15 0.143386 0.749178 0.126422
O O16 0.000000 0.559473 0.000000
#
# Coordination Sequence:
#
# PCOD9112902 Si02
#       8
#     2   2   1   2   2   2   2   2
#     4  12  23  33  54  85 129 176 213 250 286 359
#     4  10  21  40  67  90 119 158 211 263 313 374
#     4  10  22  42  72  90 110 158 216 268 330 374
#     4  11  24  37  57  91 136 163 206 255 306 362
#     4  10  22  40  62  92 119 156 206 269 317 367
#     4  10  21  38  59  88 128 173 206 247 302 381
#     4  10  23  35  53  83 125 180 213 240 297 367
#     4  10  20  35  57  85 123 167 211 242 301 362
#
# _framework density 20.257947999999999
#
# number of rings (size 3 to 8) (size 9 to 14) (size 15 to 20)
#    0.000    1.600    4.000    0.400    3.733    0.533 
#    0.000    0.000    0.000   19.200    0.000    0.000 
#    0.000    0.000    0.000    0.000    0.000    0.000 
#
# Total GULP energy -83500.861487 kJ/mol
# GULP energy per Si atom -5566.724099 kJ/mol
# Density = 2.021184 g / cm^3
# Si number density = 20.257948 Si / 1000 Ang^3
#
#
#
# Elastic Constant Matrix: (Units=GPa)
#
#
# Indices 1 2 3 4 5 6 
#
# 1 101.4220 45.6745 25.8083 0.0000 -19.3364 0.0000
# 2 45.6745 85.8120 7.6116 0.0000 -11.1322 0.0000
# 3 25.8083 7.6116 24.3674 0.0000 -10.0145 0.0000
# 4 0.0000 0.0000 0.0000 18.2317 0.0000 3.9029
# 5 -19.3364 -11.1322 -10.0145 0.0000 36.8858 0.0000
# 6 0.0000 0.0000 0.0000 3.9029 0.0000 28.8017
#
#
#
# Elastic Compliance Matrix: (Units=1/GPa)
#
#
# Indices 1 2 3 4 5 6 
#
# 1 0.017758 -0.007733 -0.015225 0.000000 0.002842 0.000000
# 2 -0.007733 0.015640 0.004028 0.000000 0.001760 0.000000
# 3 -0.015225 0.004028 0.059797 0.000000 0.009469 0.000000
# 4 0.000000 0.000000 0.000000 0.056488 0.000000 -0.007655
# 5 0.002842 0.001760 0.009469 0.000000 0.031703 0.000000
# 6 0.000000 0.000000 0.000000 -0.007655 0.000000 0.035757
#
#
# Mechanical properties :
#
#
# Convention : Reuss Voigt Hill
#
# Bulk Modulus (GPa) = 18.07138 41.08779 29.57959
# Shear Modulus (GPa) = 18.28497 25.61765 21.95131
#
# Velocity S-wave (km/s) = 3.00760 3.55994 3.29536
# Velocity P-wave (km/s) = 4.58267 6.10114 5.39559
#
# Compressibility (1/GPa) = 0.05533610
#
# Stress axis : x y z
#
# Youngs Moduli (GPa) = 56.31182 63.93711 16.72326
#
# Poissons Ratio (x) = 0.49442 0.25461
# Poissons Ratio (y) = 0.43545 -0.06736
# Poissons Ratio (z) = 0.85734 -0.25754
#
# Static dielectric constant tensor:
#      x y z
#    x 1.801530 0.000000 -0.008860 
#    y 0.000000 1.764460 0.000000 
#    z -0.008860 0.000000 1.717560 
# 
# From -- ./inp_files/8338.got.cif
#   From: 2010.05.17/outbox.cif.g08.bks.cpg/sg3_5_cif.got.tgz:8338.got - 2010.06.03 18:33:08.
