data_PCOD9112515
_publ_section_title
;
Structure prediction by ZEFSAII (Michael W. Deem and Ramdas Pophale) SiO2 
 PCOD9112515
Probable space group: P 2
;
_chemical_formula_sum "Si O2"
_cell_formula_units_Z 11
_cell_length_a 7.730241
_cell_length_b 7.922551
_cell_length_c 8.622391
_cell_angle_alpha 90.000000
_cell_angle_beta 78.413723
_cell_angle_gamma 90.000000
_cell_volume 517.302923
_symmetry_space_group_name_H-M "P 2"
_symmetry_group_IT_number 3
_symmetry_cell_setting 'monoclinic'
loop_
_space_group_symop_operation_xyz
x,y,z
-x,y,-z
loop_
_atom_site_type_symbol
_atom_site_label
_atom_site_fract_x
_atom_site_fract_y
_atom_site_fract_z
Si Si1 0.931107 0.957490 0.671983
Si Si2 0.722116 0.079418 0.196860
Si Si3 0.179623 0.326081 0.382354
Si Si4 0.206530 0.774075 0.017726
Si Si5 0.500000 0.244430 0.500000
Si Si6 0.798417 0.404460 0.979977
O O1 0.000000 0.874091 0.500000
O O2 0.815763 0.836295 0.801126
O O3 0.091167 0.038419 0.748035
O O4 0.827804 0.122315 0.632698
O O5 0.583609 0.127703 0.352418
O O6 0.725285 0.241066 0.081459
O O7 0.692172 0.915329 0.098096
O O8 0.346190 0.360487 0.458894
O O9 0.200112 0.388821 0.205049
O O10 0.000000 0.379664 0.500000
O O11 0.281224 0.588420 0.972717
O O12 0.000000 0.772486 0.000000
O O13 0.000000 0.408754 0.000000
#
# Coordination Sequence:
#
# PCOD9112515 Si02
#       6
#     2   2   2   2   1   2
#     4  10  17  36  62  89 123 159 202 254 295 362
#     4  11  20  38  61  90 125 157 210 258 298 372
#     4  11  21  38  65  94 123 162 208 252 304 373
#     4   9  20  34  62  96 121 161 208 250 308 370
#     4  12  24  38  68  92 118 174 206 248 326 352
#     4  11  19  37  66  93 125 165 202 255 315 360
#
# _framework density 21.264139
#
# number of rings (size 3 to 8) (size 9 to 14) (size 15 to 20)
#    0.000    1.455    7.273    0.545    0.000    1.455 
#    0.000    2.727    8.000    0.000    0.000    0.000 
#    0.000    0.000    0.000    0.000    0.000    0.000 
#
# Total GULP energy -61406.053551 kJ/mol
# GULP energy per Si atom -5582.368505 kJ/mol
# Density = 2.121574 g / cm^3
# Si number density = 21.264139 Si / 1000 Ang^3
#
#
#
# Elastic Constant Matrix: (Units=GPa)
#
#
# Indices 1 2 3 4 5 6 
#
# 1 92.6035 11.5595 35.6221 0.0000 8.4860 0.0000
# 2 11.5595 132.5567 71.3471 0.0000 -7.9039 0.0000
# 3 35.6221 71.3471 167.5437 0.0000 4.7614 0.0000
# 4 0.0000 0.0000 0.0000 4.2073 0.0000 6.8220
# 5 8.4860 -7.9039 4.7614 0.0000 24.0494 0.0000
# 6 0.0000 0.0000 0.0000 6.8220 0.0000 -3.6469
#
#
#
# Elastic Compliance Matrix: (Units=1/GPa)
#
#
# Indices 1 2 3 4 5 6 
#
# 1 0.012093 0.000062 -0.002491 0.000000 -0.003753 0.000000
# 2 0.000062 0.010199 -0.004476 0.000000 0.004216 0.000000
# 3 -0.002491 -0.004476 0.008469 0.000000 -0.002269 0.000000
# 4 0.000000 0.000000 0.000000 0.058932 0.000000 0.110240
# 5 -0.003753 0.004216 -0.002269 0.000000 0.044740 0.000000
# 6 0.000000 0.000000 0.000000 0.110240 0.000000 -0.067988
#
#
# Mechanical properties :
#
#
# Convention : Reuss Voigt Hill
#
# Bulk Modulus (GPa) = 58.99257 69.97346 64.48302
# Shear Modulus (GPa) = 58.20345 23.20033 40.70189
#
# Velocity S-wave (km/s) = 5.23747 3.30669 4.37980
# Velocity P-wave (km/s) = 8.02357 6.89617 7.48114
#
# Compressibility (1/GPa) = 0.01695129
#
# Stress axis : x y z
#
# Youngs Moduli (GPa) = 82.69146 98.04659 118.07877
#
# Poissons Ratio (x) = -0.00612 0.29414
# Poissons Ratio (y) = -0.00516 0.52856
# Poissons Ratio (z) = 0.20599 0.43889
#
# Static dielectric constant tensor:
#      x y z
#    x 1.819640 0.000000 0.019520 
#    y 0.000000 1.771420 0.000000 
#    z 0.019520 0.000000 1.782310 
# 
# From -- ./inp_files/5064.got.cif
#   From: 2010.05.17/outbox.cif.g08.bks.cpg/sg3_3_cif.got.tgz:5064.got - 2010.06.03 18:33:08.
