data_PCOD9112904
_publ_section_title
;
Structure prediction by ZEFSAII (Michael W. Deem and Ramdas Pophale) SiO2 
 PCOD9112904
Probable space group: P 2
;
_chemical_formula_sum "Si O2"
_cell_formula_units_Z 16
_cell_length_a 9.045543
_cell_length_b 12.269142
_cell_length_c 8.459599
_cell_angle_alpha 90.000000
_cell_angle_beta 58.712376
_cell_angle_gamma 90.000000
_cell_volume 802.318446
_symmetry_space_group_name_H-M "P 2"
_symmetry_group_IT_number 3
_symmetry_cell_setting 'monoclinic'
loop_
_space_group_symop_operation_xyz
x,y,z
-x,y,-z
loop_
_atom_site_type_symbol
_atom_site_label
_atom_site_fract_x
_atom_site_fract_y
_atom_site_fract_z
Si Si1 0.809594 0.333560 0.175868
Si Si2 0.676990 0.575092 0.306885
Si Si3 0.161218 0.189437 0.530608
Si Si4 0.962153 0.741280 0.207761
Si Si5 0.463664 0.174577 0.833592
Si Si6 0.532869 0.936733 0.291338
Si Si7 0.156316 0.939447 0.531825
Si Si8 0.338687 0.734939 0.973987
O O1 0.722532 0.449420 0.259446
O O2 0.839680 0.268530 0.321121
O O3 0.681604 0.261946 0.136060
O O4 0.000000 0.351356 0.000000
O O5 0.500000 0.590101 0.500000
O O6 0.657712 0.633333 0.147972
O O7 0.834864 0.639596 0.303686
O O8 0.348943 0.201993 0.345289
O O9 0.000000 0.206066 0.500000
O O10 0.152460 0.063725 0.593463
O O11 0.869841 0.849210 0.321027
O O12 0.156025 0.732655 0.167367
O O13 0.000000 0.746957 0.000000
O O14 0.408398 0.056905 0.792934
O O15 0.500000 0.166520 0.000000
O O16 0.500000 0.929673 0.500000
O O17 0.335742 0.924358 0.340193
O O18 0.642051 0.842595 0.147383
O O19 0.000000 0.927116 0.500000
O O20 0.500000 0.731656 0.000000
#
# Coordination Sequence:
#
# PCOD9112904 Si02
#       8
#     2   2   2   2   2   2   2   2
#     4  12  25  43  66  90 120 162 211 263 320 375
#     4  11  24  44  64  83 116 159 206 255 310 374
#     4  10  22  41  63  93 127 163 208 258 311 375
#     4  10  21  37  58  86 120 154 196 243 296 360
#     4  11  23  40  63  93 128 166 209 258 312 372
#     4  11  21  37  60  89 127 166 204 247 307 374
#     4  10  20  35  57  86 122 156 193 241 296 360
#     4  11  22  37  61  92 125 158 202 255 308 368
#
# _framework density 19.942207
#
# number of rings (size 3 to 8) (size 9 to 14) (size 15 to 20)
#    0.000    1.250    0.000    8.250    0.000    4.000 
#    0.000    4.375    0.000    0.000    0.000    0.000 
#    0.000    0.000    0.000    0.000    0.000    0.000 
#
# Total GULP energy -89405.572090 kJ/mol
# GULP energy per Si atom -5587.848256 kJ/mol
# Density = 1.989682 g / cm^3
# Si number density = 19.942207 Si / 1000 Ang^3
#
#
#
# Elastic Constant Matrix: (Units=GPa)
#
#
# Indices 1 2 3 4 5 6 
#
# 1 128.5684 47.9716 19.5597 0.0000 -13.4203 0.0000
# 2 47.9716 126.6195 43.3108 0.0000 -6.5107 0.0000
# 3 19.5597 43.3108 67.8489 0.0000 -14.3754 0.0000
# 4 0.0000 0.0000 0.0000 24.2463 0.0000 -13.0445
# 5 -13.4203 -6.5107 -14.3754 0.0000 37.2371 0.0000
# 6 0.0000 0.0000 0.0000 -13.0445 0.0000 16.5464
#
#
#
# Elastic Compliance Matrix: (Units=1/GPa)
#
#
# Indices 1 2 3 4 5 6 
#
# 1 0.009334 -0.003422 0.000087 0.000000 0.002799 0.000000
# 2 -0.003422 0.011380 -0.006662 0.000000 -0.001816 0.000000
# 3 0.000087 -0.006662 0.020394 0.000000 0.006740 0.000000
# 4 0.000000 0.000000 0.000000 0.071620 0.000000 0.056463
# 5 0.002799 -0.001816 0.006740 0.000000 0.030148 0.000000
# 6 0.000000 0.000000 0.000000 0.056463 0.000000 0.104949
#
#
# Mechanical properties :
#
#
# Convention : Reuss Voigt Hill
#
# Bulk Modulus (GPa) = 47.36495 60.52453 53.94474
# Shear Modulus (GPa) = 18.19122 29.75228 23.97175
#
# Velocity S-wave (km/s) = 3.02354 3.86673 3.47084
# Velocity P-wave (km/s) = 5.99931 7.09587 6.57051
#
# Compressibility (1/GPa) = 0.02111266
#
# Stress axis : x y z
#
# Youngs Moduli (GPa) = 107.13810 87.87622 49.03299
#
# Poissons Ratio (x) = 0.30071 -0.00425
# Poissons Ratio (y) = 0.36662 0.32667
# Poissons Ratio (z) = -0.00928 0.58546
#
# Static dielectric constant tensor:
#      x y z
#    x 1.778210 0.000000 -0.007260 
#    y 0.000000 1.677770 0.000000 
#    z -0.007260 0.000000 1.705050 
# 
# From -- ./inp_files/5995.got.cif
#   From: 2010.05.17/outbox.cif.g08.bks.cpg/sg3_3_cif.got.tgz:5995.got - 2010.06.03 18:33:08.
