data_PCOD9112021
_publ_section_title
;
Structure prediction by ZEFSAII (Michael W. Deem and Ramdas Pophale) SiO2 
 PCOD9112021
Probable space group: P -1
;
_chemical_formula_sum "Si O2"
_cell_formula_units_Z 16
_cell_length_a 23.149759
_cell_length_b 14.138064
_cell_length_c 8.273465
_cell_angle_alpha 30.078200
_cell_angle_beta 132.280988
_cell_angle_gamma 150.219797
_cell_volume 639.836446
_symmetry_space_group_name_H-M "P -1"
_symmetry_group_IT_number 2
_symmetry_cell_setting 'triclinic'
loop_
_space_group_symop_operation_xyz
x,y,z
-x,-y,-z
loop_
_atom_site_type_symbol
_atom_site_label
_atom_site_fract_x
_atom_site_fract_y
_atom_site_fract_z
Si Si1 0.997063 0.676722 0.618209
Si Si2 0.174766 0.246323 0.261641
Si Si3 0.265688 0.706259 0.975354
Si Si4 0.404943 0.894352 0.282538
Si Si5 0.123846 0.751664 0.465361
Si Si6 0.767507 0.275016 0.549011
Si Si7 0.403788 0.480867 0.401346
Si Si8 0.517518 0.334246 0.362935
O O1 0.094190 0.861411 0.374827
O O2 0.868155 0.443099 0.630291
O O3 0.038783 0.925369 0.442915
O O4 0.000000 0.500000 0.000000
O O5 0.266042 0.234580 0.438559
O O6 0.211951 0.404298 0.269458
O O7 0.199580 0.473144 0.859142
O O8 0.160317 0.655462 0.802611
O O9 0.387782 0.000399 0.671240
O O10 0.313230 0.788703 0.124154
O O11 0.360909 0.915546 0.329034
O O12 0.413002 0.684475 0.594677
O O13 0.536495 0.218621 0.002115
O O14 0.221795 0.888615 0.304743
O O15 0.000000 0.500000 0.500000
O O16 0.500000 0.500000 0.500000
O O17 0.411510 0.505146 0.572432
O O18 0.500000 0.500000 0.000000
#
# Coordination Sequence:
#
# PCOD9112021 Si02
#       8
#     2   2   2   2   2   2   2   2
#     4  11  24  44  70 100 131 177 235 284 341 405
#     4  11  23  44  65  96 139 176 224 280 344 397
#     4  10  20  44  67  93 136 182 216 283 343 399
#     4  11  22  45  69  98 141 180 230 273 341 420
#     4   9  21  42  65  95 129 168 225 284 332 392
#     4  10  24  42  69  96 129 187 222 280 346 402
#     4  11  25  41  67 102 140 184 223 282 342 406
#     4  11  24  43  67 102 138 178 230 280 342 411
#
# _framework density 25.006392000000002
#
# number of rings (size 3 to 8) (size 9 to 14) (size 15 to 20)
#    0.000    1.500    2.500    1.875    7.000    2.500 
#    2.250    9.375    0.000    0.000    0.000    0.000 
#    0.000    0.000    0.000    0.000    0.000    0.000 
#
# Total GULP energy -89334.401421 kJ/mol
# GULP energy per Si atom -5583.400089 kJ/mol
# Density = 2.494948 g / cm^3
# Si number density = 25.006392 Si / 1000 Ang^3
#
#
#
# Elastic Constant Matrix: (Units=GPa)
#
#
# Indices 1 2 3 4 5 6 
#
# 1 130.9914 3.4492 23.0416 -2.2341 -15.5006 9.2759
# 2 3.4492 130.0148 -3.2104 17.4594 -0.6814 -5.8128
# 3 23.0416 -3.2104 61.6633 -4.0757 -3.6972 -1.7939
# 4 -2.2341 17.4594 -4.0757 23.4964 3.4210 18.5458
# 5 -15.5006 -0.6814 -3.6972 3.4210 29.3979 9.7555
# 6 9.2759 -5.8128 -1.7939 18.5458 9.7555 31.5961
#
#
#
# Elastic Compliance Matrix: (Units=1/GPa)
#
#
# Indices 1 2 3 4 5 6 
#
# 1 0.010213 -0.002290 -0.003121 0.010680 0.007766 -0.012263
# 2 -0.002290 0.011221 0.000315 -0.020590 -0.003828 0.016022
# 3 -0.003121 0.000315 0.017548 0.001795 0.000062 0.000898
# 4 0.010680 -0.020590 0.001795 0.123843 0.019335 -0.085483
# 5 0.007766 -0.003828 0.000062 0.019335 0.045162 -0.028274
# 6 -0.012263 0.016022 0.000898 -0.085483 -0.028274 0.097154
#
#
# Mechanical properties :
#
#
# Convention : Reuss Voigt Hill
#
# Bulk Modulus (GPa) = 34.73144 41.02558 37.87851
# Shear Modulus (GPa) = 15.38798 36.85736 26.12267
#
# Velocity S-wave (km/s) = 2.48334 3.84333 3.23559
# Velocity P-wave (km/s) = 4.70551 6.01137 5.39807
#
# Compressibility (1/GPa) = 0.02879236
#
# Stress axis : x y z
#
# Youngs Moduli (GPa) = 97.91593 89.11648 56.98619
#
# Poissons Ratio (x) = 0.20406 0.17783
# Poissons Ratio (y) = 0.22420 -0.01798
# Poissons Ratio (z) = 0.30556 -0.02811
#
# Static dielectric constant tensor:
#      x y z
#    x 2.091330 0.028360 -0.016950 
#    y 0.028360 1.929970 0.004220 
#    z -0.016950 0.004220 1.958990 
# 
# From -- ./inp_files/354492.got.cif
#   From: 2010.05.17/outbox.cif.g08.bks.cpg/sg2_178_cif.got.tgz:354492.got - 2010.06.03 11:33:40.
