data_PCOD9112377
_publ_section_title
;
Structure prediction by ZEFSAII (Michael W. Deem and Ramdas Pophale) SiO2 
 PCOD9112377
Probable space group: P -1
;
_chemical_formula_sum "Si O2"
_cell_formula_units_Z 16
_cell_length_a 11.699051
_cell_length_b 15.796758
_cell_length_c 12.405075
_cell_angle_alpha 48.852640
_cell_angle_beta 54.664088
_cell_angle_gamma 100.734858
_cell_volume 542.815184
_symmetry_space_group_name_H-M "P -1"
_symmetry_group_IT_number 2
_symmetry_cell_setting 'triclinic'
loop_
_space_group_symop_operation_xyz
x,y,z
-x,-y,-z
loop_
_atom_site_type_symbol
_atom_site_label
_atom_site_fract_x
_atom_site_fract_y
_atom_site_fract_z
Si Si1 0.644190 0.261341 0.243143
Si Si2 0.979537 0.805198 0.150546
Si Si3 0.797274 0.964806 0.624902
Si Si4 0.547674 0.218761 0.814482
Si Si5 0.249428 0.857404 0.597122
Si Si6 0.802161 0.211639 0.806034
Si Si7 0.468930 0.343680 0.168844
Si Si8 0.280340 0.202155 0.834002
O O1 0.913252 0.373351 0.062761
O O2 0.721249 0.448468 0.016975
O O3 0.302008 0.015884 0.715631
O O4 0.514593 0.103228 0.338544
O O5 0.915861 0.645313 0.388752
O O6 0.673457 0.647292 0.383591
O O7 0.136774 0.008816 0.982952
O O8 0.709036 0.940603 0.812225
O O9 0.498531 0.698809 0.925658
O O10 0.982734 0.205616 0.257603
O O11 0.000000 0.000000 0.500000
O O12 0.850629 0.365122 0.585982
O O13 0.585203 0.359881 0.603672
O O14 0.343760 0.983368 0.040658
O O15 0.477503 0.995648 0.250382
O O16 0.066869 0.035291 0.699009
O O17 0.500000 0.500000 0.000000
#
# Coordination Sequence:
#
# PCOD9112377 Si02
#       8
#     2   2   2   2   2   2   2   2
#     4   8  14  26  42  65  89 115 148 189 226 263
#     4   8  14  23  39  63  88 110 146 189 226 253
#     4  10  17  27  43  67  93 115 149 195 230 261
#     4   9  15  24  40  63  91 112 143 189 235 258
#     4   8  14  24  42  66  89 109 144 193 229 255
#     4   8  14  23  37  64  90 113 137 180 241 270
#     4  10  19  29  43  65  96 127 150 178 227 285
#     4   9  15  25  40  63  89 113 147 190 225 258
#
# _framework density 29.475961000000002
#
# number of rings (size 3 to 8) (size 9 to 14) (size 15 to 20)
#    0.000    3.250    1.250    0.000    0.000    0.000 
#    0.000    0.000    0.000    0.750    0.000  119.000 
#    0.000    0.000    0.000    0.000    0.000    0.000 
#
# Total GULP energy -89432.488958 kJ/mol
# GULP energy per Si atom -5589.530560 kJ/mol
# Density = 2.940887 g / cm^3
# Si number density = 29.475961 Si / 1000 Ang^3
#
#
#
# Elastic Constant Matrix: (Units=GPa)
#
#
# Indices 1 2 3 4 5 6 
#
# 1 386.4952 64.3140 65.0639 -22.2783 73.5910 -28.9862
# 2 64.3140 193.2950 43.9880 34.0919 18.6900 6.7911
# 3 65.0639 43.9880 93.6683 23.0043 17.6555 -2.5922
# 4 -22.2783 34.0919 23.0043 61.4850 -14.9710 3.4268
# 5 73.5910 18.6900 17.6555 -14.9710 43.1263 -12.0068
# 6 -28.9862 6.7911 -2.5922 3.4268 -12.0068 58.9250
#
#
#
# Elastic Compliance Matrix: (Units=1/GPa)
#
#
# Indices 1 2 3 4 5 6 
#
# 1 0.004178 -0.000696 -0.001830 0.001218 -0.005409 0.000882
# 2 -0.000696 0.006780 -0.001072 -0.004313 -0.003249 -0.001582
# 3 -0.001830 -0.001072 0.015125 -0.006959 -0.005236 -0.000773
# 4 0.001218 -0.004313 -0.006959 0.024429 0.011603 0.001734
# 5 -0.005409 -0.003249 -0.005236 0.011603 0.041461 0.005257
# 6 0.000882 -0.001582 -0.000773 0.001734 0.005257 0.018523
#
#
# Mechanical properties :
#
#
# Convention : Reuss Voigt Hill
#
# Bulk Modulus (GPa) = 52.95138 113.35446 83.15292
# Shear Modulus (GPa) = 40.32641 66.04678 53.18660
#
# Velocity S-wave (km/s) = 3.70281 4.73874 4.25244
# Velocity P-wave (km/s) = 6.02365 8.27532 7.23758
#
# Compressibility (1/GPa) = 0.01888525
#
# Stress axis : x y z
#
# Youngs Moduli (GPa) = 239.37058 147.50248 66.11392
#
# Poissons Ratio (x) = 0.10271 0.12099
# Poissons Ratio (y) = 0.16668 0.07089
# Poissons Ratio (z) = 0.43806 0.15817
#
# Static dielectric constant tensor:
#      x y z
#    x 2.531180 0.011100 -0.095290 
#    y 0.011100 2.258010 -0.062250 
#    z -0.095290 -0.062250 2.256530 
# 
# From -- ./inp_files/248934.got.cif
#   From: 2010.05.17/outbox.cif.g08.bks.cpg/sg2_125_cif.got.tgz:248934.got - 2010.06.03 11:33:40.
