data_PCOD9112387
_publ_section_title
;
Structure prediction by ZEFSAII (Michael W. Deem and Ramdas Pophale) SiO2 
 PCOD9112387
Probable space group: P -1
;
_chemical_formula_sum "Si O2"
_cell_formula_units_Z 16
_cell_length_a 12.891516
_cell_length_b 19.681822
_cell_length_c 13.137309
_cell_angle_alpha 32.418927
_cell_angle_beta 43.969503
_cell_angle_gamma 20.667476
_cell_volume 585.811261
_symmetry_space_group_name_H-M "P -1"
_symmetry_group_IT_number 2
_symmetry_cell_setting 'triclinic'
loop_
_space_group_symop_operation_xyz
x,y,z
-x,-y,-z
loop_
_atom_site_type_symbol
_atom_site_label
_atom_site_fract_x
_atom_site_fract_y
_atom_site_fract_z
Si Si1 0.354048 0.810385 0.656391
Si Si2 0.757759 0.341947 0.211286
Si Si3 0.146132 0.502732 0.603940
Si Si4 0.708555 0.860727 0.634073
Si Si5 0.708033 0.960966 0.160451
Si Si6 0.934019 0.731071 0.078799
Si Si7 0.502591 0.538048 0.565593
Si Si8 0.939479 0.043657 0.117184
O O1 0.296601 0.759172 0.666836
O O2 0.719317 0.506529 0.813804
O O3 0.109925 0.939438 0.749495
O O4 0.352955 0.963510 0.482634
O O5 0.765293 0.325043 0.348970
O O6 0.022338 0.219610 0.117304
O O7 0.424305 0.666349 0.023471
O O8 0.473680 0.333192 0.585299
O O9 0.037987 0.617268 0.651449
O O10 0.943989 0.701023 0.395971
O O11 0.125658 0.368465 0.783245
O O12 0.500000 0.000000 0.500000
O O13 0.616893 0.815483 0.831055
O O14 0.699609 0.925816 0.093284
O O15 0.841842 0.000963 0.003740
O O16 0.500000 0.500000 0.500000
O O17 0.864201 0.218021 0.739197
#
# Coordination Sequence:
#
# PCOD9112387 Si02
#       8
#     2   2   2   2   2   2   2   2
#     4  11  18  36  59  97 132 154 194 255 309 360
#     4  11  23  38  66  97 120 162 204 254 308 357
#     4  11  22  37  57  89 128 164 197 250 309 361
#     4  10  21  31  53  90 134 160 190 239 316 365
#     4  11  20  33  59  98 124 156 193 256 309 358
#     4  11  20  34  58  97 131 153 196 254 309 365
#     4  12  27  44  62  87 122 166 210 253 308 366
#     4  11  21  37  65  90 124 152 205 255 303 359
#
# _framework density 27.312552
#
# number of rings (size 3 to 8) (size 9 to 14) (size 15 to 20)
#    0.000    1.000    7.500    1.500    3.500    0.000 
#    0.000    1.250    0.000    0.750    0.000    0.000 
#    0.000    0.000    0.000    0.000    0.000    0.000 
#
# Total GULP energy -89441.946600 kJ/mol
# GULP energy per Si atom -5590.121662 kJ/mol
# Density = 2.725039 g / cm^3
# Si number density = 27.312552 Si / 1000 Ang^3
#
#
#
# Elastic Constant Matrix: (Units=GPa)
#
#
# Indices 1 2 3 4 5 6 
#
# 1 137.0731 18.5353 67.3736 20.1033 -9.8401 9.3458
# 2 18.5353 122.2438 69.6636 37.2056 -0.3783 17.0593
# 3 67.3736 69.6636 136.7047 55.2991 -12.5253 9.0762
# 4 20.1033 37.2056 55.2991 74.5655 1.2074 5.9901
# 5 -9.8401 -0.3783 -12.5253 1.2074 48.0180 13.7978
# 6 9.3458 17.0593 9.0762 5.9901 13.7978 42.9663
#
#
#
# Elastic Compliance Matrix: (Units=1/GPa)
#
#
# Indices 1 2 3 4 5 6 
#
# 1 0.010138 0.001978 -0.006171 0.001013 0.001083 -0.002176
# 2 0.001978 0.012620 -0.006452 -0.001737 -0.000036 -0.003824
# 3 -0.006171 -0.006452 0.017108 -0.007885 0.003246 0.000347
# 4 0.001013 -0.001737 -0.007885 0.019880 -0.002401 0.000134
# 5 0.001083 -0.000036 0.003246 -0.002401 0.024367 -0.008397
# 6 -0.002176 -0.003824 0.000347 0.000134 -0.008397 0.027870
#
#
# Mechanical properties :
#
#
# Convention : Reuss Voigt Hill
#
# Bulk Modulus (GPa) = 53.83280 78.57408 66.20344
# Shear Modulus (GPa) = 35.85078 49.13990 42.49534
#
# Velocity S-wave (km/s) = 3.62693 4.24626 3.94876
# Velocity P-wave (km/s) = 6.10673 7.27131 6.71432
#
# Compressibility (1/GPa) = 0.01857604
#
# Stress axis : x y z
#
# Youngs Moduli (GPa) = 98.63413 79.24054 58.45117
#
# Poissons Ratio (x) = -0.15673 0.36069
# Poissons Ratio (y) = -0.19509 0.37716
# Poissons Ratio (z) = 0.60864 0.51130
#
# Static dielectric constant tensor:
#      x y z
#    x 2.119630 -0.066350 0.126840 
#    y -0.066350 2.218790 -0.159650 
#    z 0.126840 -0.159650 2.356550 
# 
# From -- ./inp_files/436488.got.cif
#   From: 2010.05.17/outbox.cif.g08.bks.cpg/sg2_219_cif.got.tgz:436488.got - 2010.06.03 11:33:40.
