data_PCOD9112766
_publ_section_title
;
Structure prediction by ZEFSAII (Michael W. Deem and Ramdas Pophale) SiO2 
 PCOD9112766
Probable space group: P 2
;
_chemical_formula_sum "Si O2"
_cell_formula_units_Z 15
_cell_length_a 5.318133
_cell_length_b 7.823600
_cell_length_c 16.029705
_cell_angle_alpha 90.000000
_cell_angle_beta 72.038663
_cell_angle_gamma 90.000000
_cell_volume 634.443277
_symmetry_space_group_name_H-M "P 2"
_symmetry_group_IT_number 3
_symmetry_cell_setting 'monoclinic'
loop_
_space_group_symop_operation_xyz
x,y,z
-x,y,-z
loop_
_atom_site_type_symbol
_atom_site_label
_atom_site_fract_x
_atom_site_fract_y
_atom_site_fract_z
Si Si1 0.730060 0.209260 0.075023
Si Si2 0.931114 0.325755 0.228802
Si Si3 0.600060 0.510654 0.850692
Si Si4 0.303696 0.796568 0.586295
Si Si5 0.000000 0.528309 0.500000
Si Si6 0.462720 0.492232 0.342820
Si Si7 0.355780 0.856461 0.856662
Si Si8 0.064220 0.960067 0.243882
O O1 0.780183 0.239083 0.167821
O O2 0.502214 0.347666 0.087050
O O3 0.664909 0.009377 0.073503
O O4 0.000000 0.247327 0.000000
O O5 0.730529 0.383001 0.320582
O O6 0.082738 0.490200 0.175180
O O7 0.104953 0.164795 0.238366
O O8 0.587833 0.494918 0.750696
O O9 0.410725 0.670025 0.890478
O O10 0.500000 0.883731 0.500000
O O11 0.143106 0.653611 0.551076
O O12 0.475193 0.683683 0.633121
O O13 0.106496 0.912279 0.658179
O O14 0.223481 0.429581 0.424818
O O15 0.109657 0.884835 0.817439
O O16 0.642590 0.884666 0.784561
#
# Coordination Sequence:
#
# PCOD9112766 Si02
#       8
#     2   2   2   2   1   2   2   2
#     4  10  24  44  65  98 137 170 218 280 341 403
#     4  10  22  39  67  91 129 174 224 273 338 395
#     4  11  21  40  67  98 125 179 220 277 324 411
#     4  10  21  36  58  89 126 172 221 279 328 392
#     4  10  20  34  58  92 126 166 224 278 326 382
#     4  10  19  36  59  89 124 166 223 265 331 388
#     4  11  23  41  71  94 130 178 224 267 334 401
#     4  11  22  42  63  97 130 173 226 276 324 408
#
# _framework density 23.642773999999999
#
# number of rings (size 3 to 8) (size 9 to 14) (size 15 to 20)
#    0.000    1.600    2.667    2.400    3.733    1.067 
#    0.000    3.333    5.867    0.800    0.000    0.000 
#    0.000    0.000    0.000    0.000    0.000    0.000 
#
# Total GULP energy -83654.905258 kJ/mol
# GULP energy per Si atom -5576.993684 kJ/mol
# Density = 2.358896 g / cm^3
# Si number density = 23.642774 Si / 1000 Ang^3
#
#
#
# Elastic Constant Matrix: (Units=GPa)
#
#
# Indices 1 2 3 4 5 6 
#
# 1 73.5919 18.7056 15.5087 0.0000 -14.2116 0.0000
# 2 18.7056 89.5978 26.1914 0.0000 -11.6916 0.0000
# 3 15.5087 26.1914 94.6433 0.0000 -27.3184 0.0000
# 4 0.0000 0.0000 0.0000 -17.3239 0.0000 -28.5962
# 5 -14.2116 -11.6916 -27.3184 0.0000 49.6015 0.0000
# 6 0.0000 0.0000 0.0000 -28.5962 0.0000 24.9570
#
#
#
# Elastic Compliance Matrix: (Units=1/GPa)
#
#
# Indices 1 2 3 4 5 6 
#
# 1 0.015022 -0.002466 -0.000838 0.000000 0.003261 0.000000
# 2 -0.002466 0.012609 -0.002891 0.000000 0.000673 0.000000
# 3 -0.000838 -0.002891 0.013361 0.000000 0.006437 0.000000
# 4 0.000000 0.000000 0.000000 -0.019964 0.000000 -0.022875
# 5 0.003261 0.000673 0.006437 0.000000 0.024799 0.000000
# 6 0.000000 0.000000 0.000000 -0.022875 0.000000 0.013858
#
#
# Mechanical properties :
#
#
# Convention : Reuss Voigt Hill
#
# Bulk Modulus (GPa) = 34.96140 42.07160 38.51650
# Shear Modulus (GPa) = 61.26856 24.60873 42.93865
#
# Velocity S-wave (km/s) = 5.09613 3.22973 4.26625
# Velocity P-wave (km/s) = 7.03185 5.63396 6.37136
#
# Compressibility (1/GPa) = 0.02860297
#
# Stress axis : x y z
#
# Youngs Moduli (GPa) = 66.57115 79.31042 74.84222
#
# Poissons Ratio (x) = 0.19555 0.06270
# Poissons Ratio (y) = 0.16414 0.21636
# Poissons Ratio (z) = 0.05577 0.22928
#
# Static dielectric constant tensor:
#      x y z
#    x 2.059680 0.000000 -0.012500 
#    y 0.000000 1.975480 0.000000 
#    z -0.012500 0.000000 1.863580 
# 
# From -- ./inp_files/14146.got.cif
#   From: 2010.05.17/outbox.cif.g08.bks.cpg/sg3_8_cif.got.tgz:14146.got - 2010.06.03 18:33:08.
