data_PCOD9112233
_publ_section_title
;
Structure prediction by ZEFSAII (Michael W. Deem and Ramdas Pophale) SiO2 
 PCOD9112233
Probable space group: P -1
;
_chemical_formula_sum "Si O2"
_cell_formula_units_Z 14
_cell_length_a 11.307974
_cell_length_b 20.942999
_cell_length_c 11.988742
_cell_angle_alpha 19.337120
_cell_angle_beta 47.003811
_cell_angle_gamma 38.489577
_cell_volume 562.600961
_symmetry_space_group_name_H-M "P -1"
_symmetry_group_IT_number 2
_symmetry_cell_setting 'triclinic'
loop_
_space_group_symop_operation_xyz
x,y,z
-x,-y,-z
loop_
_atom_site_type_symbol
_atom_site_label
_atom_site_fract_x
_atom_site_fract_y
_atom_site_fract_z
Si Si1 0.419259 0.658540 0.181179
Si Si2 0.695027 0.967446 0.200823
Si Si3 0.388912 0.550661 0.144711
Si Si4 0.016666 0.760249 0.908523
Si Si5 0.228939 0.322807 0.171199
Si Si6 0.681274 0.022296 0.866524
Si Si7 0.697693 0.943578 0.650426
O O1 0.500000 0.500000 0.500000
O O2 0.328594 0.599602 0.234383
O O3 0.617564 0.616396 0.065870
O O4 0.265340 0.901190 0.946022
O O5 0.754132 0.736190 0.611929
O O6 0.458414 0.096898 0.130780
O O7 0.754578 0.973899 0.027193
O O8 0.592545 0.291319 0.441681
O O9 0.373276 0.787427 0.729791
O O10 0.231044 0.560155 0.147292
O O11 0.861220 0.832778 0.987598
O O12 0.910678 0.752781 0.879412
O O13 0.000000 0.000000 0.500000
O O14 0.299455 0.101723 0.407655
O O15 0.000000 0.500000 0.000000
O O16 0.500000 0.000000 0.000000
#
# Coordination Sequence:
#
# PCOD9112233 Si02
#       7
#     2   2   2   2   2   2   2
#     4  11  21  41  69  96 133 179 217 275 350 392
#     4  11  21  43  68  94 136 173 225 278 333 406
#     4  11  23  43  71  97 140 179 225 276 344 398
#     4  10  25  44  68 100 135 179 231 276 332 410
#     4  11  24  40  70 102 132 177 227 283 336 404
#     4  12  26  44  68 102 136 180 229 279 340 399
#     4  10  20  45  66  93 135 182 224 270 342 402
#
# _framework density 24.884423999999999
#
# number of rings (size 3 to 8) (size 9 to 14) (size 15 to 20)
#    0.000    1.143    5.714    0.857    0.000    7.429 
#    0.000    1.429    0.000    0.000    0.000    0.000 
#    0.000    0.000    0.000    0.000    0.000    0.000 
#
# Total GULP energy -78113.322509 kJ/mol
# GULP energy per Si atom -5579.523036 kJ/mol
# Density = 2.482779 g / cm^3
# Si number density = 24.884424 Si / 1000 Ang^3
#
#
#
# Elastic Constant Matrix: (Units=GPa)
#
#
# Indices 1 2 3 4 5 6 
#
# 1 125.9283 14.1291 18.5930 3.7496 41.8725 19.3266
# 2 14.1291 60.6952 25.9901 6.6493 16.6805 15.9189
# 3 18.5930 25.9901 71.0405 7.0679 21.0027 7.4861
# 4 3.7496 6.6493 7.0679 26.7610 16.3926 11.1953
# 5 41.8725 16.6805 21.0027 16.3926 43.0847 5.4000
# 6 19.3266 15.9189 7.4861 11.1953 5.4000 40.4510
#
#
#
# Elastic Compliance Matrix: (Units=1/GPa)
#
#
# Indices 1 2 3 4 5 6 
#
# 1 0.015276 0.002727 0.000614 0.013277 -0.020065 -0.009481
# 2 0.002727 0.022813 -0.005791 0.005202 -0.009463 -0.009385
# 3 0.000614 -0.005791 0.018255 0.001630 -0.007773 -0.000807
# 4 0.013277 0.005202 0.001630 0.066382 -0.038216 -0.021962
# 5 -0.020065 -0.009463 -0.007773 -0.038216 0.062576 0.016972
# 6 -0.009481 -0.009385 -0.000807 -0.021962 0.016972 0.036907
#
#
# Mechanical properties :
#
#
# Convention : Reuss Voigt Hill
#
# Bulk Modulus (GPa) = 19.43802 41.67648 30.55725
# Shear Modulus (GPa) = 20.47044 35.32279 27.89662
#
# Velocity S-wave (km/s) = 2.87125 3.77168 3.35184
# Velocity P-wave (km/s) = 4.33824 5.97928 5.22361
#
# Compressibility (1/GPa) = 0.05144558
#
# Stress axis : x y z
#
# Youngs Moduli (GPa) = 65.46300 43.83503 54.77914
#
# Poissons Ratio (x) = -0.11955 -0.03365
# Poissons Ratio (y) = -0.17854 0.31721
# Poissons Ratio (z) = -0.04021 0.25384
#
# Static dielectric constant tensor:
#      x y z
#    x 1.989410 0.080100 -0.006380 
#    y 0.080100 1.858760 -0.118250 
#    z -0.006380 -0.118250 2.049220 
# 
# From -- ./inp_files/261145.got.cif
#   From: 2010.05.17/outbox.cif.g08.bks.cpg/sg2_131_cif.got.tgz:261145.got - 2010.06.03 11:33:40.
