data_PCOD9112545
_publ_section_title
;
Structure prediction by ZEFSAII (Michael W. Deem and Ramdas Pophale) SiO2 
 PCOD9112545
Probable space group: P 2
;
_chemical_formula_sum "Si O2"
_cell_formula_units_Z 14
_cell_length_a 17.888685
_cell_length_b 8.211752
_cell_length_c 5.534296
_cell_angle_alpha 90.000000
_cell_angle_beta 128.220911
_cell_angle_gamma 90.000000
_cell_volume 638.697647
_symmetry_space_group_name_H-M "P 2"
_symmetry_group_IT_number 3
_symmetry_cell_setting 'monoclinic'
loop_
_space_group_symop_operation_xyz
x,y,z
-x,y,-z
loop_
_atom_site_type_symbol
_atom_site_label
_atom_site_fract_x
_atom_site_fract_y
_atom_site_fract_z
Si Si1 0.106681 0.566280 0.818560
Si Si2 0.689430 0.544526 0.904962
Si Si3 0.310516 0.915622 0.646924
Si Si4 0.893339 0.894228 0.892005
Si Si5 0.613687 0.541978 0.241518
Si Si6 0.058361 0.230280 0.866718
Si Si7 0.613684 0.918199 0.713443
O O1 0.111350 0.401972 0.984779
O O2 0.000000 0.579501 0.500000
O O3 0.197050 0.549485 0.826861
O O4 0.124030 0.730297 0.997887
O O5 0.656320 0.474483 0.578419
O O6 0.651019 0.730809 0.807312
O O7 0.646971 0.461993 0.057492
O O8 0.197004 0.910843 0.461200
O O9 0.348857 0.729299 0.702722
O O10 0.343594 0.985634 0.452703
O O11 0.353046 0.998103 0.969368
O O12 0.000000 0.880953 0.000000
O O13 0.888651 0.058589 0.039358
O O14 0.500000 0.545535 0.000000
O O15 0.000000 0.238698 0.500000
O O16 0.000000 0.221841 0.000000
O O17 0.500000 0.914831 0.500000
#
# Coordination Sequence:
#
# PCOD9112545 Si02
#       7
#     2   2   2   2   2   2   2
#     4  11  23  38  63  92 127 166 204 259 304 367
#     4  10  19  31  51  83 115 150 202 238 296 362
#     4  10  19  31  51  83 115 150 202 238 296 362
#     4  11  23  38  63  92 127 166 204 259 304 367
#     4  10  18  32  51  82 124 149 194 256 295 357
#     4  10  24  44  60  86 124 170 212 246 308 368
#     4  10  18  32  51  82 124 149 194 256 295 357
#
# _framework density 21.919604
#
# number of rings (size 3 to 8) (size 9 to 14) (size 15 to 20)
#    0.000    1.714    2.857    5.143    4.000    4.571 
#    0.000    0.000    0.000    0.000    0.000    6.000 
#    0.000    0.000    0.000    0.000    0.000    0.000 
#
# Total GULP energy -78014.685131 kJ/mol
# GULP energy per Si atom -5572.477509 kJ/mol
# Density = 2.186971 g / cm^3
# Si number density = 21.919604 Si / 1000 Ang^3
#
#
#
# Elastic Constant Matrix: (Units=GPa)
#
#
# Indices 1 2 3 4 5 6 
#
# 1 136.2653 -4.9050 90.2116 0.0000 7.8569 0.0000
# 2 -4.9050 87.0899 -2.8094 0.0000 -7.1163 0.0000
# 3 90.2116 -2.8094 135.4891 0.0000 -4.7535 0.0000
# 4 0.0000 0.0000 0.0000 9.9550 0.0000 5.3775
# 5 7.8569 -7.1163 -4.7535 0.0000 65.3420 0.0000
# 6 0.0000 0.0000 0.0000 5.3775 0.0000 11.4344
#
#
#
# Elastic Compliance Matrix: (Units=1/GPa)
#
#
# Indices 1 2 3 4 5 6 
#
# 1 0.013459 0.000283 -0.009034 0.000000 -0.002245 0.000000
# 2 0.000283 0.011602 0.000095 0.000000 0.001237 0.000000
# 3 -0.009034 0.000095 0.013471 0.000000 0.002077 0.000000
# 4 0.000000 0.000000 0.000000 0.134661 0.000000 -0.063330
# 5 -0.002245 0.001237 0.002077 0.000000 0.015860 0.000000
# 6 0.000000 0.000000 0.000000 -0.063330 0.000000 0.117239
#
#
# Mechanical properties :
#
#
# Convention : Reuss Voigt Hill
#
# Bulk Modulus (GPa) = 47.12321 58.20431 52.66376
# Shear Modulus (GPa) = 15.12046 35.76943 25.44495
#
# Velocity S-wave (km/s) = 2.62928 4.04399 3.41079
# Velocity P-wave (km/s) = 5.54638 6.95819 6.29201
#
# Compressibility (1/GPa) = 0.02122096
#
# Stress axis : x y z
#
# Youngs Moduli (GPa) = 74.29831 86.18866 74.23481
#
# Poissons Ratio (x) = -0.02441 0.67066
# Poissons Ratio (y) = -0.02104 -0.00708
# Poissons Ratio (z) = 0.67124 -0.00822
#
# Static dielectric constant tensor:
#      x y z
#    x 1.771710 0.000000 0.077280 
#    y 0.000000 1.845360 0.000000 
#    z 0.077280 0.000000 1.749540 
# 
# From -- ./inp_files/3735.got.cif
#   From: 2010.05.17/outbox.cif.g08.bks.cpg/sg3_2_cif.got.tgz:3735.got - 2010.06.03 18:33:08.
