data_PCOD9112022
_publ_section_title
;
Structure prediction by ZEFSAII (Michael W. Deem and Ramdas Pophale) SiO2 
 PCOD9112022
Probable space group: P -1
;
_chemical_formula_sum "Si O2"
_cell_formula_units_Z 14
_cell_length_a 27.832802
_cell_length_b 16.580709
_cell_length_c 7.111561
_cell_angle_alpha 40.835216
_cell_angle_beta 132.920357
_cell_angle_gamma 161.940436
_cell_volume 653.260612
_symmetry_space_group_name_H-M "P -1"
_symmetry_group_IT_number 2
_symmetry_cell_setting 'triclinic'
loop_
_space_group_symop_operation_xyz
x,y,z
-x,-y,-z
loop_
_atom_site_type_symbol
_atom_site_label
_atom_site_fract_x
_atom_site_fract_y
_atom_site_fract_z
Si Si1 0.003367 0.325811 0.484463
Si Si2 0.483352 0.334147 0.820547
Si Si3 0.835404 0.295966 0.100053
Si Si4 0.159132 0.269506 0.331358
Si Si5 0.605748 0.405717 0.352275
Si Si6 0.216033 0.282227 0.069319
Si Si7 0.276869 0.741002 0.777186
O O1 0.051414 0.425952 0.217368
O O2 0.155943 0.561633 0.601467
O O3 0.882819 0.006367 0.746690
O O4 0.923767 0.319302 0.342025
O O5 0.500000 0.500000 0.500000
O O6 0.725252 0.633894 0.437534
O O7 0.617171 0.480335 0.819721
O O8 0.532516 0.396870 0.058826
O O9 0.688241 0.008412 0.081993
O O10 0.771465 0.255147 0.184386
O O11 0.249398 0.553024 0.092482
O O12 0.129449 0.200848 0.151814
O O13 0.000000 0.000000 0.500000
O O14 0.454777 0.070663 0.604548
O O15 0.718707 0.536682 0.260966
#
# Coordination Sequence:
#
# PCOD9112022 Si02
#       7
#     2   2   2   2   2   2   2
#     4  11  22  41  65  97 130 171 214 269 323 383
#     4  10  20  44  67  94 128 168 211 264 323 385
#     4  11  22  41  66  95 133 166 218 265 326 383
#     4  12  26  44  65  96 132 171 222 266 319 383
#     4  10  24  44  64  95 127 169 221 262 324 381
#     4  10  23  42  67  92 133 165 221 262 323 380
#     4  12  25  41  67  95 133 173 216 265 322 384
#
# _framework density 21.430958
#
# number of rings (size 3 to 8) (size 9 to 14) (size 15 to 20)
#    0.857    0.286    2.857    3.429    0.000    4.000 
#    0.000    7.857    0.000    0.000    0.000    0.000 
#    0.000    0.000    0.000    0.000    0.000    0.000 
#
# Total GULP energy -78140.181603 kJ/mol
# GULP energy per Si atom -5581.441543 kJ/mol
# Density = 2.138218 g / cm^3
# Si number density = 21.430958 Si / 1000 Ang^3
#
#
#
# Elastic Constant Matrix: (Units=GPa)
#
#
# Indices 1 2 3 4 5 6 
#
# 1 58.9382 4.4015 36.3345 -21.3256 -22.5986 11.0680
# 2 4.4015 99.0448 36.2589 -13.3912 -6.4803 4.1094
# 3 36.3345 36.2589 108.8454 -12.3219 -10.1445 3.4457
# 4 -21.3256 -13.3912 -12.3219 57.2610 8.2487 -5.3350
# 5 -22.5986 -6.4803 -10.1445 8.2487 31.4902 -7.2095
# 6 11.0680 4.1094 3.4457 -5.3350 -7.2095 16.7435
#
#
#
# Elastic Compliance Matrix: (Units=1/GPa)
#
#
# Indices 1 2 3 4 5 6 
#
# 1 0.035182 0.005055 -0.010428 0.008334 0.018012 -0.011940
# 2 0.005055 0.012478 -0.005125 0.002969 0.003060 -0.003085
# 3 -0.010428 -0.005125 0.013838 -0.001349 -0.002897 0.003626
# 4 0.008334 0.002969 -0.001349 0.020942 0.000926 0.001111
# 5 0.018012 0.003060 -0.002897 0.000926 0.045975 0.008029
# 6 -0.011940 -0.003085 0.003626 0.001111 0.008029 0.071440
#
#
# Mechanical properties :
#
#
# Convention : Reuss Voigt Hill
#
# Bulk Modulus (GPa) = 24.69044 46.75759 35.72401
# Shear Modulus (GPa) = 21.33545 33.75450 27.54498
#
# Velocity S-wave (km/s) = 3.15865 3.97298 3.58898
# Velocity P-wave (km/s) = 4.98484 6.55066 5.82065
#
# Compressibility (1/GPa) = 0.04050151
#
# Stress axis : x y z
#
# Youngs Moduli (GPa) = 28.42335 80.14304 72.26390
#
# Poissons Ratio (x) = -0.40510 0.75358
# Poissons Ratio (y) = -0.14367 0.37035
# Poissons Ratio (z) = 0.29640 0.41073
#
# Static dielectric constant tensor:
#      x y z
#    x 1.773720 0.041690 -0.022280 
#    y 0.041690 1.757920 0.013570 
#    z -0.022280 0.013570 1.820480 
# 
# From -- ./inp_files/127483.got.cif
#   From: 2010.05.17/outbox.cif.g08.bks.cpg/sg2_64_cif.got.tgz:127483.got - 2010.06.03 11:33:40.
