data_PCOD9112066
_publ_section_title
;
Structure prediction by ZEFSAII (Michael W. Deem and Ramdas Pophale) SiO2 
 PCOD9112066
Probable space group: P -1
;
_chemical_formula_sum "Si O2"
_cell_formula_units_Z 13
_cell_length_a 15.930729
_cell_length_b 8.314406
_cell_length_c 7.047528
_cell_angle_alpha 55.003490
_cell_angle_beta 129.044519
_cell_angle_gamma 121.029593
_cell_volume 576.195508
_symmetry_space_group_name_H-M "P -1"
_symmetry_group_IT_number 2
_symmetry_cell_setting 'triclinic'
loop_
_space_group_symop_operation_xyz
x,y,z
-x,-y,-z
loop_
_atom_site_type_symbol
_atom_site_label
_atom_site_fract_x
_atom_site_fract_y
_atom_site_fract_z
Si Si1 0.089689 0.767735 0.819491
Si Si2 0.486573 0.597832 0.116559
Si Si3 0.849045 0.803646 0.544295
Si Si4 0.659450 0.675335 0.632210
Si Si5 0.000000 0.500000 0.500000
Si Si6 0.575382 0.062509 0.381045
Si Si7 0.798043 0.396689 0.558172
O O1 0.043358 0.617161 0.684267
O O2 0.980261 0.812570 0.735929
O O3 0.159986 0.979399 0.691522
O O4 0.155197 0.671973 0.131811
O O5 0.584411 0.577009 0.412497
O O6 0.372153 0.482654 0.134867
O O7 0.500000 0.500000 0.000000
O O8 0.491295 0.832557 0.933451
O O9 0.785362 0.742841 0.692448
O O10 0.797287 0.630141 0.435445
O O11 0.617639 0.871919 0.499184
O O12 0.117933 0.611047 0.487333
O O13 0.680761 0.244409 0.457997
O O14 0.500000 0.000000 0.500000
#
# Coordination Sequence:
#
# PCOD9112066 Si02
#       7
#     2   2   2   2   1   2   2
#     4  10  23  44  69 100 140 173 223 287 345 413
#     4  11  24  45  67  96 134 176 234 288 336 411
#     4  10  22  42  69  99 131 177 222 279 347 407
#     4  11  25  43  69  98 133 182 229 288 348 399
#     4  10  20  44  68  98 130 170 228 272 344 406
#     4  12  26  44  68 100 137 188 232 280 346 411
#     4  11  25  43  68  99 139 181 224 286 342 410
#
# _framework density 22.561786999999999
#
# number of rings (size 3 to 8) (size 9 to 14) (size 15 to 20)
#    0.000    1.231    1.538    4.154    4.308    4.923 
#    0.000   19.231    0.000    0.000    0.000    0.000 
#    0.000    0.000    0.000    0.000    0.000    0.000 
#
# Total GULP energy -72508.854269 kJ/mol
# GULP energy per Si atom -5577.604175 kJ/mol
# Density = 2.251044 g / cm^3
# Si number density = 22.561787 Si / 1000 Ang^3
#
#
#
# Elastic Constant Matrix: (Units=GPa)
#
#
# Indices 1 2 3 4 5 6 
#
# 1 128.3265 22.3563 39.8959 -3.2740 -41.5176 22.6866
# 2 22.3563 81.4390 22.7557 -3.8855 -10.7786 14.4023
# 3 39.8959 22.7557 75.3348 -8.0738 -21.6275 0.4532
# 4 -3.2740 -3.8855 -8.0738 37.7090 7.4652 -6.9513
# 5 -41.5176 -10.7786 -21.6275 7.4652 27.5533 -6.2204
# 6 22.6866 14.4023 0.4532 -6.9513 -6.2204 47.5375
#
#
#
# Elastic Compliance Matrix: (Units=1/GPa)
#
#
# Indices 1 2 3 4 5 6 
#
# 1 0.017286 -0.000013 -0.002788 -0.004894 0.023867 -0.005811
# 2 -0.000013 0.014293 -0.003830 -0.000457 0.001758 -0.004124
# 3 -0.002788 -0.003830 0.018801 0.002256 0.009319 0.003861
# 4 -0.004894 -0.000457 0.002256 0.030006 -0.012744 0.005172
# 5 0.023867 0.001758 0.009319 -0.012744 0.083032 -0.003010
# 6 -0.005811 -0.004124 0.003861 0.005172 -0.003010 0.025385
#
#
# Mechanical properties :
#
#
# Convention : Reuss Voigt Hill
#
# Bulk Modulus (GPa) = 26.94090 50.56844 38.75467
# Shear Modulus (GPa) = 23.31675 35.89947 29.60811
#
# Velocity S-wave (km/s) = 3.21824 3.99327 3.62651
# Velocity P-wave (km/s) = 5.07703 6.61238 5.89490
#
# Compressibility (1/GPa) = 0.03711828
#
# Stress axis : x y z
#
# Youngs Moduli (GPa) = 57.85056 69.96364 53.18788
#
# Poissons Ratio (x) = 0.00092 0.14829
# Poissons Ratio (y) = 0.00076 0.20370
# Poissons Ratio (z) = 0.16129 0.26795
#
# Static dielectric constant tensor:
#      x y z
#    x 1.858230 0.011060 0.045750 
#    y 0.011060 1.837590 -0.024400 
#    z 0.045750 -0.024400 1.841480 
# 
# From -- ./inp_files/26651.got.cif
#   From: 2010.05.17/outbox.cif.g08.bks.cpg/sg2_14_cif.got.tgz:26651.got - 2010.06.03 11:33:40.
