data_PCOD9112777
_publ_section_title
;
Structure prediction by ZEFSAII (Michael W. Deem and Ramdas Pophale) SiO2 
 PCOD9112777
Probable space group: P 2
;
_chemical_formula_sum "Si O2"
_cell_formula_units_Z 16
_cell_length_a 12.510062
_cell_length_b 5.711439
_cell_length_c 14.950272
_cell_angle_alpha 90.000000
_cell_angle_beta 147.334863
_cell_angle_gamma 90.000000
_cell_volume 576.539670
_symmetry_space_group_name_H-M "P 2"
_symmetry_group_IT_number 3
_symmetry_cell_setting 'monoclinic'
loop_
_space_group_symop_operation_xyz
x,y,z
-x,y,-z
loop_
_atom_site_type_symbol
_atom_site_label
_atom_site_fract_x
_atom_site_fract_y
_atom_site_fract_z
Si Si1 0.978569 0.500000 0.572861
Si Si2 0.377648 0.482878 0.565743
Si Si3 0.684895 0.948698 0.945794
Si Si4 0.202747 0.327868 0.198133
Si Si5 0.636824 0.982821 0.416769
Si Si6 0.303804 0.296115 0.897477
Si Si7 0.095598 0.819467 0.167846
Si Si8 0.288992 0.896623 0.733138
O O1 0.747438 0.515326 0.430736
O O2 0.000000 0.342170 0.500000
O O3 0.091679 0.414485 0.739709
O O4 0.128831 0.709331 0.651224
O O5 0.611553 0.428669 0.728503
O O6 0.310868 0.218929 0.495002
O O7 0.342437 0.750169 0.509748
O O8 0.675475 0.197017 0.988980
O O9 0.906328 0.861122 0.098662
O O10 0.588284 0.969405 0.779978
O O11 0.517344 0.807404 0.882191
O O12 0.178265 0.556726 0.244466
O O13 0.220029 0.064846 0.251654
O O14 0.000000 0.308594 0.000000
O O15 0.746490 0.981894 0.395959
O O16 0.292331 0.087331 0.814637
O O17 0.500000 0.423654 0.000000
O O18 0.000000 0.799256 0.000000
#
# Coordination Sequence:
#
# PCOD9112777 Si02
#       8
#     2   2   2   2   2   2   2   2
#     4  12  24  39  65  98 138 183 231 281 341 418
#     4  12  23  39  63 100 135 184 214 293 341 412
#     4   9  20  40  64  94 136 175 223 283 348 404
#     4  10  20  34  60  90 135 162 223 280 347 389
#     4  10  21  37  62  92 136 171 224 263 349 391
#     4  10  23  43  62  96 137 182 227 276 342 412
#     4  10  19  36  60  96 127 167 218 285 338 397
#     4   9  22  38  57  91 130 180 216 266 329 410
#
# _framework density 27.751776
#
# number of rings (size 3 to 8) (size 9 to 14) (size 15 to 20)
#    0.750    1.000    1.250    4.500    1.750    2.000 
#    9.000    0.000    0.000    0.750    0.000    0.000 
#    0.000    0.000    0.000    0.000    0.000    0.000 
#
# Total GULP energy -89069.237836 kJ/mol
# GULP energy per Si atom -5566.827365 kJ/mol
# Density = 2.768861 g / cm^3
# Si number density = 27.751776 Si / 1000 Ang^3
#
#
#
# Elastic Constant Matrix: (Units=GPa)
#
#
# Indices 1 2 3 4 5 6 
#
# 1 89.7824 42.8037 57.1332 0.0000 33.7314 0.0000
# 2 42.8037 228.4441 21.7053 0.0000 -0.8319 0.0000
# 3 57.1332 21.7053 63.6090 0.0000 27.2214 0.0000
# 4 0.0000 0.0000 0.0000 21.2133 0.0000 7.3784
# 5 33.7314 -0.8319 27.2214 0.0000 75.7272 0.0000
# 6 0.0000 0.0000 0.0000 7.3784 0.0000 36.4075
#
#
#
# Elastic Compliance Matrix: (Units=1/GPa)
#
#
# Indices 1 2 3 4 5 6 
#
# 1 0.029134 -0.003289 -0.023017 0.000000 -0.004739 0.000000
# 2 -0.003289 0.004928 0.000736 0.000000 0.001255 0.000000
# 3 -0.023017 0.000736 0.037526 0.000000 -0.003228 0.000000
# 4 0.000000 0.000000 0.000000 0.050715 0.000000 -0.010278
# 5 -0.004739 0.001255 -0.003228 0.000000 0.016491 0.000000
# 6 0.000000 0.000000 0.000000 -0.010278 0.000000 0.029550
#
#
# Mechanical properties :
#
#
# Convention : Reuss Voigt Hill
#
# Bulk Modulus (GPa) = 48.90883 69.45776 59.18329
# Shear Modulus (GPa) = 22.09450 44.01583 33.05516
#
# Velocity S-wave (km/s) = 2.82467 3.98685 3.45498
# Velocity P-wave (km/s) = 5.31980 6.80264 6.10640
#
# Compressibility (1/GPa) = 0.02044621
#
# Stress axis : x y z
#
# Youngs Moduli (GPa) = 34.32438 202.90542 26.64841
#
# Poissons Ratio (x) = 0.66738 0.61337
# Poissons Ratio (y) = 0.11290 -0.01960
# Poissons Ratio (z) = 0.79005 -0.14925
#
# Static dielectric constant tensor:
#      x y z
#    x 2.230180 0.000000 -0.088010 
#    y 0.000000 2.367510 0.000000 
#    z -0.088010 0.000000 2.370030 
# 
# From -- ./inp_files/16006.got.cif
#   From: 2010.05.17/outbox.cif.g08.bks.cpg/sg3_9_cif.got.tgz:16006.got - 2010.06.03 18:33:08.
