data_PCOD9112690
_publ_section_title
;
Structure prediction by ZEFSAII (Michael W. Deem and Ramdas Pophale) SiO2 
 PCOD9112690
Probable space group: P 2
;
_chemical_formula_sum "Si O2"
_cell_formula_units_Z 16
_cell_length_a 8.131099
_cell_length_b 19.502741
_cell_length_c 5.344163
_cell_angle_alpha 90.000000
_cell_angle_beta 58.382538
_cell_angle_gamma 90.000000
_cell_volume 721.678095
_symmetry_space_group_name_H-M "P 2"
_symmetry_group_IT_number 3
_symmetry_cell_setting 'monoclinic'
loop_
_space_group_symop_operation_xyz
x,y,z
-x,y,-z
loop_
_atom_site_type_symbol
_atom_site_label
_atom_site_fract_x
_atom_site_fract_y
_atom_site_fract_z
Si Si1 0.284267 0.726140 0.928575
Si Si2 0.775701 0.004336 0.148414
Si Si3 0.378124 0.148227 0.852229
Si Si4 0.233271 0.940773 0.349829
Si Si5 0.868376 0.432022 0.854221
Si Si6 0.720465 0.784841 0.573052
Si Si7 0.868904 0.282599 0.855170
Si Si8 0.132672 0.581714 0.143423
O O1 0.502272 0.754942 0.749982
O O2 0.195265 0.748199 0.736613
O O3 0.188418 0.763859 0.237477
O O4 0.273593 0.645808 0.995336
O O5 0.697413 0.993304 0.491007
O O6 0.759447 0.083369 0.085629
O O7 0.693487 0.957848 0.987918
O O8 0.000000 0.985367 0.000000
O O9 0.500000 0.157721 0.500000
O O10 0.500000 0.130104 0.000000
O O11 0.270422 0.218368 0.006811
O O12 0.281604 0.866508 0.423139
O O13 0.000000 0.944646 0.500000
O O14 0.767130 0.357787 0.930978
O O15 0.768254 0.506456 0.928236
O O16 0.000000 0.431963 0.500000
O O17 0.000000 0.432236 0.000000
O O18 0.000000 0.276297 0.500000
O O19 0.000000 0.281847 0.000000
O O20 0.000000 0.589593 0.500000
O O21 0.000000 0.582894 0.000000
#
# Coordination Sequence:
#
# PCOD9112690 Si02
#       8
#     2   2   2   2   2   2   2   2
#     4  10  21  36  53  78 113 153 186 236 292 360
#     4  10  22  42  63  86 115 153 202 247 296 361
#     4  12  25  41  59  95 133 162 197 253 307 362
#     4  10  21  39  62  84 109 143 197 257 298 343
#     4   8  16  31  55  87 114 145 201 249 285 335
#     4  10  21  38  54  79 111 148 189 240 289 367
#     4  10  20  38  66  91 119 169 212 248 296 360
#     4  10  19  33  56  86 116 150 195 249 290 337
#
# _framework density 22.170548
#
# number of rings (size 3 to 8) (size 9 to 14) (size 15 to 20)
#    0.000    2.000    0.000    3.375    0.000    3.000 
#   13.500    0.000    5.500    0.000    0.000    0.000 
#    0.000    0.000    0.000    0.000    0.000    0.000 
#
# Total GULP energy -89302.312461 kJ/mol
# GULP energy per Si atom -5581.394529 kJ/mol
# Density = 2.212009 g / cm^3
# Si number density = 22.170548 Si / 1000 Ang^3
#
#
#
# Elastic Constant Matrix: (Units=GPa)
#
#
# Indices 1 2 3 4 5 6 
#
# 1 64.1261 12.5618 44.2317 0.0000 24.9738 0.0000
# 2 12.5618 146.8216 20.5923 0.0000 24.4431 0.0000
# 3 44.2317 20.5923 150.2201 0.0000 44.0502 0.0000
# 4 0.0000 0.0000 0.0000 35.0949 0.0000 4.6573
# 5 24.9738 24.4431 44.0502 0.0000 38.6476 0.0000
# 6 0.0000 0.0000 0.0000 4.6573 0.0000 36.8677
#
#
#
# Elastic Compliance Matrix: (Units=1/GPa)
#
#
# Indices 1 2 3 4 5 6 
#
# 1 0.021993 0.000351 -0.003442 0.000000 -0.010511 0.000000
# 2 0.000351 0.007649 0.000501 0.000000 -0.005635 0.000000
# 3 -0.003442 0.000501 0.010578 0.000000 -0.010149 0.000000
# 4 0.000000 0.000000 0.000000 0.028980 0.000000 -0.003661
# 5 -0.010511 -0.005635 -0.010149 0.000000 0.047798 0.000000
# 6 0.000000 0.000000 0.000000 -0.003661 0.000000 0.027586
#
#
# Mechanical properties :
#
#
# Convention : Reuss Voigt Hill
#
# Bulk Modulus (GPa) = 28.53967 57.32660 42.93314
# Shear Modulus (GPa) = 30.97042 41.04085 36.00563
#
# Velocity S-wave (km/s) = 3.74159 4.30716 4.03430
# Velocity P-wave (km/s) = 5.61843 7.11679 6.41153
#
# Compressibility (1/GPa) = 0.03503894
#
# Stress axis : x y z
#
# Youngs Moduli (GPa) = 45.46929 130.73844 94.53820
#
# Poissons Ratio (x) = -0.04587 0.32537
# Poissons Ratio (y) = -0.01595 -0.04732
# Poissons Ratio (z) = 0.15649 -0.06544
#
# Static dielectric constant tensor:
#      x y z
#    x 1.791560 0.000000 0.007140 
#    y 0.000000 1.822930 0.000000 
#    z 0.007140 0.000000 1.821280 
# 
# From -- ./inp_files/1723.got.cif
#   From: 2010.05.17/outbox.cif.g08.bks.cpg/sg3_1_cif.got.tgz:1723.got - 2010.06.03 18:33:08.
