data_PCOD9112575
_publ_section_title
;
Structure prediction by ZEFSAII (Michael W. Deem and Ramdas Pophale) SiO2 
 PCOD9112575
Probable space group: P 2
;
_chemical_formula_sum "Si O2"
_cell_formula_units_Z 13
_cell_length_a 7.887629
_cell_length_b 13.532940
_cell_length_c 7.000348
_cell_angle_alpha 90.000000
_cell_angle_beta 43.793272
_cell_angle_gamma 90.000000
_cell_volume 517.131527
_symmetry_space_group_name_H-M "P 2"
_symmetry_group_IT_number 3
_symmetry_cell_setting 'monoclinic'
loop_
_space_group_symop_operation_xyz
x,y,z
-x,y,-z
loop_
_atom_site_type_symbol
_atom_site_label
_atom_site_fract_x
_atom_site_fract_y
_atom_site_fract_z
Si Si1 0.229841 0.551410 0.956354
Si Si2 0.164727 0.019847 0.599744
Si Si3 0.325844 0.326524 0.891082
Si Si4 0.670942 0.945653 0.119925
Si Si5 0.000000 0.651148 0.500000
Si Si6 0.459565 0.737188 0.260608
Si Si7 0.830523 0.251461 0.403574
O O1 0.146208 0.579664 0.238831
O O2 0.349372 0.444060 0.850653
O O3 0.416043 0.639246 0.761435
O O4 0.000000 0.551337 0.000000
O O5 0.404763 0.989524 0.284082
O O6 0.249291 0.998412 0.748724
O O7 0.120946 0.135644 0.613428
O O8 0.907320 0.961552 0.792908
O O9 0.591840 0.282502 0.717370
O O10 0.249589 0.278001 0.749318
O O11 0.089726 0.306005 0.214854
O O12 0.603128 0.832127 0.218699
O O13 0.832105 0.720133 0.499689
O O14 0.500000 0.744740 0.000000
#
# Coordination Sequence:
#
# PCOD9112575 Si02
#       7
#     2   2   2   2   1   2   2
#     4  11  24  41  67 103 132 181 235 284 342 418
#     4  10  20  34  58 100 132 163 213 288 337 398
#     4  10  19  32  59  94 126 177 214 269 344 403
#     4  10  20  34  59  89 123 167 216 265 338 397
#     4  10  26  46  64  90 148 184 228 288 356 400
#     4  10  25  43  63  90 132 182 226 283 346 412
#     4  10  18  34  55  95 141 162 214 281 344 397
#
# _framework density 25.138670999999999
#
# number of rings (size 3 to 8) (size 9 to 14) (size 15 to 20)
#    0.000    1.846    1.538    4.615    8.615    1.846 
#    0.000    0.000    0.000    0.000   12.000    0.000 
#    0.000    0.000    0.000    0.000    0.000    0.000 
#
# Total GULP energy -72695.711976 kJ/mol
# GULP energy per Si atom -5591.977844 kJ/mol
# Density = 2.508145 g / cm^3
# Si number density = 25.138671 Si / 1000 Ang^3
#
#
#
# Elastic Constant Matrix: (Units=GPa)
#
#
# Indices 1 2 3 4 5 6 
#
# 1 114.7849 15.9378 27.5058 0.0000 -11.8645 0.0000
# 2 15.9378 202.5722 31.9310 0.0000 -29.0935 0.0000
# 3 27.5058 31.9310 156.0911 0.0000 -13.0685 0.0000
# 4 0.0000 0.0000 0.0000 31.1183 0.0000 -6.1204
# 5 -11.8645 -29.0935 -13.0685 0.0000 33.5733 0.0000
# 6 0.0000 0.0000 0.0000 -6.1204 0.0000 165.5527
#
#
#
# Elastic Compliance Matrix: (Units=1/GPa)
#
#
# Indices 1 2 3 4 5 6 
#
# 1 0.009338 -0.000136 -0.001397 0.000000 0.002639 0.000000
# 2 -0.000136 0.005731 -0.000762 0.000000 0.004622 0.000000
# 3 -0.001397 -0.000762 0.006938 0.000000 0.001547 0.000000
# 4 0.000000 0.000000 0.000000 0.032371 0.000000 0.001197
# 5 0.002639 0.004622 0.001547 0.000000 0.035326 0.000000
# 6 0.000000 0.000000 0.000000 0.001197 0.000000 0.006085
#
#
# Mechanical properties :
#
#
# Convention : Reuss Voigt Hill
#
# Bulk Modulus (GPa) = 57.40728 69.35526 63.38127
# Shear Modulus (GPa) = 47.08864 72.58710 59.83787
#
# Velocity S-wave (km/s) = 4.33269 5.37935 4.88414
# Velocity P-wave (km/s) = 6.92210 8.13831 7.55472
#
# Compressibility (1/GPa) = 0.01741939
#
# Stress axis : x y z
#
# Youngs Moduli (GPa) = 107.08635 174.48875 144.13415
#
# Poissons Ratio (x) = 0.02365 0.20134
# Poissons Ratio (y) = 0.01451 0.10976
# Poissons Ratio (z) = 0.14959 0.13288
#
# Static dielectric constant tensor:
#      x y z
#    x 2.009370 0.000000 -0.071540 
#    y 0.000000 1.895280 0.000000 
#    z -0.071540 0.000000 1.845800 
# 
# From -- ./inp_files/5883.got.cif
#   From: 2010.05.17/outbox.cif.g08.bks.cpg/sg3_3_cif.got.tgz:5883.got - 2010.06.03 18:33:08.
