data_PCOD9112729
_publ_section_title
;
Structure prediction by ZEFSAII (Michael W. Deem and Ramdas Pophale) SiO2 
 PCOD9112729
Probable space group: P 2
;
_chemical_formula_sum "Si O2"
_cell_formula_units_Z 15
_cell_length_a 21.830586
_cell_length_b 6.550986
_cell_length_c 9.573270
_cell_angle_alpha 90.000000
_cell_angle_beta 148.330098
_cell_angle_gamma 90.000000
_cell_volume 718.806604
_symmetry_space_group_name_H-M "P 2"
_symmetry_group_IT_number 3
_symmetry_cell_setting 'monoclinic'
loop_
_space_group_symop_operation_xyz
x,y,z
-x,y,-z
loop_
_atom_site_type_symbol
_atom_site_label
_atom_site_fract_x
_atom_site_fract_y
_atom_site_fract_z
Si Si1 0.675542 0.727450 0.232795
Si Si2 0.850729 0.938906 0.994744
Si Si3 0.553136 0.886613 0.738869
Si Si4 0.128648 0.583415 0.758543
Si Si5 0.886041 0.897574 0.525252
Si Si6 0.628623 0.030770 0.387908
Si Si7 0.243512 0.179366 0.920801
Si Si8 0.500000 0.391308 0.000000
O O1 0.814721 0.765994 0.500936
O O2 0.604206 0.529211 0.140034
O O3 0.628402 0.905841 0.242725
O O4 0.641875 0.762683 0.006392
O O5 0.758271 0.010629 0.700400
O O6 0.841349 0.707570 0.041026
O O7 0.981197 0.955462 0.189303
O O8 0.823458 0.079617 0.076715
O O9 0.500000 0.782577 0.500000
O O10 0.449120 0.931286 0.642435
O O11 0.626373 0.085148 0.830278
O O12 0.112356 0.754804 0.608770
O O13 0.225241 0.418230 0.906145
O O14 0.000000 0.478268 0.500000
O O15 0.815491 0.098544 0.337513
O O16 0.568285 0.247035 0.241261
#
# Coordination Sequence:
#
# PCOD9112729 Si02
#       8
#     2   2   2   2   2   2   2   1
#     4  11  24  45  68  91 129 179 220 270 329 399
#     4  10  21  39  59  95 132 167 217 271 329 389
#     4  11  21  42  63  98 132 165 223 273 327 385
#     4   9  18  35  60  94 132 167 209 267 331 389
#     4   9  21  37  64  93 124 173 220 266 329 393
#     4  12  24  43  64  92 137 175 217 273 329 396
#     4  10  19  34  63  90 135 171 211 270 330 390
#     4  12  24  44  70  92 134 182 226 258 340 394
#
# _framework density 20.867922
#
# number of rings (size 3 to 8) (size 9 to 14) (size 15 to 20)
#    0.000    1.600    4.000    2.000    1.867    1.600 
#    0.000    0.667    0.000    1.600    0.000    0.000 
#    0.000    0.000    0.000    0.000    0.000    0.000 
#
# Total GULP energy -83594.695420 kJ/mol
# GULP energy per Si atom -5572.979695 kJ/mol
# Density = 2.082043 g / cm^3
# Si number density = 20.867922 Si / 1000 Ang^3
#
#
#
# Elastic Constant Matrix: (Units=GPa)
#
#
# Indices 1 2 3 4 5 6 
#
# 1 92.3833 5.4150 40.3491 0.0000 18.0276 0.0000
# 2 5.4150 51.0328 22.4141 0.0000 -8.2009 0.0000
# 3 40.3491 22.4141 97.1054 0.0000 24.9009 0.0000
# 4 0.0000 0.0000 0.0000 15.3348 0.0000 7.6568
# 5 18.0276 -8.2009 24.9009 0.0000 32.3195 0.0000
# 6 0.0000 0.0000 0.0000 7.6568 0.0000 13.3559
#
#
#
# Elastic Compliance Matrix: (Units=1/GPa)
#
#
# Indices 1 2 3 4 5 6 
#
# 1 0.013635 -0.000083 -0.004600 0.000000 -0.004083 0.000000
# 2 -0.000083 0.026071 -0.009586 0.000000 0.014047 0.000000
# 3 -0.004600 -0.009586 0.017930 0.000000 -0.013681 0.000000
# 4 0.000000 0.000000 0.000000 0.091364 0.000000 -0.052378
# 5 -0.004083 0.014047 -0.013681 0.000000 0.047323 0.000000
# 6 0.000000 0.000000 0.000000 -0.052378 0.000000 0.104901
#
#
# Mechanical properties :
#
#
# Convention : Reuss Voigt Hill
#
# Bulk Modulus (GPa) = 34.36329 41.87531 38.11930
# Shear Modulus (GPa) = 14.72927 23.69161 19.21044
#
# Velocity S-wave (km/s) = 2.65963 3.37309 3.03739
# Velocity P-wave (km/s) = 5.09258 5.93976 5.53241
#
# Compressibility (1/GPa) = 0.02910082
#
# Stress axis : x y z
#
# Youngs Moduli (GPa) = 73.34127 38.35631 55.77217
#
# Poissons Ratio (x) = 0.00317 0.25653
# Poissons Ratio (y) = 0.00606 0.53461
# Poissons Ratio (z) = 0.33734 0.36767
#
# Static dielectric constant tensor:
#      x y z
#    x 1.798030 0.000000 0.072540 
#    y 0.000000 1.768180 0.000000 
#    z 0.072540 0.000000 1.862560 
# 
# From -- ./inp_files/9381.got.cif
#   From: 2010.05.17/outbox.cif.g08.bks.cpg/sg3_5_cif.got.tgz:9381.got - 2010.06.03 18:33:08.
