data_PCOD9112860
_publ_section_title
;
Structure prediction by ZEFSAII (Michael W. Deem and Ramdas Pophale) SiO2 
 PCOD9112860
Probable space group: P 2
;
_chemical_formula_sum "Si O2"
_cell_formula_units_Z 15
_cell_length_a 13.660038
_cell_length_b 5.093578
_cell_length_c 26.463880
_cell_angle_alpha 90.000000
_cell_angle_beta 23.500184
_cell_angle_gamma 90.000000
_cell_volume 734.228565
_symmetry_space_group_name_H-M "P 2"
_symmetry_group_IT_number 3
_symmetry_cell_setting 'monoclinic'
loop_
_space_group_symop_operation_xyz
x,y,z
-x,y,-z
loop_
_atom_site_type_symbol
_atom_site_label
_atom_site_fract_x
_atom_site_fract_y
_atom_site_fract_z
Si Si1 0.382767 0.888990 0.256546
Si Si2 0.443902 0.141016 0.084640
Si Si3 0.235686 0.048151 0.854172
Si Si4 0.000000 0.545605 0.500000
Si Si5 0.671422 0.644261 0.030161
Si Si6 0.758784 0.462669 0.507369
Si Si7 0.774146 0.543718 0.208095
Si Si8 0.004739 0.982782 0.351706
O O1 0.574644 0.718803 0.132323
O O2 0.210551 0.719373 0.374111
O O3 0.530226 0.089433 0.221289
O O4 0.208545 0.029275 0.298891
O O5 0.521362 0.395832 0.080275
O O6 0.161779 0.051673 0.227876
O O7 0.604421 0.896261 0.028297
O O8 0.500000 0.194889 0.000000
O O9 0.225543 0.251015 0.813834
O O10 0.244538 0.754647 0.828299
O O11 0.000000 0.084989 0.000000
O O12 0.864017 0.420854 0.515092
O O13 0.961918 0.593329 0.891845
O O14 0.479516 0.562348 0.641437
O O15 0.790763 0.189020 0.463379
O O16 0.917349 0.686573 0.403585
#
# Coordination Sequence:
#
# PCOD9112860 Si02
#       8
#     2   2   2   1   2   2   2   2
#     4  10  22  37  56  86 125 168 213 253 297 341
#     4  11  23  44  74  97 116 150 202 268 339 398
#     4  12  24  37  55  83 126 176 226 250 285 347
#     4  10  20  32  54  80 118 166 220 242 280 340
#     4  11  24  42  63  94 129 157 205 266 323 373
#     4  11  23  38  57  84 126 171 209 247 297 357
#     4  12  25  39  58  87 126 178 210 250 300 365
#     4  10  23  39  60  87 121 157 199 265 312 361
#
# _framework density 20.429604999999999
#
# number of rings (size 3 to 8) (size 9 to 14) (size 15 to 20)
#    0.000    1.067    2.667    4.800    5.600    0.533 
#    0.000    0.000    0.000    4.800    0.000    0.000 
#    0.000    0.000    0.000    0.000    0.000    0.000 
#
# Total GULP energy -83818.200421 kJ/mol
# GULP energy per Si atom -5587.880028 kJ/mol
# Density = 2.038311 g / cm^3
# Si number density = 20.429605 Si / 1000 Ang^3
#
#
#
# Elastic Constant Matrix: (Units=GPa)
#
#
# Indices 1 2 3 4 5 6 
#
# 1 24.6898 14.1995 21.1262 0.0000 4.2511 0.0000
# 2 14.1995 64.5568 4.6325 0.0000 1.3168 0.0000
# 3 21.1262 4.6325 108.8365 0.0001 -1.8008 0.0000
# 4 0.0000 0.0000 0.0001 -83.0416 0.0000 38.3192
# 5 4.2511 1.3168 -1.8008 0.0000 31.3101 0.0000
# 6 0.0000 0.0000 0.0000 38.3192 0.0000 2.7480
#
#
#
# Elastic Compliance Matrix: (Units=1/GPa)
#
#
# Indices 1 2 3 4 5 6 
#
# 1 0.057987 -0.011810 -0.010886 0.000000 -0.008003 0.000000
# 2 -0.011810 0.017958 0.001544 0.000000 0.000937 0.000000
# 3 -0.010886 0.001544 0.011269 0.000000 0.002061 0.000000
# 4 0.000000 0.000000 0.000000 -0.001620 0.000000 0.022586
# 5 -0.008003 0.000937 0.002061 0.000000 0.033104 0.000000
# 6 0.000000 0.000000 0.000000 0.022586 0.000000 0.048947
#
#
# Mechanical properties :
#
#
# Convention : Reuss Voigt Hill
#
# Bulk Modulus (GPa) = 22.26656 30.88884 26.57770
# Shear Modulus (GPa) = 22.23009 0.74496 11.48753
#
# Velocity S-wave (km/s) = 3.30226 0.60452 2.37386
# Velocity P-wave (km/s) = 5.04606 3.95471 4.53335
#
# Compressibility (1/GPa) = 0.04491039
#
# Stress axis : x y z
#
# Youngs Moduli (GPa) = 17.24524 55.68535 88.73516
#
# Poissons Ratio (x) = 0.65765 0.96593
# Poissons Ratio (y) = 0.20367 -0.13697
# Poissons Ratio (z) = 0.18772 -0.08596
#
# Static dielectric constant tensor:
#      x y z
#    x 1.761950 0.000000 -0.024140 
#    y 0.000000 1.716780 0.000000 
#    z -0.024140 0.000000 1.763510 
# 
# From -- ./inp_files/16550.got.cif
#   From: 2010.05.17/outbox.cif.g08.bks.cpg/sg3_9_cif.got.tgz:16550.got - 2010.06.03 18:33:08.
