data_PCOD9112735
_publ_section_title
;
Structure prediction by ZEFSAII (Michael W. Deem and Ramdas Pophale) SiO2 
 PCOD9112735
Probable space group: P 2
;
_chemical_formula_sum "Si O2"
_cell_formula_units_Z 14
_cell_length_a 10.794825
_cell_length_b 5.399373
_cell_length_c 9.263094
_cell_angle_alpha 90.000000
_cell_angle_beta 84.644021
_cell_angle_gamma 90.000000
_cell_volume 537.544863
_symmetry_space_group_name_H-M "P 2"
_symmetry_group_IT_number 3
_symmetry_cell_setting 'monoclinic'
loop_
_space_group_symop_operation_xyz
x,y,z
-x,y,-z
loop_
_atom_site_type_symbol
_atom_site_label
_atom_site_fract_x
_atom_site_fract_y
_atom_site_fract_z
Si Si1 0.147961 0.391380 0.512435
Si Si2 0.021250 0.895419 0.205732
Si Si3 0.532391 0.343577 0.824891
Si Si4 0.600925 0.838739 0.214513
Si Si5 0.197790 0.898328 0.553133
Si Si6 0.889307 0.391316 0.151161
Si Si7 0.740398 0.634347 0.926485
O O1 0.206511 0.648238 0.463673
O O2 0.000000 0.395830 0.500000
O O3 0.170733 0.378363 0.683374
O O4 0.207362 0.138881 0.453128
O O5 0.955458 0.656046 0.143983
O O6 0.161992 0.817907 0.160780
O O7 0.943237 0.901481 0.364286
O O8 0.981659 0.158967 0.144974
O O9 0.455601 0.564802 0.754824
O O10 0.667794 0.467159 0.819621
O O11 0.494907 0.070500 0.773666
O O12 0.500000 0.341325 0.000000
O O13 0.706270 0.892105 0.323430
O O14 0.660353 0.805507 0.046944
O O15 0.202738 0.425024 0.970822
#
# Coordination Sequence:
#
# PCOD9112735 Si02
#       7
#     2   2   2   2   2   2   2
#     4  10  19  35  54  76 107 142 178 229 287 337
#     4  10  22  34  52  77 110 148 187 217 269 336
#     4  10  23  33  50  72 102 158 189 225 256 308
#     4  11  21  36  51  73 111 148 189 224 266 315
#     4  10  20  35  55  80 110 141 180 233 279 337
#     4  10  22  35  51  81 109 146 184 229 270 334
#     4  11  22  38  53  78 117 159 188 224 271 329
#
# _framework density 26.044338
#
# number of rings (size 3 to 8) (size 9 to 14) (size 15 to 20)
#    0.000    1.714    2.857    3.000    6.000    6.857 
#    2.571    0.000    0.000    0.000    0.000    0.000 
#    0.000   68.571    0.000    0.000    0.000    0.000 
#
# Total GULP energy -78190.107971 kJ/mol
# GULP energy per Si atom -5585.007712 kJ/mol
# Density = 2.598506 g / cm^3
# Si number density = 26.044338 Si / 1000 Ang^3
#
#
#
# Elastic Constant Matrix: (Units=GPa)
#
#
# Indices 1 2 3 4 5 6 
#
# 1 91.6514 59.3972 40.0932 0.0000 28.1590 0.0000
# 2 59.3972 237.7974 36.8327 0.0000 34.1949 0.0000
# 3 40.0932 36.8327 91.8215 0.0000 14.2082 0.0000
# 4 0.0000 0.0000 0.0000 47.1747 0.0000 11.9874
# 5 28.1590 34.1949 14.2082 0.0000 34.5263 0.0000
# 6 0.0000 0.0000 0.0000 11.9874 0.0000 46.8717
#
#
#
# Elastic Compliance Matrix: (Units=1/GPa)
#
#
# Indices 1 2 3 4 5 6 
#
# 1 0.017752 -0.002149 -0.005317 0.000000 -0.010161 0.000000
# 2 -0.002149 0.005313 -0.000694 0.000000 -0.003224 0.000000
# 3 -0.005317 -0.000694 0.013578 0.000000 -0.000564 0.000000
# 4 0.000000 0.000000 0.000000 0.022671 0.000000 -0.005798
# 5 -0.010161 -0.003224 -0.000564 0.000000 0.040676 0.000000
# 6 0.000000 0.000000 0.000000 -0.005798 0.000000 0.022818
#
#
# Mechanical properties :
#
#
# Convention : Reuss Voigt Hill
#
# Bulk Modulus (GPa) = 49.20608 77.10186 63.15397
# Shear Modulus (GPa) = 34.26980 44.71100 39.49040
#
# Velocity S-wave (km/s) = 3.63137 4.14783 3.89816
# Velocity P-wave (km/s) = 6.04290 7.25312 6.67549
#
# Compressibility (1/GPa) = 0.02032269
#
# Stress axis : x y z
#
# Youngs Moduli (GPa) = 56.33316 188.21165 73.64953
#
# Poissons Ratio (x) = 0.40453 0.39157
# Poissons Ratio (y) = 0.12108 0.05111
# Poissons Ratio (z) = 0.29950 0.13062
#
# Static dielectric constant tensor:
#      x y z
#    x 2.147350 0.000000 -0.027810 
#    y 0.000000 2.132250 0.000000 
#    z -0.027810 0.000000 2.050950 
# 
# From -- ./inp_files/11229.got.cif
#   From: 2010.05.17/outbox.cif.g08.bks.cpg/sg3_6_cif.got.tgz:11229.got - 2010.06.03 18:33:08.
