data_PCOD9112189
_publ_section_title
;
Structure prediction by ZEFSAII (Michael W. Deem and Ramdas Pophale) SiO2 
 PCOD9112189
Probable space group: P -1
;
_chemical_formula_sum "Si O2"
_cell_formula_units_Z 15
_cell_length_a 9.126550
_cell_length_b 12.722838
_cell_length_c 8.623888
_cell_angle_alpha 92.851318
_cell_angle_beta 129.437046
_cell_angle_gamma 119.044223
_cell_volume 573.173976
_symmetry_space_group_name_H-M "P -1"
_symmetry_group_IT_number 2
_symmetry_cell_setting 'triclinic'
loop_
_space_group_symop_operation_xyz
x,y,z
-x,-y,-z
loop_
_atom_site_type_symbol
_atom_site_label
_atom_site_fract_x
_atom_site_fract_y
_atom_site_fract_z
Si Si1 0.500000 0.500000 0.500000
Si Si2 0.943053 0.164097 0.575579
Si Si3 0.494620 0.156935 0.653349
Si Si4 0.741057 0.469476 0.364739
Si Si5 0.674514 0.847043 0.794085
Si Si6 0.986512 0.765732 0.015474
Si Si7 0.437622 0.863898 0.886198
Si Si8 0.512207 0.323273 0.897192
O O1 0.691886 0.543884 0.464848
O O2 0.754987 0.611587 0.780748
O O3 0.810653 0.206596 0.390776
O O4 0.210819 0.227654 0.693255
O O5 0.747556 0.992840 0.444279
O O6 0.000800 0.228005 0.790147
O O7 0.419778 0.130796 0.420224
O O8 0.557991 0.303785 0.748487
O O9 0.741861 0.177283 0.847597
O O10 0.553344 0.315062 0.311938
O O11 0.000000 0.500000 0.500000
O O12 0.636168 0.448166 0.115262
O O13 0.909461 0.856637 0.927699
O O14 0.681536 0.922649 0.952721
O O15 0.409951 0.761479 0.983171
O O16 0.500000 0.000000 0.000000
#
# Coordination Sequence:
#
# PCOD9112189 Si02
#       8
#     1   2   2   2   2   2   2   2
#     4  10  20  44  74  94 136 182 232 300 342 394
#     4  12  23  41  68 100 144 184 227 278 346 420
#     4  12  25  39  70 105 139 186 227 281 350 425
#     4  10  21  45  74  97 133 187 232 294 350 405
#     4  10  24  43  66 101 142 178 230 284 349 416
#     4  11  23  43  67  97 137 179 231 286 341 403
#     4  11  22  39  65  94 133 184 221 271 338 412
#     4  11  24  44  65 102 144 176 236 286 341 419
#
# _framework density 26.170064
#
# number of rings (size 3 to 8) (size 9 to 14) (size 15 to 20)
#    0.000    1.067    6.667    1.600    0.000    2.667 
#    0.000    7.333    0.000   12.800    0.000    0.000 
#    0.000    0.000    0.000    0.000    0.000    0.000 
#
# Total GULP energy -83534.091540 kJ/mol
# GULP energy per Si atom -5568.939436 kJ/mol
# Density = 2.611050 g / cm^3
# Si number density = 26.170064 Si / 1000 Ang^3
#
#
#
# Elastic Constant Matrix: (Units=GPa)
#
#
# Indices 1 2 3 4 5 6 
#
# 1 156.6406 22.0001 29.1470 12.4665 23.0175 -11.6008
# 2 22.0001 55.4888 4.7488 -4.2544 4.5306 -18.2581
# 3 29.1470 4.7488 124.9432 24.1545 12.8322 -16.5014
# 4 12.4665 -4.2544 24.1545 19.7174 -9.9237 2.3765
# 5 23.0175 4.5306 12.8322 -9.9237 60.3120 0.7754
# 6 -11.6008 -18.2581 -16.5014 2.3765 0.7754 33.1784
#
#
#
# Elastic Compliance Matrix: (Units=1/GPa)
#
#
# Indices 1 2 3 4 5 6 
#
# 1 0.008274 -0.002867 0.000852 -0.009581 -0.004733 0.002536
# 2 -0.002867 0.023357 0.000377 0.004943 -0.000077 0.011686
# 3 0.000852 0.000377 0.014093 -0.022448 -0.007165 0.009290
# 4 -0.009581 0.004943 -0.022448 0.100176 0.024795 -0.019549
# 5 -0.004733 -0.000077 -0.007165 0.024795 0.024094 -0.007600
# 6 0.002536 0.011686 0.009290 -0.019549 -0.007600 0.043656
#
#
# Mechanical properties :
#
#
# Convention : Reuss Voigt Hill
#
# Bulk Modulus (GPa) = 23.55883 49.87383 36.71633
# Shear Modulus (GPa) = 21.63801 41.38667 31.51234
#
# Velocity S-wave (km/s) = 2.87857 3.98106 3.47383
# Velocity P-wave (km/s) = 4.47995 6.34277 5.49094
#
# Compressibility (1/GPa) = 0.04244693
#
# Stress axis : x y z
#
# Youngs Moduli (GPa) = 120.86095 42.81448 70.95730
#
# Poissons Ratio (x) = 0.12275 -0.06046
# Poissons Ratio (y) = 0.34652 -0.02673
# Poissons Ratio (z) = -0.10298 -0.01613
#
# Static dielectric constant tensor:
#      x y z
#    x 2.512940 0.318300 -1.223890 
#    y 0.318300 2.607540 -1.331480 
#    z -1.223890 -1.331480 7.535950 
# 
# From -- ./inp_files/208055.got.cif
#   From: 2010.05.17/outbox.cif.g08.bks.cpg/sg2_105_cif.got.tgz:208055.got - 2010.06.03 11:33:40.
