data_PCOD9112229
_publ_section_title
;
Structure prediction by ZEFSAII (Michael W. Deem and Ramdas Pophale) SiO2 
 PCOD9112229
Probable space group: P -1
;
_chemical_formula_sum "Si O2"
_cell_formula_units_Z 16
_cell_length_a 10.006631
_cell_length_b 18.839265
_cell_length_c 21.965391
_cell_angle_alpha 16.141365
_cell_angle_beta 36.306006
_cell_angle_gamma 35.266918
_cell_volume 658.648521
_symmetry_space_group_name_H-M "P -1"
_symmetry_group_IT_number 2
_symmetry_cell_setting 'triclinic'
loop_
_space_group_symop_operation_xyz
x,y,z
-x,-y,-z
loop_
_atom_site_type_symbol
_atom_site_label
_atom_site_fract_x
_atom_site_fract_y
_atom_site_fract_z
Si Si1 0.732630 0.778353 0.614982
Si Si2 0.226023 0.276223 0.217563
Si Si3 0.309810 0.740912 0.997630
Si Si4 0.250409 0.773918 0.438839
Si Si5 0.765082 0.316442 0.796874
Si Si6 0.022440 0.778839 0.329962
Si Si7 0.451087 0.799011 0.231504
Si Si8 0.273333 0.696998 0.635745
O O1 0.715351 0.670132 0.778955
O O2 0.763468 0.528632 0.765001
O O3 0.972424 0.871181 0.451553
O O4 0.500000 0.000000 0.500000
O O5 0.957666 0.410060 0.189871
O O6 0.238874 0.963843 0.467097
O O7 0.413913 0.328028 0.059102
O O8 0.233661 0.841805 0.010559
O O9 0.193433 0.963367 0.807599
O O10 0.406983 0.903556 0.230459
O O11 0.347965 0.468761 0.632010
O O12 0.303243 0.774451 0.490398
O O13 0.834899 0.192221 0.807713
O O14 0.502628 0.494114 0.741017
O O15 0.929678 0.518397 0.577205
O O16 0.200279 0.760599 0.334521
O O17 0.500000 0.000000 0.000000
#
# Coordination Sequence:
#
# PCOD9112229 Si02
#       8
#     2   2   2   2   2   2   2   2
#     4  11  24  44  67  93 131 173 217 270 327 378
#     4  10  23  40  67  94 126 172 219 264 321 376
#     4  12  24  41  68  98 130 167 223 268 319 391
#     4  10  23  43  66  92 130 172 208 265 326 380
#     4  11  23  42  68  95 133 171 213 266 330 378
#     4  11  24  42  67  98 132 170 215 266 325 390
#     4  11  23  41  66  97 128 168 213 262 323 387
#     4  10  20  45  65  90 135 170 213 268 317 384
#
# _framework density 24.292166999999999
#
# number of rings (size 3 to 8) (size 9 to 14) (size 15 to 20)
#    0.000    1.250    2.500    3.000    1.750    2.500 
#    4.500    0.000    0.000    0.000    0.000    0.000 
#    0.000    0.000    0.000    0.000    0.000    0.000 
#
# Total GULP energy -89537.167398 kJ/mol
# GULP energy per Si atom -5596.072962 kJ/mol
# Density = 2.423688 g / cm^3
# Si number density = 24.292167 Si / 1000 Ang^3
#
#
#
# Elastic Constant Matrix: (Units=GPa)
#
#
# Indices 1 2 3 4 5 6 
#
# 1 84.0149 14.4830 4.8380 9.6770 8.0252 -4.5453
# 2 14.4830 78.4579 -2.2149 26.9665 10.1205 10.7652
# 3 4.8380 -2.2149 40.2319 19.7077 5.7615 -1.2233
# 4 9.6770 26.9665 19.7077 38.3977 4.5748 5.3698
# 5 8.0252 10.1205 5.7615 4.5748 24.8947 -0.1261
# 6 -4.5453 10.7652 -1.2233 5.3698 -0.1261 51.3538
#
#
#
# Elastic Compliance Matrix: (Units=1/GPa)
#
#
# Indices 1 2 3 4 5 6 
#
# 1 0.012782 -0.001538 -0.000198 -0.001900 -0.003092 0.001640
# 2 -0.001538 0.021333 0.011896 -0.019502 -0.007358 -0.002304
# 3 -0.000198 0.011896 0.040749 -0.028344 -0.008987 0.001401
# 4 -0.001900 -0.019502 -0.028344 0.054503 0.005072 -0.002442
# 5 -0.003092 -0.007358 -0.008987 0.005072 0.045308 0.000636
# 6 0.001640 -0.002304 0.001401 -0.002442 0.000636 0.020391
#
#
# Mechanical properties :
#
#
# Convention : Reuss Voigt Hill
#
# Bulk Modulus (GPa) = 10.50603 26.32409 18.41506
# Shear Modulus (GPa) = 24.21599 35.30248 29.75923
#
# Velocity S-wave (km/s) = 3.16074 3.81628 3.50388
# Velocity P-wave (km/s) = 4.20174 5.50260 4.89557
#
# Compressibility (1/GPa) = 0.09518343
#
# Stress axis : x y z
#
# Youngs Moduli (GPa) = 78.23384 46.87468 24.54069
#
# Poissons Ratio (x) = 0.07210 0.00486
# Poissons Ratio (y) = 0.12034 -0.29194
# Poissons Ratio (z) = 0.01551 -0.55762
#
# Static dielectric constant tensor:
#      x y z
#    x 1.910970 -0.003120 0.018500 
#    y -0.003120 1.942900 0.015590 
#    z 0.018500 0.015590 1.974520 
# 
# From -- ./inp_files/456019.got.cif
#   From: 2010.05.17/outbox.cif.g08.bks.cpg/sg2_229_cif.got.tgz:456019.got - 2010.06.03 11:33:40.
