data_PCOD9112544
_publ_section_title
;
Structure prediction by ZEFSAII (Michael W. Deem and Ramdas Pophale) SiO2 
 PCOD9112544
Probable space group: P 2
;
_chemical_formula_sum "Si O2"
_cell_formula_units_Z 14
_cell_length_a 11.214151
_cell_length_b 10.714462
_cell_length_c 5.492812
_cell_angle_alpha 90.000000
_cell_angle_beta 81.160465
_cell_angle_gamma 90.000000
_cell_volume 652.142237
_symmetry_space_group_name_H-M "P 2"
_symmetry_group_IT_number 3
_symmetry_cell_setting 'monoclinic'
loop_
_space_group_symop_operation_xyz
x,y,z
-x,y,-z
loop_
_atom_site_type_symbol
_atom_site_label
_atom_site_fract_x
_atom_site_fract_y
_atom_site_fract_z
Si Si1 0.718178 0.675870 0.671195
Si Si2 0.450429 0.007476 0.263498
Si Si3 0.374153 0.779597 0.794542
Si Si4 0.854428 0.273634 0.048231
Si Si5 0.826191 0.002222 0.151166
Si Si6 0.831638 0.934796 0.651827
Si Si7 0.144623 0.418072 0.451291
O O1 0.643542 0.698931 0.444277
O O2 0.817886 0.786464 0.637342
O O3 0.782000 0.543432 0.627701
O O4 0.650955 0.698892 0.952904
O O5 0.500000 0.063811 0.500000
O O6 0.306865 0.989770 0.300483
O O7 0.500000 0.067552 0.000000
O O8 0.507688 0.867144 0.242658
O O9 0.274131 0.891546 0.814073
O O10 0.828209 0.363050 0.287978
O O11 0.786678 0.144332 0.123778
O O12 0.828229 0.327065 0.787187
O O13 0.000000 0.249513 0.000000
O O14 0.884132 0.993376 0.395153
O O15 0.892230 0.970214 0.882745
O O16 0.000000 0.441685 0.500000
#
# Coordination Sequence:
#
# PCOD9112544 Si02
#       7
#     2   2   2   2   2   2   2
#     4  10  18  32  49  75 106 128 164 212 250 301
#     4  12  16  30  48  78 112 132 164 196 242 310
#     4  10  19  30  50  81 107 129 162 201 258 307
#     4  10  21  37  55  73  96 134 180 215 247 295
#     4  10  18  32  49  75 106 128 164 212 250 301
#     4  10  19  30  50  81 107 129 162 201 258 307
#     4  10  21  37  55  73  96 134 180 215 247 295
#
# _framework density 21.467708999999999
#
# number of rings (size 3 to 8) (size 9 to 14) (size 15 to 20)
#    0.000    1.714    5.714    1.714    0.000    0.000 
#    0.000    5.714    0.000    0.000    0.000   24.000 
#    0.000    0.000    0.000    0.000    0.000    0.000 
#
# Total GULP energy -78051.720110 kJ/mol
# GULP energy per Si atom -5575.122865 kJ/mol
# Density = 2.141885 g / cm^3
# Si number density = 21.467709 Si / 1000 Ang^3
#
#
#
# Elastic Constant Matrix: (Units=GPa)
#
#
# Indices 1 2 3 4 5 6 
#
# 1 70.4521 13.0922 43.2758 0.0000 -9.6455 0.0000
# 2 13.0922 75.2885 35.0981 0.0000 -3.0111 0.0000
# 3 43.2758 35.0981 226.5391 0.0000 6.4029 0.0000
# 4 0.0000 0.0000 0.0000 25.6176 0.0000 3.3299
# 5 -9.6455 -3.0111 6.4029 0.0000 32.3863 0.0000
# 6 0.0000 0.0000 0.0000 3.3299 0.0000 15.3284
#
#
#
# Elastic Compliance Matrix: (Units=1/GPa)
#
#
# Indices 1 2 3 4 5 6 
#
# 1 0.017196 -0.001249 -0.003251 0.000000 0.005648 0.000000
# 2 -0.001249 0.014510 -0.002049 0.000000 0.001382 0.000000
# 3 -0.003251 -0.002049 0.005416 0.000000 -0.002229 0.000000
# 4 0.000000 0.000000 0.000000 0.040170 0.000000 -0.008726
# 5 0.005648 0.001382 -0.002229 0.000000 0.033129 0.000000
# 6 0.000000 0.000000 0.000000 -0.008726 0.000000 0.067134
#
#
# Mechanical properties :
#
#
# Convention : Reuss Voigt Hill
#
# Bulk Modulus (GPa) = 41.62366 61.69020 51.65693
# Shear Modulus (GPa) = 25.16861 33.38735 29.27798
#
# Velocity S-wave (km/s) = 3.42774 3.94793 3.69699
# Velocity P-wave (km/s) = 5.92426 7.04132 6.50681
#
# Compressibility (1/GPa) = 0.02402480
#
# Stress axis : x y z
#
# Youngs Moduli (GPa) = 58.15143 68.91958 184.64769
#
# Poissons Ratio (x) = 0.08607 0.60033
# Poissons Ratio (y) = 0.07262 0.37825
# Poissons Ratio (z) = 0.18906 0.14118
#
# Static dielectric constant tensor:
#      x y z
#    x 1.837760 0.000000 0.006020 
#    y 0.000000 1.740250 0.000000 
#    z 0.006020 0.000000 1.905510 
# 
# From -- ./inp_files/2408.got.cif
#   From: 2010.05.17/outbox.cif.g08.bks.cpg/sg3_2_cif.got.tgz:2408.got - 2010.06.03 18:33:08.
