data_PCOD9112322
_publ_section_title
;
Structure prediction by ZEFSAII (Michael W. Deem and Ramdas Pophale) SiO2 
 PCOD9112322
Probable space group: P -1
;
_chemical_formula_sum "Si O2"
_cell_formula_units_Z 15
_cell_length_a 21.675195
_cell_length_b 6.499468
_cell_length_c 9.722949
_cell_angle_alpha 61.113235
_cell_angle_beta 143.160497
_cell_angle_gamma 125.902063
_cell_volume 664.973080
_symmetry_space_group_name_H-M "P -1"
_symmetry_group_IT_number 2
_symmetry_cell_setting 'triclinic'
loop_
_space_group_symop_operation_xyz
x,y,z
-x,-y,-z
loop_
_atom_site_type_symbol
_atom_site_label
_atom_site_fract_x
_atom_site_fract_y
_atom_site_fract_z
Si Si1 0.961859 0.738757 0.340472
Si Si2 0.243127 0.808677 0.548338
Si Si3 0.311441 0.000676 0.912140
Si Si4 0.126728 0.176347 0.126734
Si Si5 0.684061 0.338356 0.716172
Si Si6 0.449962 0.958107 0.686978
Si Si7 0.149662 0.251334 0.574381
Si Si8 0.500000 0.500000 0.500000
O O1 0.897282 0.763742 0.351897
O O2 0.000000 0.500000 0.500000
O O3 0.885864 0.735726 0.077798
O O4 0.067710 0.003528 0.430328
O O5 0.256479 0.852768 0.722083
O O6 0.160382 0.525106 0.455656
O O7 0.196016 0.001414 0.332689
O O8 0.362873 0.852872 0.686510
O O9 0.266575 0.221396 0.788645
O O10 0.283327 0.817220 0.054645
O O11 0.443262 0.113374 0.091802
O O12 0.210005 0.452985 0.240754
O O13 0.000000 0.000000 0.000000
O O14 0.604246 0.461977 0.606346
O O15 0.612469 0.139536 0.537925
O O16 0.493496 0.261507 0.661145
#
# Coordination Sequence:
#
# PCOD9112322 Si02
#       8
#     2   2   2   2   2   2   2   1
#     4  11  25  49  73 105 139 194 242 299 357 434
#     4  12  27  45  68 109 149 187 236 301 369 426
#     4  11  25  46  72 104 145 196 237 300 358 433
#     4  12  26  45  73 102 152 185 237 305 362 424
#     4  11  25  45  74 104 141 193 250 293 359 433
#     4  11  26  44  74 107 145 190 249 296 361 432
#     4  11  25  44  74 101 144 187 248 289 362 439
#     4  10  20  46  70 100 142 182 236 300 354 420
#
# _framework density 22.557304999999999
#
# number of rings (size 3 to 8) (size 9 to 14) (size 15 to 20)
#    0.000    0.800    1.333    6.000    5.600    7.467 
#    0.000    0.000    0.000    0.000    0.000    0.000 
#    0.000    0.000    0.000    0.000    0.000    0.000 
#
# Total GULP energy -83577.585669 kJ/mol
# GULP energy per Si atom -5571.839045 kJ/mol
# Density = 2.250596 g / cm^3
# Si number density = 22.557305 Si / 1000 Ang^3
#
#
#
# Elastic Constant Matrix: (Units=GPa)
#
#
# Indices 1 2 3 4 5 6 
#
# 1 76.5686 2.9429 11.2113 7.1866 -0.6245 -1.9979
# 2 2.9429 61.4224 34.4232 -14.0726 -10.9467 2.4865
# 3 11.2113 34.4232 102.5553 -16.5332 -9.2283 -19.3238
# 4 7.1866 -14.0726 -16.5332 22.4754 0.5971 10.6711
# 5 -0.6245 -10.9467 -9.2283 0.5971 25.7928 6.9967
# 6 -1.9979 2.4865 -19.3238 10.6711 6.9967 29.5281
#
#
#
# Elastic Compliance Matrix: (Units=1/GPa)
#
#
# Indices 1 2 3 4 5 6 
#
# 1 0.014333 -0.002322 -0.001716 -0.009051 -0.002075 0.003805
# 2 -0.002322 0.029467 -0.008512 0.021784 0.014173 -0.019440
# 3 -0.001716 -0.008512 0.014812 0.001366 -0.001117 0.010065
# 4 -0.009051 0.021784 0.001366 0.077515 0.016822 -0.033552
# 5 -0.002075 0.014173 -0.001117 0.016822 0.049326 -0.019832
# 6 0.003805 -0.019440 0.010065 -0.033552 -0.019832 0.059171
#
#
# Mechanical properties :
#
#
# Convention : Reuss Voigt Hill
#
# Bulk Modulus (GPa) = 29.84292 37.52237 33.68265
# Shear Modulus (GPa) = 17.80026 28.35719 23.07872
#
# Velocity S-wave (km/s) = 2.81216 3.54943 3.20209
# Velocity P-wave (km/s) = 4.87882 5.78518 5.35122
#
# Compressibility (1/GPa) = 0.03350878
#
# Stress axis : x y z
#
# Youngs Moduli (GPa) = 69.77108 33.93679 67.51358
#
# Poissons Ratio (x) = 0.07882 0.11587
# Poissons Ratio (y) = 0.16204 0.57470
# Poissons Ratio (z) = 0.11974 0.28888
#
# Static dielectric constant tensor:
#      x y z
#    x 1.869050 0.018200 0.006330 
#    y 0.018200 1.872830 0.088840 
#    z 0.006330 0.088840 1.896270 
# 
# From -- ./inp_files/340297.got.cif
#   From: 2010.05.17/outbox.cif.g08.bks.cpg/sg2_171_cif.got.tgz:340297.got - 2010.06.03 11:33:40.
