data_PCOD9112716
_publ_section_title
;
Structure prediction by ZEFSAII (Michael W. Deem and Ramdas Pophale) SiO2 
 PCOD9112716
Probable space group: P 2
;
_chemical_formula_sum "Si O2"
_cell_formula_units_Z 16
_cell_length_a 8.614932
_cell_length_b 12.497383
_cell_length_c 8.930358
_cell_angle_alpha 90.000000
_cell_angle_beta 121.830705
_cell_angle_gamma 90.000000
_cell_volume 816.882339
_symmetry_space_group_name_H-M "P 2"
_symmetry_group_IT_number 3
_symmetry_cell_setting 'monoclinic'
loop_
_space_group_symop_operation_xyz
x,y,z
-x,y,-z
loop_
_atom_site_type_symbol
_atom_site_label
_atom_site_fract_x
_atom_site_fract_y
_atom_site_fract_z
Si Si1 0.163661 0.923780 0.466305
Si Si2 0.188975 0.779841 0.187435
Si Si3 0.668184 0.158995 0.968318
Si Si4 0.471866 0.381575 0.160983
Si Si5 0.808021 0.529056 0.817420
Si Si6 0.293857 0.356378 0.460313
Si Si7 0.958875 0.156222 0.656186
Si Si8 0.462111 0.933136 0.158834
O O1 0.178272 0.836874 0.343113
O O2 0.347398 0.935630 0.656166
O O3 0.000000 0.901015 0.500000
O O4 0.122952 0.037998 0.368966
O O5 0.224919 0.653968 0.226034
O O6 0.342176 0.838434 0.166407
O O7 0.000000 0.791718 0.000000
O O8 0.857196 0.162868 0.153599
O O9 0.500000 0.157524 0.000000
O O10 0.636732 0.269829 0.865925
O O11 0.643091 0.046492 0.871472
O O12 0.352560 0.478056 0.164194
O O13 0.665215 0.372435 0.343443
O O14 0.500000 0.393471 0.000000
O O15 0.802461 0.457580 0.664872
O O16 0.000000 0.516135 0.000000
O O17 0.500000 0.349717 0.500000
O O18 0.179991 0.249989 0.373688
O O19 0.000000 0.167265 0.500000
O O20 0.500000 0.920248 0.000000
#
# Coordination Sequence:
#
# PCOD9112716 Si02
#       8
#     2   2   2   2   2   2   2   2
#     4  11  23  40  62  90 122 156 198 245 297 355
#     4  11  24  43  63  86 118 157 202 250 298 349
#     4  10  19  34  57  88 123 155 191 237 293 352
#     4  10  20  37  60  86 119 155 193 236 288 351
#     4  10  23  42  60  83 116 152 197 248 294 345
#     4  10  22  38  59  87 122 155 192 239 293 350
#     4  11  20  35  60  89 121 154 194 241 292 349
#     4  11  22  39  63  91 123 158 197 242 297 355
#
# _framework density 19.586662
#
# number of rings (size 3 to 8) (size 9 to 14) (size 15 to 20)
#    0.000    1.500    0.000    7.875    0.000    6.500 
#    0.000    6.875    0.000    0.000    0.000    0.000 
#    0.000    0.000    0.000    0.000    0.000    0.000 
#
# Total GULP energy -89422.282797 kJ/mol
# GULP energy per Si atom -5588.892675 kJ/mol
# Density = 1.954208 g / cm^3
# Si number density = 19.586662 Si / 1000 Ang^3
#
#
#
# Elastic Constant Matrix: (Units=GPa)
#
#
# Indices 1 2 3 4 5 6 
#
# 1 69.7534 64.5873 48.8015 0.0000 10.9432 0.0000
# 2 64.5873 185.5805 92.7617 0.0000 8.3010 0.0000
# 3 48.8015 92.7617 165.2315 0.0000 12.6019 0.0000
# 4 0.0000 0.0000 0.0000 37.9631 0.0000 -1.7047
# 5 10.9432 8.3010 12.6019 0.0000 39.5268 0.0000
# 6 0.0000 0.0000 0.0000 -1.7047 0.0000 34.5931
#
#
#
# Elastic Compliance Matrix: (Units=1/GPa)
#
#
# Indices 1 2 3 4 5 6 
#
# 1 0.022856 -0.006329 -0.002886 0.000000 -0.004078 0.000000
# 2 -0.006329 0.009245 -0.003389 0.000000 0.000891 0.000000
# 3 -0.002886 -0.003389 0.008909 0.000000 -0.001329 0.000000
# 4 0.000000 0.000000 0.000000 0.026400 0.000000 0.001301
# 5 -0.004078 0.000891 -0.001329 0.000000 0.026665 0.000000
# 6 0.000000 0.000000 0.000000 0.001301 0.000000 0.028972
#
#
# Mechanical properties :
#
#
# Convention : Reuss Voigt Hill
#
# Bulk Modulus (GPa) = 63.28797 92.54071 77.91434
# Shear Modulus (GPa) = 32.56851 36.71093 34.63972
#
# Velocity S-wave (km/s) = 4.08216 4.33399 4.20996
# Velocity P-wave (km/s) = 7.38922 8.50847 7.96852
#
# Compressibility (1/GPa) = 0.01580079
#
# Stress axis : x y z
#
# Youngs Moduli (GPa) = 43.75221 108.16138 112.25215
#
# Poissons Ratio (x) = 0.68461 0.32397
# Poissons Ratio (y) = 0.27693 0.38042
# Poissons Ratio (z) = 0.12627 0.36656
#
# Static dielectric constant tensor:
#      x y z
#    x 1.683560 0.000000 -0.024080 
#    y 0.000000 1.675910 0.000000 
#    z -0.024080 0.000000 1.711690 
# 
# From -- ./inp_files/6032.got.cif
#   From: 2010.05.17/outbox.cif.g08.bks.cpg/sg3_4_cif.got.tgz:6032.got - 2010.06.03 18:33:08.
