data_PCOD9112122
_publ_section_title
;
Structure prediction by ZEFSAII (Michael W. Deem and Ramdas Pophale) SiO2 
 PCOD9112122
Probable space group: P -1
;
_chemical_formula_sum "Si O2"
_cell_formula_units_Z 14
_cell_length_a 9.285978
_cell_length_b 5.484178
_cell_length_c 13.335346
_cell_angle_alpha 99.705598
_cell_angle_beta 112.029267
_cell_angle_gamma 60.115676
_cell_volume 545.685916
_symmetry_space_group_name_H-M "P -1"
_symmetry_group_IT_number 2
_symmetry_cell_setting 'triclinic'
loop_
_space_group_symop_operation_xyz
x,y,z
-x,-y,-z
loop_
_atom_site_type_symbol
_atom_site_label
_atom_site_fract_x
_atom_site_fract_y
_atom_site_fract_z
Si Si1 0.491516 0.999802 0.118130
Si Si2 0.584803 0.366280 0.286192
Si Si3 0.148552 0.090018 0.531244
Si Si4 0.418354 0.796321 0.437425
Si Si5 0.096893 0.425362 0.910120
Si Si6 0.190101 0.880555 0.990989
Si Si7 0.150728 0.475589 0.723974
O O1 0.460802 0.290123 0.180030
O O2 0.676385 0.784936 0.200042
O O3 0.500000 0.000000 0.000000
O O4 0.339505 0.913403 0.093364
O O5 0.674639 0.131278 0.379388
O O6 0.476037 0.669368 0.332165
O O7 0.757712 0.338924 0.271869
O O8 0.214169 0.006644 0.427633
O O9 0.099187 0.373710 0.601073
O O10 0.000000 0.000000 0.500000
O O11 0.500000 0.500000 0.500000
O O12 0.500000 0.000000 0.500000
O O13 0.229075 0.564385 0.958776
O O14 0.014851 0.548056 0.787070
O O15 0.157500 0.092968 0.904661
O O16 0.000000 0.500000 0.000000
O O17 0.000000 0.000000 0.000000
#
# Coordination Sequence:
#
# PCOD9112122 Si02
#       7
#     2   2   2   2   2   2   2
#     4  11  22  38  65  95 131 178 223 268 323 398
#     4  10  23  40  71  98 131 179 230 274 340 407
#     4  10  23  44  67  99 133 172 221 287 346 399
#     4  10  20  44  70  95 134 173 219 283 340 404
#     4  10  22  40  63  88 135 177 212 266 328 388
#     4  10  22  41  60  89 132 173 214 268 322 375
#     4  11  22  39  67  94 130 173 228 270 330 403
#
# _framework density 25.655785999999999
#
# number of rings (size 3 to 8) (size 9 to 14) (size 15 to 20)
#    0.000    1.714    2.857    0.857    4.000    1.714 
#    5.143    0.000    0.000    0.000    0.000    0.000 
#    0.000    0.000    0.000    0.000    0.000    0.000 
#
# Total GULP energy -77936.505984 kJ/mol
# GULP energy per Si atom -5566.893285 kJ/mol
# Density = 2.559739 g / cm^3
# Si number density = 25.655786 Si / 1000 Ang^3
#
#
#
# Elastic Constant Matrix: (Units=GPa)
#
#
# Indices 1 2 3 4 5 6 
#
# 1 144.7107 30.5353 51.0166 34.4367 -3.3154 24.1292
# 2 30.5353 104.2121 58.3028 41.4740 -6.0770 29.4435
# 3 51.0166 58.3028 172.0529 37.6936 -8.5563 6.4046
# 4 34.4367 41.4740 37.6936 69.2859 11.1361 -2.4107
# 5 -3.3154 -6.0770 -8.5563 11.1361 46.6085 10.8008
# 6 24.1292 29.4435 6.4046 -2.4107 10.8008 55.2507
#
#
#
# Elastic Compliance Matrix: (Units=1/GPa)
#
#
# Indices 1 2 3 4 5 6 
#
# 1 0.009675 0.002818 -0.002042 -0.006198 0.003662 -0.006476
# 2 0.002818 0.021003 -0.003978 -0.013719 0.008796 -0.014281
# 3 -0.002042 -0.003978 0.007928 -0.000940 0.000566 0.001941
# 4 -0.006198 -0.013719 -0.000940 0.028722 -0.012467 0.013817
# 5 0.003662 0.008796 0.000566 -0.012467 0.028850 -0.012536
# 6 -0.006476 -0.014281 0.001941 0.013817 -0.012536 0.031366
#
#
# Mechanical properties :
#
#
# Convention : Reuss Voigt Hill
#
# Bulk Modulus (GPa) = 31.05566 77.85390 54.45478
# Shear Modulus (GPa) = 34.55838 52.97044 43.76441
#
# Velocity S-wave (km/s) = 3.67413 4.54878 4.13465
# Velocity P-wave (km/s) = 5.48908 7.61577 6.63815
#
# Compressibility (1/GPa) = 0.03220024
#
# Stress axis : x y z
#
# Youngs Moduli (GPa) = 103.36432 47.61116 126.14054
#
# Poissons Ratio (x) = -0.13417 0.25764
# Poissons Ratio (y) = -0.29129 0.50182
# Poissons Ratio (z) = 0.21112 0.18941
#
# Static dielectric constant tensor:
#      x y z
#    x 2.248090 -0.148130 -0.167450 
#    y -0.148130 2.317760 0.064580 
#    z -0.167450 0.064580 2.143360 
# 
# From -- ./inp_files/106677.got.cif
#   From: 2010.05.17/outbox.cif.g08.bks.cpg/sg2_54_cif.got.tgz:106677.got - 2010.06.03 11:33:40.
