data_PCOD9112702
_publ_section_title
;
Structure prediction by ZEFSAII (Michael W. Deem and Ramdas Pophale) SiO2 
 PCOD9112702
Probable space group: P 2
;
_chemical_formula_sum "Si O2"
_cell_formula_units_Z 14
_cell_length_a 5.235646
_cell_length_b 11.181230
_cell_length_c 15.668262
_cell_angle_alpha 90.000000
_cell_angle_beta 107.024849
_cell_angle_gamma 90.000000
_cell_volume 877.039931
_symmetry_space_group_name_H-M "P 2"
_symmetry_group_IT_number 3
_symmetry_cell_setting 'monoclinic'
loop_
_space_group_symop_operation_xyz
x,y,z
-x,y,-z
loop_
_atom_site_type_symbol
_atom_site_label
_atom_site_fract_x
_atom_site_fract_y
_atom_site_fract_z
Si Si1 0.090784 0.161600 0.105365
Si Si2 0.897413 0.565074 0.320417
Si Si3 0.407046 0.002549 0.894405
Si Si4 0.287148 0.739559 0.837980
Si Si5 0.856919 0.395521 0.775619
Si Si6 0.838237 0.613467 0.901758
Si Si7 0.462512 0.477975 0.400208
O O1 0.363701 0.086104 0.123354
O O2 0.108687 0.278451 0.165613
O O3 0.862600 0.077199 0.121372
O O4 0.000000 0.194751 0.000000
O O5 0.788146 0.678923 0.259479
O O6 0.724742 0.535655 0.385845
O O7 0.892436 0.452443 0.252524
O O8 0.211693 0.570110 0.373096
O O9 0.348716 0.879308 0.840802
O O10 0.500000 0.970286 0.000000
O O11 0.557909 0.674755 0.896016
O O12 0.037901 0.707293 0.874894
O O13 0.783295 0.505137 0.831262
O O14 0.638961 0.381252 0.679129
O O15 0.000000 0.569387 0.000000
O O16 0.500000 0.435372 0.500000
#
# Coordination Sequence:
#
# PCOD9112702 Si02
#       7
#     2   2   2   2   2   2   2
#     4  10  21  34  48  70 105 145 175 209 240 286
#     4   9  19  33  52  79 103 126 162 212 263 313
#     4  10  21  33  48  70  99 143 187 207 235 281
#     4  11  19  35  49  73 105 136 173 217 240 297
#     4   9  21  32  52  74 109 124 177 200 259 308
#     4  11  20  30  50  74 104 141 165 210 257 294
#     4  10  19  34  54  79 105 127 158 208 271 322
#
# _framework density 15.962783999999999
#
# number of rings (size 3 to 8) (size 9 to 14) (size 15 to 20)
#    0.857    1.143    1.429    3.000    2.000    1.143 
#    0.000    2.857    0.000    0.000    0.000    6.000 
#    0.000    0.000    0.000    0.000    0.000    0.000 
#
# Total GULP energy -77948.763957 kJ/mol
# GULP energy per Si atom -5567.768854 kJ/mol
# Density = 1.592645 g / cm^3
# Si number density = 15.962784 Si / 1000 Ang^3
#
#
#
# Elastic Constant Matrix: (Units=GPa)
#
#
# Indices 1 2 3 4 5 6 
#
# 1 98.8733 27.4185 15.8912 0.0000 -8.3764 0.0000
# 2 27.4185 91.6279 45.1784 0.0000 -6.4234 0.0000
# 3 15.8912 45.1784 87.4226 0.0000 -5.3523 0.0000
# 4 0.0000 0.0000 0.0000 14.3587 0.0000 2.3743
# 5 -8.3764 -6.4234 -5.3523 0.0000 18.7029 0.0000
# 6 0.0000 0.0000 0.0000 2.3743 0.0000 10.4744
#
#
#
# Elastic Compliance Matrix: (Units=1/GPa)
#
#
# Indices 1 2 3 4 5 6 
#
# 1 0.011319 -0.002971 -0.000279 0.000000 0.003969 0.000000
# 2 -0.002971 0.015583 -0.007396 0.000000 0.001905 0.000000
# 3 -0.000279 -0.007396 0.015419 0.000000 0.001747 0.000000
# 4 0.000000 0.000000 0.000000 0.072357 0.000000 -0.016402
# 5 0.003969 0.001905 0.001747 0.000000 0.056399 0.000000
# 6 0.000000 0.000000 0.000000 -0.016402 0.000000 0.099188
#
#
# Mechanical properties :
#
#
# Convention : Reuss Voigt Hill
#
# Bulk Modulus (GPa) = 47.55659 50.54443 49.05051
# Shear Modulus (GPa) = 16.74661 21.33625 19.04143
#
# Velocity S-wave (km/s) = 3.24250 3.65995 3.45753
# Velocity P-wave (km/s) = 6.62384 7.04223 6.83624
#
# Compressibility (1/GPa) = 0.02102758
#
# Stress axis : x y z
#
# Youngs Moduli (GPa) = 88.34689 64.17147 64.85619
#
# Poissons Ratio (x) = 0.19067 0.01810
# Poissons Ratio (y) = 0.26250 0.47971
# Poissons Ratio (z) = 0.02465 0.47464
#
# Static dielectric constant tensor:
#      x y z
#    x 1.562010 0.000000 0.010130 
#    y 0.000000 1.506270 0.000000 
#    z 0.010130 0.000000 1.550680 
# 
# From -- ./inp_files/3146.got.cif
#   From: 2010.05.17/outbox.cif.g08.bks.cpg/sg3_2_cif.got.tgz:3146.got - 2010.06.03 18:33:08.
