data_PCOD9112215
_publ_section_title
;
Structure prediction by ZEFSAII (Michael W. Deem and Ramdas Pophale) SiO2 
 PCOD9112215
Probable space group: P -1
;
_chemical_formula_sum "Si O2"
_cell_formula_units_Z 16
_cell_length_a 19.753095
_cell_length_b 8.889925
_cell_length_c 5.648357
_cell_angle_alpha 120.057527
_cell_angle_beta 127.953619
_cell_angle_gamma 57.649990
_cell_volume 638.367681
_symmetry_space_group_name_H-M "P -1"
_symmetry_group_IT_number 2
_symmetry_cell_setting 'triclinic'
loop_
_space_group_symop_operation_xyz
x,y,z
-x,-y,-z
loop_
_atom_site_type_symbol
_atom_site_label
_atom_site_fract_x
_atom_site_fract_y
_atom_site_fract_z
Si Si1 0.462153 0.665507 0.729064
Si Si2 0.663852 0.008453 0.474533
Si Si3 0.021818 0.387135 0.209301
Si Si4 0.292871 0.556786 0.405559
Si Si5 0.117235 0.767425 0.989967
Si Si6 0.823724 0.896272 0.435784
Si Si7 0.575310 0.803588 0.437017
Si Si8 0.804968 0.137214 0.182910
O O1 0.500000 0.500000 0.500000
O O2 0.437196 0.854631 0.681628
O O3 0.363961 0.662048 0.590673
O O4 0.523833 0.682376 0.091822
O O5 0.718029 0.941003 0.295447
O O6 0.648590 0.846471 0.459784
O O7 0.723063 0.111949 0.826835
O O8 0.124840 0.264441 0.397700
O O9 0.000000 0.500000 0.500000
O O10 0.000000 0.500000 0.000000
O O11 0.959928 0.259383 0.030362
O O12 0.208015 0.590290 0.073262
O O13 0.357733 0.345909 0.363510
O O14 0.241785 0.673745 0.618677
O O15 0.144185 0.935434 0.280324
O O16 0.112512 0.821685 0.746550
O O17 0.838361 0.932524 0.219770
O O18 0.500000 0.000000 0.500000
#
# Coordination Sequence:
#
# PCOD9112215 Si02
#       8
#     2   2   2   2   2   2   2   2
#     4  12  23  46  67 100 141 194 252 306 361 449
#     4  11  23  43  68 105 142 188 239 303 384 430
#     4  12  31  49  74 119 155 187 242 311 385 448
#     4  11  23  44  70 101 138 194 248 298 371 450
#     4  10  24  46  79 103 140 198 246 302 364 457
#     4  10  24  46  78 102 146 197 244 301 362 464
#     4  12  27  40  67 102 148 187 242 315 381 441
#     4  10  20  44  77 102 136 198 254 292 362 455
#
# _framework density 25.063927
#
# number of rings (size 3 to 8) (size 9 to 14) (size 15 to 20)
#    0.000    1.000    3.750    3.375    8.750    0.500 
#    0.000    0.000    0.000    0.000    0.000    0.000 
#    0.000    0.000    0.000    0.000    0.000    0.000 
#
# Total GULP energy -89068.905564 kJ/mol
# GULP energy per Si atom -5566.806598 kJ/mol
# Density = 2.500688 g / cm^3
# Si number density = 25.063927 Si / 1000 Ang^3
#
#
#
# Elastic Constant Matrix: (Units=GPa)
#
#
# Indices 1 2 3 4 5 6 
#
# 1 111.9871 11.1429 2.4851 -7.8027 -5.1187 20.0893
# 2 11.1429 112.6159 23.2102 -36.5262 -2.9075 -6.5002
# 3 2.4851 23.2102 60.8004 -6.9250 -6.3690 -4.1092
# 4 -7.8027 -36.5262 -6.9250 46.6342 8.7236 -1.8545
# 5 -5.1187 -2.9075 -6.3690 8.7236 29.4677 -5.2846
# 6 20.0893 -6.5002 -4.1092 -1.8545 -5.2846 35.0086
#
#
#
# Elastic Compliance Matrix: (Units=1/GPa)
#
#
# Indices 1 2 3 4 5 6 
#
# 1 0.010175 -0.001132 -0.000297 0.000462 0.000378 -0.006002
# 2 -0.001132 0.013163 -0.003871 0.010072 -0.002207 0.002840
# 3 -0.000297 -0.003871 0.018411 -0.001056 0.004253 0.002199
# 4 0.000462 0.010072 -0.001056 0.030813 -0.007932 0.001916
# 5 0.000378 -0.002207 0.004253 -0.007932 0.037981 0.005185
# 6 -0.006002 0.002840 0.002199 0.001916 0.005185 0.033678
#
#
# Mechanical properties :
#
#
# Convention : Reuss Voigt Hill
#
# Bulk Modulus (GPa) = 32.10414 39.89778 36.00096
# Shear Modulus (GPa) = 30.26554 38.79310 34.52932
#
# Velocity S-wave (km/s) = 3.47873 3.93843 3.71570
# Velocity P-wave (km/s) = 5.38258 6.05266 5.72742
#
# Compressibility (1/GPa) = 0.03114863
#
# Stress axis : x y z
#
# Youngs Moduli (GPa) = 98.27894 75.96970 54.31571
#
# Poissons Ratio (x) = 0.08603 0.01613
# Poissons Ratio (y) = 0.11130 0.21024
# Poissons Ratio (z) = 0.02919 0.29406
#
# Static dielectric constant tensor:
#      x y z
#    x 2.170900 0.027580 -0.014620 
#    y 0.027580 2.144980 -0.069070 
#    z -0.014620 -0.069070 2.196480 
# 
# From -- ./inp_files/99758.got.cif
#   From: 2010.05.17/outbox.cif.g08.bks.cpg/sg2_50_cif.got.tgz:99758.got - 2010.06.03 11:33:40.
