data_PCOD9112508
_publ_section_title
;
Structure prediction by ZEFSAII (Michael W. Deem and Ramdas Pophale) SiO2 
 PCOD9112508
Probable space group: P 2
;
_chemical_formula_sum "Si O2"
_cell_formula_units_Z 16
_cell_length_a 8.865571
_cell_length_b 12.109042
_cell_length_c 9.123753
_cell_angle_alpha 90.000000
_cell_angle_beta 62.230717
_cell_angle_gamma 90.000000
_cell_volume 866.663068
_symmetry_space_group_name_H-M "P 2"
_symmetry_group_IT_number 3
_symmetry_cell_setting 'monoclinic'
loop_
_space_group_symop_operation_xyz
x,y,z
-x,y,-z
loop_
_atom_site_type_symbol
_atom_site_label
_atom_site_fract_x
_atom_site_fract_y
_atom_site_fract_z
Si Si1 0.318013 0.359970 0.497240
Si Si2 0.349978 0.762402 0.182962
Si Si3 0.155048 0.231161 0.827384
Si Si4 0.025718 0.773391 0.666490
Si Si5 0.485916 0.228987 0.171676
Si Si6 0.668222 0.616349 0.523085
Si Si7 0.080905 0.016193 0.690300
Si Si8 0.719488 0.014082 0.698496
O O1 0.500000 0.354524 0.500000
O O2 0.182460 0.301692 0.666102
O O3 0.349728 0.294487 0.332631
O O4 0.283487 0.488155 0.483168
O O5 0.370358 0.676902 0.306367
O O6 0.162993 0.740946 0.198757
O O7 0.340947 0.888731 0.247046
O O8 0.500000 0.752499 0.000000
O O9 0.330372 0.238030 0.836887
O O10 0.123178 0.104387 0.794293
O O11 0.000000 0.268714 0.000000
O O12 0.170241 0.682267 0.614564
O O13 0.000000 0.796960 0.500000
O O14 0.082791 0.885522 0.719989
O O15 0.423863 0.102426 0.199719
O O16 0.500000 0.270473 0.000000
O O17 0.500000 0.624339 0.500000
O O18 0.215661 0.030294 0.496950
O O19 0.888529 0.036109 0.719127
#
# Coordination Sequence:
#
# PCOD9112508 Si02
#       8
#     2   2   2   2   2   2   2   2
#     4   9  21  40  59  79 114 155 193 241 295 337
#     4  10  20  36  59  86 118 151 185 238 286 337
#     4  11  23  39  58  86 117 151 194 241 290 344
#     4   9  17  37  57  82 117 149 185 229 281 343
#     4  11  22  38  58  86 118 151 193 238 288 352
#     4  10  20  38  60  83 109 152 198 237 286 345
#     4  10  17  34  59  84 115 150 185 233 283 345
#     4  10  18  34  58  86 116 153 187 227 290 341
#
# _framework density 18.461614999999998
#
# number of rings (size 3 to 8) (size 9 to 14) (size 15 to 20)
#    0.000    2.000    5.000    1.125    0.000    2.500 
#    0.000   11.875    0.000    0.000    0.000    0.000 
#    0.000    0.000    0.000    0.000    0.000    0.000 
#
# Total GULP energy -89263.141014 kJ/mol
# GULP energy per Si atom -5578.946313 kJ/mol
# Density = 1.841960 g / cm^3
# Si number density = 18.461615 Si / 1000 Ang^3
#
#
#
# Elastic Constant Matrix: (Units=GPa)
#
#
# Indices 1 2 3 4 5 6 
#
# 1 51.8284 45.7334 53.7601 0.0000 -12.9374 0.0000
# 2 45.7334 125.7439 61.9756 0.0000 -3.8320 0.0000
# 3 53.7601 61.9756 144.1349 0.0000 -22.1187 0.0000
# 4 0.0000 0.0000 0.0000 7.1286 0.0000 -1.3560
# 5 -12.9374 -3.8320 -22.1187 0.0000 32.5619 0.0000
# 6 0.0000 0.0000 0.0000 -1.3560 0.0000 17.1494
#
#
#
# Elastic Compliance Matrix: (Units=1/GPa)
#
#
# Indices 1 2 3 4 5 6 
#
# 1 0.039412 -0.009464 -0.009376 0.000000 0.008176 0.000000
# 2 -0.009464 0.012478 -0.002442 0.000000 -0.003950 0.000000
# 3 -0.009376 -0.002442 0.012134 0.000000 0.004230 0.000000
# 4 0.000000 0.000000 0.000000 0.142422 0.000000 0.011261
# 5 0.008176 -0.003950 0.004230 0.000000 0.036368 0.000000
# 6 0.000000 0.000000 0.000000 0.011261 0.000000 0.059202
#
#
# Mechanical properties :
#
#
# Convention : Reuss Voigt Hill
#
# Bulk Modulus (GPa) = 46.59675 71.62727 59.11201
# Shear Modulus (GPa) = 14.21541 22.05050 18.13295
#
# Velocity S-wave (km/s) = 2.77789 3.45975 3.13740
# Velocity P-wave (km/s) = 5.96519 7.40554 6.72405
#
# Compressibility (1/GPa) = 0.02146072
#
# Stress axis : x y z
#
# Youngs Moduli (GPa) = 25.37314 80.14316 82.41350
#
# Poissons Ratio (x) = 0.75846 0.77271
# Poissons Ratio (y) = 0.24013 0.20121
# Poissons Ratio (z) = 0.23790 0.19567
#
# Static dielectric constant tensor:
#      x y z
#    x 1.633260 0.000000 0.004370 
#    y 0.000000 1.624920 0.000000 
#    z 0.004370 0.000000 1.654940 
# 
# From -- ./inp_files/5797.got.cif
#   From: 2010.05.17/outbox.cif.g08.bks.cpg/sg3_3_cif.got.tgz:5797.got - 2010.06.03 18:33:08.
