data_PCOD9112191
_publ_section_title
;
Structure prediction by ZEFSAII (Michael W. Deem and Ramdas Pophale) SiO2 
 PCOD9112191
Probable space group: P -1
;
_chemical_formula_sum "Si O2"
_cell_formula_units_Z 15
_cell_length_a 10.600565
_cell_length_b 8.981317
_cell_length_c 12.143359
_cell_angle_alpha 38.988960
_cell_angle_beta 53.580979
_cell_angle_gamma 61.383236
_cell_volume 584.990877
_symmetry_space_group_name_H-M "P -1"
_symmetry_group_IT_number 2
_symmetry_cell_setting 'triclinic'
loop_
_space_group_symop_operation_xyz
x,y,z
-x,-y,-z
loop_
_atom_site_type_symbol
_atom_site_label
_atom_site_fract_x
_atom_site_fract_y
_atom_site_fract_z
Si Si1 0.830984 0.874591 0.643067
Si Si2 0.057295 0.468657 0.730447
Si Si3 0.977798 0.041721 0.142820
Si Si4 0.000000 0.500000 0.500000
Si Si5 0.515261 0.912235 0.917883
Si Si6 0.377307 0.035739 0.699390
Si Si7 0.511215 0.386833 0.254224
Si Si8 0.180140 0.723377 0.727496
O O1 0.884075 0.601924 0.753050
O O2 0.696489 0.908373 0.783635
O O3 0.771982 0.011432 0.485220
O O4 0.000000 0.000000 0.500000
O O5 0.097302 0.511905 0.559377
O O6 0.158863 0.590507 0.700616
O O7 0.056091 0.197233 0.920494
O O8 0.797052 0.021433 0.213430
O O9 0.971249 0.217711 0.152497
O O10 0.039547 0.780657 0.289991
O O11 0.417479 0.064326 0.790166
O O12 0.451915 0.645315 0.101981
O O13 0.500000 0.000000 0.000000
O O14 0.475722 0.799762 0.744259
O O15 0.424432 0.258008 0.472964
O O16 0.687188 0.410849 0.195258
#
# Coordination Sequence:
#
# PCOD9112191 Si02
#       8
#     2   2   2   1   2   2   2   2
#     4  10  21  44  73 102 141 190 239 293 358 427
#     4  11  24  44  71 102 143 189 244 299 362 435
#     4  11  24  44  67 104 138 192 241 300 363 430
#     4  12  26  44  66 104 152 186 234 302 372 428
#     4  12  26  45  73 110 143 189 245 301 364 432
#     4  10  23  45  68 101 141 187 245 292 355 437
#     4  10  22  44  74 100 138 192 240 297 354 435
#     4  10  20  44  74  98 136 188 249 296 354 431
#
# _framework density 25.641424000000001
#
# number of rings (size 3 to 8) (size 9 to 14) (size 15 to 20)
#    0.000    1.333    2.667    2.800    0.000    3.733 
#    9.600    0.000    0.000    0.000    0.000    0.000 
#    0.000    0.000    0.000    0.000    0.000    0.000 
#
# Total GULP energy -83661.441862 kJ/mol
# GULP energy per Si atom -5577.429457 kJ/mol
# Density = 2.558306 g / cm^3
# Si number density = 25.641424 Si / 1000 Ang^3
#
#
#
# Elastic Constant Matrix: (Units=GPa)
#
#
# Indices 1 2 3 4 5 6 
#
# 1 78.5586 21.3654 31.8406 9.2748 8.3752 16.3299
# 2 21.3654 96.0036 40.1221 9.1209 8.2448 4.6097
# 3 31.8406 40.1221 152.4875 -12.0575 31.4534 2.5222
# 4 9.2748 9.1209 -12.0575 40.8207 6.9622 10.6189
# 5 8.3752 8.2448 31.4534 6.9622 34.6735 10.6977
# 6 16.3299 4.6097 2.5222 10.6189 10.6977 39.9371
#
#
#
# Elastic Compliance Matrix: (Units=1/GPa)
#
#
# Indices 1 2 3 4 5 6 
#
# 1 0.015957 -0.001707 -0.003472 -0.003111 0.002131 -0.005852
# 2 -0.001707 0.012489 -0.003496 -0.003688 0.001322 0.000104
# 3 -0.003472 -0.003496 0.010659 0.005816 -0.009860 0.002244
# 4 -0.003111 -0.003688 0.005816 0.030341 -0.008352 -0.004500
# 5 0.002131 0.001322 -0.009860 -0.008352 0.041501 -0.009297
# 6 -0.005852 0.000104 0.002244 -0.004500 -0.009297 0.030965
#
#
# Mechanical properties :
#
#
# Convention : Reuss Voigt Hill
#
# Bulk Modulus (GPa) = 45.96227 57.07844 51.52036
# Shear Modulus (GPa) = 30.02772 38.66771 34.34771
#
# Velocity S-wave (km/s) = 3.42579 3.88753 3.66394
# Velocity P-wave (km/s) = 5.79758 6.51607 6.16730
#
# Compressibility (1/GPa) = 0.02175697
#
# Stress axis : x y z
#
# Youngs Moduli (GPa) = 62.66765 80.07120 93.81666
#
# Poissons Ratio (x) = 0.13667 0.32569
# Poissons Ratio (y) = 0.10696 0.32795
# Poissons Ratio (z) = 0.21756 0.27990
#
# Static dielectric constant tensor:
#      x y z
#    x 2.068600 -0.035410 -0.024870 
#    y -0.035410 2.154550 0.024080 
#    z -0.024870 0.024080 2.008630 
# 
# From -- ./inp_files/416039.got.cif
#   From: 2010.05.17/outbox.cif.g08.bks.cpg/sg2_209_cif.got.tgz:416039.got - 2010.06.03 11:33:40.
