data_PCOD9112293
_publ_section_title
;
Structure prediction by ZEFSAII (Michael W. Deem and Ramdas Pophale) SiO2 
 PCOD9112293
Probable space group: P -1
;
_chemical_formula_sum "Si O2"
_cell_formula_units_Z 15
_cell_length_a 29.311441
_cell_length_b 15.178616
_cell_length_c 16.439032
_cell_angle_alpha 161.981236
_cell_angle_beta 18.859608
_cell_angle_gamma 160.967899
_cell_volume 651.459194
_symmetry_space_group_name_H-M "P -1"
_symmetry_group_IT_number 2
_symmetry_cell_setting 'triclinic'
loop_
_space_group_symop_operation_xyz
x,y,z
-x,-y,-z
loop_
_atom_site_type_symbol
_atom_site_label
_atom_site_fract_x
_atom_site_fract_y
_atom_site_fract_z
Si Si1 0.674102 0.757379 0.822107
Si Si2 0.539607 0.767146 0.597944
Si Si3 0.613879 0.752439 0.733207
Si Si4 0.111975 0.612299 0.654753
Si Si5 0.907722 0.209089 0.339474
Si Si6 0.038110 0.116129 0.726861
Si Si7 0.392891 0.756534 0.400542
Si Si8 0.000000 0.000000 0.500000
O O1 0.612254 0.672746 0.761313
O O2 0.725690 0.534887 0.596811
O O3 0.841007 0.069451 0.818202
O O4 0.520821 0.721237 0.097196
O O5 0.500000 0.500000 0.500000
O O6 0.490474 0.563299 0.418921
O O7 0.725452 0.007809 0.496820
O O8 0.444258 0.978657 0.949080
O O9 0.798550 0.874506 0.508742
O O10 0.088834 0.687513 0.668634
O O11 0.285333 0.843052 0.599598
O O12 0.092983 0.253989 0.370028
O O13 0.999763 0.659751 0.951988
O O14 0.000000 0.500000 0.500000
O O15 0.000000 0.000000 0.000000
O O16 0.040647 0.167376 0.670566
O O17 0.500000 0.000000 0.500000
#
# Coordination Sequence:
#
# PCOD9112293 Si02
#       8
#     2   2   2   2   2   2   2   1
#     4  10  23  42  67 102 146 187 242 288 366 432
#     4  12  28  51  79 108 144 190 250 311 380 442
#     4  11  26  46  75 106 147 191 242 303 371 445
#     4  12  26  46  74 105 149 191 249 297 379 429
#     4  12  29  50  78 109 147 191 250 314 377 446
#     4  11  25  44  73 107 148 193 238 302 351 446
#     4  11  24  41  70 102 147 192 239 301 357 448
#     4  10  20  46  62 108 142 194 238 284 352 418
#
# _framework density 23.025234999999999
#
# number of rings (size 3 to 8) (size 9 to 14) (size 15 to 20)
#    0.000    0.800    1.333    4.400   11.200    0.533 
#    2.400    0.000    0.000    0.000    0.000    0.000 
#    0.000    0.000    0.000    0.000    0.000    0.000 
#
# Total GULP energy -83579.380530 kJ/mol
# GULP energy per Si atom -5571.958702 kJ/mol
# Density = 2.297283 g / cm^3
# Si number density = 23.025235 Si / 1000 Ang^3
#
#
#
# Elastic Constant Matrix: (Units=GPa)
#
#
# Indices 1 2 3 4 5 6 
#
# 1 179.3592 67.8003 51.1000 -4.7914 9.1419 29.7287
# 2 67.8003 93.4058 34.0475 2.1693 2.9349 26.9549
# 3 51.1000 34.0475 102.3921 -3.7564 -3.4810 15.8373
# 4 -4.7914 2.1693 -3.7564 39.6639 8.6273 3.4902
# 5 9.1419 2.9349 -3.4810 8.6273 31.0222 -10.2098
# 6 29.7287 26.9549 15.8373 3.4902 -10.2098 40.9369
#
#
#
# Elastic Compliance Matrix: (Units=1/GPa)
#
#
# Indices 1 2 3 4 5 6 
#
# 1 0.008841 -0.004306 -0.002432 0.002386 -0.004436 -0.003954
# 2 -0.004306 0.017125 -0.002431 -0.000297 -0.003165 -0.007972
# 3 -0.002432 -0.002431 0.012011 0.000658 0.001821 -0.000882
# 4 0.002386 -0.000297 0.000658 0.028541 -0.010817 -0.006923
# 5 -0.004436 -0.003165 0.001821 -0.010817 0.042348 0.016085
# 6 -0.003954 -0.007972 -0.000882 -0.006923 0.016085 0.037492
#
#
# Mechanical properties :
#
#
# Convention : Reuss Voigt Hill
#
# Bulk Modulus (GPa) = 50.91922 75.67252 63.29587
# Shear Modulus (GPa) = 29.19859 37.13855 33.16857
#
# Velocity S-wave (km/s) = 3.56492 4.02051 3.79955
# Velocity P-wave (km/s) = 6.25359 7.38167 6.84092
#
# Compressibility (1/GPa) = 0.01963895
#
# Stress axis : x y z
#
# Youngs Moduli (GPa) = 113.10529 58.39557 83.25765
#
# Poissons Ratio (x) = 0.25145 0.20250
# Poissons Ratio (y) = 0.48703 0.20238
# Poissons Ratio (z) = 0.27509 0.14194
#
# Static dielectric constant tensor:
#      x y z
#    x 1.839520 -0.001100 -0.038700 
#    y -0.001100 1.873160 -0.009640 
#    z -0.038700 -0.009640 1.914300 
# 
# From -- ./inp_files/544239.got.cif
#   From: 2010.05.17/outbox.cif.g08.bks.cpg/sg2_273_cif.got.tgz:544239.got - 2010.06.03 11:33:40.
