data_PCOD9112040
_publ_section_title
;
Structure prediction by ZEFSAII (Michael W. Deem and Ramdas Pophale) SiO2 
 PCOD9112040
Probable space group: P -1
;
_chemical_formula_sum "Si O2"
_cell_formula_units_Z 12
_cell_length_a 16.180536
_cell_length_b 15.316128
_cell_length_c 6.107569
_cell_angle_alpha 58.990303
_cell_angle_beta 134.608183
_cell_angle_gamma 153.537118
_cell_volume 448.406153
_symmetry_space_group_name_H-M "P -1"
_symmetry_group_IT_number 2
_symmetry_cell_setting 'triclinic'
loop_
_space_group_symop_operation_xyz
x,y,z
-x,-y,-z
loop_
_atom_site_type_symbol
_atom_site_label
_atom_site_fract_x
_atom_site_fract_y
_atom_site_fract_z
Si Si1 0.000000 0.500000 0.500000
Si Si2 0.000000 0.000000 0.500000
Si Si3 0.616345 0.761656 0.458358
Si Si4 0.002476 0.679375 0.546836
Si Si5 0.760759 0.648695 0.456128
Si Si6 0.485376 0.113475 0.125784
Si Si7 0.805759 0.049012 0.822025
O O1 0.056736 0.482835 0.394906
O O2 0.726169 0.247627 0.319139
O O3 0.838325 0.890451 0.571267
O O4 0.742895 0.749804 0.216558
O O5 0.429063 0.535728 0.487453
O O6 0.704864 0.896349 0.653523
O O7 0.491252 0.751107 0.086466
O O8 0.021273 0.742648 0.256942
O O9 0.822337 0.608491 0.450003
O O10 0.255567 0.890221 0.864400
O O11 0.026619 0.877767 0.776401
O O12 0.402581 0.054831 0.298831
#
# Coordination Sequence:
#
# PCOD9112040 Si02
#       7
#     1   1   2   2   2   2   2
#     4  12  22  38  70  94 124 180 216 250 344 382
#     4  12  22  46  66 100 132 168 220 270 318 388
#     4  11  23  43  67  96 135 170 215 270 320 384
#     4  10  22  42  62  96 133 165 217 271 312 386
#     4  11  23  43  67  96 135 170 215 270 320 384
#     4  10  22  42  62  96 133 165 217 271 312 386
#     4  10  20  44  68  88 138 172 208 276 322 374
#
# _framework density 26.761452999999999
#
# number of rings (size 3 to 8) (size 9 to 14) (size 15 to 20)
#    0.000    1.333    5.000    3.000    0.000    1.333 
#    0.000   17.500    0.000    0.000    0.000    0.000 
#    0.000    0.000    0.000    0.000    0.000    0.000 
#
# Total GULP energy -66817.226309 kJ/mol
# GULP energy per Si atom -5568.102192 kJ/mol
# Density = 2.670054 g / cm^3
# Si number density = 26.761453 Si / 1000 Ang^3
#
#
#
# Elastic Constant Matrix: (Units=GPa)
#
#
# Indices 1 2 3 4 5 6 
#
# 1 198.2172 32.4869 25.7389 7.9322 -28.6027 17.5363
# 2 32.4869 128.1756 5.2814 -11.1067 4.1616 34.8494
# 3 25.7389 5.2814 49.9006 1.1749 -0.5538 24.2268
# 4 7.9322 -11.1067 1.1749 28.4172 0.4835 -9.0516
# 5 -28.6027 4.1616 -0.5538 0.4835 27.1362 -0.6611
# 6 17.5363 34.8494 24.2268 -9.0516 -0.6611 59.1572
#
#
#
# Elastic Compliance Matrix: (Units=1/GPa)
#
#
# Indices 1 2 3 4 5 6 
#
# 1 0.007052 -0.002209 -0.003380 -0.002740 0.007758 0.000263
# 2 -0.002209 0.010304 0.002998 0.002584 -0.004047 -0.006293
# 3 -0.003380 0.002998 0.027592 -0.002962 -0.003713 -0.012559
# 4 -0.002740 0.002584 -0.002962 0.039211 -0.003886 0.006459
# 5 0.007758 -0.004047 -0.003713 -0.003886 0.045679 0.001521
# 6 0.000263 -0.006293 -0.012559 0.006459 0.001521 0.026682
#
#
# Mechanical properties :
#
#
# Convention : Reuss Voigt Hill
#
# Bulk Modulus (GPa) = 25.14673 55.92309 40.53491
# Shear Modulus (GPa) = 28.57827 43.79454 36.18640
#
# Velocity S-wave (km/s) = 3.27140 4.04973 3.68119
# Velocity P-wave (km/s) = 4.86687 6.54288 5.76610
#
# Compressibility (1/GPa) = 0.03976661
#
# Stress axis : x y z
#
# Youngs Moduli (GPa) = 141.80734 97.04526 36.24232
#
# Poissons Ratio (x) = 0.21435 0.12252
# Poissons Ratio (y) = 0.31322 -0.10867
# Poissons Ratio (z) = 0.47937 -0.29098
#
# Static dielectric constant tensor:
#      x y z
#    x 2.200360 -0.226240 0.141130 
#    y -0.226240 2.228010 -0.038170 
#    z 0.141130 -0.038170 2.353520 
# 
# From -- ./inp_files/4174.got.cif
#   From: 2010.05.17/outbox.cif.g08.bks.cpg/sg2_3_cif.got.tgz:4174.got - 2010.06.03 11:33:40.
