data_PCOD9112565
_publ_section_title
;
Structure prediction by ZEFSAII (Michael W. Deem and Ramdas Pophale) SiO2 
 PCOD9112565
Probable space group: P 2
;
_chemical_formula_sum "Si O2"
_cell_formula_units_Z 12
_cell_length_a 26.629491
_cell_length_b 5.132308
_cell_length_c 10.654855
_cell_angle_alpha 90.000000
_cell_angle_beta 27.895019
_cell_angle_gamma 90.000000
_cell_volume 681.290798
_symmetry_space_group_name_H-M "P 2"
_symmetry_group_IT_number 3
_symmetry_cell_setting 'monoclinic'
loop_
_space_group_symop_operation_xyz
x,y,z
-x,y,-z
loop_
_atom_site_type_symbol
_atom_site_label
_atom_site_fract_x
_atom_site_fract_y
_atom_site_fract_z
Si Si1 0.380344 0.359760 0.704487
Si Si2 0.400085 0.976499 0.032678
Si Si3 0.703330 0.477217 0.850819
Si Si4 0.635356 0.861525 0.430282
Si Si5 0.873634 0.446418 0.261847
Si Si6 0.234051 0.946611 0.617561
O O1 0.500000 0.379884 0.500000
O O2 0.367075 0.578107 0.627104
O O3 0.364364 0.077171 0.679783
O O4 0.298310 0.413614 0.999196
O O5 0.339953 0.768502 0.075774
O O6 0.342307 0.943278 0.293566
O O7 0.377770 0.268489 0.033977
O O8 0.524272 0.909503 0.750040
O O9 0.812618 0.441478 0.531236
O O10 0.731271 0.905256 0.316192
O O11 0.840127 0.714881 0.269686
O O12 0.824630 0.215252 0.285936
O O13 0.000000 0.421166 0.000000
#
# Coordination Sequence:
#
# PCOD9112565 Si02
#       6
#     2   2   2   2   2   2
#     4  12  21  33  52  77 116 152 179 200 248 322
#     4  10  18  33  51  77 112 142 172 214 255 318
#     4  10  20  33  53  81 104 139 186 214 252 310
#     4  12  21  33  53  78 118 149 166 213 261 318
#     4  10  21  40  62  77 100 135 181 238 271 304
#     4  10  22  35  55  84 106 135 181 219 276 316
#
# _framework density 17.613624000000002
#
# number of rings (size 3 to 8) (size 9 to 14) (size 15 to 20)
#    0.000    1.333    3.333    3.500    0.000    0.000 
#    0.000    6.667    0.000    6.000    0.000    0.000 
#    0.000    0.000    0.000    0.000    0.000    0.000 
#
# Total GULP energy -67018.297771 kJ/mol
# GULP energy per Si atom -5584.858148 kJ/mol
# Density = 1.757353 g / cm^3
# Si number density = 17.613624 Si / 1000 Ang^3
#
#
#
# Elastic Constant Matrix: (Units=GPa)
#
#
# Indices 1 2 3 4 5 6 
#
# 1 57.1124 -16.4084 18.2769 0.0000 2.4127 0.0000
# 2 -16.4084 47.6494 -11.6781 0.0000 2.5203 0.0000
# 3 18.2769 -11.6781 63.6461 0.0000 -13.2080 0.0000
# 4 0.0000 0.0000 0.0000 12.7530 0.0000 3.2594
# 5 2.4127 2.5203 -13.2080 0.0000 12.9685 0.0000
# 6 0.0000 0.0000 0.0000 3.2594 0.0000 18.0563
#
#
#
# Elastic Compliance Matrix: (Units=1/GPa)
#
#
# Indices 1 2 3 4 5 6 
#
# 1 0.022563 0.006502 -0.008140 0.000000 -0.013752 0.000000
# 2 0.006502 0.023849 0.001643 0.000000 -0.004171 0.000000
# 3 -0.008140 0.001643 0.023583 0.000000 0.025214 0.000000
# 4 0.000000 0.000000 0.000000 0.082206 0.000000 -0.014839
# 5 -0.013752 -0.004171 0.025214 0.000000 0.106159 0.000000
# 6 0.000000 0.000000 0.000000 -0.014839 0.000000 0.058061
#
#
# Mechanical properties :
#
#
# Convention : Reuss Voigt Hill
#
# Bulk Modulus (GPa) = 14.28447 16.53209 15.40828
# Shear Modulus (GPa) = 14.71683 20.63671 17.67677
#
# Velocity S-wave (km/s) = 2.89370 3.42663 3.17138
# Velocity P-wave (km/s) = 4.39229 5.00620 4.70926
#
# Compressibility (1/GPa) = 0.07000608
#
# Stress axis : x y z
#
# Youngs Moduli (GPa) = 44.31954 41.93046 42.40257
#
# Poissons Ratio (x) = -0.27264 0.34517
# Poissons Ratio (y) = -0.28818 -0.06967
# Poissons Ratio (z) = 0.36077 -0.06890
#
# Static dielectric constant tensor:
#      x y z
#    x 1.580740 0.000000 0.027700 
#    y 0.000000 1.591490 0.000000 
#    z 0.027700 0.000000 1.598340 
# 
# From -- ./inp_files/6527.got.cif
#   From: 2010.05.17/outbox.cif.g08.bks.cpg/sg3_4_cif.got.tgz:6527.got - 2010.06.03 18:33:08.
