data_PCOD9112287
_publ_section_title
;
Structure prediction by ZEFSAII (Michael W. Deem and Ramdas Pophale) SiO2 
 PCOD9112287
Probable space group: P -1
;
_chemical_formula_sum "Si O2"
_cell_formula_units_Z 16
_cell_length_a 4.987278
_cell_length_b 15.353597
_cell_length_c 10.839555
_cell_angle_alpha 121.085275
_cell_angle_beta 75.355343
_cell_angle_gamma 123.515006
_cell_volume 592.037539
_symmetry_space_group_name_H-M "P -1"
_symmetry_group_IT_number 2
_symmetry_cell_setting 'triclinic'
loop_
_space_group_symop_operation_xyz
x,y,z
-x,-y,-z
loop_
_atom_site_type_symbol
_atom_site_label
_atom_site_fract_x
_atom_site_fract_y
_atom_site_fract_z
Si Si1 0.572258 0.080134 0.855699
Si Si2 0.229110 0.301954 0.846723
Si Si3 0.491768 0.847513 0.816497
Si Si4 0.778548 0.682440 0.671996
Si Si5 0.489015 0.206001 0.560065
Si Si6 0.969543 0.442431 0.592516
Si Si7 0.425316 0.469190 0.178958
Si Si8 0.809833 0.064355 0.422511
O O1 0.878564 0.189276 0.833489
O O2 0.612147 0.971486 0.822404
O O3 0.284357 0.017041 0.745293
O O4 0.487836 0.127008 0.021617
O O5 0.432095 0.244190 0.728598
O O6 0.283501 0.403331 0.812459
O O7 0.361676 0.375747 0.010528
O O8 0.854053 0.895226 0.523265
O O9 0.124033 0.759708 0.755106
O O10 0.551414 0.588930 0.737257
O O11 0.797093 0.609932 0.500930
O O12 0.675360 0.777079 0.721213
O O13 0.623027 0.323420 0.552628
O O14 0.766369 0.175672 0.488144
O O15 0.889449 0.515950 0.756151
O O16 0.000000 0.500000 0.500000
O O17 0.500000 0.000000 0.500000
#
# Coordination Sequence:
#
# PCOD9112287 Si02
#       8
#     2   2   2   2   2   2   2   2
#     4  11  25  45  74 110 158 194 250 309 377 458
#     4  10  20  45  75 109 152 196 247 312 374 453
#     4  11  27  46  74 110 148 202 244 302 381 447
#     4  11  23  48  74 108 148 193 252 308 370 449
#     4  11  25  46  72 110 145 193 244 303 376 443
#     4   9  21  44  75 106 146 192 247 308 369 438
#     4   9  20  43  78 108 148 197 253 309 379 442
#     4  12  26  45  72 107 147 193 246 305 375 439
#
# _framework density 27.025314999999999
#
# number of rings (size 3 to 8) (size 9 to 14) (size 15 to 20)
#    0.000    1.500    2.500    1.125    0.000    8.000 
#    0.000   18.125    0.000    0.000    0.000    0.000 
#    0.000    0.000    0.000    0.000    0.000    0.000 
#
# Total GULP energy -89506.700981 kJ/mol
# GULP energy per Si atom -5594.168811 kJ/mol
# Density = 2.696380 g / cm^3
# Si number density = 27.025315 Si / 1000 Ang^3
#
#
#
# Elastic Constant Matrix: (Units=GPa)
#
#
# Indices 1 2 3 4 5 6 
#
# 1 112.5883 25.0107 36.9107 18.0659 -28.7142 -0.9533
# 2 25.0107 196.6595 23.4708 2.3769 0.6700 6.2923
# 3 36.9107 23.4708 226.3717 13.0013 -21.4780 5.3435
# 4 18.0659 2.3769 13.0013 43.2034 0.4202 -4.8893
# 5 -28.7142 0.6700 -21.4780 0.4202 28.7399 0.2197
# 6 -0.9533 6.2923 5.3435 -4.8893 0.2197 35.6083
#
#
#
# Elastic Compliance Matrix: (Units=1/GPa)
#
#
# Indices 1 2 3 4 5 6 
#
# 1 0.013763 -0.001669 -0.000458 -0.005672 0.013531 -0.000130
# 2 -0.001669 0.005385 -0.000499 0.000478 -0.002167 -0.000842
# 3 -0.000458 -0.000499 0.004957 -0.001404 0.003286 -0.000881
# 4 -0.005672 0.000478 -0.001404 0.026396 -0.007141 0.003643
# 5 0.013531 -0.002167 0.003286 -0.007141 0.050932 -0.001043
# 6 -0.000130 -0.000842 -0.000881 0.003643 -0.001043 0.028868
#
#
# Mechanical properties :
#
#
# Convention : Reuss Voigt Hill
#
# Bulk Modulus (GPa) = 53.04548 78.48933 65.76740
# Shear Modulus (GPa) = 35.25150 51.52548 43.38849
#
# Velocity S-wave (km/s) = 3.61555 4.37116 4.01119
# Velocity P-wave (km/s) = 6.09100 7.38796 6.77061
#
# Compressibility (1/GPa) = 0.01885175
#
# Stress axis : x y z
#
# Youngs Moduli (GPa) = 72.65992 185.68894 201.72613
#
# Poissons Ratio (x) = 0.30991 0.09248
# Poissons Ratio (y) = 0.12127 0.10073
# Poissons Ratio (z) = 0.03331 0.09273
#
# Static dielectric constant tensor:
#      x y z
#    x 1.601680 -0.265240 -0.228230 
#    y -0.265240 2.542150 0.011560 
#    z -0.228230 0.011560 2.033540 
# 
# From -- ./inp_files/404226.got.cif
#   From: 2010.05.17/outbox.cif.g08.bks.cpg/sg2_203_cif.got.tgz:404226.got - 2010.06.03 11:33:40.
