data_PCOD9112039
_publ_section_title
;
Structure prediction by ZEFSAII (Michael W. Deem and Ramdas Pophale) SiO2 
 PCOD9112039
Probable space group: P -1
;
_chemical_formula_sum "Si O2"
_cell_formula_units_Z 12
_cell_length_a 13.866493
_cell_length_b 7.604131
_cell_length_c 13.193392
_cell_angle_alpha 47.176849
_cell_angle_beta 30.664180
_cell_angle_gamma 40.192533
_cell_volume 456.788886
_symmetry_space_group_name_H-M "P -1"
_symmetry_group_IT_number 2
_symmetry_cell_setting 'triclinic'
loop_
_space_group_symop_operation_xyz
x,y,z
-x,-y,-z
loop_
_atom_site_type_symbol
_atom_site_label
_atom_site_fract_x
_atom_site_fract_y
_atom_site_fract_z
Si Si1 0.768487 0.823571 0.463755
Si Si2 0.869410 0.081853 0.979529
Si Si3 0.683308 0.889869 0.960739
Si Si4 0.673801 0.699454 0.250195
Si Si5 0.827451 0.418418 0.409078
Si Si6 0.384007 0.568203 0.213676
O O1 0.743663 0.721486 0.413584
O O2 0.748728 0.588304 0.638366
O O3 0.980448 0.852667 0.256208
O O4 0.561268 0.095477 0.576427
O O5 0.631532 0.346466 0.097269
O O6 0.831536 0.830634 0.077968
O O7 0.000000 0.000000 0.000000
O O8 0.917046 0.729210 0.763529
O O9 0.647872 0.180086 0.925119
O O10 0.665718 0.697682 0.137566
O O11 0.500000 0.000000 0.000000
O O12 0.755918 0.439233 0.350118
O O13 0.728412 0.301682 0.627048
#
# Coordination Sequence:
#
# PCOD9112039 Si02
#       6
#     2   2   2   2   2   2
#     4   9  20  38  69  97 125 158 213 270 320 363
#     4  11  18  37  72 100 124 161 210 271 323 369
#     4  12  26  44  62  91 137 177 208 259 321 377
#     4  11  23  42  67 100 125 164 220 264 309 384
#     4  10  20  44  68  88 131 169 208 265 314 375
#     4   9  22  41  65  92 131 165 210 263 319 374
#
# _framework density 26.270340999999998
#
# number of rings (size 3 to 8) (size 9 to 14) (size 15 to 20)
#    1.000    0.667    1.667    3.500    0.000    2.667 
#    6.000    3.333    0.000    0.000    0.000    0.000 
#    0.000    0.000    0.000    0.000    0.000    0.000 
#
# Total GULP energy -67126.113558 kJ/mol
# GULP energy per Si atom -5593.842796 kJ/mol
# Density = 2.621055 g / cm^3
# Si number density = 26.270341 Si / 1000 Ang^3
#
#
#
# Elastic Constant Matrix: (Units=GPa)
#
#
# Indices 1 2 3 4 5 6 
#
# 1 114.8937 25.3283 46.5231 3.9898 3.7229 -17.4804
# 2 25.3283 60.6150 51.4862 15.5559 4.0198 -11.4094
# 3 46.5231 51.4862 182.9608 25.0525 -3.6532 -15.6204
# 4 3.9898 15.5559 25.0525 48.1218 4.4196 -4.4491
# 5 3.7229 4.0198 -3.6532 4.4196 37.1904 -17.5530
# 6 -17.4804 -11.4094 -15.6204 -4.4491 -17.5530 37.1629
#
#
#
# Elastic Compliance Matrix: (Units=1/GPa)
#
#
# Indices 1 2 3 4 5 6 
#
# 1 0.010505 -0.002485 -0.001779 0.001152 0.000759 0.003927
# 2 -0.002485 0.023698 -0.005200 -0.004390 -0.000900 0.002970
# 3 -0.001779 -0.005200 0.007920 -0.002367 0.002687 0.001881
# 4 0.001152 -0.004390 -0.002367 0.023567 -0.002821 -0.000312
# 5 0.000759 -0.000900 0.002687 -0.002821 0.035931 0.017844
# 6 0.003927 0.002970 0.001881 -0.000312 0.017844 0.038849
#
#
# Mechanical properties :
#
#
# Convention : Reuss Voigt Hill
#
# Bulk Modulus (GPa) = 43.11427 67.23831 55.17629
# Shear Modulus (GPa) = 29.91677 40.17049 35.04363
#
# Velocity S-wave (km/s) = 3.37828 3.91464 3.65631
# Velocity P-wave (km/s) = 5.62711 6.78843 6.23487
#
# Compressibility (1/GPa) = 0.02319418
#
# Stress axis : x y z
#
# Youngs Moduli (GPa) = 95.19466 42.19684 126.26423
#
# Poissons Ratio (x) = 0.10486 0.22465
# Poissons Ratio (y) = 0.23657 0.65660
# Poissons Ratio (z) = 0.16937 0.21943
#
# Static dielectric constant tensor:
#      x y z
#    x 2.139980 0.051530 0.032440 
#    y 0.051530 2.075610 -0.080880 
#    z 0.032440 -0.080880 2.042290 
# 
# From -- ./inp_files/527206.got.cif
#   From: 2010.05.17/outbox.cif.g08.bks.cpg/sg2_264_cif.got.tgz:527206.got - 2010.06.03 11:33:40.
