data_PCOD9112954
_publ_section_title
;
Structure prediction by ZEFSAII (Michael W. Deem and Ramdas Pophale) SiO2 
 PCOD9112954
Probable space group: P 2
;
_chemical_formula_sum "Si O2"
_cell_formula_units_Z 14
_cell_length_a 7.440923
_cell_length_b 8.757951
_cell_length_c 14.143014
_cell_angle_alpha 90.000000
_cell_angle_beta 52.532012
_cell_angle_gamma 90.000000
_cell_volume 731.516336
_symmetry_space_group_name_H-M "P 2"
_symmetry_group_IT_number 3
_symmetry_cell_setting 'monoclinic'
loop_
_space_group_symop_operation_xyz
x,y,z
-x,y,-z
loop_
_atom_site_type_symbol
_atom_site_label
_atom_site_fract_x
_atom_site_fract_y
_atom_site_fract_z
Si Si1 0.997737 0.386880 0.222677
Si Si2 0.358228 0.047189 0.897174
Si Si3 0.105294 0.555468 0.364413
Si Si4 0.940728 0.051600 0.178167
Si Si5 0.858495 0.619909 0.960985
Si Si6 0.218283 0.831189 0.192348
Si Si7 0.475878 0.391431 0.155852
O O1 0.943785 0.465389 0.340483
O O2 0.967952 0.503792 0.146509
O O3 0.903037 0.222097 0.228956
O O4 0.273222 0.374120 0.143627
O O5 0.255609 0.998812 0.829149
O O6 0.426161 0.224099 0.863542
O O7 0.565110 0.938056 0.859182
O O8 0.165037 0.051192 0.039474
O O9 0.174707 0.712393 0.290421
O O10 0.333638 0.453029 0.290922
O O11 0.000000 0.574249 0.500000
O O12 0.002990 0.940031 0.243383
O O13 0.769785 0.731128 0.907761
O O14 0.655678 0.518599 0.067872
O O15 0.000000 0.697367 0.000000
#
# Coordination Sequence:
#
# PCOD9112954 Si02
#       7
#     2   2   2   2   2   2   2
#     4   9  19  35  60  86 120 150 199 244 293 357
#     4  11  23  36  59  89 130 161 185 237 305 375
#     4   9  22  40  63  84 111 165 211 252 296 335
#     4  11  22  35  57  92 127 158 188 233 307 373
#     4  11  22  34  55  93 126 154 192 245 308 369
#     4  11  24  36  59  86 128 155 201 244 293 369
#     4  10  20  36  61  84 117 156 198 249 288 358
#
# _framework density 19.138328999999999
#
# number of rings (size 3 to 8) (size 9 to 14) (size 15 to 20)
#    0.857    0.857    2.857    1.714    6.000    0.000 
#    0.000    2.857    0.000   15.429    0.000    0.000 
#    0.000    0.000    0.000    0.000    0.000    0.000 
#
# Total GULP energy -78091.226615 kJ/mol
# GULP energy per Si atom -5577.944758 kJ/mol
# Density = 1.909477 g / cm^3
# Si number density = 19.138329 Si / 1000 Ang^3
#
#
#
# Elastic Constant Matrix: (Units=GPa)
#
#
# Indices 1 2 3 4 5 6 
#
# 1 89.2178 33.5175 27.9875 0.0000 18.2075 0.0000
# 2 33.5175 124.3813 39.5495 0.0000 3.8878 0.0000
# 3 27.9875 39.5495 102.6985 0.0000 12.9245 0.0000
# 4 0.0000 0.0000 0.0000 13.5197 0.0000 -1.5443
# 5 18.2075 3.8878 12.9245 0.0000 13.4718 0.0000
# 6 0.0000 0.0000 0.0000 -1.5443 0.0000 6.3148
#
#
#
# Elastic Compliance Matrix: (Units=1/GPa)
#
#
# Indices 1 2 3 4 5 6 
#
# 1 0.017223 -0.003805 -0.000497 0.000000 -0.021702 0.000000
# 2 -0.003805 0.010011 -0.003528 0.000000 0.005638 0.000000
# 3 -0.000497 -0.003528 0.012532 0.000000 -0.010332 0.000000
# 4 0.000000 0.000000 0.000000 0.076092 0.000000 0.018609
# 5 -0.021702 0.005638 -0.010332 0.000000 0.111846 0.000000
# 6 0.000000 0.000000 0.000000 0.018609 0.000000 0.162909
#
#
# Mechanical properties :
#
#
# Convention : Reuss Voigt Hill
#
# Bulk Modulus (GPa) = 41.48381 57.60072 49.54227
# Shear Modulus (GPa) = 12.06838 21.01081 16.53959
#
# Velocity S-wave (km/s) = 2.51387 3.31696 2.94294
# Velocity P-wave (km/s) = 5.49080 6.69567 6.12295
#
# Compressibility (1/GPa) = 0.02410579
#
# Stress axis : x y z
#
# Youngs Moduli (GPa) = 58.06260 99.89468 79.79823
#
# Poissons Ratio (x) = 0.38006 0.03968
# Poissons Ratio (y) = 0.22091 0.28151
# Poissons Ratio (z) = 0.02887 0.35240
#
# Static dielectric constant tensor:
#      x y z
#    x 1.723810 0.000000 0.020780 
#    y 0.000000 1.712430 0.000000 
#    z 0.020780 0.000000 1.638890 
# 
# From -- ./inp_files/10690.got.cif
#   From: 2010.05.17/outbox.cif.g08.bks.cpg/sg3_6_cif.got.tgz:10690.got - 2010.06.03 18:33:08.
