data_PCOD9112594
_publ_section_title
;
Structure prediction by ZEFSAII (Michael W. Deem and Ramdas Pophale) SiO2 
 PCOD9112594
Probable space group: P 2
;
_chemical_formula_sum "Si O2"
_cell_formula_units_Z 16
_cell_length_a 17.156298
_cell_length_b 11.827308
_cell_length_c 8.046583
_cell_angle_alpha 90.000000
_cell_angle_beta 31.646482
_cell_angle_gamma 90.000000
_cell_volume 856.668442
_symmetry_space_group_name_H-M "P 2"
_symmetry_group_IT_number 3
_symmetry_cell_setting 'monoclinic'
loop_
_space_group_symop_operation_xyz
x,y,z
-x,y,-z
loop_
_atom_site_type_symbol
_atom_site_label
_atom_site_fract_x
_atom_site_fract_y
_atom_site_fract_z
Si Si1 0.936979 0.663160 0.303456
Si Si2 0.412362 0.277172 0.926403
Si Si3 0.884863 0.459986 0.055526
Si Si4 0.884817 0.078339 0.089070
Si Si5 0.081840 0.911831 0.525883
Si Si6 0.346534 0.032839 0.208408
Si Si7 0.660585 0.507931 0.736556
Si Si8 0.732239 0.263434 0.169502
O O1 0.921072 0.779355 0.427673
O O2 0.781035 0.595076 0.590794
O O3 0.000000 0.685783 0.000000
O O4 0.056136 0.570000 0.146857
O O5 0.584973 0.275806 0.553662
O O6 0.319549 0.273493 0.924676
O O7 0.378638 0.160306 0.084332
O O8 0.366773 0.389926 0.112898
O O9 0.731662 0.481899 0.428809
O O10 0.854098 0.357174 0.992264
O O11 0.000000 0.437518 0.000000
O O12 0.754768 0.041020 0.445360
O O13 0.812492 0.147770 0.071972
O O14 0.000000 0.146589 0.000000
O O15 0.979500 0.976287 0.845052
O O16 0.000000 0.931911 0.500000
O O17 0.247346 0.964116 0.253777
O O18 0.500000 0.982262 0.000000
O O19 0.500000 0.560955 0.000000
#
# Coordination Sequence:
#
# PCOD9112594 Si02
#       8
#     2   2   2   2   2   2   2   2
#     4   9  21  39  59  82 109 150 194 240 281 330
#     4  11  22  32  55  88 125 149 181 236 293 338
#     4   9  19  35  58  82 111 152 191 232 279 337
#     4  10  21  37  61  83 113 155 195 235 281 345
#     4  11  24  42  61  85 117 150 191 247 299 338
#     4  11  21  39  63  87 114 156 198 234 281 350
#     4  10  18  35  59  83 112 150 194 230 272 341
#     4  11  20  34  53  87 124 152 180 233 293 344
#
# _framework density 18.677002999999999
#
# number of rings (size 3 to 8) (size 9 to 14) (size 15 to 20)
#    0.000    2.000    2.500    3.375    0.000    4.500 
#    0.000    6.875    0.000    0.000    0.000    0.000 
#    0.000    0.000    0.000    0.000    0.000    0.000 
#
# Total GULP energy -89141.399683 kJ/mol
# GULP energy per Si atom -5571.337480 kJ/mol
# Density = 1.863449 g / cm^3
# Si number density = 18.677003 Si / 1000 Ang^3
#
#
#
# Elastic Constant Matrix: (Units=GPa)
#
#
# Indices 1 2 3 4 5 6 
#
# 1 94.5781 50.2078 36.5482 0.0000 -18.8471 0.0000
# 2 50.2078 109.0010 32.7090 0.0000 -8.1533 0.0000
# 3 36.5482 32.7090 96.5010 0.0000 -18.0305 0.0000
# 4 0.0000 0.0000 0.0000 17.5726 0.0000 -8.9184
# 5 -18.8471 -8.1533 -18.0305 0.0000 27.0808 0.0000
# 6 0.0000 0.0000 0.0000 -8.9184 0.0000 -52.3342
#
#
#
# Elastic Compliance Matrix: (Units=1/GPa)
#
#
# Indices 1 2 3 4 5 6 
#
# 1 0.016447 -0.006190 -0.002673 0.000000 0.007803 0.000000
# 2 -0.006190 0.012561 -0.002297 0.000000 -0.002056 0.000000
# 3 -0.002673 -0.002297 0.013336 0.000000 0.006327 0.000000
# 4 0.000000 0.000000 0.000000 0.052377 0.000000 -0.008926
# 5 0.007803 -0.002056 0.006327 0.000000 0.045951 0.000000
# 6 0.000000 0.000000 0.000000 -0.008926 0.000000 -0.017587
#
#
# Mechanical properties :
#
#
# Convention : Reuss Voigt Hill
#
# Bulk Modulus (GPa) = 49.94178 59.89001 54.91590
# Shear Modulus (GPa) = 32.87735 10.50484 21.69110
#
# Velocity S-wave (km/s) = 4.20016 2.37417 3.41160
# Velocity P-wave (km/s) = 7.09363 6.29693 6.70712
#
# Compressibility (1/GPa) = 0.02002331
#
# Stress axis : x y z
#
# Youngs Moduli (GPa) = 60.80020 79.61079 74.98617
#
# Poissons Ratio (x) = 0.49280 0.20044
# Poissons Ratio (y) = 0.37636 0.17227
# Poissons Ratio (z) = 0.16252 0.18289
#
# Static dielectric constant tensor:
#      x y z
#    x 1.686220 0.000000 -0.018270 
#    y 0.000000 1.642150 0.000000 
#    z -0.018270 0.000000 1.655470 
# 
# From -- ./inp_files/9187.got.cif
#   From: 2010.05.17/outbox.cif.g08.bks.cpg/sg3_5_cif.got.tgz:9187.got - 2010.06.03 18:33:08.
