data_PCOD9112200
_publ_section_title
;
Structure prediction by ZEFSAII (Michael W. Deem and Ramdas Pophale) SiO2 
 PCOD9112200
Probable space group: P -1
;
_chemical_formula_sum "Si O2"
_cell_formula_units_Z 11
_cell_length_a 9.062576
_cell_length_b 12.943288
_cell_length_c 8.088547
_cell_angle_alpha 93.691020
_cell_angle_beta 80.206399
_cell_angle_gamma 31.050990
_cell_volume 439.123321
_symmetry_space_group_name_H-M "P -1"
_symmetry_group_IT_number 2
_symmetry_cell_setting 'triclinic'
loop_
_space_group_symop_operation_xyz
x,y,z
-x,-y,-z
loop_
_atom_site_type_symbol
_atom_site_label
_atom_site_fract_x
_atom_site_fract_y
_atom_site_fract_z
Si Si1 0.000000 0.000000 0.000000
Si Si2 0.761566 0.002469 0.746986
Si Si3 0.126706 0.705808 0.090289
Si Si4 0.023637 0.660654 0.455298
Si Si5 0.660895 0.682690 0.448124
Si Si6 0.129340 0.324878 0.062656
O O1 0.088439 0.007312 0.158853
O O2 0.960779 0.913968 0.100857
O O3 0.594875 0.159002 0.633905
O O4 0.979900 0.780226 0.604848
O O5 0.494017 0.104793 0.916358
O O6 0.050120 0.699606 0.277651
O O7 0.500000 0.500000 0.000000
O O8 0.040594 0.674081 0.966281
O O9 0.732411 0.756542 0.495941
O O10 0.340533 0.399140 0.410671
O O11 0.995341 0.437656 0.277445
O O12 0.000000 0.500000 0.000000
#
# Coordination Sequence:
#
# PCOD9112200 Si02
#       6
#     1   2   2   2   2   2
#     4  12  30  44  70 100 150 202 234 288 364 422
#     4  11  24  48  70 109 144 188 247 296 350 434
#     4  12  26  47  70 107 150 192 238 293 364 439
#     4  11  24  43  76 112 141 182 240 306 366 419
#     4  10  22  43  76 114 136 181 237 308 367 419
#     4  10  20  44  76 103 139 191 239 291 358 429
#
# _framework density 25.049910000000001
#
# number of rings (size 3 to 8) (size 9 to 14) (size 15 to 20)
#    0.000    1.091    3.636    3.818    0.000    5.091 
#    0.000    6.364    0.000    0.000    0.000    0.000 
#    0.000    0.000    0.000    0.000    0.000    0.000 
#
# Total GULP energy -61293.529280 kJ/mol
# GULP energy per Si atom -5572.139025 kJ/mol
# Density = 2.499290 g / cm^3
# Si number density = 25.049910 Si / 1000 Ang^3
#
#
#
# Elastic Constant Matrix: (Units=GPa)
#
#
# Indices 1 2 3 4 5 6 
#
# 1 178.7851 60.3188 45.7933 -9.7324 54.8917 18.0298
# 2 60.3188 163.1082 50.8520 -44.6761 9.5472 25.7792
# 3 45.7933 50.8520 51.8025 -14.8683 40.7819 -0.1434
# 4 -9.7324 -44.6761 -14.8683 52.0425 -3.1065 -6.1808
# 5 54.8917 9.5472 40.7819 -3.1065 53.1979 -7.0141
# 6 18.0298 25.7792 -0.1434 -6.1808 -7.0141 50.7131
#
#
#
# Elastic Compliance Matrix: (Units=1/GPa)
#
#
# Indices 1 2 3 4 5 6 
#
# 1 0.011173 -0.006516 0.011613 -0.001797 -0.019840 -0.003590
# 2 -0.006516 0.021140 -0.038230 0.007558 0.032262 -0.003154
# 3 0.011613 -0.038230 0.127075 -0.000277 -0.102361 0.001473
# 4 -0.001797 0.007558 -0.000277 0.025445 0.002223 0.000205
# 5 -0.019840 0.032262 -0.102361 0.002223 0.112904 0.006251
# 6 -0.003590 -0.003154 0.001473 0.000205 0.006251 0.023492
#
#
# Mechanical properties :
#
#
# Convention : Reuss Voigt Hill
#
# Bulk Modulus (GPa) = 10.73853 78.62489 44.68171
# Shear Modulus (GPa) = 11.94641 46.97282 29.45962
#
# Velocity S-wave (km/s) = 2.18618 4.33502 3.43306
# Velocity P-wave (km/s) = 3.26630 7.51744 5.79572
#
# Compressibility (1/GPa) = 0.09312258
#
# Stress axis : x y z
#
# Youngs Moduli (GPa) = 89.50317 47.30414 7.86934
#
# Poissons Ratio (x) = 0.30823 -0.09139
# Poissons Ratio (y) = 0.58320 0.30085
# Poissons Ratio (z) = -1.03943 1.80844
#
# Static dielectric constant tensor:
#      x y z
#    x 2.259400 0.128440 -0.485400 
#    y 0.128440 2.197060 -0.189060 
#    z -0.485400 -0.189060 2.584360 
# 
# From -- ./inp_files/171270.got.cif
#   From: 2010.05.17/outbox.cif.g08.bks.cpg/sg2_86_cif.got.tgz:171270.got - 2010.06.03 11:33:40.
