data_PCOD9112077
_publ_section_title
;
Structure prediction by ZEFSAII (Michael W. Deem and Ramdas Pophale) SiO2 
 PCOD9112077
Probable space group: P -1
;
_chemical_formula_sum "Si O2"
_cell_formula_units_Z 13
_cell_length_a 8.545197
_cell_length_b 11.935118
_cell_length_c 7.890940
_cell_angle_alpha 122.369468
_cell_angle_beta 127.353756
_cell_angle_gamma 60.358445
_cell_volume 522.765961
_symmetry_space_group_name_H-M "P -1"
_symmetry_group_IT_number 2
_symmetry_cell_setting 'triclinic'
loop_
_space_group_symop_operation_xyz
x,y,z
-x,-y,-z
loop_
_atom_site_type_symbol
_atom_site_label
_atom_site_fract_x
_atom_site_fract_y
_atom_site_fract_z
Si Si1 0.143539 0.258627 0.685216
Si Si2 0.475203 0.794041 0.660346
Si Si3 0.441298 0.960553 0.245112
Si Si4 0.101301 0.801184 0.199283
Si Si5 0.301930 0.522959 0.006848
Si Si6 0.500000 0.500000 0.500000
Si Si7 0.870038 0.108878 0.205471
O O1 0.360361 0.153152 0.774127
O O2 0.007039 0.251874 0.753885
O O3 0.026762 0.202267 0.410077
O O4 0.185263 0.405239 0.802818
O O5 0.322240 0.810963 0.415436
O O6 0.585698 0.636126 0.622951
O O7 0.321680 0.829606 0.747392
O O8 0.596017 0.907201 0.795624
O O9 0.500000 0.000000 0.500000
O O10 0.240177 0.904912 0.054681
O O11 0.149308 0.672588 0.000242
O O12 0.977837 0.956290 0.212965
O O13 0.385757 0.513099 0.247441
O O14 0.500000 0.500000 0.000000
#
# Coordination Sequence:
#
# PCOD9112077 Si02
#       7
#     2   2   2   2   2   1   2
#     4  11  23  45  73 108 146 198 244 313 370 446
#     4  10  20  44  69 105 141 194 250 297 365 449
#     4  12  26  40  73 111 151 193 249 314 373 443
#     4  10  21  44  72 107 147 192 246 310 371 449
#     4  11  26  46  78 110 154 197 259 312 377 461
#     4  10  24  42  72 108 146 196 248 298 380 436
#     4  11  22  44  74 103 145 194 251 300 377 447
#
# _framework density 24.867723999999999
#
# number of rings (size 3 to 8) (size 9 to 14) (size 15 to 20)
#    0.000    1.231    3.077    2.769    6.462    0.615 
#    0.000    3.077    3.385   14.769    0.000    0.000 
#    0.000    0.000    0.000    0.000    0.000    0.000 
#
# Total GULP energy -72502.059847 kJ/mol
# GULP energy per Si atom -5577.081527 kJ/mol
# Density = 2.481112 g / cm^3
# Si number density = 24.867724 Si / 1000 Ang^3
#
#
#
# Elastic Constant Matrix: (Units=GPa)
#
#
# Indices 1 2 3 4 5 6 
#
# 1 58.9206 13.9635 23.2591 15.0430 21.5866 4.0718
# 2 13.9635 61.0560 65.3680 20.1158 13.5431 15.5520
# 3 23.2591 65.3680 179.0776 12.6378 33.6895 11.5038
# 4 15.0430 20.1158 12.6378 50.0700 12.0229 1.3633
# 5 21.5866 13.5431 33.6895 12.0229 33.5382 7.5594
# 6 4.0718 15.5520 11.5038 1.3633 7.5594 26.8987
#
#
#
# Elastic Compliance Matrix: (Units=1/GPa)
#
#
# Indices 1 2 3 4 5 6 
#
# 1 0.022944 -0.002195 0.000502 -0.002890 -0.013706 0.001579
# 2 -0.002195 0.037452 -0.012810 -0.012493 0.007541 -0.017329
# 3 0.000502 -0.012810 0.011299 0.004196 -0.009096 0.004842
# 4 -0.002890 -0.012493 0.004196 0.026632 -0.008407 0.006879
# 5 -0.013706 0.007541 -0.009096 -0.008407 0.050484 -0.012157
# 6 0.001579 -0.017329 0.004842 0.006879 -0.012157 0.047954
#
#
# Mechanical properties :
#
#
# Convention : Reuss Voigt Hill
#
# Bulk Modulus (GPa) = 23.42460 56.02615 39.72538
# Shear Modulus (GPa) = 20.83334 35.19895 28.01614
#
# Velocity S-wave (km/s) = 2.89756 3.76632 3.36014
# Velocity P-wave (km/s) = 4.54253 6.44144 5.57345
#
# Compressibility (1/GPa) = 0.04269016
#
# Stress axis : x y z
#
# Youngs Moduli (GPa) = 43.58428 26.70080 88.50418
#
# Poissons Ratio (x) = 0.05860 -0.04443
# Poissons Ratio (y) = 0.09565 1.13372
# Poissons Ratio (z) = -0.02188 0.34203
#
# Static dielectric constant tensor:
#      x y z
#    x 1.988730 0.015970 -0.065600 
#    y 0.015970 1.981130 0.005300 
#    z -0.065600 0.005300 2.056680 
# 
# From -- ./inp_files/183446.got.cif
#   From: 2010.05.17/outbox.cif.g08.bks.cpg/sg2_92_cif.got.tgz:183446.got - 2010.06.03 11:33:40.
