data_PCOD9112132
_publ_section_title
;
Structure prediction by ZEFSAII (Michael W. Deem and Ramdas Pophale) SiO2 
 PCOD9112132
Probable space group: P -1
;
_chemical_formula_sum "Si O2"
_cell_formula_units_Z 16
_cell_length_a 7.383900
_cell_length_b 12.546035
_cell_length_c 9.060506
_cell_angle_alpha 95.784203
_cell_angle_beta 73.394820
_cell_angle_gamma 129.599671
_cell_volume 615.989499
_symmetry_space_group_name_H-M "P -1"
_symmetry_group_IT_number 2
_symmetry_cell_setting 'triclinic'
loop_
_space_group_symop_operation_xyz
x,y,z
-x,-y,-z
loop_
_atom_site_type_symbol
_atom_site_label
_atom_site_fract_x
_atom_site_fract_y
_atom_site_fract_z
Si Si1 0.976683 0.704823 0.324719
Si Si2 0.244710 0.826321 0.796846
Si Si3 0.448696 0.846920 0.449987
Si Si4 0.746787 0.323984 0.975473
Si Si5 0.725759 0.447524 0.534734
Si Si6 0.748308 0.956508 0.992135
Si Si7 0.267884 0.458929 0.135237
Si Si8 0.947652 0.939004 0.341067
O O1 0.221453 0.789590 0.384858
O O2 0.766867 0.554068 0.420663
O O3 0.884590 0.791039 0.342206
O O4 0.061404 0.686421 0.148003
O O5 0.401862 0.894232 0.619894
O O6 0.292365 0.731589 0.857844
O O7 0.952807 0.706450 0.814288
O O8 0.291879 0.939878 0.916292
O O9 0.415027 0.711003 0.492422
O O10 0.725871 0.935213 0.336228
O O11 0.482602 0.202371 0.945820
O O12 0.815319 0.467906 0.931550
O O13 0.656156 0.471490 0.711830
O O14 0.000000 0.500000 0.500000
O O15 0.812096 0.977227 0.806085
O O16 0.000000 0.000000 0.000000
O O17 0.500000 0.500000 0.000000
O O18 0.000000 0.000000 0.500000
#
# Coordination Sequence:
#
# PCOD9112132 Si02
#       8
#     2   2   2   2   2   2   2   2
#     4  11  23  46  75  98 143 186 233 294 354 419
#     4  12  25  45  72 107 141 187 238 295 365 421
#     4  11  24  46  75 100 144 187 233 294 362 415
#     4  12  24  46  72 100 148 192 230 299 357 425
#     4  10  20  44  71 100 137 182 236 285 352 433
#     4  12  28  47  70 104 148 187 244 294 358 428
#     4  12  25  42  75 108 141 182 241 293 358 428
#     4  12  29  46  70 109 139 187 250 287 345 434
#
# _framework density 25.974468999999999
#
# number of rings (size 3 to 8) (size 9 to 14) (size 15 to 20)
#    0.000    0.500    6.250    3.000    5.250    3.000 
#    0.000    0.000    0.000    0.000    0.000    0.000 
#    0.000    0.000    0.000    0.000    0.000    0.000 
#
# Total GULP energy -89648.464877 kJ/mol
# GULP energy per Si atom -5603.029055 kJ/mol
# Density = 2.591535 g / cm^3
# Si number density = 25.974469 Si / 1000 Ang^3
#
#
#
# Elastic Constant Matrix: (Units=GPa)
#
#
# Indices 1 2 3 4 5 6 
#
# 1 92.4610 11.9325 18.0006 3.5084 -23.6350 -4.3118
# 2 11.9325 79.1546 11.1564 6.3559 -20.5744 -6.5301
# 3 18.0006 11.1564 172.3362 7.8089 -22.4311 -8.5364
# 4 3.5084 6.3559 7.8089 43.7040 -4.3952 3.1783
# 5 -23.6350 -20.5744 -22.4311 -4.3952 48.8973 1.2802
# 6 -4.3118 -6.5301 -8.5364 3.1783 1.2802 39.2388
#
#
#
# Elastic Compliance Matrix: (Units=1/GPa)
#
#
# Indices 1 2 3 4 5 6 
#
# 1 0.012444 -0.000223 -0.000481 -0.000392 0.005637 0.001074
# 2 -0.000223 0.014497 0.000031 -0.001684 0.005794 0.002342
# 3 -0.000481 0.000031 0.006290 -0.000929 0.002548 0.001313
# 4 -0.000392 -0.001684 -0.000929 0.023589 0.000861 -0.002464
# 5 0.005637 0.005794 0.002548 0.000861 0.026829 0.001193
# 6 0.001074 0.002342 0.001313 -0.002464 0.001193 0.026439
#
#
# Mechanical properties :
#
#
# Convention : Reuss Voigt Hill
#
# Bulk Modulus (GPa) = 31.36201 47.34787 39.35494
# Shear Modulus (GPa) = 40.96331 46.55886 43.76109
#
# Velocity S-wave (km/s) = 3.97553 4.23837 4.10905
# Velocity P-wave (km/s) = 5.75964 6.49768 6.13976
#
# Compressibility (1/GPa) = 0.03188572
#
# Stress axis : x y z
#
# Youngs Moduli (GPa) = 80.36258 68.97929 158.99298
#
# Poissons Ratio (x) = 0.01537 0.07642
# Poissons Ratio (y) = 0.01791 -0.00496
# Poissons Ratio (z) = 0.03863 -0.00215
#
# Static dielectric constant tensor:
#      x y z
#    x 2.096830 0.023950 0.065650 
#    y 0.023950 2.092690 -0.031020 
#    z 0.065650 -0.031020 2.066830 
# 
# From -- ./inp_files/189058.got.cif
#   From: 2010.05.17/outbox.cif.g08.bks.cpg/sg2_95_cif.got.tgz:189058.got - 2010.06.03 11:33:40.
