data_PCOD9112230
_publ_section_title
;
Structure prediction by ZEFSAII (Michael W. Deem and Ramdas Pophale) SiO2 
 PCOD9112230
Probable space group: P -1
;
_chemical_formula_sum "Si O2"
_cell_formula_units_Z 12
_cell_length_a 8.597184
_cell_length_b 9.250862
_cell_length_c 11.772742
_cell_angle_alpha 41.010120
_cell_angle_beta 89.866636
_cell_angle_gamma 72.735107
_cell_volume 548.789190
_symmetry_space_group_name_H-M "P -1"
_symmetry_group_IT_number 2
_symmetry_cell_setting 'triclinic'
loop_
_space_group_symop_operation_xyz
x,y,z
-x,-y,-z
loop_
_atom_site_type_symbol
_atom_site_label
_atom_site_fract_x
_atom_site_fract_y
_atom_site_fract_z
Si Si1 0.458762 0.963746 0.686204
Si Si2 0.997645 0.760010 0.321489
Si Si3 0.187003 0.483614 0.037583
Si Si4 0.850033 0.085838 0.356701
Si Si5 0.382830 0.524846 0.378360
Si Si6 0.692875 0.197550 0.000416
O O1 0.663329 0.790025 0.780181
O O2 0.327954 0.936878 0.610513
O O3 0.407908 0.250046 0.519009
O O4 0.409252 0.859425 0.863757
O O5 0.184785 0.701916 0.308578
O O6 0.000000 0.500000 0.500000
O O7 0.943542 0.916761 0.345795
O O8 0.847854 0.927715 0.134328
O O9 0.213420 0.638078 0.050710
O O10 0.000000 0.500000 0.000000
O O11 0.215180 0.629565 0.844775
O O12 0.000000 0.000000 0.500000
O O13 0.500000 0.500000 0.500000
O O14 0.420678 0.652798 0.193733
#
# Coordination Sequence:
#
# PCOD9112230 Si02
#       6
#     2   2   2   2   2   2
#     4  10  23  46  63  94 141 167 223 280 328 399
#     4  10  20  45  65  92 138 172 218 269 332 397
#     4  10  23  41  66  97 129 174 222 272 337 395
#     4  10  22  41  70  97 130 177 218 274 337 391
#     4  12  26  40  66  99 129 177 225 271 333 399
#     4  10  23  44  66  90 136 175 215 279 331 388
#
# _framework density 21.866319000000001
#
# number of rings (size 3 to 8) (size 9 to 14) (size 15 to 20)
#    0.000    2.000    3.333    2.500    7.000    4.000 
#    3.000    0.000    0.000    0.000    0.000    0.000 
#    0.000    0.000    0.000    0.000    0.000    0.000 
#
# Total GULP energy -66967.232077 kJ/mol
# GULP energy per Si atom -5580.602673 kJ/mol
# Density = 2.181655 g / cm^3
# Si number density = 21.866319 Si / 1000 Ang^3
#
#
#
# Elastic Constant Matrix: (Units=GPa)
#
#
# Indices 1 2 3 4 5 6 
#
# 1 75.3772 11.0916 47.2785 -3.3899 20.8814 -0.8081
# 2 11.0916 41.2493 48.2845 -2.1930 8.5952 -4.5565
# 3 47.2785 48.2845 173.3054 10.0735 20.2175 9.7830
# 4 -3.3899 -2.1930 10.0735 39.5944 -2.2486 12.8477
# 5 20.8814 8.5952 20.2175 -2.2486 40.8570 -0.9398
# 6 -0.8081 -4.5565 9.7830 12.8477 -0.9398 30.9227
#
#
#
# Elastic Compliance Matrix: (Units=1/GPa)
#
#
# Indices 1 2 3 4 5 6 
#
# 1 0.018163 0.002883 -0.005122 0.002152 -0.007204 0.001407
# 2 0.002883 0.039237 -0.011936 0.002505 -0.003488 0.008486
# 3 -0.005122 -0.011936 0.010944 -0.002509 -0.000524 -0.004328
# 4 0.002152 0.002505 -0.002509 0.029900 0.001003 -0.011173
# 5 -0.007204 -0.003488 -0.000524 0.001003 0.029204 -0.000066
# 6 0.001407 0.008486 -0.004328 -0.011173 -0.000066 0.039635
#
#
# Mechanical properties :
#
#
# Convention : Reuss Voigt Hill
#
# Bulk Modulus (GPa) = 25.00418 55.91567 40.45992
# Shear Modulus (GPa) = 23.95037 34.49332 29.22184
#
# Velocity S-wave (km/s) = 3.31314 3.97604 3.65963
# Velocity P-wave (km/s) = 5.10839 6.83415 6.03329
#
# Compressibility (1/GPa) = 0.03999332
#
# Stress axis : x y z
#
# Youngs Moduli (GPa) = 55.05805 25.48633 91.37121
#
# Poissons Ratio (x) = -0.07347 0.46802
# Poissons Ratio (y) = -0.15873 1.09060
# Poissons Ratio (z) = 0.28202 0.30420
#
# Static dielectric constant tensor:
#      x y z
#    x 0.938220 0.084920 -0.693160 
#    y 0.084920 1.842000 0.108380 
#    z -0.693160 0.108380 1.333600 
# 
# From -- ./inp_files/147602.got.cif
#   From: 2010.05.17/outbox.cif.g08.bks.cpg/sg2_74_cif.got.tgz:147602.got - 2010.06.03 11:33:40.
