data_PCOD9112556
_publ_section_title
;
Structure prediction by ZEFSAII (Michael W. Deem and Ramdas Pophale) SiO2 
 PCOD9112556
Probable space group: P 2
;
_chemical_formula_sum "Si O2"
_cell_formula_units_Z 14
_cell_length_a 7.951940
_cell_length_b 9.395291
_cell_length_c 8.778446
_cell_angle_alpha 90.000000
_cell_angle_beta 82.234124
_cell_angle_gamma 90.000000
_cell_volume 649.829555
_symmetry_space_group_name_H-M "P 2"
_symmetry_group_IT_number 3
_symmetry_cell_setting 'monoclinic'
loop_
_space_group_symop_operation_xyz
x,y,z
-x,y,-z
loop_
_atom_site_type_symbol
_atom_site_label
_atom_site_fract_x
_atom_site_fract_y
_atom_site_fract_z
Si Si1 0.005880 0.707920 0.817647
Si Si2 0.000000 0.182201 0.500000
Si Si3 0.229461 0.312953 0.704569
Si Si4 0.833291 0.004952 0.783392
Si Si5 0.291523 0.515880 0.167872
Si Si6 0.554376 0.203819 0.817592
Si Si7 0.648688 0.599441 0.197318
Si Si8 0.000000 0.197354 0.000000
O O1 0.895940 0.573755 0.768740
O O2 0.210148 0.715186 0.769946
O O3 0.896843 0.845409 0.786265
O O4 0.000000 0.697372 0.000000
O O5 0.148867 0.274678 0.554142
O O6 0.056144 0.082231 0.356811
O O7 0.391971 0.220419 0.730892
O O8 0.299212 0.470767 0.700860
O O9 0.093250 0.288732 0.858772
O O10 0.644452 0.054852 0.769529
O O11 0.869820 0.090270 0.935068
O O12 0.330411 0.350134 0.203060
O O13 0.444756 0.610527 0.222335
O O14 0.313635 0.543100 0.981734
O O15 0.500000 0.202734 0.000000
#
# Coordination Sequence:
#
# PCOD9112556 Si02
#       8
#     2   1   2   2   2   2   2   1
#     4  10  21  34  57  90 126 167 197 257 314 374
#     4  10  26  40  60  86 124 172 208 252 298 382
#     4  10  20  37  61  94 117 160 206 262 316 357
#     4  11  22  40  56  90 126 162 211 251 308 370
#     4   9  17  34  56  97 123 147 198 260 324 366
#     4  11  19  36  65  96 122 154 204 273 317 362
#     4   9  17  32  58  87 124 153 196 255 316 369
#     4  10  18  32  58  86 118 148 208 256 298 356
#
# _framework density 21.54411
#
# number of rings (size 3 to 8) (size 9 to 14) (size 15 to 20)
#    0.000    2.000    5.000    0.000    7.000    0.571 
#   10.286    0.714    0.000    0.000    0.000    0.000 
#    0.000    0.000    0.000    0.000    0.000    0.000 
#
# Total GULP energy -78017.005626 kJ/mol
# GULP energy per Si atom -5572.643259 kJ/mol
# Density = 2.149507 g / cm^3
# Si number density = 21.544110 Si / 1000 Ang^3
#
#
#
# Elastic Constant Matrix: (Units=GPa)
#
#
# Indices 1 2 3 4 5 6 
#
# 1 123.1654 55.8387 21.5627 0.0000 35.4862 0.0000
# 2 55.8387 74.8957 14.5254 0.0000 17.3885 0.0000
# 3 21.5627 14.5254 22.4678 0.0000 15.3754 0.0000
# 4 0.0000 0.0000 0.0000 19.7396 0.0000 16.6291
# 5 35.4862 17.3885 15.3754 0.0000 29.7222 0.0000
# 6 0.0000 0.0000 0.0000 16.6291 0.0000 49.6475
#
#
#
# Elastic Compliance Matrix: (Units=1/GPa)
#
#
# Indices 1 2 3 4 5 6 
#
# 1 0.016186 -0.008752 -0.000240 0.000000 -0.014080 0.000000
# 2 -0.008752 0.020703 -0.005955 0.000000 0.001418 0.000000
# 3 -0.000240 -0.005955 0.071221 0.000000 -0.033072 0.000000
# 4 0.000000 0.000000 0.000000 0.070573 0.000000 -0.023638
# 5 -0.014080 0.001418 -0.033072 0.000000 0.066734 0.000000
# 6 0.000000 0.000000 0.000000 -0.023638 0.000000 0.028059
#
#
# Mechanical properties :
#
#
# Convention : Reuss Voigt Hill
#
# Bulk Modulus (GPa) = 12.78531 44.93139 28.85835
# Shear Modulus (GPa) = 15.17719 28.39534 21.78626
#
# Velocity S-wave (km/s) = 2.65707 3.63438 3.18345
# Velocity P-wave (km/s) = 3.91927 6.20584 5.19004
#
# Compressibility (1/GPa) = 0.07821477
#
# Stress axis : x y z
#
# Youngs Moduli (GPa) = 61.78303 48.30324 14.04082
#
# Poissons Ratio (x) = 0.42273 0.00337
# Poissons Ratio (y) = 0.54071 0.08362
# Poissons Ratio (z) = 0.01484 0.28766
#
# Static dielectric constant tensor:
#      x y z
#    x 1.937030 0.000000 -0.000790 
#    y 0.000000 1.799300 0.000000 
#    z -0.000790 0.000000 1.779580 
# 
# From -- ./inp_files/5388.got.cif
#   From: 2010.05.17/outbox.cif.g08.bks.cpg/sg3_3_cif.got.tgz:5388.got - 2010.06.03 18:33:08.
