data_PCOD9112102
_publ_section_title
;
Structure prediction by ZEFSAII (Michael W. Deem and Ramdas Pophale) SiO2 
 PCOD9112102
Probable space group: P -1
;
_chemical_formula_sum "Si O2"
_cell_formula_units_Z 10
_cell_length_a 12.396605
_cell_length_b 12.419722
_cell_length_c 6.054137
_cell_angle_alpha 107.090730
_cell_angle_beta 125.166329
_cell_angle_gamma 34.407036
_cell_volume 396.024000
_symmetry_space_group_name_H-M "P -1"
_symmetry_group_IT_number 2
_symmetry_cell_setting 'triclinic'
loop_
_space_group_symop_operation_xyz
x,y,z
-x,-y,-z
loop_
_atom_site_type_symbol
_atom_site_label
_atom_site_fract_x
_atom_site_fract_y
_atom_site_fract_z
Si Si1 0.839084 0.667511 0.219523
Si Si2 0.707752 0.343322 0.338390
Si Si3 0.300079 0.068986 0.434650
Si Si4 0.156130 0.949729 0.345068
Si Si5 0.174943 0.532556 0.161415
O O1 0.705916 0.866350 0.296650
O O2 0.000000 0.500000 0.500000
O O3 0.024551 0.581031 0.207460
O O4 0.706526 0.654037 0.952156
O O5 0.718308 0.225855 0.439175
O O6 0.692849 0.459472 0.556974
O O7 0.500000 0.500000 0.000000
O O8 0.962027 0.157509 0.392227
O O9 0.500000 0.000000 0.500000
O O10 0.325384 0.916996 0.394824
O O11 0.038206 0.267190 0.127533
O O12 0.000000 0.000000 0.000000
#
# Coordination Sequence:
#
# PCOD9112102 Si02
#       5
#     2   2   2   2   2
#     4   9  20  41  67 100 141 186 238 309 368 430
#     4  11  25  48  78 109 145 202 254 310 383 444
#     4  11  23  44  72 107 149 197 244 307 385 446
#     4  11  24  50  74 107 155 194 252 320 364 456
#     4  10  20  44  70 103 145 186 252 316 363 444
#
# _framework density 25.250996000000001
#
# number of rings (size 3 to 8) (size 9 to 14) (size 15 to 20)
#    0.000    1.600    4.000    0.000    0.000    1.600 
#   14.400    0.000    0.000    0.000    0.000    0.000 
#    0.000    0.000    0.000    0.000    0.000    0.000 
#
# Total GULP energy -55924.493516 kJ/mol
# GULP energy per Si atom -5592.449352 kJ/mol
# Density = 2.519352 g / cm^3
# Si number density = 25.250996 Si / 1000 Ang^3
#
#
#
# Elastic Constant Matrix: (Units=GPa)
#
#
# Indices 1 2 3 4 5 6 
#
# 1 146.9520 37.8123 50.5777 10.9925 2.9030 37.6830
# 2 37.8123 113.5313 65.4702 30.9018 9.3811 22.2933
# 3 50.5777 65.4702 235.1005 3.2049 6.3817 35.0345
# 4 10.9925 30.9018 3.2049 58.6545 11.0464 -10.6944
# 5 2.9030 9.3811 6.3817 11.0464 45.2458 5.3996
# 6 37.6830 22.2933 35.0345 -10.6944 5.3996 51.1012
#
#
#
# Elastic Compliance Matrix: (Units=1/GPa)
#
#
# Indices 1 2 3 4 5 6 
#
# 1 0.009115 -0.000626 -0.000797 -0.002748 0.001115 -0.006595
# 2 -0.000626 0.013874 -0.002826 -0.008045 0.000165 -0.005355
# 3 -0.000797 -0.002826 0.005452 0.001072 -0.000194 -0.001673
# 4 -0.002748 -0.008045 0.001072 0.024726 -0.005605 0.010568
# 5 0.001115 0.000165 -0.000194 -0.005605 0.023924 -0.004462
# 6 -0.006595 -0.005355 -0.001673 0.010568 -0.004462 0.030598
#
#
# Mechanical properties :
#
#
# Convention : Reuss Voigt Hill
#
# Bulk Modulus (GPa) = 50.13983 89.25601 69.69792
# Shear Modulus (GPa) = 40.70573 53.78190 47.24382
#
# Velocity S-wave (km/s) = 4.01938 4.62008 4.33016
# Velocity P-wave (km/s) = 6.43741 7.99278 7.25688
#
# Compressibility (1/GPa) = 0.01994422
#
# Stress axis : x y z
#
# Youngs Moduli (GPa) = 109.71153 72.07908 183.42889
#
# Poissons Ratio (x) = 0.04509 0.14614
# Poissons Ratio (y) = 0.06863 0.51832
# Poissons Ratio (z) = 0.08741 0.20368
#
# Static dielectric constant tensor:
#      x y z
#    x 1.999930 -0.001190 0.050220 
#    y -0.001190 2.126710 -0.089610 
#    z 0.050220 -0.089610 1.979560 
# 
# From -- ./inp_files/17832.got.cif
#   From: 2010.05.17/outbox.cif.g08.bks.cpg/sg2_9_cif.got.tgz:17832.got - 2010.06.03 11:33:40.
