data_PCOD9112174
_publ_section_title
;
Structure prediction by ZEFSAII (Michael W. Deem and Ramdas Pophale) SiO2 
 PCOD9112174
Probable space group: P -1
;
_chemical_formula_sum "Si O2"
_cell_formula_units_Z 14
_cell_length_a 23.999096
_cell_length_b 13.823563
_cell_length_c 9.112810
_cell_angle_alpha 29.143828
_cell_angle_beta 147.559750
_cell_angle_gamma 157.947800
_cell_volume 542.882141
_symmetry_space_group_name_H-M "P -1"
_symmetry_group_IT_number 2
_symmetry_cell_setting 'triclinic'
loop_
_space_group_symop_operation_xyz
x,y,z
-x,-y,-z
loop_
_atom_site_type_symbol
_atom_site_label
_atom_site_fract_x
_atom_site_fract_y
_atom_site_fract_z
Si Si1 0.089980 0.576452 0.745376
Si Si2 0.906504 0.639414 0.401165
Si Si3 0.355631 0.941100 0.269118
Si Si4 0.299552 0.381234 0.216548
Si Si5 0.151398 0.401378 0.352016
Si Si6 0.407951 0.122357 0.661863
Si Si7 0.362521 0.408489 0.647795
O O1 0.000000 0.500000 0.500000
O O2 0.049074 0.714514 0.565613
O O3 0.263246 0.785336 0.804353
O O4 0.049229 0.333816 0.080051
O O5 0.764486 0.289506 0.567988
O O6 0.926099 0.745155 0.470381
O O7 0.840235 0.705900 0.053048
O O8 0.255861 0.741004 0.169419
O O9 0.500000 0.000000 0.500000
O O10 0.397204 0.227797 0.994300
O O11 0.349001 0.260234 0.391769
O O12 0.454264 0.727658 0.117820
O O13 0.277953 0.295080 0.452296
O O14 0.259859 0.374474 0.582392
O O15 0.486993 0.257776 0.500599
#
# Coordination Sequence:
#
# PCOD9112174 Si02
#       7
#     2   2   2   2   2   2   2
#     4  12  25  45  66 100 145 192 232 276 349 429
#     4  10  24  43  68 103 144 179 226 290 356 409
#     4  10  23  41  72 106 142 175 227 295 357 401
#     4   9  19  42  72 108 126 180 239 286 350 396
#     4  10  25  41  68 102 138 182 227 289 350 408
#     4   9  22  39  75  98 141 168 245 283 345 397
#     4  10  20  44  73 102 136 177 235 289 345 408
#
# _framework density 25.788287
#
# number of rings (size 3 to 8) (size 9 to 14) (size 15 to 20)
#    1.714    0.286    0.000    3.000    2.000    2.857 
#    2.571    2.143    0.000    0.000    0.000    0.000 
#    0.000    0.000    0.000    0.000    0.000    0.000 
#
# Total GULP energy -78270.442378 kJ/mol
# GULP energy per Si atom -5590.745884 kJ/mol
# Density = 2.572959 g / cm^3
# Si number density = 25.788287 Si / 1000 Ang^3
#
#
#
# Elastic Constant Matrix: (Units=GPa)
#
#
# Indices 1 2 3 4 5 6 
#
# 1 148.2478 18.4251 45.4331 4.9394 23.3773 4.9057
# 2 18.4251 74.5804 19.5232 12.1963 4.0309 11.4061
# 3 45.4331 19.5232 154.9360 15.3743 17.2014 -3.6980
# 4 4.9394 12.1963 15.3743 28.4204 -9.5121 10.9968
# 5 23.3773 4.0309 17.2014 -9.5121 47.8310 2.1813
# 6 4.9057 11.4061 -3.6980 10.9968 2.1813 32.7843
#
#
#
# Elastic Compliance Matrix: (Units=1/GPa)
#
#
# Indices 1 2 3 4 5 6 
#
# 1 0.007994 -0.001115 -0.001757 -0.000889 -0.003336 -0.000486
# 2 -0.001115 0.015369 -0.001093 -0.004793 -0.001145 -0.003620
# 3 -0.001757 -0.001093 0.008212 -0.006338 -0.003442 0.003925
# 4 -0.000889 -0.004793 -0.006338 0.052367 0.014327 -0.017433
# 5 -0.003336 -0.001145 -0.003442 0.014327 0.026999 -0.006093
# 6 -0.000486 -0.003620 0.003925 -0.017433 -0.006093 0.038530
#
#
# Mechanical properties :
#
#
# Convention : Reuss Voigt Hill
#
# Bulk Modulus (GPa) = 42.29174 60.50300 51.39737
# Shear Modulus (GPa) = 30.25106 41.43264 35.84185
#
# Velocity S-wave (km/s) = 3.42870 4.01265 3.73211
# Velocity P-wave (km/s) = 5.66656 6.70677 6.20849
#
# Compressibility (1/GPa) = 0.02364528
#
# Stress axis : x y z
#
# Youngs Moduli (GPa) = 125.09081 65.06467 121.77343
#
# Poissons Ratio (x) = 0.07255 0.21392
# Poissons Ratio (y) = 0.13948 0.13314
# Poissons Ratio (z) = 0.21975 0.07114
#
# Static dielectric constant tensor:
#      x y z
#    x 1.975070 -0.024590 -0.054370 
#    y -0.024590 2.123540 -0.010910 
#    z -0.054370 -0.010910 1.997670 
# 
# From -- ./inp_files/345974.got.cif
#   From: 2010.05.17/outbox.cif.g08.bks.cpg/sg2_173_cif.got.tgz:345974.got - 2010.06.03 11:33:40.
