data_PCOD9112899
_publ_section_title
;
Structure prediction by ZEFSAII (Michael W. Deem and Ramdas Pophale) SiO2 
 PCOD9112899
Probable space group: P 2
;
_chemical_formula_sum "Si O2"
_cell_formula_units_Z 16
_cell_length_a 8.868679
_cell_length_b 9.510356
_cell_length_c 20.661866
_cell_angle_alpha 90.000000
_cell_angle_beta 29.381361
_cell_angle_gamma 90.000000
_cell_volume 855.009174
_symmetry_space_group_name_H-M "P 2"
_symmetry_group_IT_number 3
_symmetry_cell_setting 'monoclinic'
loop_
_space_group_symop_operation_xyz
x,y,z
-x,y,-z
loop_
_atom_site_type_symbol
_atom_site_label
_atom_site_fract_x
_atom_site_fract_y
_atom_site_fract_z
Si Si1 0.084020 0.243580 0.895835
Si Si2 0.650880 0.345784 0.622317
Si Si3 0.054511 0.551998 0.296457
Si Si4 0.315788 0.508188 0.002260
Si Si5 0.760973 0.656668 0.541910
Si Si6 0.262245 0.267400 0.639397
Si Si7 0.137387 0.056378 0.134567
Si Si8 0.918849 0.738872 0.223144
O O1 0.440241 0.284318 0.757083
O O2 0.000672 0.114946 0.880674
O O3 0.000000 0.213985 0.000000
O O4 0.895264 0.378401 0.939549
O O5 0.665772 0.514078 0.615340
O O6 0.467256 0.308011 0.625317
O O7 0.000000 0.295450 0.500000
O O8 0.423335 0.535295 0.149755
O O9 0.921294 0.604418 0.415018
O O10 0.891452 0.405788 0.335361
O O11 0.968194 0.663735 0.273557
O O12 0.500000 0.472749 0.000000
O O13 0.103064 0.641169 0.102195
O O14 0.446630 0.739555 0.650176
O O15 0.000000 0.732250 0.500000
O O16 0.500000 0.203617 0.500000
O O17 0.010568 0.156388 0.755760
O O18 0.500000 0.073984 0.000000
O O19 0.052523 0.894272 0.174200
#
# Coordination Sequence:
#
# PCOD9112899 Si02
#       8
#     2   2   2   2   2   2   2   2
#     4  11  23  39  60  90 122 158 199 248 299 356
#     4  10  20  35  56  86 120 156 189 241 300 350
#     4  11  20  36  64  91 118 150 201 255 304 351
#     4  10  20  36  61  90 116 149 202 257 299 349
#     4  11  22  37  60  90 123 154 193 249 304 350
#     4  11  20  37  59  91 119 152 197 256 297 352
#     4  11  24  42  62  86 122 162 200 245 300 355
#     4  11  21  42  60  86 120 159 201 249 297 351
#
# _framework density 18.713249000000001
#
# number of rings (size 3 to 8) (size 9 to 14) (size 15 to 20)
#    0.000    1.250    3.750    4.875    3.500    2.000 
#    0.000    5.625    0.000    0.000    0.000    0.000 
#    0.000    0.000    0.000    0.000    0.000    0.000 
#
# Total GULP energy -89343.955492 kJ/mol
# GULP energy per Si atom -5583.997218 kJ/mol
# Density = 1.867066 g / cm^3
# Si number density = 18.713249 Si / 1000 Ang^3
#
#
#
# Elastic Constant Matrix: (Units=GPa)
#
#
# Indices 1 2 3 4 5 6 
#
# 1 39.4238 19.8579 43.4775 0.0000 -1.4465 0.0000
# 2 19.8579 83.4966 36.0696 0.0000 -0.7284 0.0000
# 3 43.4775 36.0696 159.8609 0.0000 -6.3511 0.0000
# 4 0.0000 0.0000 0.0000 24.3116 0.0000 -6.8631
# 5 -1.4465 -0.7284 -6.3511 0.0000 39.9442 0.0000
# 6 0.0000 0.0000 0.0000 -6.8631 0.0000 -11.4579
#
#
#
# Elastic Compliance Matrix: (Units=1/GPa)
#
#
# Indices 1 2 3 4 5 6 
#
# 1 0.038083 -0.005076 -0.009219 0.000000 -0.000179 0.000000
# 2 -0.005076 0.013949 -0.001775 0.000000 -0.000212 0.000000
# 3 -0.009219 -0.001775 0.009207 0.000000 0.001098 0.000000
# 4 0.000000 0.000000 0.000000 0.035183 0.000000 -0.021074
# 5 -0.000179 -0.000212 0.001098 0.000000 0.025199 0.000000
# 6 0.000000 0.000000 0.000000 -0.021074 0.000000 -0.074653
#
#
# Mechanical properties :
#
#
# Convention : Reuss Voigt Hill
#
# Bulk Modulus (GPa) = 34.36712 53.51014 43.93863
# Shear Modulus (GPa) = 56.30083 22.78467 39.54275
#
# Velocity S-wave (km/s) = 5.49103 3.49315 4.60182
# Velocity P-wave (km/s) = 7.65551 6.70271 7.19490
#
# Compressibility (1/GPa) = 0.02909758
#
# Stress axis : x y z
#
# Youngs Moduli (GPa) = 26.25851 71.69088 108.61384
#
# Poissons Ratio (x) = 0.36392 1.00134
# Poissons Ratio (y) = 0.13329 0.19280
# Poissons Ratio (z) = 0.24208 0.12726
#
# Static dielectric constant tensor:
#      x y z
#    x 1.684670 0.000000 -0.010130 
#    y 0.000000 1.612300 0.000000 
#    z -0.010130 0.000000 1.690830 
# 
# From -- ./inp_files/9448.got.cif
#   From: 2010.05.17/outbox.cif.g08.bks.cpg/sg3_5_cif.got.tgz:9448.got - 2010.06.03 18:33:08.
