data_PCOD9112359
_publ_section_title
;
Structure prediction by ZEFSAII (Michael W. Deem and Ramdas Pophale) SiO2 
 PCOD9112359
Probable space group: P -1
;
_chemical_formula_sum "Si O2"
_cell_formula_units_Z 13
_cell_length_a 8.423309
_cell_length_b 7.694718
_cell_length_c 14.922121
_cell_angle_alpha 67.755365
_cell_angle_beta 37.431413
_cell_angle_gamma 86.609518
_cell_volume 491.440350
_symmetry_space_group_name_H-M "P -1"
_symmetry_group_IT_number 2
_symmetry_cell_setting 'triclinic'
loop_
_space_group_symop_operation_xyz
x,y,z
-x,-y,-z
loop_
_atom_site_type_symbol
_atom_site_label
_atom_site_fract_x
_atom_site_fract_y
_atom_site_fract_z
Si Si1 0.834544 0.861143 0.016615
Si Si2 0.675232 0.535576 0.619422
Si Si3 0.500000 0.500000 0.500000
Si Si4 0.677431 0.246994 0.170807
Si Si5 0.880887 0.477784 0.844869
Si Si6 0.295786 0.159635 0.110490
Si Si7 0.814005 0.103063 0.612661
O O1 0.518024 0.700080 0.218227
O O2 0.816220 0.957744 0.910851
O O3 0.020444 0.734611 0.933162
O O4 0.000000 0.000000 0.000000
O O5 0.665716 0.541692 0.515597
O O6 0.488868 0.659445 0.711766
O O7 0.971686 0.657782 0.518108
O O8 0.802419 0.508852 0.314800
O O9 0.475480 0.999788 0.296379
O O10 0.744755 0.354594 0.022540
O O11 0.873785 0.702737 0.809420
O O12 0.626928 0.333833 0.918486
O O13 0.255739 0.996860 0.237949
O O14 0.000000 0.000000 0.500000
#
# Coordination Sequence:
#
# PCOD9112359 Si02
#       7
#     2   2   1   2   2   2   2
#     4  12  25  41  68 102 136 179 237 280 338 417
#     4  11  23  43  67  94 142 179 228 277 354 400
#     4  12  24  38  64 106 138 182 220 288 350 398
#     4  10  20  47  73  91 132 197 225 271 354 432
#     4  10  21  42  73  99 134 182 235 283 341 415
#     4  10  22  43  73 100 132 185 239 275 342 422
#     4   9  22  42  70  98 129 174 236 284 337 403
#
# _framework density 26.452857000000002
#
# number of rings (size 3 to 8) (size 9 to 14) (size 15 to 20)
#    0.000    1.538    3.077    1.385    4.308    1.231 
#    5.538    8.462    0.000    0.000    0.000    0.000 
#    0.000    0.000    0.000    0.000    0.000    0.000 
#
# Total GULP energy -72549.519712 kJ/mol
# GULP energy per Si atom -5580.732286 kJ/mol
# Density = 2.639265 g / cm^3
# Si number density = 26.452857 Si / 1000 Ang^3
#
#
#
# Elastic Constant Matrix: (Units=GPa)
#
#
# Indices 1 2 3 4 5 6 
#
# 1 95.2882 19.5374 26.4216 3.1710 -0.6742 38.0416
# 2 19.5374 120.9477 27.3460 -12.0334 11.7911 21.2083
# 3 26.4216 27.3460 99.4472 2.5193 -16.8368 17.6444
# 4 3.1710 -12.0334 2.5193 43.2632 9.5947 -6.9597
# 5 -0.6742 11.7911 -16.8368 9.5947 52.5211 11.3820
# 6 38.0416 21.2083 17.6444 -6.9597 11.3820 52.6687
#
#
#
# Elastic Compliance Matrix: (Units=1/GPa)
#
#
# Indices 1 2 3 4 5 6 
#
# 1 0.015976 -0.000938 -0.001175 -0.004051 0.003387 -0.012035
# 2 -0.000938 0.010015 -0.003032 0.003675 -0.003674 -0.001060
# 3 -0.001175 -0.003032 0.013131 -0.003628 0.006448 -0.004202
# 4 -0.004051 0.003675 -0.003628 0.027962 -0.008944 0.008289
# 5 0.003387 -0.003674 0.006448 -0.008944 0.025749 -0.009874
# 6 -0.012035 -0.001060 -0.004202 0.008289 -0.009874 0.032743
#
#
# Mechanical properties :
#
#
# Convention : Reuss Voigt Hill
#
# Bulk Modulus (GPa) = 34.68398 51.36590 43.02494
# Shear Modulus (GPa) = 34.37002 45.84915 40.10958
#
# Velocity S-wave (km/s) = 3.60848 4.16774 3.89815
# Velocity P-wave (km/s) = 5.52283 6.52841 6.04656
#
# Compressibility (1/GPa) = 0.02883176
#
# Stress axis : x y z
#
# Youngs Moduli (GPa) = 62.59323 99.85359 76.15755
#
# Poissons Ratio (x) = 0.09364 0.08951
# Poissons Ratio (y) = 0.05870 0.23089
# Poissons Ratio (z) = 0.07357 0.30272
#
# Static dielectric constant tensor:
#      x y z
#    x 2.052200 -0.001350 -0.031170 
#    y -0.001350 2.208180 0.012320 
#    z -0.031170 0.012320 2.070470 
# 
# From -- ./inp_files/153164.got.cif
#   From: 2010.05.17/outbox.cif.g08.bks.cpg/sg2_77_cif.got.tgz:153164.got - 2010.06.03 11:33:40.
