data_PCOD9112047
_publ_section_title
;
Structure prediction by ZEFSAII (Michael W. Deem and Ramdas Pophale) SiO2 
 PCOD9112047
Probable space group: P -1
;
_chemical_formula_sum "Si O2"
_cell_formula_units_Z 16
_cell_length_a 20.751910
_cell_length_b 4.978392
_cell_length_c 7.085383
_cell_angle_alpha 106.160090
_cell_angle_beta 115.609874
_cell_angle_gamma 64.891303
_cell_volume 593.659764
_symmetry_space_group_name_H-M "P -1"
_symmetry_group_IT_number 2
_symmetry_cell_setting 'triclinic'
loop_
_space_group_symop_operation_xyz
x,y,z
-x,-y,-z
loop_
_atom_site_type_symbol
_atom_site_label
_atom_site_fract_x
_atom_site_fract_y
_atom_site_fract_z
Si Si1 0.058948 0.541362 0.838403
Si Si2 0.303447 0.161464 0.229316
Si Si3 0.582184 0.185882 0.226254
Si Si4 0.041089 0.837365 0.265867
Si Si5 0.561885 0.300976 0.786757
Si Si6 0.258768 0.821398 0.423681
Si Si7 0.674989 0.622350 0.097666
Si Si8 0.831545 0.572799 0.381990
O O1 0.029887 0.276456 0.809717
O O2 0.868582 0.564013 0.223115
O O3 0.071548 0.712292 0.073305
O O4 0.989973 0.804894 0.698988
O O5 0.261501 0.491737 0.320311
O O6 0.396561 0.994918 0.342974
O O7 0.263865 0.967650 0.254814
O O8 0.303131 0.191790 0.008017
O O9 0.515448 0.428145 0.303263
O O10 0.661257 0.234380 0.376753
O O11 0.614519 0.827218 0.212539
O O12 0.553969 0.213756 0.977443
O O13 0.105063 0.666233 0.460226
O O14 0.629273 0.437703 0.908066
O O15 0.194838 0.092056 0.501091
O O16 0.756885 0.476507 0.265632
#
# Coordination Sequence:
#
# PCOD9112047 Si02
#       8
#     2   2   2   2   2   2   2   2
#     4  10  23  47  73 108 144 179 230 280 346 414
#     4  11  24  46  62  94 142 178 234 297 345 412
#     4   9  22  39  67  99 130 183 240 299 353 417
#     4  10  23  47  74 109 142 180 230 283 338 421
#     4  10  20  44  68  92 136 189 235 296 357 412
#     4  11  26  43  64 101 138 177 240 291 343 420
#     4  10  22  44  66 101 139 184 236 286 355 422
#     4  11  25  44  74 105 144 190 228 288 349 415
#
# _framework density 26.951464999999999
#
# number of rings (size 3 to 8) (size 9 to 14) (size 15 to 20)
#    0.000    1.750    1.250    1.125    5.250    3.000 
#   13.500    0.000    0.000    0.000    0.000    0.000 
#    0.000    0.000    0.000    0.000    0.000    0.000 
#
# Total GULP energy -89549.964170 kJ/mol
# GULP energy per Si atom -5596.872761 kJ/mol
# Density = 2.689012 g / cm^3
# Si number density = 26.951465 Si / 1000 Ang^3
#
#
#
# Elastic Constant Matrix: (Units=GPa)
#
#
# Indices 1 2 3 4 5 6 
#
# 1 116.5693 51.7137 25.4478 9.8674 -18.4169 -29.3736
# 2 51.7137 117.3477 13.5045 13.0357 -14.0582 -6.7809
# 3 25.4478 13.5045 57.2953 0.2030 -18.2635 -17.8473
# 4 9.8674 13.0357 0.2030 36.3132 -11.6904 -12.2322
# 5 -18.4169 -14.0582 -18.2635 -11.6904 41.4183 7.3441
# 6 -29.3736 -6.7809 -17.8473 -12.2322 7.3441 53.2719
#
#
#
# Elastic Compliance Matrix: (Units=1/GPa)
#
#
# Indices 1 2 3 4 5 6 
#
# 1 0.012973 -0.004969 -0.002028 0.000989 0.002451 0.005731
# 2 -0.004969 0.011120 -0.000968 -0.003263 0.000659 -0.002488
# 3 -0.002028 -0.000968 0.023811 0.006220 0.009817 0.006811
# 4 0.000989 -0.003263 0.006220 0.034674 0.010310 0.008754
# 5 0.002451 0.000659 0.009817 0.010310 0.032227 0.002649
# 6 0.005731 -0.002488 0.006811 0.008754 0.002649 0.025541
#
#
# Mechanical properties :
#
#
# Convention : Reuss Voigt Hill
#
# Bulk Modulus (GPa) = 31.27423 52.50492 41.88957
# Shear Modulus (GPa) = 29.95191 39.57043 34.76117
#
# Velocity S-wave (km/s) = 3.33727 3.83588 3.59523
# Velocity P-wave (km/s) = 5.14577 6.25637 5.72805
#
# Compressibility (1/GPa) = 0.03197521
#
# Stress axis : x y z
#
# Youngs Moduli (GPa) = 77.08213 89.92562 41.99717
#
# Poissons Ratio (x) = 0.44683 0.08517
# Poissons Ratio (y) = 0.38301 0.04064
# Poissons Ratio (z) = 0.15633 0.08703
#
# Static dielectric constant tensor:
#      x y z
#    x 2.122640 0.040590 -0.017400 
#    y 0.040590 2.174570 -0.011350 
#    z -0.017400 -0.011350 2.199870 
# 
# From -- ./inp_files/351055.got.cif
#   From: 2010.05.17/outbox.cif.g08.bks.cpg/sg2_176_cif.got.tgz:351055.got - 2010.06.03 11:33:40.
