data_PCOD9112982
_publ_section_title
;
Structure prediction by ZEFSAII (Michael W. Deem and Ramdas Pophale) SiO2 
 PCOD9112982
Probable space group: P 2
;
_chemical_formula_sum "Si O2"
_cell_formula_units_Z 16
_cell_length_a 9.222357
_cell_length_b 12.185804
_cell_length_c 9.740464
_cell_angle_alpha 90.000000
_cell_angle_beta 48.260315
_cell_angle_gamma 90.000000
_cell_volume 816.803826
_symmetry_space_group_name_H-M "P 2"
_symmetry_group_IT_number 3
_symmetry_cell_setting 'monoclinic'
loop_
_space_group_symop_operation_xyz
x,y,z
-x,y,-z
loop_
_atom_site_type_symbol
_atom_site_label
_atom_site_fract_x
_atom_site_fract_y
_atom_site_fract_z
Si Si1 0.708841 0.127320 0.100659
Si Si2 0.403779 0.287676 0.406819
Si Si3 0.439133 0.886321 0.878763
Si Si4 0.455854 0.535291 0.367163
Si Si5 0.187724 0.669403 0.981990
Si Si6 0.068383 0.678655 0.612435
Si Si7 0.903200 0.140542 0.279866
Si Si8 0.151607 0.913187 0.529055
O O1 0.524430 0.206402 0.232484
O O2 0.803123 0.131487 0.193190
O O3 0.656845 0.003774 0.091198
O O4 0.872039 0.164291 0.890354
O O5 0.500000 0.287102 0.500000
O O6 0.409054 0.411560 0.350018
O O7 0.195301 0.234486 0.567191
O O8 0.297124 0.786400 0.928962
O O9 0.636448 0.888472 0.665892
O O10 0.500000 0.876198 0.000000
O O11 0.500000 0.528187 0.500000
O O12 0.644413 0.587400 0.176223
O O13 0.267467 0.612322 0.479427
O O14 0.000000 0.673753 0.000000
O O15 0.096613 0.631378 0.184559
O O16 0.099153 0.803437 0.645725
O O17 0.000000 0.688127 0.500000
O O18 0.862715 0.023605 0.375600
O O19 0.000000 0.925590 0.500000
#
# Coordination Sequence:
#
# PCOD9112982 Si02
#       8
#     2   2   2   2   2   2   2   2
#     4  10  21  37  62  93 127 164 206 257 316 381
#     4   9  20  39  62  90 123 164 215 265 315 364
#     4  12  24  40  65  96 133 168 207 261 323 394
#     4  11  23  43  67  94 127 170 222 273 316 379
#     4  12  26  42  67 100 130 170 218 269 325 386
#     4  11  24  43  65  94 132 170 215 267 331 387
#     4  10  20  37  61  93 126 163 206 261 316 375
#     4  11  22  39  62  90 129 171 204 256 325 383
#
# _framework density 19.588546999999998
#
# number of rings (size 3 to 8) (size 9 to 14) (size 15 to 20)
#    0.000    1.250    3.750    3.000    3.500    1.000 
#    2.250    0.625    2.750    0.000    0.000    0.000 
#    0.000    0.000    0.000    0.000    0.000    0.000 
#
# Total GULP energy -89339.272563 kJ/mol
# GULP energy per Si atom -5583.704535 kJ/mol
# Density = 1.954396 g / cm^3
# Si number density = 19.588547 Si / 1000 Ang^3
#
#
#
# Elastic Constant Matrix: (Units=GPa)
#
#
# Indices 1 2 3 4 5 6 
#
# 1 40.9078 36.8331 38.8925 0.0000 -21.4830 0.0000
# 2 36.8331 143.4421 68.7617 0.0000 -18.7276 0.0000
# 3 38.8925 68.7617 178.5560 0.0000 -34.9571 0.0000
# 4 0.0000 0.0000 0.0000 14.3411 0.0000 -13.1337
# 5 -21.4830 -18.7276 -34.9571 0.0000 33.0093 0.0000
# 6 0.0000 0.0000 0.0000 -13.1337 0.0000 -6.6945
#
#
#
# Elastic Compliance Matrix: (Units=1/GPa)
#
#
# Indices 1 2 3 4 5 6 
#
# 1 0.045559 -0.007494 -0.002605 0.000000 0.022640 0.000000
# 2 -0.007494 0.009861 -0.002554 0.000000 -0.001988 0.000000
# 3 -0.002605 -0.002554 0.008245 0.000000 0.005587 0.000000
# 4 0.000000 0.000000 0.000000 0.024933 0.000000 -0.048915
# 5 0.022640 -0.001988 0.005587 0.000000 0.049818 0.000000
# 6 0.000000 0.000000 0.000000 -0.048915 0.000000 -0.053412
#
#
# Mechanical properties :
#
#
# Convention : Reuss Voigt Hill
#
# Bulk Modulus (GPa) = 26.06994 72.43116 49.25055
# Shear Modulus (GPa) = 40.61846 22.69245 31.65545
#
# Velocity S-wave (km/s) = 4.55860 3.40730 4.02433
# Velocity P-wave (km/s) = 6.40667 7.24818 6.84038
#
# Compressibility (1/GPa) = 0.03835835
#
# Stress axis : x y z
#
# Youngs Moduli (GPa) = 21.94956 101.41357 121.27942
#
# Poissons Ratio (x) = 0.75999 0.31596
# Poissons Ratio (y) = 0.16449 0.30977
# Poissons Ratio (z) = 0.05718 0.25902
#
# Static dielectric constant tensor:
#      x y z
#    x 1.677300 0.000000 0.000210 
#    y 0.000000 1.688350 0.000000 
#    z 0.000210 0.000000 1.703680 
# 
# From -- ./inp_files/5975.got.cif
#   From: 2010.05.17/outbox.cif.g08.bks.cpg/sg3_3_cif.got.tgz:5975.got - 2010.06.03 18:33:08.
