data_PCOD9112368
_publ_section_title
;
Structure prediction by ZEFSAII (Michael W. Deem and Ramdas Pophale) SiO2 
 PCOD9112368
Probable space group: P -1
;
_chemical_formula_sum "Si O2"
_cell_formula_units_Z 15
_cell_length_a 4.934191
_cell_length_b 10.987806
_cell_length_c 10.173674
_cell_angle_alpha 77.789219
_cell_angle_beta 103.765659
_cell_angle_gamma 100.185230
_cell_volume 518.942132
_symmetry_space_group_name_H-M "P -1"
_symmetry_group_IT_number 2
_symmetry_cell_setting 'triclinic'
loop_
_space_group_symop_operation_xyz
x,y,z
-x,-y,-z
loop_
_atom_site_type_symbol
_atom_site_label
_atom_site_fract_x
_atom_site_fract_y
_atom_site_fract_z
Si Si1 0.000000 0.500000 0.500000
Si Si2 0.674774 0.140626 0.396232
Si Si3 0.856117 0.133337 0.014924
Si Si4 0.194856 0.316234 0.332228
Si Si5 0.064045 0.265217 0.612904
Si Si6 0.445503 0.069748 0.771923
Si Si7 0.214210 0.517286 0.790842
Si Si8 0.586038 0.698986 0.983403
O O1 0.106217 0.626209 0.381833
O O2 0.740847 0.463751 0.364647
O O3 0.906360 0.216534 0.310094
O O4 0.422616 0.222296 0.365176
O O5 0.854773 0.153673 0.547915
O O6 0.733291 0.019539 0.121316
O O7 0.674011 0.244847 0.997887
O O8 0.587872 0.007126 0.350586
O O9 0.758113 0.096327 0.862790
O O10 0.181300 0.357752 0.478382
O O11 0.181193 0.185916 0.058380
O O12 0.083638 0.433694 0.220855
O O13 0.308930 0.197894 0.714534
O O14 0.458476 0.609446 0.872475
O O15 0.254637 0.382555 0.880554
#
# Coordination Sequence:
#
# PCOD9112368 Si02
#       8
#     1   2   2   2   2   2   2   2
#     4  10  20  48  76 118 148 186 250 320 382 436
#     4  10  22  43  70 107 148 191 239 302 375 457
#     4  11  28  48  72 107 146 202 258 320 354 453
#     4   9  22  41  68 110 140 189 240 296 376 448
#     4   9  22  45  71 112 145 195 236 313 378 459
#     4  11  24  47  74 107 152 199 256 309 375 433
#     4  10  23  45  83 109 155 201 247 316 378 466
#     4  11  26  51  75 110 152 205 257 300 388 448
#
# _framework density 28.904958000000001
#
# number of rings (size 3 to 8) (size 9 to 14) (size 15 to 20)
#    0.800    1.067    0.000    2.000    0.000   11.200 
#    9.600    1.333    2.933    0.000    0.000    0.000 
#    0.000    0.000    0.000    0.000    0.000    0.000 
#
# Total GULP energy -83800.750255 kJ/mol
# GULP energy per Si atom -5586.716684 kJ/mol
# Density = 2.883917 g / cm^3
# Si number density = 28.904958 Si / 1000 Ang^3
#
#
#
# Elastic Constant Matrix: (Units=GPa)
#
#
# Indices 1 2 3 4 5 6 
#
# 1 94.0248 34.4840 7.5528 15.6799 16.7082 -34.7602
# 2 34.4840 158.8220 55.7057 8.9760 6.3829 -12.1419
# 3 7.5528 55.7057 142.2603 -1.1281 26.3690 -7.5488
# 4 15.6799 8.9760 -1.1281 70.4257 7.0342 10.9397
# 5 16.7082 6.3829 26.3690 7.0342 19.6122 -11.0624
# 6 -34.7602 -12.1419 -7.5488 10.9397 -11.0624 45.2887
#
#
#
# Elastic Compliance Matrix: (Units=1/GPa)
#
#
# Indices 1 2 3 4 5 6 
#
# 1 0.018972 -0.003464 0.002827 -0.004742 -0.009898 0.012832
# 2 -0.003464 0.008442 -0.004389 -0.001216 0.007042 0.000886
# 3 0.002827 -0.004389 0.012093 0.002423 -0.019417 -0.002319
# 4 -0.004742 -0.001216 0.002423 0.018265 -0.011449 -0.010770
# 5 -0.009898 0.007042 -0.019417 -0.011449 0.097256 0.017576
# 6 0.012832 0.000886 -0.002319 -0.010770 0.017576 0.038675
#
#
# Mechanical properties :
#
#
# Convention : Reuss Voigt Hill
#
# Bulk Modulus (GPa) = 33.95059 65.62136 49.78597
# Shear Modulus (GPa) = 23.41093 46.88964 35.15028
#
# Velocity S-wave (km/s) = 2.84901 4.03202 3.49099
# Velocity P-wave (km/s) = 4.75327 6.66544 5.78885
#
# Compressibility (1/GPa) = 0.02945457
#
# Stress axis : x y z
#
# Youngs Moduli (GPa) = 52.70798 118.46141 82.69034
#
# Poissons Ratio (x) = 0.41038 -0.23379
# Poissons Ratio (y) = 0.18259 0.36296
# Poissons Ratio (z) = -0.14902 0.51998
#
# Static dielectric constant tensor:
#      x y z
#    x 2.771030 -0.464170 -0.232670 
#    y -0.464170 3.629660 0.330170 
#    z -0.232670 0.330170 2.533360 
# 
# From -- ./inp_files/363095.got.cif
#   From: 2010.05.17/outbox.cif.g08.bks.cpg/sg2_182_cif.got.tgz:363095.got - 2010.06.03 11:33:40.
