data_PCOD9112684
_publ_section_title
;
Structure prediction by ZEFSAII (Michael W. Deem and Ramdas Pophale) SiO2 
 PCOD9112684
Probable space group: P 2
;
_chemical_formula_sum "Si O2"
_cell_formula_units_Z 16
_cell_length_a 7.339595
_cell_length_b 18.701041
_cell_length_c 8.234963
_cell_angle_alpha 90.000000
_cell_angle_beta 38.550825
_cell_angle_gamma 90.000000
_cell_volume 704.422110
_symmetry_space_group_name_H-M "P 2"
_symmetry_group_IT_number 3
_symmetry_cell_setting 'monoclinic'
loop_
_space_group_symop_operation_xyz
x,y,z
-x,y,-z
loop_
_atom_site_type_symbol
_atom_site_label
_atom_site_fract_x
_atom_site_fract_y
_atom_site_fract_z
Si Si1 0.156347 0.050900 0.569920
Si Si2 0.182312 0.806866 0.039547
Si Si3 0.847212 0.347413 0.930206
Si Si4 0.674351 0.722646 0.549879
Si Si5 0.153183 0.192962 0.221763
Si Si6 0.329349 0.568240 0.289642
Si Si7 0.641665 0.423215 0.576689
Si Si8 0.663304 0.972262 0.056758
O O1 0.000000 0.047825 0.500000
O O2 0.056284 0.129338 0.699386
O O3 0.478978 0.020028 0.312235
O O4 0.992735 0.997682 0.804117
O O5 0.958972 0.772713 0.325824
O O6 0.461819 0.757176 0.829178
O O7 0.309714 0.886953 0.950859
O O8 0.000000 0.802387 0.000000
O O9 0.857660 0.265346 0.870787
O O10 0.024278 0.399978 0.686396
O O11 0.514470 0.371335 0.186743
O O12 0.000000 0.353233 0.000000
O O13 0.500000 0.721440 0.500000
O O14 0.711993 0.641605 0.581957
O O15 0.000000 0.208788 0.500000
O O16 0.500000 0.170918 0.000000
O O17 0.458054 0.502958 0.303044
O O18 0.000000 0.541448 0.500000
O O19 0.500000 0.578145 0.000000
O O20 0.500000 0.410356 0.500000
O O21 0.500000 0.985670 0.000000
#
# Coordination Sequence:
#
# PCOD9112684 Si02
#       8
#     2   2   2   2   2   2   2   2
#     4   9  18  33  52  78 109 145 187 226 279 346
#     4  10  21  37  59  84 111 147 193 237 280 342
#     4  10  22  39  60  86 118 155 199 244 289 347
#     4  10  22  41  60  80 114 158 191 225 288 360
#     4  11  21  35  59  86 115 153 196 243 292 347
#     4  12  25  39  60  91 122 148 191 253 293 332
#     4  10  22  41  61  82 116 163 199 231 290 361
#     4  10  19  33  55  79 108 145 184 231 282 337
#
# _framework density 22.713654999999999
#
# number of rings (size 3 to 8) (size 9 to 14) (size 15 to 20)
#    0.000    1.750    0.000    5.250    0.000    4.500 
#    0.000    5.625    0.000    4.500    0.000    0.000 
#    0.000    0.000    0.000    0.000    0.000    0.000 
#
# Total GULP energy -89287.170213 kJ/mol
# GULP energy per Si atom -5580.448138 kJ/mol
# Density = 2.266196 g / cm^3
# Si number density = 22.713655 Si / 1000 Ang^3
#
#
#
# Elastic Constant Matrix: (Units=GPa)
#
#
# Indices 1 2 3 4 5 6 
#
# 1 43.6430 -1.5761 31.5995 0.0000 -3.3035 0.0000
# 2 -1.5761 144.4709 44.8678 0.0000 2.5788 0.0000
# 3 31.5995 44.8678 164.3391 0.0000 -12.5353 0.0000
# 4 0.0000 0.0000 0.0000 67.0784 0.0000 17.4750
# 5 -3.3035 2.5788 -12.5353 0.0000 21.4755 0.0000
# 6 0.0000 0.0000 0.0000 17.4750 0.0000 29.9654
#
#
#
# Elastic Compliance Matrix: (Units=1/GPa)
#
#
# Indices 1 2 3 4 5 6 
#
# 1 0.027196 0.002072 -0.005751 0.000000 0.000578 0.000000
# 2 0.002072 0.007823 -0.002702 0.000000 -0.002198 0.000000
# 3 -0.005751 -0.002702 0.008253 0.000000 0.004257 0.000000
# 4 0.000000 0.000000 0.000000 0.017579 0.000000 -0.010251
# 5 0.000578 -0.002198 0.004257 0.000000 0.049402 0.000000
# 6 0.000000 0.000000 0.000000 -0.010251 0.000000 0.039350
#
#
# Mechanical properties :
#
#
# Convention : Reuss Voigt Hill
#
# Bulk Modulus (GPa) = 32.77527 55.80393 44.28960
# Shear Modulus (GPa) = 28.97980 42.20799 35.59390
#
# Velocity S-wave (km/s) = 3.57582 4.31544 3.96292
# Velocity P-wave (km/s) = 5.61335 7.03224 6.36247
#
# Compressibility (1/GPa) = 0.03051081
#
# Stress axis : x y z
#
# Youngs Moduli (GPa) = 36.77043 127.83202 121.16521
#
# Poissons Ratio (x) = -0.26493 0.69682
# Poissons Ratio (y) = -0.07621 0.32738
# Poissons Ratio (z) = 0.21147 0.34539
#
# Static dielectric constant tensor:
#      x y z
#    x 1.683490 0.000000 0.185890 
#    y 0.000000 1.849180 0.000000 
#    z 0.185890 0.000000 1.667340 
# 
# From -- ./inp_files/6222.got.cif
#   From: 2010.05.17/outbox.cif.g08.bks.cpg/sg3_4_cif.got.tgz:6222.got - 2010.06.03 18:33:08.
