data_PCOD9112760
_publ_section_title
;
Structure prediction by ZEFSAII (Michael W. Deem and Ramdas Pophale) SiO2 
 PCOD9112760
Probable space group: P 2
;
_chemical_formula_sum "Si O2"
_cell_formula_units_Z 15
_cell_length_a 5.231137
_cell_length_b 8.680619
_cell_length_c 16.229154
_cell_angle_alpha 90.000000
_cell_angle_beta 70.586775
_cell_angle_gamma 90.000000
_cell_volume 695.058855
_symmetry_space_group_name_H-M "P 2"
_symmetry_group_IT_number 3
_symmetry_cell_setting 'monoclinic'
loop_
_space_group_symop_operation_xyz
x,y,z
-x,y,-z
loop_
_atom_site_type_symbol
_atom_site_label
_atom_site_fract_x
_atom_site_fract_y
_atom_site_fract_z
Si Si1 0.703417 0.277860 0.309831
Si Si2 0.000000 0.550718 0.000000
Si Si3 0.500224 0.566459 0.762419
Si Si4 0.531619 0.357797 0.094053
Si Si5 0.013482 0.781231 0.873256
Si Si6 0.295764 0.069102 0.837730
Si Si7 0.097155 0.141743 0.396217
Si Si8 0.228943 0.857230 0.279392
O O1 0.643752 0.449285 0.284235
O O2 0.824348 0.181492 0.219219
O O3 0.407086 0.203333 0.359970
O O4 0.906847 0.255088 0.363153
O O5 0.828659 0.432584 0.072741
O O6 0.147948 0.671894 0.045897
O O7 0.631718 0.459405 0.821119
O O8 0.285350 0.681079 0.829026
O O9 0.696728 0.687357 0.695952
O O10 0.544899 0.181112 0.118097
O O11 0.500000 0.375487 0.000000
O O12 0.894913 0.817488 0.796559
O O13 0.087039 0.950006 0.899353
O O14 0.507723 0.960098 0.768445
O O15 0.000000 0.134392 0.500000
O O16 0.068122 0.972869 0.356027
#
# Coordination Sequence:
#
# PCOD9112760 Si02
#       8
#     2   1   2   2   2   2   2   2
#     4  10  21  41  63  95 122 164 210 255 313 380
#     4  10  22  32  50  80 114 158 200 264 314 362
#     4   9  21  37  61  86 119 164 209 255 314 384
#     4  10  20  36  51  80 118 156 213 261 316 359
#     4  10  19  36  56  83 119 154 204 256 316 368
#     4   9  20  35  54  83 113 157 208 252 306 380
#     4  11  23  41  68  93 129 163 208 261 317 382
#     4  10  20  37  62  87 114 165 206 251 318 379
#
# _framework density 21.580907
#
# number of rings (size 3 to 8) (size 9 to 14) (size 15 to 20)
#    0.000    2.133    1.333    1.200    1.867    2.667 
#    7.200    2.000    2.933    0.000    0.000    0.000 
#    0.000    0.000    0.000    0.000    0.000    0.000 
#
# Total GULP energy -83568.782908 kJ/mol
# GULP energy per Si atom -5571.252194 kJ/mol
# Density = 2.153179 g / cm^3
# Si number density = 21.580907 Si / 1000 Ang^3
#
#
#
# Elastic Constant Matrix: (Units=GPa)
#
#
# Indices 1 2 3 4 5 6 
#
# 1 43.2874 14.5352 12.8562 0.0000 11.2042 0.0000
# 2 14.5352 156.3524 42.2274 0.0000 5.5169 0.0000
# 3 12.8562 42.2274 93.7006 0.0000 17.6437 0.0000
# 4 0.0000 0.0000 0.0000 22.2052 0.0000 1.7177
# 5 11.2042 5.5169 17.6437 0.0000 26.4572 0.0000
# 6 0.0000 0.0000 0.0000 1.7177 0.0000 16.5085
#
#
#
# Elastic Compliance Matrix: (Units=1/GPa)
#
#
# Indices 1 2 3 4 5 6 
#
# 1 0.026662 -0.001880 -0.000868 0.000000 -0.010320 0.000000
# 2 -0.001880 0.007428 -0.003371 0.000000 0.001495 0.000000
# 3 -0.000868 -0.003371 0.013848 0.000000 -0.008165 0.000000
# 4 0.000000 0.000000 0.000000 0.045400 0.000000 -0.004724
# 5 -0.010320 0.001495 -0.008165 0.000000 0.047300 0.000000
# 6 0.000000 0.000000 0.000000 -0.004724 0.000000 0.061066
#
#
# Mechanical properties :
#
#
# Convention : Reuss Voigt Hill
#
# Bulk Modulus (GPa) = 28.01122 48.06422 38.03772
# Shear Modulus (GPa) = 22.13935 27.94898 25.04417
#
# Velocity S-wave (km/s) = 3.20641 3.60262 3.41027
# Velocity P-wave (km/s) = 5.16874 6.29485 5.75939
#
# Compressibility (1/GPa) = 0.03569998
#
# Stress axis : x y z
#
# Youngs Moduli (GPa) = 37.50720 134.61956 72.21250
#
# Poissons Ratio (x) = 0.25310 0.06265
# Poissons Ratio (y) = 0.07052 0.24345
# Poissons Ratio (z) = 0.03254 0.45384
#
# Static dielectric constant tensor:
#      x y z
#    x 1.897320 0.000000 -0.025830 
#    y 0.000000 1.819130 0.000000 
#    z -0.025830 0.000000 1.849340 
# 
# From -- ./inp_files/3164.got.cif
#   From: 2010.05.17/outbox.cif.g08.bks.cpg/sg3_2_cif.got.tgz:3164.got - 2010.06.03 18:33:08.
