data_PCOD9112599
_publ_section_title
;
Structure prediction by ZEFSAII (Michael W. Deem and Ramdas Pophale) SiO2 
 PCOD9112599
Probable space group: P 2
;
_chemical_formula_sum "Si O2"
_cell_formula_units_Z 10
_cell_length_a 13.939345
_cell_length_b 7.636039
_cell_length_c 9.738634
_cell_angle_alpha 90.000000
_cell_angle_beta 27.709716
_cell_angle_gamma 90.000000
_cell_volume 482.007948
_symmetry_space_group_name_H-M "P 2"
_symmetry_group_IT_number 3
_symmetry_cell_setting 'monoclinic'
loop_
_space_group_symop_operation_xyz
x,y,z
-x,y,-z
loop_
_atom_site_type_symbol
_atom_site_label
_atom_site_fract_x
_atom_site_fract_y
_atom_site_fract_z
Si Si1 0.520858 0.500000 0.121680
Si Si2 0.884205 0.658390 0.794855
Si Si3 0.935928 0.376649 0.230923
Si Si4 0.921449 0.034983 0.816711
Si Si5 0.313862 0.126513 0.136184
O O1 0.309854 0.410390 0.440976
O O2 0.500000 0.592505 0.000000
O O3 0.643414 0.625289 0.067953
O O4 0.668553 0.335433 0.900781
O O5 0.000000 0.679587 0.500000
O O6 0.966736 0.491009 0.770827
O O7 0.923242 0.828268 0.839563
O O8 0.032494 0.180951 0.127015
O O9 0.000000 0.440616 0.000000
O O10 0.113744 0.073145 0.473381
O O11 0.717617 0.062939 0.980053
O O12 0.500000 0.069424 0.000000
#
# Coordination Sequence:
#
# PCOD9112599 Si02
#       5
#     2   2   2   2   2
#     4  11  21  39  72  99 129 178 227 276 336 398
#     4  12  23  40  71 102 131 170 230 283 329 394
#     4  12  27  46  66  94 143 182 220 274 341 405
#     4  11  22  39  66 100 134 167 221 285 332 387
#     4  10  18  35  65  99 129 161 218 277 329 383
#
# _framework density 20.746545000000001
#
# number of rings (size 3 to 8) (size 9 to 14) (size 15 to 20)
#    0.000    0.800   10.000    0.000    0.000    4.000 
#    0.000    0.000    4.400    0.000    0.000    0.000 
#    0.000    0.000    0.000    0.000    0.000    0.000 
#
# Total GULP energy -55721.674009 kJ/mol
# GULP energy per Si atom -5572.167401 kJ/mol
# Density = 2.069932 g / cm^3
# Si number density = 20.746545 Si / 1000 Ang^3
#
#
#
# Elastic Constant Matrix: (Units=GPa)
#
#
# Indices 1 2 3 4 5 6 
#
# 1 76.5924 24.1329 38.9922 0.0000 -16.0746 0.0000
# 2 24.1329 99.9583 25.3334 0.0000 -9.0795 0.0000
# 3 38.9922 25.3334 54.0545 0.0000 -12.3171 0.0000
# 4 0.0000 0.0000 0.0000 34.8250 0.0000 -22.8773
# 5 -16.0746 -9.0795 -12.3171 0.0000 33.6913 0.0000
# 6 0.0000 0.0000 0.0000 -22.8773 0.0000 35.7448
#
#
#
# Elastic Compliance Matrix: (Units=1/GPa)
#
#
# Indices 1 2 3 4 5 6 
#
# 1 0.021507 -0.001247 -0.013819 0.000000 0.004873 0.000000
# 2 -0.001247 0.011471 -0.004262 0.000000 0.000938 0.000000
# 3 -0.013819 -0.004262 0.031310 0.000000 0.003705 0.000000
# 4 0.000000 0.000000 0.000000 0.049546 0.000000 0.031710
# 5 0.004873 0.000938 0.003705 0.000000 0.033613 0.000000
# 6 0.000000 0.000000 0.000000 0.031710 0.000000 0.048271
#
#
# Mechanical properties :
#
#
# Convention : Reuss Voigt Hill
#
# Bulk Modulus (GPa) = 39.01684 45.28025 42.14855
# Shear Modulus (GPa) = 20.58291 30.32866 25.45578
#
# Velocity S-wave (km/s) = 3.15320 3.82758 3.50664
# Velocity P-wave (km/s) = 5.66605 6.43480 6.06262
#
# Compressibility (1/GPa) = 0.02562996
#
# Stress axis : x y z
#
# Youngs Moduli (GPa) = 46.49644 87.17787 31.93868
#
# Poissons Ratio (x) = 0.10875 0.44136
# Poissons Ratio (y) = 0.05800 0.13614
# Poissons Ratio (z) = 0.64254 0.37159
#
# Static dielectric constant tensor:
#      x y z
#    x 1.792360 0.000000 -0.068710 
#    y 0.000000 1.799380 0.000000 
#    z -0.068710 0.000000 1.745940 
# 
# From -- ./inp_files/6774.got.cif
#   From: 2010.05.17/outbox.cif.g08.bks.cpg/sg3_4_cif.got.tgz:6774.got - 2010.06.03 18:33:08.
