data_PCOD9112485
_publ_section_title
;
Structure prediction by ZEFSAII (Michael W. Deem and Ramdas Pophale) SiO2 
 PCOD9112485
Probable space group: P 2
;
_chemical_formula_sum "Si O2"
_cell_formula_units_Z 11
_cell_length_a 15.479997
_cell_length_b 5.416178
_cell_length_c 8.361639
_cell_angle_alpha 90.000000
_cell_angle_beta 39.750371
_cell_angle_gamma 90.000000
_cell_volume 448.288624
_symmetry_space_group_name_H-M "P 2"
_symmetry_group_IT_number 3
_symmetry_cell_setting 'monoclinic'
loop_
_space_group_symop_operation_xyz
x,y,z
-x,y,-z
loop_
_atom_site_type_symbol
_atom_site_label
_atom_site_fract_x
_atom_site_fract_y
_atom_site_fract_z
Si Si1 0.279392 0.601080 0.092529
Si Si2 0.269327 0.308090 0.796445
Si Si3 0.862891 0.927170 0.249343
Si Si4 0.500000 0.010051 0.500000
Si Si5 0.862793 0.109145 0.595674
Si Si6 0.592144 0.642038 0.637311
O O1 0.217884 0.363009 0.266986
O O2 0.211815 0.861169 0.234694
O O3 0.242871 0.536840 0.954905
O O4 0.438720 0.610069 0.919292
O O5 0.170429 0.116039 0.850280
O O6 0.376732 0.158759 0.749335
O O7 0.361794 0.394623 0.516209
O O8 0.891289 0.079380 0.368382
O O9 0.736887 0.754736 0.485403
O O10 0.000000 0.787086 0.000000
O O11 0.560841 0.839162 0.545670
O O12 0.000000 0.132481 0.500000
#
# Coordination Sequence:
#
# PCOD9112485 Si02
#       6
#     2   2   2   1   2   2
#     4  12  25  49  82 115 159 200 266 329 398 474
#     4  11  22  41  77 110 150 199 264 314 387 467
#     4  11  29  50  74 111 160 212 271 321 389 485
#     4  10  16  38  64 114 146 184 260 310 382 454
#     4  12  30  53  78 114 160 215 258 327 413 464
#     4  11  23  41  77 112 148 200 261 319 387 460
#
# _framework density 24.537765
#
# number of rings (size 3 to 8) (size 9 to 14) (size 15 to 20)
#    0.000    0.727    3.636    2.727   10.182    1.455 
#    0.000    0.000    0.000    0.000    0.000    0.000 
#    0.000    0.000    0.000    0.000    0.000    0.000 
#
# Total GULP energy -61300.014327 kJ/mol
# GULP energy per Si atom -5572.728575 kJ/mol
# Density = 2.448192 g / cm^3
# Si number density = 24.537765 Si / 1000 Ang^3
#
#
#
# Elastic Constant Matrix: (Units=GPa)
#
#
# Indices 1 2 3 4 5 6 
#
# 1 112.8606 15.8262 48.1699 0.0000 -15.0634 0.0000
# 2 15.8262 123.4934 66.9109 0.0000 -19.8490 0.0000
# 3 48.1699 66.9109 150.4025 0.0000 -41.3861 0.0000
# 4 0.0000 0.0000 0.0000 44.4323 0.0000 -14.9875
# 5 -15.0634 -19.8490 -41.3861 0.0000 32.1013 0.0000
# 6 0.0000 0.0000 0.0000 -14.9875 0.0000 29.8494
#
#
#
# Elastic Compliance Matrix: (Units=1/GPa)
#
#
# Indices 1 2 3 4 5 6 
#
# 1 0.010317 0.000631 -0.003325 0.000000 0.000945 0.000000
# 2 0.000631 0.010719 -0.004751 0.000000 0.000799 0.000000
# 3 -0.003325 -0.004751 0.013313 0.000000 0.012665 0.000000
# 4 0.000000 0.000000 0.000000 0.027095 0.000000 0.013605
# 5 0.000945 0.000799 0.012665 0.000000 0.048417 0.000000
# 6 0.000000 0.000000 0.000000 0.013605 0.000000 0.040332
#
#
# Mechanical properties :
#
#
# Convention : Reuss Voigt Hill
#
# Bulk Modulus (GPa) = 51.39045 72.06340 61.72692
# Shear Modulus (GPa) = 29.14262 38.33322 33.73792
#
# Velocity S-wave (km/s) = 3.44999 3.95677 3.71204
# Velocity P-wave (km/s) = 6.07114 7.09273 6.60173
#
# Compressibility (1/GPa) = 0.01945887
#
# Stress axis : x y z
#
# Youngs Moduli (GPa) = 96.92454 93.28898 75.11731
#
# Poissons Ratio (x) = -0.05890 0.24979
# Poissons Ratio (y) = -0.06119 0.35690
# Poissons Ratio (z) = 0.32230 0.44323
#
# Static dielectric constant tensor:
#      x y z
#    x 2.072600 0.000000 -0.019410 
#    y 0.000000 1.966110 0.000000 
#    z -0.019410 0.000000 2.082320 
# 
# From -- ./inp_files/7915.got.cif
#   From: 2010.05.17/outbox.cif.g08.bks.cpg/sg3_4_cif.got.tgz:7915.got - 2010.06.03 18:33:08.
