data_PCOD9112426
_publ_section_title
;
Structure prediction by ZEFSAII (Michael W. Deem and Ramdas Pophale) SiO2 
 PCOD9112426
Probable space group: P -1
;
_chemical_formula_sum "Si O2"
_cell_formula_units_Z 14
_cell_length_a 5.417781
_cell_length_b 16.722270
_cell_length_c 7.873960
_cell_angle_alpha 96.746717
_cell_angle_beta 58.974979
_cell_angle_gamma 85.984563
_cell_volume 599.888002
_symmetry_space_group_name_H-M "P -1"
_symmetry_group_IT_number 2
_symmetry_cell_setting 'triclinic'
loop_
_space_group_symop_operation_xyz
x,y,z
-x,-y,-z
loop_
_atom_site_type_symbol
_atom_site_label
_atom_site_fract_x
_atom_site_fract_y
_atom_site_fract_z
Si Si1 0.318550 0.831560 0.696620
Si Si2 0.231550 0.584332 0.298028
Si Si3 0.902960 0.996158 0.307277
Si Si4 0.574202 0.601653 0.826671
Si Si5 0.448919 0.027985 0.237207
Si Si6 0.995379 0.305034 0.108852
Si Si7 0.332683 0.321794 0.642006
O O1 0.186948 0.905279 0.637655
O O2 0.476531 0.881689 0.791409
O O3 0.072251 0.783928 0.844280
O O4 0.545097 0.764082 0.506593
O O5 0.278952 0.488736 0.298225
O O6 0.400377 0.632386 0.385185
O O7 0.901804 0.624407 0.382920
O O8 0.402170 0.591771 0.061589
O O9 0.738865 0.972243 0.191968
O O10 0.250051 0.984591 0.172984
O O11 0.761796 0.962388 0.514392
O O12 0.322507 0.641365 0.798290
O O13 0.814545 0.657450 0.807382
O O14 0.166443 0.306663 0.871578
#
# Coordination Sequence:
#
# PCOD9112426 Si02
#       7
#     2   2   2   2   2   2   2
#     4  10  21  32  55  74 108 128 158 208 255 284
#     4   9  18  35  53  69  98 136 170 206 246 293
#     4   8  16  30  50  73  96 131 167 190 233 298
#     4   9  18  35  53  69  98 136 170 206 246 293
#     4   8  16  30  50  73  96 131 167 190 233 298
#     4  10  21  33  51  77  99 129 169 205 250 295
#     4  10  21  33  51  77  99 129 169 205 250 295
#
# _framework density 23.337689000000001
#
# number of rings (size 3 to 8) (size 9 to 14) (size 15 to 20)
#    0.857    2.000    0.000    0.857    4.000    3.429 
#    0.000    4.286    0.000    3.429    0.000    4.000 
#    0.000    0.000    0.000    0.000    0.000    0.000 
#
# Total GULP energy -78185.506390 kJ/mol
# GULP energy per Si atom -5584.679028 kJ/mol
# Density = 2.328457 g / cm^3
# Si number density = 23.337689 Si / 1000 Ang^3
#
#
#
# Elastic Constant Matrix: (Units=GPa)
#
#
# Indices 1 2 3 4 5 6 
#
# 1 143.8329 13.3494 16.6988 14.8114 -5.7144 17.8267
# 2 13.3494 103.5799 30.4397 5.6265 5.9064 12.8602
# 3 16.6988 30.4397 72.2611 7.7788 -5.4886 3.6573
# 4 14.8114 5.6265 7.7788 42.0048 3.3761 -5.5915
# 5 -5.7144 5.9064 -5.4886 3.3761 31.9724 -6.4548
# 6 17.8267 12.8602 3.6573 -5.5915 -6.4548 37.0470
#
#
#
# Elastic Compliance Matrix: (Units=1/GPa)
#
#
# Indices 1 2 3 4 5 6 
#
# 1 0.007955 -0.000033 -0.001222 -0.003172 0.000736 -0.004046
# 2 -0.000033 0.011952 -0.004993 -0.000947 -0.003871 -0.004457
# 3 -0.001222 -0.004993 0.016711 -0.002179 0.004013 0.001042
# 4 -0.003172 -0.000947 -0.002179 0.026400 -0.002416 0.005633
# 5 0.000736 -0.003871 0.004013 -0.002416 0.034321 0.006208
# 6 -0.004046 -0.004457 0.001042 0.005633 0.006208 0.032316
#
#
# Mechanical properties :
#
#
# Convention : Reuss Voigt Hill
#
# Bulk Modulus (GPa) = 41.45947 48.96106 45.21027
# Shear Modulus (GPa) = 33.29068 39.48391 36.38729
#
# Velocity S-wave (km/s) = 3.78097 4.11767 3.95291
# Velocity P-wave (km/s) = 6.07162 6.60545 6.34415
#
# Compressibility (1/GPa) = 0.02411994
#
# Stress axis : x y z
#
# Youngs Moduli (GPa) = 125.70964 83.67036 59.84019
#
# Poissons Ratio (x) = 0.00280 0.07313
# Poissons Ratio (y) = 0.00420 0.29881
# Poissons Ratio (z) = 0.15362 0.41780
#
# Static dielectric constant tensor:
#      x y z
#    x 1.967580 -0.001510 0.013180 
#    y -0.001510 1.777580 -0.042650 
#    z 0.013180 -0.042650 1.955090 
# 
# From -- ./inp_files/137684.got.cif
#   From: 2010.05.17/outbox.cif.g08.bks.cpg/sg2_69_cif.got.tgz:137684.got - 2010.06.03 11:33:40.
