data_PCOD9112045
_publ_section_title
;
Structure prediction by ZEFSAII (Michael W. Deem and Ramdas Pophale) SiO2 
 PCOD9112045
Probable space group: P -1
;
_chemical_formula_sum "Si O2"
_cell_formula_units_Z 16
_cell_length_a 16.747034
_cell_length_b 7.050114
_cell_length_c 12.637495
_cell_angle_alpha 62.657492
_cell_angle_beta 125.285377
_cell_angle_gamma 145.358386
_cell_volume 691.936585
_symmetry_space_group_name_H-M "P -1"
_symmetry_group_IT_number 2
_symmetry_cell_setting 'triclinic'
loop_
_space_group_symop_operation_xyz
x,y,z
-x,-y,-z
loop_
_atom_site_type_symbol
_atom_site_label
_atom_site_fract_x
_atom_site_fract_y
_atom_site_fract_z
Si Si1 0.461148 0.259833 0.626384
Si Si2 0.489498 0.780056 0.627517
Si Si3 0.993717 0.216508 0.882498
Si Si4 0.230706 0.136206 0.394381
Si Si5 0.762750 0.051240 0.135736
Si Si6 0.745769 0.972784 0.894080
Si Si7 0.492218 0.771003 0.113909
Si Si8 0.843459 0.863303 0.422746
O O1 0.521318 0.470621 0.376594
O O2 0.312876 0.041923 0.495684
O O3 0.622322 0.484792 0.635974
O O4 0.436294 0.073428 0.755751
O O5 0.634142 0.974941 0.765365
O O6 0.323997 0.526659 0.621947
O O7 0.500000 0.000000 0.500000
O O8 0.161235 0.588143 0.893692
O O9 0.898650 0.057880 0.741882
O O10 0.905364 0.236070 0.886541
O O11 0.000000 0.000000 0.000000
O O12 0.168942 0.085890 0.476394
O O13 0.592287 0.773864 0.121777
O O14 0.850506 0.053433 0.287556
O O15 0.763253 0.993826 0.027885
O O16 0.667724 0.615700 0.893838
O O17 0.500000 0.000000 0.000000
O O18 0.000000 0.000000 0.500000
#
# Coordination Sequence:
#
# PCOD9112045 Si02
#       8
#     2   2   2   2   2   2   2   2
#     4   9  19  41  69  97 126 173 231 289 325 402
#     4  10  21  42  69  98 127 177 232 271 336 410
#     4  12  27  44  69 102 136 188 232 276 350 416
#     4  10  20  44  68  90 135 174 229 282 330 409
#     4  12  26  45  65 102 146 179 224 292 350 400
#     4  11  24  48  68  98 142 182 233 282 336 421
#     4  11  21  44  70 104 133 175 234 286 343 405
#     4  11  26  44  66 102 138 177 222 284 354 406
#
# _framework density 23.123505999999999
#
# number of rings (size 3 to 8) (size 9 to 14) (size 15 to 20)
#    0.000    1.250    6.250    1.500    3.500    2.500 
#    2.250    0.000    0.000    0.000    0.000    0.000 
#    0.000    0.000    0.000    0.000    0.000    0.000 
#
# Total GULP energy -89261.252988 kJ/mol
# GULP energy per Si atom -5578.828312 kJ/mol
# Density = 2.307088 g / cm^3
# Si number density = 23.123506 Si / 1000 Ang^3
#
#
#
# Elastic Constant Matrix: (Units=GPa)
#
#
# Indices 1 2 3 4 5 6 
#
# 1 82.9809 14.8773 46.8314 2.3526 -2.4627 22.7430
# 2 14.8773 67.1556 31.8867 -12.9027 15.8717 12.6524
# 3 46.8314 31.8867 198.9434 -30.1764 -9.4397 -3.0330
# 4 2.3526 -12.9027 -30.1764 43.5394 -4.0212 4.2675
# 5 -2.4627 15.8717 -9.4397 -4.0212 43.9751 -8.0566
# 6 22.7430 12.6524 -3.0330 4.2675 -8.0566 38.2932
#
#
#
# Elastic Compliance Matrix: (Units=1/GPa)
#
#
# Indices 1 2 3 4 5 6 
#
# 1 0.018041 0.000610 -0.005183 -0.003512 -0.002753 -0.011515
# 2 0.000610 0.021561 -0.003640 0.003916 -0.010063 -0.010328
# 3 -0.005183 -0.003640 0.007779 0.004453 0.004063 0.005256
# 4 -0.003512 0.003916 0.004453 0.027708 0.001584 -0.001610
# 5 -0.002753 -0.010063 0.004063 0.001584 0.029300 0.011270
# 6 -0.011515 -0.010328 0.005256 -0.001610 0.011270 0.039332
#
#
# Mechanical properties :
#
#
# Convention : Reuss Voigt Hill
#
# Bulk Modulus (GPa) = 32.30782 59.58565 45.94673
# Shear Modulus (GPa) = 29.33147 42.19386 35.76266
#
# Velocity S-wave (km/s) = 3.56542 4.27631 3.93694
# Velocity P-wave (km/s) = 5.56344 7.08567 6.37019
#
# Compressibility (1/GPa) = 0.03095226
#
# Stress axis : x y z
#
# Youngs Moduli (GPa) = 55.43011 46.38061 128.55906
#
# Poissons Ratio (x) = -0.02828 0.66639
# Poissons Ratio (y) = -0.03380 0.46798
# Poissons Ratio (z) = 0.28732 0.16883
#
# Static dielectric constant tensor:
#      x y z
#    x 1.971800 -0.056130 0.012000 
#    y -0.056130 1.875990 0.011540 
#    z 0.012000 0.011540 1.982560 
# 
# From -- ./inp_files/462006.got.cif
#   From: 2010.05.17/outbox.cif.g08.bks.cpg/sg2_232_cif.got.tgz:462006.got - 2010.06.03 11:33:40.
