data_PCOD9112924
_publ_section_title
;
Structure prediction by ZEFSAII (Michael W. Deem and Ramdas Pophale) SiO2 
 PCOD9112924
Probable space group: P 2
;
_chemical_formula_sum "Si O2"
_cell_formula_units_Z 14
_cell_length_a 16.439794
_cell_length_b 5.001016
_cell_length_c 26.929125
_cell_angle_alpha 90.000000
_cell_angle_beta 162.517015
_cell_angle_gamma 90.000000
_cell_volume 665.134392
_symmetry_space_group_name_H-M "P 2"
_symmetry_group_IT_number 3
_symmetry_cell_setting 'monoclinic'
loop_
_space_group_symop_operation_xyz
x,y,z
-x,y,-z
loop_
_atom_site_type_symbol
_atom_site_label
_atom_site_fract_x
_atom_site_fract_y
_atom_site_fract_z
Si Si1 0.108563 0.343120 0.276118
Si Si2 0.946486 0.396263 0.352139
Si Si3 0.411210 0.583753 0.998594
Si Si4 0.754442 0.938110 0.004523
Si Si5 0.742940 0.656353 0.728547
Si Si6 0.403241 0.172870 0.543756
Si Si7 0.139199 0.916289 0.631784
O O1 0.236207 0.585473 0.318515
O O2 0.310278 0.203713 0.431951
O O3 0.871881 0.440675 0.174753
O O4 0.943195 0.169969 0.138515
O O5 0.168972 0.284997 0.443210
O O6 0.648105 0.382369 0.153128
O O7 0.935185 0.696844 0.368602
O O8 0.968253 0.197446 0.410915
O O9 0.340394 0.772900 0.002581
O O10 0.500000 0.726115 0.000000
O O11 0.460038 0.976482 0.809203
O O12 0.958184 0.771777 0.088191
O O13 0.651261 0.376382 0.697800
O O14 0.517883 0.873078 0.613089
O O15 0.000000 0.830649 0.500000
#
# Coordination Sequence:
#
# PCOD9112924 Si02
#       7
#     2   2   2   2   2   2   2
#     4  11  22  36  58  88 132 176 216 245 297 370
#     4  11  23  42  63  97 126 162 204 257 332 373
#     4  10  20  36  56  92 130 169 204 255 315 378
#     4  10  23  39  63  87 127 165 218 257 308 373
#     4  11  25  39  56  90 130 178 218 242 294 363
#     4  12  25  37  62  88 138 173 208 254 292 375
#     4  11  24  45  72  95 119 153 211 277 331 380
#
# _framework density 21.048376999999999
#
# number of rings (size 3 to 8) (size 9 to 14) (size 15 to 20)
#    0.000    1.143    4.286    1.714    6.000    2.857 
#    0.000    0.000    0.000    5.143    0.000    0.000 
#    0.000    0.000    0.000    0.000    0.000    0.000 
#
# Total GULP energy -77968.151850 kJ/mol
# GULP energy per Si atom -5569.153704 kJ/mol
# Density = 2.100047 g / cm^3
# Si number density = 21.048377 Si / 1000 Ang^3
#
#
#
# Elastic Constant Matrix: (Units=GPa)
#
#
# Indices 1 2 3 4 5 6 
#
# 1 45.7516 5.4357 30.2688 0.0000 13.7402 0.0000
# 2 5.4357 83.1407 15.0533 0.0000 12.6906 0.0000
# 3 30.2688 15.0533 76.6008 0.0000 17.1225 0.0000
# 4 0.0000 0.0000 0.0000 27.2037 0.0000 12.0848
# 5 13.7402 12.6906 17.1225 0.0000 33.4466 0.0000
# 6 0.0000 0.0000 0.0000 12.0848 0.0000 23.3411
#
#
#
# Elastic Compliance Matrix: (Units=1/GPa)
#
#
# Indices 1 2 3 4 5 6 
#
# 1 0.031198 0.001094 -0.010824 0.000000 -0.007690 0.000000
# 2 0.001094 0.012984 -0.002012 0.000000 -0.004346 0.000000
# 3 -0.010824 -0.002012 0.018703 0.000000 -0.004365 0.000000
# 4 0.000000 0.000000 0.000000 0.047740 0.000000 -0.024717
# 5 -0.007690 -0.004346 -0.004365 0.000000 0.036941 0.000000
# 6 0.000000 0.000000 0.000000 -0.024717 0.000000 0.055640
#
#
# Mechanical properties :
#
#
# Convention : Reuss Voigt Hill
#
# Bulk Modulus (GPa) = 25.38082 34.11207 29.74645
# Shear Modulus (GPa) = 20.84872 27.11397 23.98134
#
# Velocity S-wave (km/s) = 3.15066 3.59301 3.37908
# Velocity P-wave (km/s) = 5.03190 5.78400 5.42101
#
# Compressibility (1/GPa) = 0.03939983
#
# Stress axis : x y z
#
# Youngs Moduli (GPa) = 32.05373 77.01806 53.46802
#
# Poissons Ratio (x) = -0.08425 0.57872
# Poissons Ratio (y) = -0.03506 0.10760
# Poissons Ratio (z) = 0.34694 0.15499
#
# Static dielectric constant tensor:
#      x y z
#    x 1.759300 0.000000 0.033850 
#    y 0.000000 1.825520 0.000000 
#    z 0.033850 0.000000 1.851170 
# 
# From -- ./inp_files/16541.got.cif
#   From: 2010.05.17/outbox.cif.g08.bks.cpg/sg3_9_cif.got.tgz:16541.got - 2010.06.03 18:33:08.
