data_PCOD9112166
_publ_section_title
;
Structure prediction by ZEFSAII (Michael W. Deem and Ramdas Pophale) SiO2 
 PCOD9112166
Probable space group: P -1
;
_chemical_formula_sum "Si O2"
_cell_formula_units_Z 13
_cell_length_a 15.306277
_cell_length_b 9.767988
_cell_length_c 7.024019
_cell_angle_alpha 122.299585
_cell_angle_beta 45.670656
_cell_angle_gamma 119.889366
_cell_volume 621.281559
_symmetry_space_group_name_H-M "P -1"
_symmetry_group_IT_number 2
_symmetry_cell_setting 'triclinic'
loop_
_space_group_symop_operation_xyz
x,y,z
-x,-y,-z
loop_
_atom_site_type_symbol
_atom_site_label
_atom_site_fract_x
_atom_site_fract_y
_atom_site_fract_z
Si Si1 0.307643 0.393835 0.328473
Si Si2 0.569454 0.316494 0.910153
Si Si3 0.892660 0.520696 0.031362
Si Si4 0.220782 0.785574 0.275030
Si Si5 0.773246 0.978552 0.904326
Si Si6 0.948679 0.143355 0.080955
Si Si7 0.500000 0.000000 0.500000
O O1 0.346168 0.518685 0.187035
O O2 0.230871 0.474885 0.657357
O O3 0.228521 0.216159 0.251999
O O4 0.436386 0.359148 0.193948
O O5 0.642564 0.251449 0.922097
O O6 0.543699 0.173828 0.684218
O O7 0.863146 0.371027 0.818014
O O8 0.000000 0.500000 0.000000
O O9 0.942554 0.696013 0.986656
O O10 0.159608 0.812107 0.588875
O O11 0.227319 0.942517 0.245259
O O12 0.646691 0.001049 0.217489
O O13 0.889689 0.077103 0.919936
O O14 0.000000 0.000000 0.000000
#
# Coordination Sequence:
#
# PCOD9112166 Si02
#       7
#     2   2   2   2   2   2   1
#     4  10  24  43  68 101 136 177 214 287 334 391
#     4  10  22  44  70 102 132 172 230 276 340 393
#     4  12  25  44  68  97 140 180 223 272 331 400
#     4  12  25  45  72  99 130 184 226 273 337 399
#     4  11  24  45  69  99 140 171 225 280 333 396
#     4  12  27  44  67 102 135 180 224 278 331 401
#     4  10  20  44  72  96 132 172 218 280 328 400
#
# _framework density 20.924489000000001
#
# number of rings (size 3 to 8) (size 9 to 14) (size 15 to 20)
#    0.000    0.923    3.077    3.231    4.308    4.308 
#    2.769    0.000    0.000    0.000    0.000    0.000 
#    0.000    0.000    0.000    0.000    0.000    0.000 
#
# Total GULP energy -72483.383797 kJ/mol
# GULP energy per Si atom -5575.644907 kJ/mol
# Density = 2.087686 g / cm^3
# Si number density = 20.924489 Si / 1000 Ang^3
#
#
#
# Elastic Constant Matrix: (Units=GPa)
#
#
# Indices 1 2 3 4 5 6 
#
# 1 63.6717 31.5096 14.3795 7.8990 9.6021 -3.0934
# 2 31.5096 117.0128 -3.4126 8.4440 15.4888 16.1766
# 3 14.3795 -3.4126 47.4394 1.1643 -2.2568 -3.5885
# 4 7.8990 8.4440 1.1643 18.8443 3.3952 -0.8695
# 5 9.6021 15.4888 -2.2568 3.3952 21.3763 4.2788
# 6 -3.0934 16.1766 -3.5885 -0.8695 4.2788 32.2596
#
#
#
# Elastic Compliance Matrix: (Units=1/GPa)
#
#
# Indices 1 2 3 4 5 6 
#
# 1 0.021829 -0.005509 -0.006848 -0.004819 -0.006744 0.004859
# 2 -0.005509 0.011603 0.001940 -0.002514 -0.004200 -0.005642
# 3 -0.006848 0.001940 0.023527 -0.000169 0.004093 0.000440
# 4 -0.004819 -0.002514 -0.000169 0.057406 -0.005768 0.003092
# 5 -0.006744 -0.004200 0.004093 -0.005768 0.055318 -0.005578
# 6 0.004859 -0.005642 0.000440 0.003092 -0.005578 0.035166
#
#
# Mechanical properties :
#
#
# Convention : Reuss Voigt Hill
#
# Bulk Modulus (GPa) = 27.68190 34.78631 31.23410
# Shear Modulus (GPa) = 21.03265 26.87253 23.95259
#
# Velocity S-wave (km/s) = 3.17388 3.58755 3.38704
# Velocity P-wave (km/s) = 5.16619 5.81562 5.50050
#
# Compressibility (1/GPa) = 0.03612468
#
# Stress axis : x y z
#
# Youngs Moduli (GPa) = 45.80962 86.18132 42.50435
#
# Poissons Ratio (x) = 0.47480 0.29107
# Poissons Ratio (y) = 0.25238 -0.08245
# Poissons Ratio (z) = 0.31371 -0.16717
#
# Static dielectric constant tensor:
#      x y z
#    x 1.746180 -0.013950 -0.008140 
#    y -0.013950 1.751280 -0.020490 
#    z -0.008140 -0.020490 1.743760 
# 
# From -- ./inp_files/23060.got.cif
#   From: 2010.05.17/outbox.cif.g08.bks.cpg/sg2_12_cif.got.tgz:23060.got - 2010.06.03 11:33:40.
