data_PCOD9112535
_publ_section_title
;
Structure prediction by ZEFSAII (Michael W. Deem and Ramdas Pophale) SiO2 
 PCOD9112535
Probable space group: P 2
;
_chemical_formula_sum "Si O2"
_cell_formula_units_Z 16
_cell_length_a 7.168226
_cell_length_b 13.049004
_cell_length_c 9.154966
_cell_angle_alpha 90.000000
_cell_angle_beta 124.665022
_cell_angle_gamma 90.000000
_cell_volume 704.331589
_symmetry_space_group_name_H-M "P 2"
_symmetry_group_IT_number 3
_symmetry_cell_setting 'monoclinic'
loop_
_space_group_symop_operation_xyz
x,y,z
-x,y,-z
loop_
_atom_site_type_symbol
_atom_site_label
_atom_site_fract_x
_atom_site_fract_y
_atom_site_fract_z
Si Si1 0.734093 0.695770 0.439265
Si Si2 0.703137 0.867689 0.204753
Si Si3 0.759714 0.275738 0.055598
Si Si4 0.497111 0.257510 0.671358
Si Si5 0.259065 0.472127 0.553530
Si Si6 0.712141 0.097576 0.207280
Si Si7 0.989088 0.712072 0.821262
Si Si8 0.988573 0.487339 0.167855
O O1 0.639000 0.794153 0.312421
O O2 0.639503 0.582835 0.358283
O O3 0.755509 0.705571 0.624722
O O4 0.000000 0.693251 0.500000
O O5 0.893336 0.808445 0.198883
O O6 0.780788 0.982675 0.277744
O O7 0.500000 0.871318 0.000000
O O8 0.731868 0.262361 0.868655
O O9 0.500000 0.278628 0.000000
O O10 0.867688 0.177152 0.184317
O O11 0.857010 0.384148 0.143850
O O12 0.500000 0.244123 0.500000
O O13 0.383018 0.368294 0.649775
O O14 0.362887 0.163233 0.685787
O O15 0.000000 0.468773 0.500000
O O16 0.221228 0.475612 0.361272
O O17 0.500000 0.082464 0.000000
O O18 0.103062 0.600926 0.835869
O O19 0.000000 0.721861 0.000000
O O20 0.000000 0.488558 0.000000
#
# Coordination Sequence:
#
# PCOD9112535 Si02
#       8
#     2   2   2   2   2   2   2   2
#     4   8  17  33  51  73 105 137 162 198 252 302
#     4  10  19  35  56  73  94 132 179 212 239 291
#     4   9  18  33  51  71 100 133 165 198 239 295
#     4  10  19  32  52  75 100 128 161 203 248 291
#     4  10  18  31  50  75 104 130 160 199 243 295
#     4   8  18  35  51  69  98 132 165 204 249 288
#     4   9  19  35  53  74 104 135 160 201 260 301
#     4  10  19  32  50  74 105 133 157 195 250 301
#
# _framework density 22.716573
#
# number of rings (size 3 to 8) (size 9 to 14) (size 15 to 20)
#    0.000    3.000    0.000    3.000    0.000    1.500 
#    0.000   11.250    0.000    0.000    0.000    0.000 
#    0.000    0.000    0.000    0.000    0.000    0.000 
#
# Total GULP energy -89165.544307 kJ/mol
# GULP energy per Si atom -5572.846519 kJ/mol
# Density = 2.266487 g / cm^3
# Si number density = 22.716573 Si / 1000 Ang^3
#
#
#
# Elastic Constant Matrix: (Units=GPa)
#
#
# Indices 1 2 3 4 5 6 
#
# 1 27.8270 41.3509 23.5957 0.0000 -11.0837 0.0000
# 2 41.3509 270.3545 71.5751 0.0000 -13.8735 0.0000
# 3 23.5957 71.5751 146.6680 0.0000 -38.7598 0.0000
# 4 0.0000 0.0000 0.0000 300.5334 0.0000 152.3520
# 5 -11.0837 -13.8735 -38.7598 0.0000 33.4671 0.0000
# 6 0.0000 0.0000 0.0000 152.3520 0.0000 103.5577
#
#
#
# Elastic Compliance Matrix: (Units=1/GPa)
#
#
# Indices 1 2 3 4 5 6 
#
# 1 0.052778 -0.006957 -0.001785 0.000000 0.012528 0.000000
# 2 -0.006957 0.005185 -0.002092 0.000000 -0.002578 0.000000
# 3 -0.001785 -0.002092 0.011155 0.000000 0.011461 0.000000
# 4 0.000000 0.000000 0.000000 0.013090 0.000000 -0.019257
# 5 0.012528 -0.002578 0.011461 0.000000 0.046233 0.000000
# 6 0.000000 0.000000 0.000000 -0.019257 0.000000 0.037987
#
#
# Mechanical properties :
#
#
# Convention : Reuss Voigt Hill
#
# Bulk Modulus (GPa) = 21.07518 79.76587 50.42053
# Shear Modulus (GPa) = 24.52031 108.06681 66.29356
#
# Velocity S-wave (km/s) = 3.28899 6.90471 5.40798
# Velocity P-wave (km/s) = 4.87041 9.93763 7.82551
#
# Compressibility (1/GPa) = 0.04744917
#
# Stress axis : x y z
#
# Youngs Moduli (GPa) = 18.94729 192.88232 89.64655
#
# Poissons Ratio (x) = 1.34188 0.16003
# Poissons Ratio (y) = 0.13182 0.18755
# Poissons Ratio (z) = 0.03382 0.40352
#
# Static dielectric constant tensor:
#      x y z
#    x 1.096230 0.000000 -0.768460 
#    y 0.000000 1.872020 0.000000 
#    z -0.768460 0.000000 1.292480 
# 
# From -- ./inp_files/6030.got.cif
#   From: 2010.05.17/outbox.cif.g08.bks.cpg/sg3_4_cif.got.tgz:6030.got - 2010.06.03 18:33:08.
