data_PCOD9112901
_publ_section_title
;
Structure prediction by ZEFSAII (Michael W. Deem and Ramdas Pophale) SiO2 
 PCOD9112901
Probable space group: P 2
;
_chemical_formula_sum "Si O2"
_cell_formula_units_Z 15
_cell_length_a 5.349480
_cell_length_b 10.469098
_cell_length_c 13.063356
_cell_angle_alpha 90.000000
_cell_angle_beta 73.827181
_cell_angle_gamma 90.000000
_cell_volume 702.650683
_symmetry_space_group_name_H-M "P 2"
_symmetry_group_IT_number 3
_symmetry_cell_setting 'monoclinic'
loop_
_space_group_symop_operation_xyz
x,y,z
-x,y,-z
loop_
_atom_site_type_symbol
_atom_site_label
_atom_site_fract_x
_atom_site_fract_y
_atom_site_fract_z
Si Si1 0.000000 0.186940 0.000000
Si Si2 0.352133 0.161077 0.297435
Si Si3 0.682542 0.408292 0.613491
Si Si4 0.551178 0.345913 0.107941
Si Si5 0.408988 0.642839 0.120076
Si Si6 0.078344 0.035325 0.784335
Si Si7 0.182044 0.520775 0.623760
Si Si8 0.165674 0.734256 0.770415
O O1 0.840571 0.293174 0.085836
O O2 0.033403 0.087020 0.092943
O O3 0.291778 0.255637 0.399146
O O4 0.379857 0.269260 0.206799
O O5 0.631107 0.091921 0.269049
O O6 0.118897 0.074496 0.284037
O O7 0.383660 0.442303 0.670958
O O8 0.743756 0.481013 0.500044
O O9 0.889480 0.471155 0.665811
O O10 0.494860 0.494549 0.112570
O O11 0.500000 0.291734 0.000000
O O12 0.579557 0.707720 0.189913
O O13 0.098973 0.663877 0.161485
O O14 0.500000 0.696015 0.000000
O O15 0.106440 0.883146 0.779697
O O16 0.209405 0.666827 0.654798
#
# Coordination Sequence:
#
# PCOD9112901 Si02
#       8
#     1   2   2   2   2   2   2   2
#     4  10  22  38  56  82 128 172 220 254 318 364
#     4  11  21  39  61  93 121 168 213 261 322 379
#     4  10  21  39  68  99 124 152 217 278 343 389
#     4  10  20  35  57  84 121 157 212 263 319 361
#     4  11  26  38  62  92 128 170 220 282 318 364
#     4  11  25  38  62  86 130 182 212 257 300 396
#     4  10  21  39  68  97 124 165 205 279 337 391
#     4  12  24  44  60  93 131 178 223 258 322 398
#
# _framework density 21.347733999999999
#
# number of rings (size 3 to 8) (size 9 to 14) (size 15 to 20)
#    0.000    1.333    1.333    4.400    5.600    1.067 
#    0.000    0.000    0.000   19.200    0.000    0.000 
#    0.000    0.000    0.000    0.000    0.000    0.000 
#
# Total GULP energy -83522.335826 kJ/mol
# GULP energy per Si atom -5568.155722 kJ/mol
# Density = 2.129915 g / cm^3
# Si number density = 21.347734 Si / 1000 Ang^3
#
#
#
# Elastic Constant Matrix: (Units=GPa)
#
#
# Indices 1 2 3 4 5 6 
#
# 1 120.6149 11.7151 -1.9716 0.0000 7.9107 0.0000
# 2 11.7151 117.5336 12.7335 0.0000 1.2693 0.0000
# 3 -1.9716 12.7335 66.4138 0.0000 -1.6210 0.0000
# 4 0.0000 0.0000 0.0000 33.7126 0.0000 -3.7104
# 5 7.9107 1.2693 -1.6210 0.0000 9.9136 0.0000
# 6 0.0000 0.0000 0.0000 -3.7104 0.0000 42.7124
#
#
#
# Elastic Compliance Matrix: (Units=1/GPa)
#
#
# Indices 1 2 3 4 5 6 
#
# 1 0.008828 -0.000833 0.000253 0.000000 -0.006897 0.000000
# 2 -0.000833 0.008786 -0.001727 0.000000 -0.000743 0.000000
# 3 0.000253 -0.001727 0.015458 0.000000 0.002546 0.000000
# 4 0.000000 0.000000 0.000000 0.029949 0.000000 0.002602
# 5 -0.006897 -0.000743 0.002546 0.000000 0.106886 0.000000
# 6 0.000000 0.000000 0.000000 0.002602 0.000000 0.023638
#
#
# Mechanical properties :
#
#
# Convention : Reuss Voigt Hill
#
# Bulk Modulus (GPa) = 35.13862 38.83514 36.98688
# Shear Modulus (GPa) = 24.07943 36.07340 30.07641
#
# Velocity S-wave (km/s) = 3.36216 4.11518 3.75758
# Velocity P-wave (km/s) = 5.61854 6.38833 6.01576
#
# Compressibility (1/GPa) = 0.02845871
#
# Stress axis : x y z
#
# Youngs Moduli (GPa) = 113.27316 113.81225 64.69148
#
# Poissons Ratio (x) = 0.09480 -0.01640
# Poissons Ratio (y) = 0.09435 0.11175
# Poissons Ratio (z) = -0.02871 0.19661
#
# Static dielectric constant tensor:
#      x y z
#    x 1.384040 0.000000 0.062760 
#    y 0.000000 1.758490 0.000000 
#    z 0.062760 0.000000 1.201390 
# 
# From -- ./inp_files/13006.got.cif
#   From: 2010.05.17/outbox.cif.g08.bks.cpg/sg3_7_cif.got.tgz:13006.got - 2010.06.03 18:33:08.
