data_PCOD9112059
_publ_section_title
;
Structure prediction by ZEFSAII (Michael W. Deem and Ramdas Pophale) SiO2 
 PCOD9112059
Probable space group: P -1
;
_chemical_formula_sum "Si O2"
_cell_formula_units_Z 16
_cell_length_a 13.554565
_cell_length_b 11.394328
_cell_length_c 8.002232
_cell_angle_alpha 83.823254
_cell_angle_beta 106.464125
_cell_angle_gamma 39.904089
_cell_volume 645.565979
_symmetry_space_group_name_H-M "P -1"
_symmetry_group_IT_number 2
_symmetry_cell_setting 'triclinic'
loop_
_space_group_symop_operation_xyz
x,y,z
-x,-y,-z
loop_
_atom_site_type_symbol
_atom_site_label
_atom_site_fract_x
_atom_site_fract_y
_atom_site_fract_z
Si Si1 0.979351 0.621294 0.106326
Si Si2 0.074815 0.076958 0.046291
Si Si3 0.872001 0.771500 0.388972
Si Si4 0.813671 0.220074 0.637735
Si Si5 0.343745 0.212762 0.502098
Si Si6 0.692498 0.416628 0.014038
Si Si7 0.698742 0.189464 0.288690
Si Si8 0.699530 0.549237 0.331424
O O1 0.198368 0.432050 0.290698
O O2 0.876710 0.702282 0.221928
O O3 0.877070 0.833250 0.949265
O O4 0.000000 0.500000 0.000000
O O5 0.891370 0.247586 0.051204
O O6 0.990261 0.118728 0.820679
O O7 0.224056 0.839773 0.224231
O O8 0.783195 0.768228 0.479969
O O9 0.085305 0.608841 0.551430
O O10 0.754681 0.004535 0.297189
O O11 0.835192 0.112909 0.505781
O O12 0.692779 0.442303 0.468378
O O13 0.414318 0.232919 0.677933
O O14 0.500000 0.000000 0.500000
O O15 0.693996 0.286754 0.120191
O O16 0.653957 0.545356 0.126876
O O17 0.515428 0.601210 0.778472
#
# Coordination Sequence:
#
# PCOD9112059 Si02
#       8
#     2   2   2   2   2   2   2   2
#     4  11  26  44  66 101 134 172 229 273 320 400
#     4  11  22  38  66 100 132 171 225 270 329 385
#     4  11  23  43  70  93 134 176 223 270 331 394
#     4  10  21  39  66  98 133 172 218 280 320 398
#     4  11  26  45  67  97 133 176 222 274 338 392
#     4  10  23  38  67  95 137 174 216 274 335 399
#     4  10  23  41  61 100 133 178 217 268 344 391
#     4  10  20  44  68  96 131 177 224 270 331 393
#
# _framework density 24.784454
#
# number of rings (size 3 to 8) (size 9 to 14) (size 15 to 20)
#    0.000    1.500    2.500    3.000    8.750    3.500 
#    0.000    3.750    0.000    0.000    0.000    0.000 
#    0.000    0.000    0.000    0.000    0.000    0.000 
#
# Total GULP energy -89416.310382 kJ/mol
# GULP energy per Si atom -5588.519399 kJ/mol
# Density = 2.472804 g / cm^3
# Si number density = 24.784454 Si / 1000 Ang^3
#
#
#
# Elastic Constant Matrix: (Units=GPa)
#
#
# Indices 1 2 3 4 5 6 
#
# 1 102.6223 54.0171 31.0694 -5.8249 -12.8140 12.5587
# 2 54.0171 174.9721 39.0655 14.9671 6.1225 20.4726
# 3 31.0694 39.0655 77.8099 13.2992 5.3847 0.7390
# 4 -5.8249 14.9671 13.2992 35.0385 9.6301 10.2041
# 5 -12.8140 6.1225 5.3847 9.6301 25.3083 1.2031
# 6 12.5587 20.4726 0.7390 10.2041 1.2031 45.4562
#
#
#
# Elastic Compliance Matrix: (Units=1/GPa)
#
#
# Indices 1 2 3 4 5 6 
#
# 1 0.015129 -0.003701 -0.005574 0.005122 0.007972 -0.003784
# 2 -0.003701 0.007762 -0.001893 -0.001958 -0.002512 -0.001937
# 3 -0.005574 -0.001893 0.017409 -0.006809 -0.003655 0.003735
# 4 0.005122 -0.001958 -0.006809 0.037959 -0.009514 -0.008692
# 5 0.007972 -0.002512 -0.003655 -0.009514 0.048562 -0.000162
# 6 -0.003784 -0.001937 0.003735 -0.008692 -0.000162 0.025812
#
#
# Mechanical properties :
#
#
# Convention : Reuss Voigt Hill
#
# Bulk Modulus (GPa) = 55.66244 67.07871 61.37057
# Shear Modulus (GPa) = 27.63086 36.57742 32.10414
#
# Velocity S-wave (km/s) = 3.34255 3.84581 3.60298
# Velocity P-wave (km/s) = 6.11590 6.84426 6.49031
#
# Compressibility (1/GPa) = 0.01796544
#
# Stress axis : x y z
#
# Youngs Moduli (GPa) = 66.09719 128.83022 57.44083
#
# Poissons Ratio (x) = 0.47674 0.32020
# Poissons Ratio (y) = 0.24459 0.10871
# Poissons Ratio (z) = 0.36846 0.24382
#
# Static dielectric constant tensor:
#      x y z
#    x 1.993740 -0.031620 0.015240 
#    y -0.031620 1.991640 -0.001320 
#    z 0.015240 -0.001320 2.030850 
# 
# From -- ./inp_files/307609.got.cif
#   From: 2010.05.17/outbox.cif.g08.bks.cpg/sg2_154_cif.got.tgz:307609.got - 2010.06.03 11:33:40.
