data_PCOD9112516
_publ_section_title
;
Structure prediction by ZEFSAII (Michael W. Deem and Ramdas Pophale) SiO2 
 PCOD9112516
Probable space group: P 2
;
_chemical_formula_sum "Si O2"
_cell_formula_units_Z 14
_cell_length_a 7.557899
_cell_length_b 16.822181
_cell_length_c 9.184340
_cell_angle_alpha 90.000000
_cell_angle_beta 146.610498
_cell_angle_gamma 90.000000
_cell_volume 642.617818
_symmetry_space_group_name_H-M "P 2"
_symmetry_group_IT_number 3
_symmetry_cell_setting 'monoclinic'
loop_
_space_group_symop_operation_xyz
x,y,z
-x,y,-z
loop_
_atom_site_type_symbol
_atom_site_label
_atom_site_fract_x
_atom_site_fract_y
_atom_site_fract_z
Si Si1 0.762502 0.286150 0.046470
Si Si2 0.883659 0.445257 0.256418
Si Si3 0.737249 0.201246 0.452188
Si Si4 0.114451 0.622177 0.741684
Si Si5 0.663812 0.866058 0.354552
Si Si6 0.616886 0.038901 0.247366
Si Si7 0.039860 0.780610 0.855775
O O1 0.930344 0.371523 0.180211
O O2 0.034989 0.219456 0.255730
O O3 0.500000 0.281615 0.000000
O O4 0.535747 0.267815 0.755194
O O5 0.008021 0.533219 0.303296
O O6 0.000000 0.424569 0.500000
O O7 0.500000 0.453984 0.000000
O O8 0.565966 0.116620 0.311225
O O9 0.000000 0.206511 0.500000
O O10 0.000000 0.639940 0.500000
O O11 0.500000 0.622076 0.000000
O O12 0.003361 0.691724 0.770867
O O13 0.406887 0.811064 0.095940
O O14 0.000000 0.865523 0.500000
O O15 0.514361 0.954823 0.245137
O O16 0.784742 0.834439 0.593378
O O17 0.000000 0.033331 0.500000
O O18 0.500000 0.049046 0.000000
O O19 0.000000 0.784188 0.000000
#
# Coordination Sequence:
#
# PCOD9112516 Si02
#       7
#     2   2   2   2   2   2   2
#     4   9  14  21  34  55  89 128 159 192 242 295
#     4   9  16  25  39  62  90 125 165 199 236 293
#     4   9  15  22  35  58  92 129 158 192 244 296
#     4  10  20  34  53  74 100 135 173 209 252 309
#     4  11  22  38  58  78 104 141 178 214 260 316
#     4  10  18  28  44  69  97 130 171 208 245 299
#     4  12  24  38  56  80 107 134 173 222 270 314
#
# _framework density 21.785889999999998
#
# number of rings (size 3 to 8) (size 9 to 14) (size 15 to 20)
#    0.000    2.000    0.000    9.000    0.000    0.000 
#    0.000    0.000    0.000    0.000    0.000    0.000 
#    0.000    6.857    0.000    0.714    0.000    0.429 
#
# Total GULP energy -78074.186697 kJ/mol
# GULP energy per Si atom -5576.727621 kJ/mol
# Density = 2.173630 g / cm^3
# Si number density = 21.785890 Si / 1000 Ang^3
#
#
#
# Elastic Constant Matrix: (Units=GPa)
#
#
# Indices 1 2 3 4 5 6 
#
# 1 33.8257 18.5609 15.4367 0.0000 -12.3484 0.0000
# 2 18.5609 157.8305 43.5211 0.0000 -12.7088 0.0000
# 3 15.4367 43.5211 144.3462 0.0000 -2.3200 0.0000
# 4 0.0000 0.0000 0.0000 35.8427 0.0000 -1.2288
# 5 -12.3484 -12.7088 -2.3200 0.0000 16.9790 0.0000
# 6 0.0000 0.0000 0.0000 -1.2288 0.0000 -8.1335
#
#
#
# Elastic Compliance Matrix: (Units=1/GPa)
#
#
# Indices 1 2 3 4 5 6 
#
# 1 0.042874 -0.001678 -0.003606 0.000000 0.029433 0.000000
# 2 -0.001678 0.007408 -0.001989 0.000000 0.004053 0.000000
# 3 -0.003606 -0.001989 0.007864 0.000000 -0.003037 0.000000
# 4 0.000000 0.000000 0.000000 0.027756 0.000000 -0.004193
# 5 0.029433 0.004053 -0.003037 0.000000 0.082921 0.000000
# 6 0.000000 0.000000 0.000000 -0.004193 0.000000 -0.122315
#
#
# Mechanical properties :
#
#
# Convention : Reuss Voigt Hill
#
# Bulk Modulus (GPa) = 22.93518 54.55998 38.74758
# Shear Modulus (GPa) = 66.14749 26.16989 46.15869
#
# Velocity S-wave (km/s) = 5.51620 3.46964 4.60797
# Velocity P-wave (km/s) = 7.14994 6.41477 6.79231
#
# Compressibility (1/GPa) = 0.04360113
#
# Stress axis : x y z
#
# Youngs Moduli (GPa) = 23.32390 134.98880 127.15649
#
# Poissons Ratio (x) = 0.22646 0.45855
# Poissons Ratio (y) = 0.03913 0.25291
# Poissons Ratio (z) = 0.08411 0.26849
#
# Static dielectric constant tensor:
#      x y z
#    x 1.814760 0.000000 0.005210 
#    y 0.000000 1.912630 0.000000 
#    z 0.005210 0.000000 1.748070 
# 
# From -- ./inp_files/6244.got.cif
#   From: 2010.05.17/outbox.cif.g08.bks.cpg/sg3_4_cif.got.tgz:6244.got - 2010.06.03 18:33:08.
