data_PCOD9112457
_publ_section_title
;
Structure prediction by ZEFSAII (Michael W. Deem and Ramdas Pophale) SiO2 
 PCOD9112457
Probable space group: P 2
;
_chemical_formula_sum "Si O2"
_cell_formula_units_Z 6
_cell_length_a 6.650889
_cell_length_b 6.958351
_cell_length_c 9.299067
_cell_angle_alpha 90.000000
_cell_angle_beta 29.147435
_cell_angle_gamma 90.000000
_cell_volume 209.607410
_symmetry_space_group_name_H-M "P 2"
_symmetry_group_IT_number 3
_symmetry_cell_setting 'monoclinic'
loop_
_space_group_symop_operation_xyz
x,y,z
-x,y,-z
loop_
_atom_site_type_symbol
_atom_site_label
_atom_site_fract_x
_atom_site_fract_y
_atom_site_fract_z
Si Si1 0.519529 0.779880 0.322967
Si Si2 0.806410 0.388607 0.445930
Si Si3 0.316849 0.138034 0.937337
O O1 0.500000 0.863403 0.500000
O O2 0.163287 0.617351 0.550765
O O3 0.473594 0.933832 0.222961
O O4 0.000000 0.703302 0.000000
O O5 0.500000 0.390748 0.500000
O O6 0.584700 0.322454 0.728564
O O7 0.909281 0.207421 0.778513
O O8 0.000000 0.130639 0.000000
#
# Coordination Sequence:
#
# PCOD9112457 Si02
#       3
#     2   2   2
#     4  10  16  22  30  36  42  50  56  62  70  76
#     4   9  15  21  27  34  41  47  54  61  67  74
#     4   9  15  21  27  34  41  47  54  61  67  74
#
# _framework density 28.624941
#
# number of rings (size 3 to 8) (size 9 to 14) (size 15 to 20)
#    0.000    2.667    0.000   10.000    0.000    0.000 
#    0.000    0.000    0.000    0.000    0.000    0.000 
#    0.000    0.000    0.000    0.000    0.000    0.000 
#
# Total GULP energy -33435.925069 kJ/mol
# GULP energy per Si atom -5572.654178 kJ/mol
# Density = 2.855979 g / cm^3
# Si number density = 28.624941 Si / 1000 Ang^3
#
#
#
# Elastic Constant Matrix: (Units=GPa)
#
#
# Indices 1 2 3 4 5 6 
#
# 1 100.4192 17.4612 3.8718 0.0000 30.7122 0.0000
# 2 17.4612 228.7580 45.1818 0.0000 25.5218 0.0000
# 3 3.8718 45.1818 82.5733 0.0000 31.4600 0.0000
# 4 0.0000 0.0000 0.0000 50.1001 0.0000 57.7351
# 5 30.7122 25.5218 31.4600 0.0000 71.9786 0.0000
# 6 0.0000 0.0000 0.0000 57.7351 0.0000 -116.9440
#
#
#
# Elastic Compliance Matrix: (Units=1/GPa)
#
#
# Indices 1 2 3 4 5 6 
#
# 1 0.011715 -0.000652 0.001948 0.000000 -0.005619 0.000000
# 2 -0.000652 0.004965 -0.002545 0.000000 -0.000370 0.000000
# 3 0.001948 -0.002545 0.016059 0.000000 -0.006948 0.000000
# 4 0.000000 0.000000 0.000000 0.012722 0.000000 0.006281
# 5 -0.005619 -0.000370 -0.006948 0.000000 0.019458 0.000000
# 6 0.000000 0.000000 0.000000 0.006281 0.000000 -0.005450
#
#
# Mechanical properties :
#
#
# Convention : Reuss Voigt Hill
#
# Bulk Modulus (GPa) = 33.06793 60.53113 46.79953
# Shear Modulus (GPa) = 69.39833 24.04266 46.72049
#
# Velocity S-wave (km/s) = 4.92916 2.90128 4.04438
# Velocity P-wave (km/s) = 6.63119 5.69346 6.18014
#
# Compressibility (1/GPa) = 0.03024078
#
# Stress axis : x y z
#
# Youngs Moduli (GPa) = 85.36036 201.40198 62.27081
#
# Poissons Ratio (x) = 0.13134 -0.12132
# Poissons Ratio (y) = 0.05567 0.15850
# Poissons Ratio (z) = -0.16631 0.51264
#
# Static dielectric constant tensor:
#      x y z
#    x 2.354080 0.000000 -0.261430 
#    y 0.000000 2.273900 0.000000 
#    z -0.261430 0.000000 2.380380 
# 
# From -- ./inp_files/941.got.cif
#   From: 2010.05.17/outbox.cif.g08.bks.cpg/sg3_1_cif.got.tgz:941.got - 2010.06.03 18:33:08.
