data_PCOD9112434
_publ_section_title
;
Structure prediction by ZEFSAII (Michael W. Deem and Ramdas Pophale) SiO2 
 PCOD9112434
Probable space group: P -1
;
_chemical_formula_sum "Si O2"
_cell_formula_units_Z 16
_cell_length_a 8.500468
_cell_length_b 8.170146
_cell_length_c 16.809855
_cell_angle_alpha 118.736795
_cell_angle_beta 48.117406
_cell_angle_gamma 129.625866
_cell_volume 666.377476
_symmetry_space_group_name_H-M "P -1"
_symmetry_group_IT_number 2
_symmetry_cell_setting 'triclinic'
loop_
_space_group_symop_operation_xyz
x,y,z
-x,-y,-z
loop_
_atom_site_type_symbol
_atom_site_label
_atom_site_fract_x
_atom_site_fract_y
_atom_site_fract_z
Si Si1 0.728447 0.063981 0.732689
Si Si2 0.444382 0.791556 0.898521
Si Si3 0.557730 0.764465 0.475700
Si Si4 0.002419 0.803397 0.569953
Si Si5 0.542914 0.465897 0.714301
Si Si6 0.764193 0.913825 0.963644
Si Si7 0.303556 0.088360 0.830142
Si Si8 0.115435 0.423240 0.605840
O O1 0.473882 0.981496 0.755730
O O2 0.899950 0.314466 0.716607
O O3 0.663984 0.001541 0.831464
O O4 0.858785 0.933455 0.628982
O O5 0.403481 0.600019 0.809983
O O6 0.554429 0.767727 0.938794
O O7 0.236904 0.858018 0.988662
O O8 0.507636 0.643372 0.380058
O O9 0.303190 0.670631 0.585692
O O10 0.716451 0.681790 0.451634
O O11 0.725815 0.015674 0.463603
O O12 0.828555 0.640284 0.657485
O O13 0.001105 0.675522 0.462984
O O14 0.447792 0.286726 0.770662
O O15 0.028328 0.949349 0.862548
O O16 0.711162 0.845420 0.057726
#
# Coordination Sequence:
#
# PCOD9112434 Si02
#       8
#     2   2   2   2   2   2   2   2
#     4   9  17  32  57  83 112 150 178 236 275 325
#     4   9  19  37  61  83 107 145 201 229 271 332
#     4   9  17  31  54  87 112 144 184 237 269 311
#     4   9  18  35  59  83 116 148 194 232 265 319
#     4  10  21  32  57  87 112 146 187 229 276 339
#     4   9  20  39  61  80 109 152 182 239 286 332
#     4  10  21  35  56  83 119 145 178 230 302 336
#     4   9  17  31  59  85 112 147 198 229 264 321
#
# _framework density 24.010414000000001
#
# number of rings (size 3 to 8) (size 9 to 14) (size 15 to 20)
#    0.000    2.750    0.000    1.500    5.250    2.000 
#    0.000    2.500   33.000    3.750    0.000    0.000 
#    0.000    0.000    0.000    0.000    0.000    0.000 
#
# Total GULP energy -89311.737405 kJ/mol
# GULP energy per Si atom -5581.983588 kJ/mol
# Density = 2.395577 g / cm^3
# Si number density = 24.010414 Si / 1000 Ang^3
#
#
#
# Elastic Constant Matrix: (Units=GPa)
#
#
# Indices 1 2 3 4 5 6 
#
# 1 86.7888 25.9527 32.4845 0.2105 -16.3616 3.6888
# 2 25.9527 70.3224 30.3496 -8.6705 5.5549 7.4524
# 3 32.4845 30.3496 61.6593 -10.9465 -0.3082 0.3464
# 4 0.2105 -8.6705 -10.9465 23.3323 -3.0891 1.8016
# 5 -16.3616 5.5549 -0.3082 -3.0891 42.4460 -1.8779
# 6 3.6888 7.4524 0.3464 1.8016 -1.8779 31.6479
#
#
#
# Elastic Compliance Matrix: (Units=1/GPa)
#
#
# Indices 1 2 3 4 5 6 
#
# 1 0.016839 -0.003925 -0.007669 -0.004307 0.006621 -0.000316
# 2 -0.003925 0.020032 -0.007081 0.003973 -0.004103 -0.004652
# 3 -0.007669 -0.007081 0.025334 0.009045 -0.001112 0.001703
# 4 -0.004307 0.003973 0.009045 0.049042 0.001311 -0.003247
# 5 0.006621 -0.004103 -0.001112 0.001311 0.026812 0.001723
# 6 -0.000316 -0.004652 0.001703 -0.003247 0.001723 0.032998
#
#
# Mechanical properties :
#
#
# Convention : Reuss Voigt Hill
#
# Bulk Modulus (GPa) = 40.23417 44.03823 42.13620
# Shear Modulus (GPa) = 23.07419 28.15083 25.61251
#
# Velocity S-wave (km/s) = 3.10338 3.42781 3.26962
# Velocity P-wave (km/s) = 5.44377 5.83503 5.64279
#
# Compressibility (1/GPa) = 0.02485449
#
# Stress axis : x y z
#
# Youngs Moduli (GPa) = 59.38743 49.92081 39.47196
#
# Poissons Ratio (x) = 0.19595 0.30271
# Poissons Ratio (y) = 0.23310 0.27950
# Poissons Ratio (z) = 0.45544 0.35349
#
# Static dielectric constant tensor:
#      x y z
#    x 1.961070 -0.022110 -0.023300 
#    y -0.022110 1.955970 -0.013650 
#    z -0.023300 -0.013650 1.935970 
# 
# From -- ./inp_files/217181.got.cif
#   From: 2010.05.17/outbox.cif.g08.bks.cpg/sg2_109_cif.got.tgz:217181.got - 2010.06.03 11:33:40.
