data_PCOD9112304
_publ_section_title
;
Structure prediction by ZEFSAII (Michael W. Deem and Ramdas Pophale) SiO2 
 PCOD9112304
Probable space group: P -1
;
_chemical_formula_sum "Si O2"
_cell_formula_units_Z 15
_cell_length_a 9.817788
_cell_length_b 17.381254
_cell_length_c 9.818630
_cell_angle_alpha 148.358905
_cell_angle_beta 52.898790
_cell_angle_gamma 125.560935
_cell_volume 691.712657
_symmetry_space_group_name_H-M "P -1"
_symmetry_group_IT_number 2
_symmetry_cell_setting 'triclinic'
loop_
_space_group_symop_operation_xyz
x,y,z
-x,-y,-z
loop_
_atom_site_type_symbol
_atom_site_label
_atom_site_fract_x
_atom_site_fract_y
_atom_site_fract_z
Si Si1 0.824629 0.898281 0.399733
Si Si2 0.503571 0.043706 0.907871
Si Si3 0.933278 0.610559 0.006615
Si Si4 0.783531 0.321046 0.825285
Si Si5 0.843792 0.736015 0.868466
Si Si6 0.474181 0.329015 0.215563
Si Si7 0.000000 0.500000 0.500000
Si Si8 0.858307 0.108459 0.228394
O O1 0.824162 0.742986 0.245624
O O2 0.662491 0.979080 0.647484
O O3 0.826308 0.855595 0.174715
O O4 0.000000 0.000000 0.500000
O O5 0.320929 0.970493 0.843338
O O6 0.522124 0.219556 0.137580
O O7 0.500000 0.000000 0.000000
O O8 0.084910 0.661450 0.100946
O O9 0.822375 0.465790 0.923977
O O10 0.015777 0.569385 0.752703
O O11 0.818947 0.184624 0.506845
O O12 0.593552 0.306589 0.980418
O O13 0.720792 0.729542 0.804284
O O14 0.822277 0.572801 0.698232
O O15 0.045524 0.765223 0.743488
O O16 0.500000 0.500000 0.500000
O O17 0.000000 0.000000 0.000000
#
# Coordination Sequence:
#
# PCOD9112304 Si02
#       8
#     2   2   2   2   2   2   1   2
#     4  11  25  44  72 106 149 194 245 318 380 449
#     4  12  29  48  73 111 149 196 258 314 383 451
#     4  10  23  42  73 102 151 188 251 296 380 445
#     4  11  25  44  74 106 142 200 250 304 372 456
#     4  11  24  45  72 103 145 193 247 305 382 442
#     4  12  28  47  73 106 148 198 250 315 372 453
#     4  10  20  46  66 108 140 190 234 310 364 444
#     4  12  26  45  76 104 147 192 251 315 370 444
#
# _framework density 21.685303999999999
#
# number of rings (size 3 to 8) (size 9 to 14) (size 15 to 20)
#    0.000    0.800    2.667    3.200    9.333    4.267 
#    0.000    2.000    0.000    0.000    0.000    0.000 
#    0.000    0.000    0.000    0.000    0.000    0.000 
#
# Total GULP energy -83647.946193 kJ/mol
# GULP energy per Si atom -5576.529746 kJ/mol
# Density = 2.163595 g / cm^3
# Si number density = 21.685304 Si / 1000 Ang^3
#
#
#
# Elastic Constant Matrix: (Units=GPa)
#
#
# Indices 1 2 3 4 5 6 
#
# 1 116.0284 46.2839 69.3238 12.6827 -3.8240 -3.4588
# 2 46.2839 70.8160 55.8487 2.2163 3.3882 -1.5981
# 3 69.3238 55.8487 166.2052 -1.8276 -2.2401 -12.3399
# 4 12.6827 2.2163 -1.8276 36.4648 -6.5963 -3.7728
# 5 -3.8240 3.3882 -2.2401 -6.5963 39.3194 -5.2771
# 6 -3.4588 -1.5981 -12.3399 -3.7728 -5.2771 42.9155
#
#
#
# Elastic Compliance Matrix: (Units=1/GPa)
#
#
# Indices 1 2 3 4 5 6 
#
# 1 0.013765 -0.005871 -0.003846 -0.004533 0.000796 -0.000516
# 2 -0.005871 0.022135 -0.005146 -0.000265 -0.003020 -0.001523
# 3 -0.003846 -0.005146 0.009596 0.002664 0.001421 0.002667
# 4 -0.004533 -0.000265 0.002664 0.030504 0.005352 0.003731
# 5 0.000796 -0.003020 0.001421 0.005352 0.027311 0.004189
# 6 -0.000516 -0.001523 0.002667 0.003731 0.004189 0.024813
#
#
# Mechanical properties :
#
#
# Convention : Reuss Voigt Hill
#
# Bulk Modulus (GPa) = 63.40948 77.32915 70.36932
# Shear Modulus (GPa) = 30.65479 35.84615 33.25047
#
# Velocity S-wave (km/s) = 3.76389 4.07014 3.92001
# Velocity P-wave (km/s) = 6.94215 7.60429 7.28075
#
# Compressibility (1/GPa) = 0.01577051
#
# Stress axis : x y z
#
# Youngs Moduli (GPa) = 72.64983 45.17739 104.20776
#
# Poissons Ratio (x) = 0.26525 0.40076
# Poissons Ratio (y) = 0.42654 0.53622
# Poissons Ratio (z) = 0.27939 0.23247
#
# Static dielectric constant tensor:
#      x y z
#    x 1.744200 -0.045700 -0.031610 
#    y -0.045700 1.928310 0.045570 
#    z -0.031610 0.045570 1.774330 
# 
# From -- ./inp_files/219004.got.cif
#   From: 2010.05.17/outbox.cif.g08.bks.cpg/sg2_110_cif.got.tgz:219004.got - 2010.06.03 11:33:40.
