data_PCOD9112892
_publ_section_title
;
Structure prediction by ZEFSAII (Michael W. Deem and Ramdas Pophale) SiO2 
 PCOD9112892
Probable space group: P 2
;
_chemical_formula_sum "Si O2"
_cell_formula_units_Z 16
_cell_length_a 11.361589
_cell_length_b 9.216819
_cell_length_c 8.717913
_cell_angle_alpha 90.000000
_cell_angle_beta 57.703855
_cell_angle_gamma 90.000000
_cell_volume 771.689151
_symmetry_space_group_name_H-M "P 2"
_symmetry_group_IT_number 3
_symmetry_cell_setting 'monoclinic'
loop_
_space_group_symop_operation_xyz
x,y,z
-x,y,-z
loop_
_atom_site_type_symbol
_atom_site_label
_atom_site_fract_x
_atom_site_fract_y
_atom_site_fract_z
Si Si1 0.941141 0.277220 0.712269
Si Si2 0.056939 0.009468 0.787575
Si Si3 0.906080 0.747449 0.763854
Si Si4 0.103168 0.512588 0.725552
Si Si5 0.280247 0.676995 0.361823
Si Si6 0.643538 0.895728 0.444506
Si Si7 0.278365 0.653407 0.854959
Si Si8 0.645581 0.441823 0.944985
O O1 0.783489 0.339268 0.839036
O O2 0.000000 0.305892 0.500000
O O3 0.965372 0.110099 0.738977
O O4 0.053361 0.348916 0.752313
O O5 0.224884 0.004409 0.659414
O O6 0.022468 0.848830 0.751898
O O7 0.000000 0.027642 0.000000
O O8 0.848066 0.757003 0.634781
O O9 0.968300 0.588206 0.744521
O O10 0.779608 0.756822 0.971247
O O11 0.225020 0.562249 0.525710
O O12 0.152219 0.573087 0.853499
O O13 0.359724 0.806713 0.392256
O O14 0.342755 0.574958 0.185925
O O15 0.500000 0.971636 0.500000
O O16 0.657101 0.762660 0.312734
O O17 0.359014 0.524104 0.886400
O O18 0.500000 0.366888 0.000000
#
# Coordination Sequence:
#
# PCOD9112892 Si02
#       8
#     2   2   2   2   2   2   2   2
#     4  12  26  41  64  89 124 167 216 259 304 371
#     4  12  26  41  64  89 124 167 216 259 304 371
#     4  11  18  35  64  93 120 154 211 265 306 358
#     4  11  18  35  64  93 120 154 211 265 306 358
#     4  10  20  34  66  95 122 160 202 260 321 367
#     4  11  23  40  62  95 133 162 204 261 323 377
#     4  10  20  34  66  95 122 160 202 260 321 367
#     4  11  23  40  62  95 133 162 204 261 323 377
#
# _framework density 20.733737000000001
#
# number of rings (size 3 to 8) (size 9 to 14) (size 15 to 20)
#    0.000    1.000    7.500    1.500    3.500    0.000 
#    0.000    1.250    0.000    0.000    0.000    0.000 
#    0.000    0.000    0.000    0.000    0.000    0.000 
#
# Total GULP energy -89111.400671 kJ/mol
# GULP energy per Si atom -5569.462542 kJ/mol
# Density = 2.068655 g / cm^3
# Si number density = 20.733737 Si / 1000 Ang^3
#
#
#
# Elastic Constant Matrix: (Units=GPa)
#
#
# Indices 1 2 3 4 5 6 
#
# 1 133.9907 13.4847 21.0252 0.0000 -8.2022 0.0000
# 2 13.4847 11.9252 6.7607 0.0000 -3.2364 0.0000
# 3 21.0252 6.7607 51.0533 0.0000 13.7259 0.0000
# 4 0.0000 0.0000 0.0000 15.2239 0.0000 5.8857
# 5 -8.2022 -3.2364 13.7259 0.0000 28.5523 0.0000
# 6 0.0000 0.0000 0.0000 5.8857 0.0000 25.5393
#
#
#
# Elastic Compliance Matrix: (Units=1/GPa)
#
#
# Indices 1 2 3 4 5 6 
#
# 1 0.008977 -0.007076 -0.003718 0.000000 0.003564 0.000000
# 2 -0.007076 0.105552 -0.015772 0.000000 0.017514 0.000000
# 3 -0.003718 -0.015772 0.027534 0.000000 -0.016092 0.000000
# 4 0.000000 0.000000 0.000000 0.072111 0.000000 -0.016619
# 5 0.003564 0.017514 -0.016092 0.000000 0.045768 0.000000
# 6 0.000000 0.000000 0.000000 -0.016619 0.000000 0.042985
#
#
# Mechanical properties :
#
#
# Convention : Reuss Voigt Hill
#
# Bulk Modulus (GPa) = 11.24482 31.05674 21.15078
# Shear Modulus (GPa) = 12.96335 24.24301 18.60318
#
# Velocity S-wave (km/s) = 2.50317 3.42315 2.99865
# Velocity P-wave (km/s) = 3.71345 5.53491 4.71301
#
# Compressibility (1/GPa) = 0.08892984
#
# Stress axis : x y z
#
# Youngs Moduli (GPa) = 111.39679 9.47403 36.31900
#
# Poissons Ratio (x) = 0.06703 0.13504
# Poissons Ratio (y) = 0.78820 0.57284
# Poissons Ratio (z) = 0.41420 0.14943
#
# Static dielectric constant tensor:
#      x y z
#    x 1.791520 0.000000 -0.042840 
#    y 0.000000 1.704020 0.000000 
#    z -0.042840 0.000000 1.827150 
# 
# From -- ./inp_files/7438.got.cif
#   From: 2010.05.17/outbox.cif.g08.bks.cpg/sg3_4_cif.got.tgz:7438.got - 2010.06.03 18:33:08.
