data_PCOD9112511
_publ_section_title
;
Structure prediction by ZEFSAII (Michael W. Deem and Ramdas Pophale) SiO2 
 PCOD9112511
Probable space group: P 2
;
_chemical_formula_sum "Si O2"
_cell_formula_units_Z 8
_cell_length_a 13.129393
_cell_length_b 5.169544
_cell_length_c 6.696623
_cell_angle_alpha 90.000000
_cell_angle_beta 136.203718
_cell_angle_gamma 90.000000
_cell_volume 314.571436
_symmetry_space_group_name_H-M "P 2"
_symmetry_group_IT_number 3
_symmetry_cell_setting 'monoclinic'
loop_
_space_group_symop_operation_xyz
x,y,z
-x,y,-z
loop_
_atom_site_type_symbol
_atom_site_label
_atom_site_fract_x
_atom_site_fract_y
_atom_site_fract_z
Si Si1 0.026054 0.210230 0.243492
Si Si2 0.749543 0.215067 0.120278
Si Si3 0.289695 0.510997 0.560935
Si Si4 0.454772 0.007198 0.702064
O O1 0.146650 0.077139 0.562391
O O2 0.115823 0.469815 0.314414
O O3 0.875280 0.278316 0.140044
O O4 0.000000 0.066899 0.000000
O O5 0.680913 0.452755 0.156689
O O6 0.616397 0.051689 0.837900
O O7 0.360158 0.264624 0.550386
O O8 0.357293 0.754236 0.546973
O O9 0.500000 0.993541 0.000000
#
# Coordination Sequence:
#
# PCOD9112511 Si02
#       4
#     2   2   2   2
#     4   9  18  38  62  90 130 166 213 259 321 383
#     4   8  18  35  62  92 119 169 209 262 315 378
#     4   9  19  34  62  90 116 162 204 257 310 369
#     4  10  17  34  62  89 117 158 210 252 311 370
#
# _framework density 25.431426999999999
#
# number of rings (size 3 to 8) (size 9 to 14) (size 15 to 20)
#    1.500    1.500    0.000    2.250    0.000    0.000 
#    0.000   15.000    5.500    0.000    0.000    0.000 
#    0.000    0.000    0.000    0.000    0.000    0.000 
#
# Total GULP energy -44545.075618 kJ/mol
# GULP energy per Si atom -5568.134452 kJ/mol
# Density = 2.537354 g / cm^3
# Si number density = 25.431427 Si / 1000 Ang^3
#
#
#
# Elastic Constant Matrix: (Units=GPa)
#
#
# Indices 1 2 3 4 5 6 
#
# 1 191.8758 76.6199 68.7004 0.0000 49.7419 0.0000
# 2 76.6199 150.1004 44.5654 0.0000 41.0183 0.0000
# 3 68.7004 44.5654 99.5035 0.0000 38.3159 0.0000
# 4 0.0000 0.0000 0.0000 20.6595 0.0000 12.1849
# 5 49.7419 41.0183 38.3159 0.0000 61.1394 0.0000
# 6 0.0000 0.0000 0.0000 12.1849 0.0000 23.5421
#
#
#
# Elastic Compliance Matrix: (Units=1/GPa)
#
#
# Indices 1 2 3 4 5 6 
#
# 1 0.008129 -0.002336 -0.003457 0.000000 -0.002880 0.000000
# 2 -0.002336 0.009155 -0.001126 0.000000 -0.003536 0.000000
# 3 -0.003457 -0.001126 0.015247 0.000000 -0.005987 0.000000
# 4 0.000000 0.000000 0.000000 0.069673 0.000000 -0.036061
# 5 -0.002880 -0.003536 -0.005987 0.000000 0.024823 0.000000
# 6 0.000000 0.000000 0.000000 -0.036061 0.000000 0.061142
#
#
# Mechanical properties :
#
#
# Convention : Reuss Voigt Hill
#
# Bulk Modulus (GPa) = 53.49853 91.25012 72.37433
# Shear Modulus (GPa) = 24.01102 37.84113 30.92607
#
# Velocity S-wave (km/s) = 3.07603 3.86160 3.49098
# Velocity P-wave (km/s) = 5.80500 7.47271 6.69102
#
# Compressibility (1/GPa) = 0.01869210
#
# Stress axis : x y z
#
# Youngs Moduli (GPa) = 123.01721 109.22674 65.58849
#
# Poissons Ratio (x) = 0.25516 0.22676
# Poissons Ratio (y) = 0.28738 0.07385
# Poissons Ratio (z) = 0.42532 0.12298
#
# Static dielectric constant tensor:
#      x y z
#    x 2.089890 0.000000 -0.037820 
#    y 0.000000 2.024450 0.000000 
#    z -0.037820 0.000000 2.121410 
# 
# From -- ./inp_files/4822.got.cif
#   From: 2010.05.17/outbox.cif.g08.bks.cpg/sg3_3_cif.got.tgz:4822.got - 2010.06.03 18:33:08.
