data_PCOD9112467
_publ_section_title
;
Structure prediction by ZEFSAII (Michael W. Deem and Ramdas Pophale) SiO2 
 PCOD9112467
Probable space group: P 2
;
_chemical_formula_sum "Si O2"
_cell_formula_units_Z 16
_cell_length_a 5.487977
_cell_length_b 18.616039
_cell_length_c 9.123274
_cell_angle_alpha 90.000000
_cell_angle_beta 126.979997
_cell_angle_gamma 90.000000
_cell_volume 744.582989
_symmetry_space_group_name_H-M "P 2"
_symmetry_group_IT_number 3
_symmetry_cell_setting 'monoclinic'
loop_
_space_group_symop_operation_xyz
x,y,z
-x,y,-z
loop_
_atom_site_type_symbol
_atom_site_label
_atom_site_fract_x
_atom_site_fract_y
_atom_site_fract_z
Si Si1 0.287218 0.040940 0.037218
Si Si2 0.019061 0.341942 0.769061
Si Si3 0.444586 0.400593 0.194585
Si Si4 0.368938 0.543856 0.618938
Si Si5 0.366111 0.709684 0.616111
Si Si6 0.854009 0.197478 0.104009
Si Si7 0.361785 0.980458 0.611785
Si Si8 0.633317 0.843267 0.883317
O O1 0.504973 0.050711 0.254973
O O2 0.500000 0.001739 0.000000
O O3 0.155365 0.110653 0.905366
O O4 0.000000 0.001739 0.000000
O O5 0.214081 0.373177 0.708070
O O6 0.987089 0.255965 0.737089
O O7 0.702059 0.373177 0.708070
O O8 0.237918 0.367406 0.987918
O O9 0.465682 0.486482 0.215682
O O10 0.500000 0.533663 0.500000
O O11 0.430889 0.626842 0.680889
O O12 0.000000 0.533663 0.500000
O O13 0.500000 0.719787 0.500000
O O14 0.524060 0.768472 0.774060
O O15 0.000000 0.719787 0.500000
O O16 0.500000 0.215262 0.000000
O O17 0.000000 0.215262 0.000000
O O18 0.500000 0.981288 0.500000
O O19 0.486339 0.908792 0.736339
O O20 0.000000 0.981288 0.500000
O O21 0.500000 0.845834 0.000000
O O22 0.000000 0.845834 0.000000
#
# Coordination Sequence:
#
# PCOD9112467 Si02
#       8
#     2   2   2   2   2   2   2   2
#     4  10  21  36  60  91 115 154 195 253 290 345
#     4  10  17  30  50  81 103 135 176 237 285 342
#     4  10  18  30  50  77 106 134 181 239 277 326
#     4  10  21  37  55  76 108 155 196 228 276 349
#     4  10  21  41  63  84 118 167 206 230 293 369
#     4  10  16  30  52  80 105 139 186 227 298 337
#     4  12  24  41  64  90 124 164 199 234 291 363
#     4  12  24  41  64  95 127 152 197 254 294 333
#
# _framework density 21.488537000000001
#
# number of rings (size 3 to 8) (size 9 to 14) (size 15 to 20)
#    0.000    1.500    2.500    4.500    0.000    0.000 
#    4.500    0.000    0.000    1.500    0.000    0.000 
#    0.000    0.000    0.000    0.000    0.000    0.000 
#
# Total GULP energy -89107.445331 kJ/mol
# GULP energy per Si atom -5569.215333 kJ/mol
# Density = 2.143963 g / cm^3
# Si number density = 21.488537 Si / 1000 Ang^3
#
#
#
# Elastic Constant Matrix: (Units=GPa)
#
#
# Indices 1 2 3 4 5 6 
#
# 1 244.2412 35.6184 39.7173 0.0000 -2.1766 0.0000
# 2 35.6184 151.2953 40.3649 0.0000 0.0686 0.0000
# 3 39.7173 40.3649 67.4538 0.0000 -0.3804 0.0000
# 4 0.0000 0.0000 0.0000 16.7878 0.0000 -2.6629
# 5 -2.1766 0.0686 -0.3804 0.0000 27.0427 0.0000
# 6 0.0000 0.0000 0.0000 -2.6629 0.0000 200.9350
#
#
#
# Elastic Compliance Matrix: (Units=1/GPa)
#
#
# Indices 1 2 3 4 5 6 
#
# 1 0.004554 -0.000425 -0.002425 0.000000 0.000333 0.000000
# 2 -0.000425 0.007905 -0.004481 0.000000 -0.000117 0.000000
# 3 -0.002425 -0.004481 0.018935 0.000000 0.000083 0.000000
# 4 0.000000 0.000000 0.000000 0.059693 0.000000 0.000791
# 5 0.000333 -0.000117 0.000083 0.000000 0.037007 0.000000
# 6 0.000000 0.000000 0.000000 0.000791 0.000000 0.004987
#
#
# Mechanical properties :
#
#
# Convention : Reuss Voigt Hill
#
# Bulk Modulus (GPa) = 59.76727 77.15461 68.46094
# Shear Modulus (GPa) = 32.61175 72.10575 52.35875
#
# Velocity S-wave (km/s) = 3.89991 5.79899 4.94154
# Velocity P-wave (km/s) = 6.93924 8.99003 8.03037
#
# Compressibility (1/GPa) = 0.01673157
#
# Stress axis : x y z
#
# Youngs Moduli (GPa) = 219.60565 126.49869 52.81343
#
# Poissons Ratio (x) = 0.05379 0.12807
# Poissons Ratio (y) = 0.09338 0.23665
# Poissons Ratio (z) = 0.53251 0.56682
#
# Static dielectric constant tensor:
#      x y z
#    x 1.798270 0.000000 0.000670 
#    y 0.000000 1.790960 0.000000 
#    z 0.000670 0.000000 1.844700 
# 
# From -- ./inp_files/4595.got.cif
#   From: 2010.05.17/outbox.cif.g08.bks.cpg/sg3_3_cif.got.tgz:4595.got - 2010.06.03 18:33:08.
