data_PCOD9112276
_publ_section_title
;
Structure prediction by ZEFSAII (Michael W. Deem and Ramdas Pophale) SiO2 
 PCOD9112276
Probable space group: P -1
;
_chemical_formula_sum "Si O2"
_cell_formula_units_Z 16
_cell_length_a 15.991191
_cell_length_b 7.113090
_cell_length_c 9.681868
_cell_angle_alpha 91.301615
_cell_angle_beta 142.950774
_cell_angle_gamma 76.912022
_cell_volume 622.417858
_symmetry_space_group_name_H-M "P -1"
_symmetry_group_IT_number 2
_symmetry_cell_setting 'triclinic'
loop_
_space_group_symop_operation_xyz
x,y,z
-x,-y,-z
loop_
_atom_site_type_symbol
_atom_site_label
_atom_site_fract_x
_atom_site_fract_y
_atom_site_fract_z
Si Si1 0.052976 0.199621 0.320940
Si Si2 0.519004 0.333399 0.325600
Si Si3 0.085818 0.273214 0.069807
Si Si4 0.995564 0.813037 0.338522
Si Si5 0.691203 0.081243 0.013755
Si Si6 0.357972 0.960561 0.758124
Si Si7 0.581015 0.728067 0.502041
Si Si8 0.801043 0.420118 0.155870
O O1 0.049068 0.162833 0.152670
O O2 0.931269 0.404774 0.217518
O O3 0.223841 0.170486 0.569356
O O4 0.032772 0.019114 0.381636
O O5 0.622814 0.170358 0.355595
O O6 0.582547 0.516510 0.433336
O O7 0.489137 0.268271 0.438606
O O8 0.354750 0.403075 0.040186
O O9 0.260068 0.244926 0.283697
O O10 0.017091 0.234720 0.837389
O O11 0.000000 0.500000 0.000000
O O12 0.110117 0.653804 0.586282
O O13 0.827518 0.875761 0.176165
O O14 0.537039 0.100249 0.742174
O O15 0.670991 0.151483 0.146271
O O16 0.743015 0.248226 0.011481
O O17 0.500000 0.000000 0.000000
#
# Coordination Sequence:
#
# PCOD9112276 Si02
#       8
#     2   2   2   2   2   2   2   2
#     4  11  23  46  67 101 139 177 231 283 342 418
#     4  10  25  44  73  99 141 188 227 287 348 417
#     4  12  28  42  66 103 141 179 237 287 338 417
#     4  11  23  43  73  98 137 188 229 282 353 409
#     4  10  21  42  67  98 131 178 230 284 339 414
#     4  12  25  40  67 106 136 174 235 287 345 404
#     4  10  24  46  67  99 141 186 229 279 355 410
#     4  10  20  45  73  96 134 183 232 273 348 417
#
# _framework density 25.706202999999999
#
# number of rings (size 3 to 8) (size 9 to 14) (size 15 to 20)
#    0.000    1.250    2.500    2.625    5.250    5.500 
#    0.000    1.875    0.000    0.000    0.000    0.000 
#    0.000    0.000    0.000    0.000    0.000    0.000 
#
# Total GULP energy -89466.809623 kJ/mol
# GULP energy per Si atom -5591.675601 kJ/mol
# Density = 2.564769 g / cm^3
# Si number density = 25.706203 Si / 1000 Ang^3
#
#
#
# Elastic Constant Matrix: (Units=GPa)
#
#
# Indices 1 2 3 4 5 6 
#
# 1 97.8826 14.1546 21.8641 -6.0682 -25.8444 -15.1189
# 2 14.1546 58.4626 12.2896 5.9859 0.1771 -17.6323
# 3 21.8641 12.2896 125.9988 -13.7975 -10.3331 -17.3992
# 4 -6.0682 5.9859 -13.7975 41.3882 -2.5683 4.3495
# 5 -25.8444 0.1771 -10.3331 -2.5683 50.2936 1.0168
# 6 -15.1189 -17.6323 -17.3992 4.3495 1.0168 39.3196
#
#
#
# Elastic Compliance Matrix: (Units=1/GPa)
#
#
# Indices 1 2 3 4 5 6 
#
# 1 0.013102 -0.002238 -0.000840 0.002031 0.006606 0.003267
# 2 -0.002238 0.020980 -0.001144 -0.004766 -0.001877 0.008617
# 3 -0.000840 -0.001144 0.009017 0.002848 0.001514 0.002800
# 4 0.002031 -0.004766 0.002848 0.026616 0.003068 -0.003119
# 5 0.006606 -0.001877 0.001514 0.003068 0.023723 0.001415
# 6 0.003267 0.008617 0.002800 -0.003119 0.001415 0.032100
#
#
# Mechanical properties :
#
#
# Convention : Reuss Voigt Hill
#
# Bulk Modulus (GPa) = 28.85617 42.10676 35.48147
# Shear Modulus (GPa) = 34.35611 41.80265 38.07938
#
# Velocity S-wave (km/s) = 3.65977 4.03695 3.85298
# Velocity P-wave (km/s) = 5.39521 6.17616 5.79884
#
# Compressibility (1/GPa) = 0.03465463
#
# Stress axis : x y z
#
# Youngs Moduli (GPa) = 76.32203 47.66475 110.90769
#
# Poissons Ratio (x) = 0.10669 0.09316
# Poissons Ratio (y) = 0.17084 0.12685
# Poissons Ratio (z) = 0.06411 0.05452
#
# Static dielectric constant tensor:
#      x y z
#    x 2.187600 0.049830 0.048130 
#    y 0.049830 2.063410 -0.025270 
#    z 0.048130 -0.025270 2.063080 
# 
# From -- ./inp_files/224052.got.cif
#   From: 2010.05.17/outbox.cif.g08.bks.cpg/sg2_113_cif.got.tgz:224052.got - 2010.06.03 11:33:40.
