data_PCOD9112626
_publ_section_title
;
Structure prediction by ZEFSAII (Michael W. Deem and Ramdas Pophale) SiO2 
 PCOD9112626
Probable space group: P 2
;
_chemical_formula_sum "Si O2"
_cell_formula_units_Z 15
_cell_length_a 16.575946
_cell_length_b 5.350678
_cell_length_c 9.035690
_cell_angle_alpha 90.000000
_cell_angle_beta 51.935254
_cell_angle_gamma 90.000000
_cell_volume 630.952595
_symmetry_space_group_name_H-M "P 2"
_symmetry_group_IT_number 3
_symmetry_cell_setting 'monoclinic'
loop_
_space_group_symop_operation_xyz
x,y,z
-x,y,-z
loop_
_atom_site_type_symbol
_atom_site_label
_atom_site_fract_x
_atom_site_fract_y
_atom_site_fract_z
Si Si1 0.470866 0.724330 0.861390
Si Si2 0.744140 0.561360 0.791239
Si Si3 0.993027 0.954595 0.182085
Si Si4 0.373482 0.272414 0.337868
Si Si5 0.776373 0.888709 0.508285
Si Si6 0.285392 0.536834 0.687384
Si Si7 0.889304 0.455947 0.873719
Si Si8 0.500000 0.803412 0.500000
O O1 0.526765 0.451276 0.774688
O O2 0.491922 0.892563 0.686632
O O3 0.500000 0.803887 0.000000
O O4 0.349479 0.671594 0.007630
O O5 0.691609 0.402155 0.720666
O O6 0.827894 0.422852 0.791378
O O7 0.801489 0.777320 0.638617
O O8 0.059249 0.196049 0.144218
O O9 0.876944 0.038442 0.351169
O O10 0.035064 0.697409 0.209113
O O11 0.000000 0.902809 0.000000
O O12 0.338991 0.991766 0.341670
O O13 0.323973 0.291249 0.557855
O O14 0.764672 0.694293 0.388329
O O15 0.391771 0.660581 0.617338
O O16 0.200993 0.505663 0.905672
#
# Coordination Sequence:
#
# PCOD9112626 Si02
#       8
#     2   2   2   2   2   2   2   1
#     4   9  18  39  66 100 137 191 240 296 371 448
#     4  10  23  43  68 101 146 182 236 310 366 446
#     4  12  27  46  76 104 142 192 253 303 366 440
#     4   9  21  41  69  97 137 188 230 297 358 450
#     4  11  24  45  69 101 141 193 247 299 376 438
#     4  10  21  41  70 102 141 186 238 301 361 443
#     4  12  26  46  73 108 142 189 241 311 366 427
#     4  10  18  38  70 100 146 188 242 304 368 454
#
# _framework density 23.773577
#
# number of rings (size 3 to 8) (size 9 to 14) (size 15 to 20)
#    0.000    1.600    2.667    2.000    5.600    0.533 
#    0.000   18.000    0.000    0.000    0.000    0.000 
#    0.000    0.000    0.000    0.000    0.000    0.000 
#
# Total GULP energy -83519.836139 kJ/mol
# GULP energy per Si atom -5567.989076 kJ/mol
# Density = 2.371947 g / cm^3
# Si number density = 23.773577 Si / 1000 Ang^3
#
#
#
# Elastic Constant Matrix: (Units=GPa)
#
#
# Indices 1 2 3 4 5 6 
#
# 1 90.1864 -14.4862 23.5888 0.0000 -4.7918 0.0000
# 2 -14.4862 18.6628 -1.5341 0.0000 -6.7112 0.0000
# 3 23.5888 -1.5341 110.7832 0.0000 -4.4059 0.0000
# 4 0.0000 0.0000 0.0000 16.2147 0.0000 -7.9939
# 5 -4.7918 -6.7112 -4.4059 0.0000 40.5384 0.0000
# 6 0.0000 0.0000 0.0000 -7.9939 0.0000 14.3708
#
#
#
# Elastic Compliance Matrix: (Units=1/GPa)
#
#
# Indices 1 2 3 4 5 6 
#
# 1 0.013836 0.011703 -0.002653 0.000000 0.003285 0.000000
# 2 0.011703 0.067024 -0.001072 0.000000 0.012363 0.000000
# 3 -0.002653 -0.001072 0.009599 0.000000 0.000552 0.000000
# 4 0.000000 0.000000 0.000000 0.084976 0.000000 0.047269
# 5 0.003285 0.012363 0.000552 0.000000 0.027163 0.000000
# 6 0.000000 0.000000 0.000000 0.047269 0.000000 0.095880
#
#
# Mechanical properties :
#
#
# Convention : Reuss Voigt Hill
#
# Bulk Modulus (GPa) = 9.39725 26.08550 17.74137
# Shear Modulus (GPa) = 15.72354 28.36238 22.04296
#
# Velocity S-wave (km/s) = 2.57453 3.45776 3.04831
# Velocity P-wave (km/s) = 3.57757 5.19016 4.45740
#
# Compressibility (1/GPa) = 0.10641411
#
# Stress axis : x y z
#
# Youngs Moduli (GPa) = 72.27276 14.92002 104.18026
#
# Poissons Ratio (x) = -0.17461 0.27644
# Poissons Ratio (y) = -0.84581 0.11169
# Poissons Ratio (z) = 0.19177 0.01600
#
# Static dielectric constant tensor:
#      x y z
#    x 1.996650 0.000000 0.006690 
#    y 0.000000 2.109920 0.000000 
#    z 0.006690 0.000000 1.921010 
# 
# From -- ./inp_files/8885.got.cif
#   From: 2010.05.17/outbox.cif.g08.bks.cpg/sg3_5_cif.got.tgz:8885.got - 2010.06.03 18:33:08.
