data_PCOD9112133
_publ_section_title
;
Structure prediction by ZEFSAII (Michael W. Deem and Ramdas Pophale) SiO2 
 PCOD9112133
Probable space group: P -1
;
_chemical_formula_sum "Si O2"
_cell_formula_units_Z 16
_cell_length_a 11.556420
_cell_length_b 8.069435
_cell_length_c 10.835281
_cell_angle_alpha 44.323204
_cell_angle_beta 102.002778
_cell_angle_gamma 109.235840
_cell_volume 665.988453
_symmetry_space_group_name_H-M "P -1"
_symmetry_group_IT_number 2
_symmetry_cell_setting 'triclinic'
loop_
_space_group_symop_operation_xyz
x,y,z
-x,-y,-z
loop_
_atom_site_type_symbol
_atom_site_label
_atom_site_fract_x
_atom_site_fract_y
_atom_site_fract_z
Si Si1 0.516969 0.831615 0.901024
Si Si2 0.011806 0.717338 0.287148
Si Si3 0.914527 0.889491 0.716800
Si Si4 0.271160 0.947613 0.796029
Si Si5 0.625893 0.598119 0.549339
Si Si6 0.744418 0.162160 0.879447
Si Si7 0.909270 0.322342 0.289727
Si Si8 0.628523 0.713671 0.759179
O O1 0.416252 0.977586 0.822404
O O2 0.568943 0.873963 0.751191
O O3 0.638143 0.914290 0.965379
O O4 0.442625 0.558693 0.067421
O O5 0.145563 0.795582 0.213740
O O6 0.926756 0.578428 0.229775
O O7 0.000000 0.500000 0.500000
O O8 0.006447 0.959960 0.232684
O O9 0.980175 0.703889 0.762600
O O10 0.773978 0.763361 0.787365
O O11 0.905201 0.104324 0.503580
O O12 0.268981 0.218425 0.606854
O O13 0.214842 0.849242 0.965728
O O14 0.211307 0.757280 0.777651
O O15 0.500000 0.500000 0.500000
O O16 0.678575 0.377650 0.726540
O O17 0.608405 0.738641 0.596286
#
# Coordination Sequence:
#
# PCOD9112133 Si02
#       8
#     2   2   2   2   2   2   2   2
#     4  11  24  43  69 102 143 181 230 287 359 420
#     4  10  23  43  73 101 137 192 234 293 361 406
#     4  10  20  44  71 100 139 183 241 296 346 418
#     4  12  25  43  70 106 141 187 230 287 360 426
#     4  12  24  42  71 101 136 186 235 278 357 422
#     4  12  24  47  71 101 144 180 232 300 342 425
#     4  10  23  41  70 102 137 186 240 288 353 424
#     4  11  22  43  70  99 140 188 226 293 357 413
#
# _framework density 24.024439999999998
#
# number of rings (size 3 to 8) (size 9 to 14) (size 15 to 20)
#    0.000    1.000    5.000    1.875    3.500    1.000 
#    4.500    3.125    0.000    0.000    0.000    0.000 
#    0.000    0.000    0.000    0.000    0.000    0.000 
#
# Total GULP energy -89490.652483 kJ/mol
# GULP energy per Si atom -5593.165780 kJ/mol
# Density = 2.396976 g / cm^3
# Si number density = 24.024440 Si / 1000 Ang^3
#
#
#
# Elastic Constant Matrix: (Units=GPa)
#
#
# Indices 1 2 3 4 5 6 
#
# 1 60.6139 18.0848 45.1605 8.9846 -25.7017 11.3090
# 2 18.0848 145.8727 47.8009 13.9038 -11.0149 23.8684
# 3 45.1605 47.8009 105.9793 6.0791 -19.4900 3.0576
# 4 8.9846 13.9038 6.0791 33.0202 6.2864 -13.9326
# 5 -25.7017 -11.0149 -19.4900 6.2864 36.2931 0.4379
# 6 11.3090 23.8684 3.0576 -13.9326 0.4379 37.4440
#
#
#
# Elastic Compliance Matrix: (Units=1/GPa)
#
#
# Indices 1 2 3 4 5 6 
#
# 1 0.061656 0.013926 -0.020310 -0.045887 0.045456 -0.043446
# 2 0.013926 0.013748 -0.008067 -0.018820 0.013197 -0.019468
# 3 -0.020310 -0.008067 0.018828 0.013487 -0.009236 0.014865
# 4 -0.045887 -0.018820 0.013487 0.080124 -0.045508 0.055100
# 5 0.045456 0.013197 -0.009236 -0.045508 0.067144 -0.039105
# 6 -0.043446 -0.019468 0.014865 0.055100 -0.039105 0.071984
#
#
# Mechanical properties :
#
#
# Convention : Reuss Voigt Hill
#
# Bulk Modulus (GPa) = 15.30660 59.39536 37.35098
# Shear Modulus (GPa) = 13.73018 34.77942 24.25480
#
# Velocity S-wave (km/s) = 2.39322 3.80895 3.18085
# Velocity P-wave (km/s) = 3.74456 6.64234 5.39177
#
# Compressibility (1/GPa) = 0.06533129
#
# Stress axis : x y z
#
# Youngs Moduli (GPa) = 16.21894 72.73804 53.11302
#
# Poissons Ratio (x) = -1.01296 1.07870
# Poissons Ratio (y) = -0.22587 0.42846
# Poissons Ratio (z) = 0.32940 0.58678
#
# Static dielectric constant tensor:
#      x y z
#    x 1.905040 -0.035220 0.021090 
#    y -0.035220 1.991850 -0.018240 
#    z 0.021090 -0.018240 1.940880 
# 
# From -- ./inp_files/446648.got.cif
#   From: 2010.05.17/outbox.cif.g08.bks.cpg/sg2_224_cif.got.tgz:446648.got - 2010.06.03 11:33:40.
