data_PCOD9112413
_publ_section_title
;
Structure prediction by ZEFSAII (Michael W. Deem and Ramdas Pophale) SiO2 
 PCOD9112413
Probable space group: P -1
;
_chemical_formula_sum "Si O2"
_cell_formula_units_Z 16
_cell_length_a 15.147365
_cell_length_b 18.410429
_cell_length_c 12.379140
_cell_angle_alpha 51.067848
_cell_angle_beta 128.438224
_cell_angle_gamma 159.637266
_cell_volume 927.643365
_symmetry_space_group_name_H-M "P -1"
_symmetry_group_IT_number 2
_symmetry_cell_setting 'triclinic'
loop_
_space_group_symop_operation_xyz
x,y,z
-x,-y,-z
loop_
_atom_site_type_symbol
_atom_site_label
_atom_site_fract_x
_atom_site_fract_y
_atom_site_fract_z
Si Si1 0.364268 0.948799 0.282639
Si Si2 0.878010 0.664105 0.812351
Si Si3 0.681302 0.330246 0.046761
Si Si4 0.111040 0.739387 0.508776
Si Si5 0.466522 0.086852 0.894229
Si Si6 0.245405 0.244259 0.469821
Si Si7 0.200168 0.382378 0.443318
Si Si8 0.174152 0.645975 0.265984
O O1 0.177341 0.818531 0.364148
O O2 0.242003 0.790086 0.248153
O O3 0.460183 0.118430 0.148792
O O4 0.621617 0.089236 0.390564
O O5 0.754269 0.674293 0.697016
O O6 0.897958 0.647029 0.716862
O O7 0.709829 0.462840 0.933991
O O8 0.167023 0.885769 0.866942
O O9 0.949472 0.497608 0.146782
O O10 0.627575 0.249191 0.963083
O O11 0.969923 0.711319 0.500261
O O12 0.932619 0.514553 0.588030
O O13 0.581459 0.204390 0.757209
O O14 0.500000 0.000000 0.000000
O O15 0.213616 0.281704 0.520340
O O16 0.501008 0.374235 0.542196
O O17 0.000000 0.000000 0.500000
#
# Coordination Sequence:
#
# PCOD9112413 Si02
#       8
#     2   2   2   2   2   2   2   2
#     4  10  21  36  49  80 108 149 184 208 252 307
#     4  10  21  32  53  77 108 138 164 216 275 312
#     4  11  21  33  48  73 111 145 171 216 254 318
#     4  10  21  34  57  74 109 144 182 222 250 303
#     4  12  21  30  50  80 111 143 175 205 266 324
#     4   9  21  36  53  80 106 129 173 222 272 324
#     4   9  20  36  54  81 104 135 174 216 275 310
#     4  11  21  33  49  76 113 144 180 210 254 314
#
# _framework density 17.248007999999999
#
# number of rings (size 3 to 8) (size 9 to 14) (size 15 to 20)
#    0.750    1.000    2.500    2.250    5.250    0.000 
#    0.000    0.000    0.000    0.750    0.000    4.375 
#    0.000    0.000    0.000    0.000    0.000    0.000 
#
# Total GULP energy -89154.881967 kJ/mol
# GULP energy per Si atom -5572.180123 kJ/mol
# Density = 1.720875 g / cm^3
# Si number density = 17.248008 Si / 1000 Ang^3
#
#
#
# Elastic Constant Matrix: (Units=GPa)
#
#
# Indices 1 2 3 4 5 6 
#
# 1 65.4238 30.8622 30.0538 -10.5958 -11.6368 9.1593
# 2 30.8622 103.7810 34.5626 -13.0498 -10.1502 -9.1447
# 3 30.0538 34.5626 67.0045 -20.6418 -11.0373 -3.0273
# 4 -10.5958 -13.0498 -20.6418 34.5186 2.0743 -3.5939
# 5 -11.6368 -10.1502 -11.0373 2.0743 25.2806 -4.0976
# 6 9.1593 -9.1447 -3.0273 -3.5939 -4.0976 19.1337
#
#
#
# Elastic Compliance Matrix: (Units=1/GPa)
#
#
# Indices 1 2 3 4 5 6 
#
# 1 0.024355 -0.005621 -0.008788 -0.001679 0.002749 -0.015462
# 2 -0.005621 0.013756 -0.002790 0.002660 0.003119 0.009991
# 3 -0.008788 -0.002790 0.025703 0.012325 0.006780 0.010707
# 4 -0.001679 0.002660 0.012325 0.037817 0.004534 0.012099
# 5 0.002749 0.003119 0.006780 0.004534 0.046620 0.012083
# 6 -0.015462 0.009991 0.010707 0.012099 0.012083 0.070995
#
#
# Mechanical properties :
#
#
# Convention : Reuss Voigt Hill
#
# Bulk Modulus (GPa) = 33.99443 47.46296 40.72870
# Shear Modulus (GPa) = 18.97894 25.16861 22.07377
#
# Velocity S-wave (km/s) = 3.32076 3.82412 3.58129
# Velocity P-wave (km/s) = 5.86986 6.86121 6.38480
#
# Compressibility (1/GPa) = 0.02941658
#
# Stress axis : x y z
#
# Youngs Moduli (GPa) = 41.05938 72.69421 38.90628
#
# Poissons Ratio (x) = 0.40860 0.34190
# Poissons Ratio (y) = 0.23078 0.10856
# Poissons Ratio (z) = 0.36082 0.20284
#
# Static dielectric constant tensor:
#      x y z
#    x 1.561050 -0.015920 0.002880 
#    y -0.015920 1.619660 -0.008290 
#    z 0.002880 -0.008290 1.616840 
# 
# From -- ./inp_files/97495.got.cif
#   From: 2010.05.17/outbox.cif.g08.bks.cpg/sg2_49_cif.got.tgz:97495.got - 2010.06.03 11:33:40.
