data_PCOD9112482
_publ_section_title
;
Structure prediction by ZEFSAII (Michael W. Deem and Ramdas Pophale) SiO2 
 PCOD9112482
Probable space group: P 2
;
_chemical_formula_sum "Si O2"
_cell_formula_units_Z 12
_cell_length_a 9.572190
_cell_length_b 8.406070
_cell_length_c 9.174063
_cell_angle_alpha 90.000000
_cell_angle_beta 43.497390
_cell_angle_gamma 90.000000
_cell_volume 508.109583
_symmetry_space_group_name_H-M "P 2"
_symmetry_group_IT_number 3
_symmetry_cell_setting 'monoclinic'
loop_
_space_group_symop_operation_xyz
x,y,z
-x,y,-z
loop_
_atom_site_type_symbol
_atom_site_label
_atom_site_fract_x
_atom_site_fract_y
_atom_site_fract_z
Si Si1 0.248595 0.444120 0.420917
Si Si2 0.151978 0.185739 0.690294
Si Si3 0.727112 0.740694 0.778321
Si Si4 0.116573 0.874958 0.044365
Si Si5 0.473679 0.008593 0.251071
Si Si6 0.500000 0.250381 0.000000
Si Si7 0.500000 0.374943 0.500000
O O1 0.088791 0.328252 0.626075
O O2 0.195455 0.613058 0.395627
O O3 0.420253 0.464501 0.417043
O O4 0.340817 0.350543 0.213127
O O5 0.336356 0.100547 0.466437
O O6 0.291909 0.278239 0.703478
O O7 0.999984 0.044572 0.843770
O O8 0.856922 0.781456 0.823747
O O9 0.679123 0.902908 0.728875
O O10 0.500000 0.687234 0.000000
O O11 0.000000 0.791006 0.000000
O O12 0.346816 0.905913 0.818323
O O13 0.584633 0.130905 0.058173
#
# Coordination Sequence:
#
# PCOD9112482 Si02
#       7
#     2   2   2   2   2   1   1
#     4   9  19  36  67  96 132 183 219 278 336 407
#     4   9  20  37  65  99 131 167 224 290 324 403
#     4  10  20  39  64 100 133 185 225 273 345 415
#     4  11  22  36  67 103 135 170 225 287 342 394
#     4  10  20  38  65  95 126 179 225 272 341 400
#     4  10  16  34  66  94 114 176 228 260 326 402
#     4   8  18  34  62  98 134 168 234 266 350 376
#
# _framework density 23.616952000000001
#
# number of rings (size 3 to 8) (size 9 to 14) (size 15 to 20)
#    1.000    1.333    3.333    1.000    0.000    0.667 
#    0.000    4.167    7.333    1.000    0.000    0.000 
#    0.000    0.000    0.000    0.000    0.000    0.000 
#
# Total GULP energy -66840.327433 kJ/mol
# GULP energy per Si atom -5570.027286 kJ/mol
# Density = 2.356320 g / cm^3
# Si number density = 23.616952 Si / 1000 Ang^3
#
#
#
# Elastic Constant Matrix: (Units=GPa)
#
#
# Indices 1 2 3 4 5 6 
#
# 1 179.5057 43.5819 46.3357 0.0000 38.2263 0.0000
# 2 43.5819 88.5034 30.5888 0.0000 23.6683 0.0000
# 3 46.3357 30.5888 64.0064 0.0000 17.0636 0.0000
# 4 0.0000 0.0000 0.0000 25.5441 0.0000 11.3626
# 5 38.2263 23.6683 17.0636 0.0000 29.8392 0.0000
# 6 0.0000 0.0000 0.0000 11.3626 0.0000 19.3002
#
#
#
# Elastic Compliance Matrix: (Units=1/GPa)
#
#
# Indices 1 2 3 4 5 6 
#
# 1 0.008403 -0.000727 -0.003563 0.000000 -0.008151 0.000000
# 2 -0.000727 0.015598 -0.004576 0.000000 -0.008825 0.000000
# 3 -0.003563 -0.004576 0.021480 0.000000 -0.004090 0.000000
# 4 0.000000 0.000000 0.000000 0.053038 0.000000 -0.031225
# 5 -0.008151 -0.008825 -0.004090 0.000000 0.053293 0.000000
# 6 0.000000 0.000000 0.000000 -0.031225 0.000000 0.070196
#
#
# Mechanical properties :
#
#
# Convention : Reuss Voigt Hill
#
# Bulk Modulus (GPa) = 36.03550 63.66979 49.85264
# Shear Modulus (GPa) = 20.08130 29.03729 24.55930
#
# Velocity S-wave (km/s) = 2.91914 3.51024 3.22825
# Velocity P-wave (km/s) = 5.16268 6.59143 5.92031
#
# Compressibility (1/GPa) = 0.02775042
#
# Stress axis : x y z
#
# Youngs Moduli (GPa) = 119.01046 64.10921 46.55588
#
# Poissons Ratio (x) = 0.04658 0.16586
# Poissons Ratio (y) = 0.08648 0.21303
# Poissons Ratio (z) = 0.42399 0.29335
#
# Static dielectric constant tensor:
#      x y z
#    x 1.943150 0.000000 0.000040 
#    y 0.000000 1.984350 0.000000 
#    z 0.000040 0.000000 1.910580 
# 
# From -- ./inp_files/5094.got.cif
#   From: 2010.05.17/outbox.cif.g08.bks.cpg/sg3_3_cif.got.tgz:5094.got - 2010.06.03 18:33:08.
