data_PCOD9112520
_publ_section_title
;
Structure prediction by ZEFSAII (Michael W. Deem and Ramdas Pophale) SiO2 
 PCOD9112520
Probable space group: P 2
;
_chemical_formula_sum "Si O2"
_cell_formula_units_Z 12
_cell_length_a 5.048611
_cell_length_b 10.719434
_cell_length_c 12.297333
_cell_angle_alpha 90.000000
_cell_angle_beta 93.261649
_cell_angle_gamma 90.000000
_cell_volume 664.432127
_symmetry_space_group_name_H-M "P 2"
_symmetry_group_IT_number 3
_symmetry_cell_setting 'monoclinic'
loop_
_space_group_symop_operation_xyz
x,y,z
-x,y,-z
loop_
_atom_site_type_symbol
_atom_site_label
_atom_site_fract_x
_atom_site_fract_y
_atom_site_fract_z
Si Si1 0.043081 0.346600 0.373290
Si Si2 0.947613 0.870424 0.874262
Si Si3 0.551694 0.702517 0.125177
Si Si4 0.476829 0.452846 0.748290
Si Si5 0.410873 0.219503 0.117993
Si Si6 0.072350 0.122209 0.772715
O O1 0.187062 0.419043 0.697273
O O2 0.018052 0.201790 0.334225
O O3 0.000000 0.357368 0.500000
O O4 0.316363 0.407122 0.338416
O O5 0.152559 0.757057 0.862553
O O6 0.652351 0.816459 0.862006
O O7 0.004492 0.978011 0.788364
O O8 0.000000 0.916874 0.000000
O O9 0.504306 0.593579 0.210365
O O10 0.500000 0.657736 0.000000
O O11 0.539175 0.363295 0.852102
O O12 0.616144 0.145223 0.200618
O O13 0.108918 0.187141 0.138057
O O14 0.500000 0.187739 0.000000
#
# Coordination Sequence:
#
# PCOD9112520 Si02
#       6
#     2   2   2   2   2   2
#     4  10  21  37  57  76  97 130 172 224 269 296
#     4  10  19  31  49  74 109 146 170 194 237 302
#     4  10  20  33  51  77 110 142 167 196 241 305
#     4  10  20  34  53  77 101 132 171 209 257 307
#     4  10  18  29  48  74 105 132 162 209 256 304
#     4  10  20  32  50  76 102 134 172 208 252 302
#
# _framework density 18.060535000000002
#
# number of rings (size 3 to 8) (size 9 to 14) (size 15 to 20)
#    0.000    2.000    0.000    4.500    0.000    1.333 
#    0.000    5.000    0.000    6.000    0.000    0.000 
#    0.000    0.000    0.000    0.000    0.000    0.000 
#
# Total GULP energy -66939.263198 kJ/mol
# GULP energy per Si atom -5578.271933 kJ/mol
# Density = 1.801943 g / cm^3
# Si number density = 18.060535 Si / 1000 Ang^3
#
#
#
# Elastic Constant Matrix: (Units=GPa)
#
#
# Indices 1 2 3 4 5 6 
#
# 1 55.6742 -9.7817 -11.0414 0.0000 -11.6381 0.0000
# 2 -9.7817 64.1625 19.9572 0.0000 1.9172 0.0000
# 3 -11.0414 19.9572 45.2748 0.0000 -6.9380 0.0000
# 4 0.0000 0.0000 0.0000 15.9301 0.0000 -4.4547
# 5 -11.6381 1.9172 -6.9380 0.0000 15.9220 0.0000
# 6 0.0000 0.0000 0.0000 -4.4547 0.0000 12.2014
#
#
#
# Elastic Compliance Matrix: (Units=1/GPa)
#
#
# Indices 1 2 3 4 5 6 
#
# 1 0.024379 0.000205 0.009196 0.000000 0.021802 0.000000
# 2 0.000205 0.018624 -0.009087 0.000000 -0.006053 0.000000
# 3 0.009196 -0.009087 0.031647 0.000000 0.021606 0.000000
# 4 0.000000 0.000000 0.000000 0.069912 0.000000 0.025525
# 5 0.021802 -0.006053 0.021606 0.000000 0.088886 0.000000
# 6 0.000000 0.000000 0.000000 0.025525 0.000000 0.091277
#
#
# Mechanical properties :
#
#
# Convention : Reuss Voigt Hill
#
# Bulk Modulus (GPa) = 13.28420 18.15331 15.71875
# Shear Modulus (GPa) = 14.31889 19.87586 17.09737
#
# Velocity S-wave (km/s) = 2.81877 3.32100 3.08014
# Velocity P-wave (km/s) = 4.23855 4.97781 4.62298
#
# Compressibility (1/GPa) = 0.07527740
#
# Stress axis : x y z
#
# Youngs Moduli (GPa) = 41.01899 53.69435 31.59889
#
# Poissons Ratio (x) = -0.01099 -0.29059
# Poissons Ratio (y) = -0.00840 0.28714
# Poissons Ratio (z) = -0.37722 0.48792
#
# Static dielectric constant tensor:
#      x y z
#    x 1.613440 0.000000 -0.000930 
#    y 0.000000 1.623960 0.000000 
#    z -0.000930 0.000000 1.599650 
# 
# From -- ./inp_files/9833.got.cif
#   From: 2010.05.17/outbox.cif.g08.bks.cpg/sg3_5_cif.got.tgz:9833.got - 2010.06.03 18:33:08.
