data_PCOD9112302
_publ_section_title
;
Structure prediction by ZEFSAII (Michael W. Deem and Ramdas Pophale) SiO2 
 PCOD9112302
Probable space group: P -1
;
_chemical_formula_sum "Si O2"
_cell_formula_units_Z 13
_cell_length_a 18.731276
_cell_length_b 8.039294
_cell_length_c 5.549296
_cell_angle_alpha 74.701400
_cell_angle_beta 79.083604
_cell_angle_gamma 131.366502
_cell_volume 523.013324
_symmetry_space_group_name_H-M "P -1"
_symmetry_group_IT_number 2
_symmetry_cell_setting 'triclinic'
loop_
_space_group_symop_operation_xyz
x,y,z
-x,-y,-z
loop_
_atom_site_type_symbol
_atom_site_label
_atom_site_fract_x
_atom_site_fract_y
_atom_site_fract_z
Si Si1 0.664759 0.182269 0.767030
Si Si2 0.762437 0.054870 0.532338
Si Si3 0.897816 0.581317 0.685691
Si Si4 0.918823 0.937090 0.886500
Si Si5 0.000000 0.500000 0.500000
Si Si6 0.482286 0.815730 0.387521
Si Si7 0.294762 0.237297 0.819896
O O1 0.786727 0.429240 0.686911
O O2 0.603741 0.248496 0.717703
O O3 0.689595 0.101240 0.558544
O O4 0.591229 0.969274 0.107473
O O5 0.731549 0.900488 0.366493
O O6 0.889995 0.314463 0.428179
O O7 0.719586 0.882759 0.868404
O O8 0.912569 0.767268 0.774531
O O9 0.909215 0.403858 0.809398
O O10 0.012471 0.774540 0.374164
O O11 0.799952 0.782742 0.099752
O O12 0.000000 0.000000 0.000000
O O13 0.416459 0.535702 0.632554
O O14 0.500000 0.000000 0.500000
#
# Coordination Sequence:
#
# PCOD9112302 Si02
#       7
#     2   2   2   2   1   2   2
#     4  10  25  46  69 102 137 190 237 298 356 425
#     4  11  27  47  72 108 147 192 230 298 358 432
#     4  10  21  40  66  96 136 177 232 279 355 415
#     4  11  22  37  65  99 136 183 231 288 349 420
#     4  10  20  46  66 102 146 182 230 276 358 426
#     4  11  26  46  75 100 139 188 247 301 357 426
#     4  12  27  46  73 106 146 186 244 294 360 422
#
# _framework density 24.855965000000001
#
# number of rings (size 3 to 8) (size 9 to 14) (size 15 to 20)
#    0.000    1.231    1.538    2.769   10.769    1.846 
#    8.308    0.000    0.000    0.000    0.000    0.000 
#    0.000    0.000    0.000    0.000    0.000    0.000 
#
# Total GULP energy -72417.201769 kJ/mol
# GULP energy per Si atom -5570.553982 kJ/mol
# Density = 2.479939 g / cm^3
# Si number density = 24.855965 Si / 1000 Ang^3
#
#
#
# Elastic Constant Matrix: (Units=GPa)
#
#
# Indices 1 2 3 4 5 6 
#
# 1 76.5247 -3.7844 4.8779 27.3313 -13.7503 -2.6760
# 2 -3.7844 144.7518 54.0051 31.5888 -10.5832 -22.6185
# 3 4.8779 54.0051 78.3818 17.2166 -2.9582 -10.7553
# 4 27.3313 31.5888 17.2166 27.9574 -16.1171 -6.6714
# 5 -13.7503 -10.5832 -2.9582 -16.1171 42.1260 8.2661
# 6 -2.6760 -22.6185 -10.7553 -6.6714 8.2661 30.7392
#
#
#
# Elastic Compliance Matrix: (Units=1/GPa)
#
#
# Indices 1 2 3 4 5 6 
#
# 1 0.026307 0.008628 0.000831 -0.037873 -0.004029 0.001794
# 2 0.008628 0.014536 -0.004945 -0.022524 -0.003636 0.005806
# 3 0.000831 -0.004945 0.017907 -0.007510 -0.002952 0.001863
# 4 -0.037873 -0.022524 -0.007510 0.117563 0.027278 -0.004319
# 5 -0.004029 -0.003636 -0.002952 0.027278 0.033121 -0.007046
# 6 0.001794 0.005806 0.001863 -0.004319 -0.007046 0.038569
#
#
# Mechanical properties :
#
#
# Convention : Reuss Voigt Hill
#
# Bulk Modulus (GPa) = 14.75411 45.53951 30.14681
# Shear Modulus (GPa) = 19.11554 36.46851 27.79203
#
# Velocity S-wave (km/s) = 2.77619 3.83455 3.34746
# Velocity P-wave (km/s) = 4.02803 6.16167 5.20534
#
# Compressibility (1/GPa) = 0.06777775
#
# Stress axis : x y z
#
# Youngs Moduli (GPa) = 38.01308 68.79619 55.84303
#
# Poissons Ratio (x) = -0.59360 -0.04639
# Poissons Ratio (y) = -0.32799 0.27615
# Poissons Ratio (z) = -0.03158 0.34021
#
# Static dielectric constant tensor:
#      x y z
#    x 2.286190 -0.195300 0.217040 
#    y -0.195300 2.115030 -0.118540 
#    z 0.217040 -0.118540 2.043220 
# 
# From -- ./inp_files/24172.got.cif
#   From: 2010.05.17/outbox.cif.g08.bks.cpg/sg2_13_cif.got.tgz:24172.got - 2010.06.03 11:33:40.
