data_PCOD9112674
_publ_section_title
;
Structure prediction by ZEFSAII (Michael W. Deem and Ramdas Pophale) SiO2 
 PCOD9112674
Probable space group: P 2
;
_chemical_formula_sum "Si O2"
_cell_formula_units_Z 16
_cell_length_a 9.977991
_cell_length_b 18.367254
_cell_length_c 8.453374
_cell_angle_alpha 90.000000
_cell_angle_beta 32.089847
_cell_angle_gamma 90.000000
_cell_volume 823.028940
_symmetry_space_group_name_H-M "P 2"
_symmetry_group_IT_number 3
_symmetry_cell_setting 'monoclinic'
loop_
_space_group_symop_operation_xyz
x,y,z
-x,y,-z
loop_
_atom_site_type_symbol
_atom_site_label
_atom_site_fract_x
_atom_site_fract_y
_atom_site_fract_z
Si Si1 0.000150 0.104980 0.311183
Si Si2 0.499982 0.350633 0.191977
Si Si3 0.499853 0.185599 0.311728
Si Si4 0.000019 0.605240 0.306490
Si Si5 0.000019 0.437501 0.307096
Si Si6 0.499980 0.690798 0.193111
Si Si7 0.500002 0.859165 0.809710
Si Si8 0.999998 0.939860 0.811424
O O1 0.750281 0.146189 0.502207
O O2 0.000000 0.104052 0.500000
O O3 0.000086 0.022682 0.248455
O O4 0.250188 0.146142 0.002436
O O5 0.499917 0.269317 0.257444
O O6 0.250556 0.394537 0.491253
O O7 0.500000 0.346745 0.000000
O O8 0.749439 0.394520 0.992371
O O9 0.500000 0.181417 0.500000
O O10 0.000051 0.521332 0.254641
O O11 0.750086 0.648082 0.505762
O O12 0.000000 0.604685 0.500000
O O13 0.249931 0.648095 0.005918
O O14 0.000000 0.438722 0.500000
O O15 0.499954 0.774827 0.242929
O O16 0.500000 0.690771 0.000000
O O17 0.750294 0.899307 0.499704
O O18 0.500000 0.860519 0.000000
O O19 0.249648 0.899276 0.000352
O O20 0.000000 0.939647 0.000000
#
# Coordination Sequence:
#
# PCOD9112674 Si02
#       8
#     2   2   2   2   2   2   2   2
#     4  12  25  44  67  91 119 156 197 244 296 354
#     4  10  19  33  52  79 112 151 193 238 288 346
#     4  12  25  42  63  91 123 158 197 244 296 354
#     4   9  15  26  44  75 113 147 182 237 300 342
#     4   9  17  28  48  77 112 147 188 239 292 342
#     4   9  17  28  48  77 112 146 186 239 294 342
#     4  11  22  39  61  89 121 159 202 247 296 354
#     4  12  25  42  62  89 122 158 197 244 296 354
#
# _framework density 19.440386
#
# number of rings (size 3 to 8) (size 9 to 14) (size 15 to 20)
#    0.000    1.500    0.000    6.750    0.000    6.000 
#    0.000    0.000    0.000    0.000    0.000   17.500 
#    0.000    0.000    0.000    0.000    0.000    0.000 
#
# Total GULP energy -89480.518509 kJ/mol
# GULP energy per Si atom -5592.532407 kJ/mol
# Density = 1.939614 g / cm^3
# Si number density = 19.440386 Si / 1000 Ang^3
#
#
#
# Elastic Constant Matrix: (Units=GPa)
#
#
# Indices 1 2 3 4 5 6 
#
# 1 92.9864 69.1039 71.6967 0.0000 -12.3012 0.0000
# 2 69.1039 248.0122 138.2258 0.0000 -36.3293 0.0000
# 3 71.6967 138.2258 205.8377 0.0000 -47.0317 0.0000
# 4 0.0000 0.0000 0.0000 34.9730 0.0000 -28.8912
# 5 -12.3012 -36.3293 -47.0317 0.0000 40.5970 0.0000
# 6 0.0000 0.0000 0.0000 -28.8912 0.0000 -19.8840
#
#
#
# Elastic Compliance Matrix: (Units=1/GPa)
#
#
# Indices 1 2 3 4 5 6 
#
# 1 0.015520 -0.002171 -0.004511 0.000000 -0.002467 0.000000
# 2 -0.002171 0.006779 -0.003482 0.000000 0.001375 0.000000
# 3 -0.004511 -0.003482 0.010531 0.000000 0.007718 0.000000
# 4 0.000000 0.000000 0.000000 0.012995 0.000000 -0.018882
# 5 -0.002467 0.001375 0.007718 0.000000 0.034056 0.000000
# 6 0.000000 0.000000 0.000000 -0.018882 0.000000 -0.022857
#
#
# Mechanical properties :
#
#
# Convention : Reuss Voigt Hill
#
# Bulk Modulus (GPa) = 79.99414 122.76545 101.37979
# Shear Modulus (GPa) = 61.33391 28.99119 45.16255
#
# Velocity S-wave (km/s) = 5.62301 3.86591 4.82512
# Velocity P-wave (km/s) = 9.13211 9.12216 9.12713
#
# Compressibility (1/GPa) = 0.01250092
#
# Stress axis : x y z
#
# Youngs Moduli (GPa) = 64.43249 147.51443 94.95641
#
# Poissons Ratio (x) = 0.32031 0.42839
# Poissons Ratio (y) = 0.13991 0.33063
# Poissons Ratio (z) = 0.29068 0.51363
#
# Static dielectric constant tensor:
#      x y z
#    x 1.652070 0.000000 0.005750 
#    y 0.000000 1.643860 0.000000 
#    z 0.005750 0.000000 1.641070 
# 
# From -- ./inp_files/6184.got.cif
#   From: 2010.05.17/outbox.cif.g08.bks.cpg/sg3_4_cif.got.tgz:6184.got - 2010.06.03 18:33:08.
