data_PCOD9112630
_publ_section_title
;
Structure prediction by ZEFSAII (Michael W. Deem and Ramdas Pophale) SiO2 
 PCOD9112630
Probable space group: P 2
;
_chemical_formula_sum "Si O2"
_cell_formula_units_Z 15
_cell_length_a 11.986133
_cell_length_b 8.079382
_cell_length_c 12.465878
_cell_angle_alpha 90.000000
_cell_angle_beta 140.389593
_cell_angle_gamma 90.000000
_cell_volume 769.668739
_symmetry_space_group_name_H-M "P 2"
_symmetry_group_IT_number 3
_symmetry_cell_setting 'monoclinic'
loop_
_space_group_symop_operation_xyz
x,y,z
-x,y,-z
loop_
_atom_site_type_symbol
_atom_site_label
_atom_site_fract_x
_atom_site_fract_y
_atom_site_fract_z
Si Si1 0.927050 0.960940 0.179017
Si Si2 0.529405 0.346669 0.394967
Si Si3 0.238336 0.609208 0.996744
Si Si4 0.505466 0.700561 0.632611
Si Si5 0.813753 0.891882 0.321445
Si Si6 0.145159 0.279809 0.014413
Si Si7 0.294869 0.015412 0.537282
Si Si8 0.500000 0.665650 0.000000
O O1 0.853205 0.994084 0.243434
O O2 0.135121 0.963199 0.343206
O O3 0.865520 0.774807 0.110269
O O4 0.867768 0.104607 0.055360
O O5 0.500000 0.346816 0.500000
O O6 0.598415 0.530294 0.416970
O O7 0.341428 0.303747 0.204258
O O8 0.652993 0.198521 0.454535
O O9 0.316595 0.656443 0.172396
O O10 0.125952 0.442193 0.924773
O O11 0.390695 0.583205 0.018455
O O12 0.500000 0.714293 0.500000
O O13 0.439701 0.874123 0.628635
O O14 0.758079 0.005494 0.378438
O O15 0.000000 0.812766 0.500000
O O16 0.652950 0.771138 0.172934
O O17 0.000000 0.284732 0.000000
#
# Coordination Sequence:
#
# PCOD9112630 Si02
#       8
#     2   2   2   2   2   2   2   1
#     4  10  23  39  60  90 122 164 200 257 319 363
#     4  10  22  38  57  86 117 158 206 250 305 366
#     4  10  22  41  63  94 123 165 211 253 320 371
#     4  10  21  37  58  87 119 156 206 250 303 372
#     4   9  20  37  61  94 126 161 212 261 313 381
#     4  11  24  41  61  90 128 160 207 261 307 381
#     4  11  20  38  62  85 121 163 204 252 309 373
#     4  10  18  40  68  90 132 164 210 272 308 386
#
# _framework density 19.488904000000002
#
# number of rings (size 3 to 8) (size 9 to 14) (size 15 to 20)
#    0.000    1.867    1.333    2.000    1.867    5.867 
#    4.800    0.000    0.000    4.800    0.000    0.000 
#    0.000    0.000    0.000    0.000    0.000    0.000 
#
# Total GULP energy -83542.791625 kJ/mol
# GULP energy per Si atom -5569.519442 kJ/mol
# Density = 1.944455 g / cm^3
# Si number density = 19.488904 Si / 1000 Ang^3
#
#
#
# Elastic Constant Matrix: (Units=GPa)
#
#
# Indices 1 2 3 4 5 6 
#
# 1 60.0622 17.9799 -1.9687 0.0000 -8.2922 0.0000
# 2 17.9799 89.3377 -9.2562 0.0000 -3.9294 0.0000
# 3 -1.9687 -9.2562 45.3558 0.0000 -9.5318 0.0000
# 4 0.0000 0.0000 0.0000 10.1521 0.0000 17.5381
# 5 -8.2922 -3.9294 -9.5318 0.0000 25.3685 0.0000
# 6 0.0000 0.0000 0.0000 17.5381 0.0000 51.8254
#
#
#
# Elastic Compliance Matrix: (Units=1/GPa)
#
#
# Indices 1 2 3 4 5 6 
#
# 1 0.018526 -0.003316 0.001403 0.000000 0.006069 0.000000
# 2 -0.003316 0.012225 0.002737 0.000000 0.001838 0.000000
# 3 0.001403 0.002737 0.024812 0.000000 0.010205 0.000000
# 4 0.000000 0.000000 0.000000 0.237132 0.000000 -0.080247
# 5 0.006069 0.001838 0.010205 0.000000 0.045522 0.000000
# 6 0.000000 0.000000 0.000000 -0.080247 0.000000 0.046452
#
#
# Mechanical properties :
#
#
# Convention : Reuss Voigt Hill
#
# Bulk Modulus (GPa) = 17.47907 23.14063 20.30985
# Shear Modulus (GPa) = 12.43497 30.00257 21.21877
#
# Velocity S-wave (km/s) = 2.52871 3.92786 3.30322
# Velocity P-wave (km/s) = 4.18498 5.69828 4.99922
#
# Compressibility (1/GPa) = 0.05721128
#
# Stress axis : x y z
#
# Youngs Moduli (GPa) = 53.97817 81.79718 40.30287
#
# Poissons Ratio (x) = 0.27126 -0.05654
# Poissons Ratio (y) = 0.17900 -0.11032
# Poissons Ratio (z) = -0.07572 -0.22390
#
# Static dielectric constant tensor:
#      x y z
#    x 1.667200 0.000000 -0.005470 
#    y 0.000000 1.687060 0.000000 
#    z -0.005470 0.000000 1.718440 
# 
# From -- ./inp_files/11759.got.cif
#   From: 2010.05.17/outbox.cif.g08.bks.cpg/sg3_6_cif.got.tgz:11759.got - 2010.06.03 18:33:08.
