data_PCOD9112294
_publ_section_title
;
Structure prediction by ZEFSAII (Michael W. Deem and Ramdas Pophale) SiO2 
 PCOD9112294
Probable space group: P -1
;
_chemical_formula_sum "Si O2"
_cell_formula_units_Z 14
_cell_length_a 5.073550
_cell_length_b 5.133325
_cell_length_c 22.201672
_cell_angle_alpha 100.778137
_cell_angle_beta 103.966207
_cell_angle_gamma 93.203896
_cell_volume 548.128127
_symmetry_space_group_name_H-M "P -1"
_symmetry_group_IT_number 2
_symmetry_cell_setting 'triclinic'
loop_
_space_group_symop_operation_xyz
x,y,z
-x,-y,-z
loop_
_atom_site_type_symbol
_atom_site_label
_atom_site_fract_x
_atom_site_fract_y
_atom_site_fract_z
Si Si1 0.047288 0.819220 0.132767
Si Si2 0.147904 0.399159 0.706997
Si Si3 0.640136 0.627814 0.827021
Si Si4 0.457502 0.609621 0.068113
Si Si5 0.661458 0.355913 0.451565
Si Si6 0.175016 0.129027 0.344165
Si Si7 0.122700 0.148940 0.578351
O O1 0.182700 0.746468 0.072517
O O2 0.136385 0.582807 0.168729
O O3 0.724603 0.807708 0.109289
O O4 0.210207 0.093962 0.173602
O O5 0.379033 0.518809 0.769842
O O6 0.988610 0.637283 0.681763
O O7 0.288961 0.257574 0.652372
O O8 0.936224 0.147789 0.706886
O O9 0.555897 0.624673 0.892754
O O10 0.500000 0.500000 0.000000
O O11 0.500000 0.500000 0.500000
O O12 0.477887 0.266909 0.378185
O O13 0.747011 0.069423 0.463228
O O14 0.889580 0.579448 0.446674
O O15 0.113341 0.025097 0.405400
#
# Coordination Sequence:
#
# PCOD9112294 Si02
#       7
#     2   2   2   2   2   2   2
#     4  10  24  41  68  97 135 173 230 268 344 386
#     4  10  20  46  62  86 131 163 213 261 325 389
#     4  10  24  42  64  97 132 168 232 272 342 389
#     4  10  24  45  67 100 139 179 226 279 335 395
#     4  12  24  40  63  94 122 165 213 257 319 390
#     4  10  22  41  62  87 124 161 209 252 329 366
#     4  10  22  42  58  88 124 158 206 255 320 369
#
# _framework density 25.541474000000001
#
# number of rings (size 3 to 8) (size 9 to 14) (size 15 to 20)
#    1.714    0.000    1.429    2.571    2.000    2.286 
#    7.714    0.000    0.000    0.000    0.000    0.000 
#    0.000    0.000    0.000    0.000    0.000    0.000 
#
# Total GULP energy -78102.805228 kJ/mol
# GULP energy per Si atom -5578.771802 kJ/mol
# Density = 2.548334 g / cm^3
# Si number density = 25.541474 Si / 1000 Ang^3
#
#
#
# Elastic Constant Matrix: (Units=GPa)
#
#
# Indices 1 2 3 4 5 6 
#
# 1 60.5471 37.5759 -7.3062 -1.4882 2.0058 1.2926
# 2 37.5759 160.5296 20.0457 23.7155 6.3406 -5.6948
# 3 -7.3062 20.0457 58.1681 -0.7120 2.0688 -12.6418
# 4 -1.4882 23.7155 -0.7120 29.5768 8.0670 3.2421
# 5 2.0058 6.3406 2.0688 8.0670 43.0960 5.6431
# 6 1.2926 -5.6948 -12.6418 3.2421 5.6431 29.1858
#
#
#
# Elastic Compliance Matrix: (Units=1/GPa)
#
#
# Indices 1 2 3 4 5 6 
#
# 1 0.021480 -0.006648 0.005004 0.007003 -0.001498 -0.000569
# 2 -0.006648 0.009541 -0.003967 -0.008354 0.000494 0.001270
# 3 0.005004 -0.003967 0.021102 0.003704 -0.002430 0.008203
# 4 0.007003 -0.008354 0.003704 0.043242 -0.006870 -0.003811
# 5 -0.001498 0.000494 -0.002430 -0.006870 0.025260 -0.005011
# 6 -0.000569 0.001270 0.008203 -0.003811 -0.005011 0.039482
#
#
# Mechanical properties :
#
#
# Convention : Reuss Voigt Hill
#
# Bulk Modulus (GPa) = 24.44935 42.20844 33.32889
# Shear Modulus (GPa) = 27.03285 35.63368 31.33326
#
# Velocity S-wave (km/s) = 3.25682 3.73920 3.50631
# Velocity P-wave (km/s) = 4.87193 5.93325 5.42859
#
# Compressibility (1/GPa) = 0.04090088
#
# Stress axis : x y z
#
# Youngs Moduli (GPa) = 46.55511 104.81463 47.38980
#
# Poissons Ratio (x) = 0.69685 -0.23716
# Poissons Ratio (y) = 0.30952 0.18798
# Poissons Ratio (z) = -0.23298 0.41576
#
# Static dielectric constant tensor:
#      x y z
#    x 2.053200 -0.004850 -0.028330 
#    y -0.004850 1.973400 -0.036870 
#    z -0.028330 -0.036870 2.068290 
# 
# From -- ./inp_files/602994.got.cif
#   From: 2010.05.17/outbox.cif.g08.bks.cpg/sg2_302_cif.got.tgz:602994.got - 2010.06.03 11:33:40.
