data_PCOD9112491
_publ_section_title
;
Structure prediction by ZEFSAII (Michael W. Deem and Ramdas Pophale) SiO2 
 PCOD9112491
Probable space group: P 2
;
_chemical_formula_sum "Si O2"
_cell_formula_units_Z 14
_cell_length_a 13.320072
_cell_length_b 5.225565
_cell_length_c 19.240711
_cell_angle_alpha 90.000000
_cell_angle_beta 26.734796
_cell_angle_gamma 90.000000
_cell_volume 602.475978
_symmetry_space_group_name_H-M "P 2"
_symmetry_group_IT_number 3
_symmetry_cell_setting 'monoclinic'
loop_
_space_group_symop_operation_xyz
x,y,z
-x,y,-z
loop_
_atom_site_type_symbol
_atom_site_label
_atom_site_fract_x
_atom_site_fract_y
_atom_site_fract_z
Si Si1 0.784113 0.186100 0.232129
Si Si2 0.862981 0.669706 0.429255
Si Si3 0.327485 0.472701 0.164768
Si Si4 0.158571 0.693689 0.717693
Si Si5 0.639346 0.722816 0.085823
Si Si6 0.944095 0.169662 0.453933
Si Si7 0.694776 0.217252 0.132759
O O1 0.656576 0.174628 0.237940
O O2 0.760470 0.447160 0.289551
O O3 0.744408 0.947212 0.306760
O O4 0.043269 0.176205 0.047612
O O5 0.132591 0.651692 0.255747
O O6 0.781138 0.668256 0.400856
O O7 0.814239 0.423729 0.507874
O O8 0.825444 0.925880 0.495175
O O9 0.453866 0.616783 0.148203
O O10 0.189878 0.222485 0.270900
O O11 0.500000 0.402636 0.000000
O O12 0.886903 0.715321 0.896940
O O13 0.650869 0.509771 0.139203
O O14 0.586330 0.001943 0.150093
O O15 0.000000 0.153995 0.500000
#
# Coordination Sequence:
#
# PCOD9112491 Si02
#       7
#     2   2   2   2   2   2   2
#     4   9  17  28  43  64  99 137 176 207 263 310
#     4  10  21  34  53  76 106 139 180 216 263 314
#     4  10  22  35  54  81 112 145 178 219 266 318
#     4  10  17  29  47  71  99 136 171 217 258 316
#     4  10  18  29  45  68 102 136 177 207 262 311
#     4  10  22  38  55  73 109 151 180 222 258 310
#     4   9  18  28  42  64  97 142 174 210 251 325
#
# _framework density 23.237442999999999
#
# number of rings (size 3 to 8) (size 9 to 14) (size 15 to 20)
#    0.857    1.429    1.429    2.143    2.000    5.143 
#    0.000    0.000    0.000    0.000    0.000    0.000 
#    0.000   17.143    0.000    0.000    0.000    0.000 
#
# Total GULP energy -78213.480020 kJ/mol
# GULP energy per Si atom -5586.677144 kJ/mol
# Density = 2.318455 g / cm^3
# Si number density = 23.237443 Si / 1000 Ang^3
#
#
#
# Elastic Constant Matrix: (Units=GPa)
#
#
# Indices 1 2 3 4 5 6 
#
# 1 123.0783 43.1937 19.3957 0.0000 36.4183 0.0000
# 2 43.1937 161.3983 2.4950 0.0000 29.9103 0.0000
# 3 19.3957 2.4950 64.2854 0.0000 -2.1989 0.0000
# 4 0.0000 0.0000 0.0000 0.8761 0.0000 10.9685
# 5 36.4183 29.9103 -2.1989 0.0000 42.8334 0.0000
# 6 0.0000 0.0000 0.0000 10.9685 0.0000 28.9282
#
#
#
# Elastic Compliance Matrix: (Units=1/GPa)
#
#
# Indices 1 2 3 4 5 6 
#
# 1 0.012027 -0.001409 -0.003897 0.000000 -0.009442 0.000000
# 2 -0.001409 0.007295 0.000009 0.000000 -0.003896 0.000000
# 3 -0.003897 0.000009 0.016874 0.000000 0.004174 0.000000
# 4 0.000000 0.000000 0.000000 -0.304624 0.000000 0.115502
# 5 -0.009442 -0.003896 0.004174 0.000000 0.034309 0.000000
# 6 0.000000 0.000000 0.000000 0.115502 0.000000 -0.009226
#
#
# Mechanical properties :
#
#
# Convention : Reuss Voigt Hill
#
# Bulk Modulus (GPa) = 39.06004 53.21454 46.13729
# Shear Modulus (GPa) = -22.29986 33.43939 5.56976
#
# Velocity S-wave (km/s) = -3.10119 3.79757 1.54987
# Velocity P-wave (km/s) = 2.00560 6.49452 4.80631
#
# Compressibility (1/GPa) = 0.02560161
#
# Stress axis : x y z
#
# Youngs Moduli (GPa) = 83.14340 137.08666 59.26325
#
# Poissons Ratio (x) = 0.19311 0.23096
# Poissons Ratio (y) = 0.11712 -0.00051
# Poissons Ratio (z) = 0.32402 -0.00118
#
# Static dielectric constant tensor:
#      x y z
#    x 1.834770 0.000000 -0.037630 
#    y 0.000000 1.842580 0.000000 
#    z -0.037630 0.000000 1.907940 
# 
# From -- ./inp_files/15217.got.cif
#   From: 2010.05.17/outbox.cif.g08.bks.cpg/sg3_8_cif.got.tgz:15217.got - 2010.06.03 18:33:08.
