data_PCOD9112580
_publ_section_title
;
Structure prediction by ZEFSAII (Michael W. Deem and Ramdas Pophale) SiO2 
 PCOD9112580
Probable space group: P 2
;
_chemical_formula_sum "Si O2"
_cell_formula_units_Z 14
_cell_length_a 6.731424
_cell_length_b 8.283606
_cell_length_c 19.996503
_cell_angle_alpha 90.000000
_cell_angle_beta 136.696490
_cell_angle_gamma 90.000000
_cell_volume 764.746975
_symmetry_space_group_name_H-M "P 2"
_symmetry_group_IT_number 3
_symmetry_cell_setting 'monoclinic'
loop_
_space_group_symop_operation_xyz
x,y,z
-x,y,-z
loop_
_atom_site_type_symbol
_atom_site_label
_atom_site_fract_x
_atom_site_fract_y
_atom_site_fract_z
Si Si1 0.345031 0.026450 0.826342
Si Si2 0.874468 0.518562 0.397165
Si Si3 0.000000 0.968133 0.000000
Si Si4 0.752014 0.622405 0.711050
Si Si5 0.810454 0.801700 0.088904
Si Si6 0.500000 0.098176 0.500000
Si Si7 0.070617 0.829215 0.366009
Si Si8 0.062311 0.307601 0.322038
O O1 0.160080 0.185596 0.766717
O O2 0.690759 0.054406 0.910196
O O3 0.260383 0.948693 0.877148
O O4 0.223232 0.898557 0.740646
O O5 0.546076 0.570920 0.328744
O O6 0.000000 0.477569 0.500000
O O7 0.023705 0.677817 0.402436
O O8 0.932473 0.372998 0.360191
O O9 0.062521 0.863307 0.949456
O O10 0.738662 0.760576 0.649795
O O11 0.881929 0.465052 0.707733
O O12 0.967443 0.688169 0.819372
O O13 0.500000 0.720548 0.000000
O O14 0.366273 0.215460 0.410889
O O15 0.231936 0.974638 0.443524
#
# Coordination Sequence:
#
# PCOD9112580 Si02
#       8
#     2   2   1   2   2   1   2   2
#     4   9  19  36  56  80 108 141 178 218 267 319
#     4  11  21  34  54  81 108 142 183 221 264 313
#     4  10  18  34  60  84 106 130 176 232 268 308
#     4  10  20  37  56  77 110 144 175 220 269 313
#     4   9  19  36  60  82 102 137 181 223 267 316
#     4  10  18  36  56  74 108 144 174 222 264 296
#     4   9  19  35  56  79 104 139 186 225 259 311
#     4  10  22  37  53  78 113 146 177 214 265 327
#
# _framework density 18.306709000000001
#
# number of rings (size 3 to 8) (size 9 to 14) (size 15 to 20)
#    0.000    2.286    0.000    2.571    0.000    4.571 
#    0.000   19.286    0.000    2.571    0.000    0.000 
#    0.000    0.000    0.000    0.000    0.000    0.000 
#
# Total GULP energy -78028.719826 kJ/mol
# GULP energy per Si atom -5573.479988 kJ/mol
# Density = 1.826504 g / cm^3
# Si number density = 18.306709 Si / 1000 Ang^3
#
#
#
# Elastic Constant Matrix: (Units=GPa)
#
#
# Indices 1 2 3 4 5 6 
#
# 1 79.2807 14.3812 50.6762 0.0000 -2.8054 0.0000
# 2 14.3812 68.3206 41.8034 0.0000 -2.0597 0.0000
# 3 50.6762 41.8034 140.6285 0.0000 9.4454 0.0000
# 4 0.0000 0.0000 0.0000 -96.4928 0.0000 6.9434
# 5 -2.8054 -2.0597 9.4454 0.0000 24.7608 0.0000
# 6 0.0000 0.0000 0.0000 6.9434 0.0000 7.6533
#
#
#
# Elastic Compliance Matrix: (Units=1/GPa)
#
#
# Indices 1 2 3 4 5 6 
#
# 1 0.016848 0.000594 -0.006547 0.000000 0.004456 0.000000
# 2 0.000594 0.018232 -0.005891 0.000000 0.003831 0.000000
# 3 -0.006547 -0.005891 0.011601 0.000000 -0.005657 0.000000
# 4 0.000000 0.000000 0.000000 -0.009728 0.000000 0.008826
# 5 0.004456 0.003831 -0.005657 0.000000 0.043368 0.000000
# 6 0.000000 0.000000 0.000000 0.008826 0.000000 0.122655
#
#
# Mechanical properties :
#
#
# Convention : Reuss Voigt Hill
#
# Bulk Modulus (GPa) = 43.49146 55.77238 49.63192
# Shear Modulus (GPa) = 21.33749 -0.72448 10.30651
#
# Velocity S-wave (km/s) = 3.41773 -0.62977 2.37532
# Velocity P-wave (km/s) = 6.27560 5.47749 5.89008
#
# Compressibility (1/GPa) = 0.02299302
#
# Stress axis : x y z
#
# Youngs Moduli (GPa) = 59.35313 54.84906 86.19666
#
# Poissons Ratio (x) = -0.03257 0.56435
# Poissons Ratio (y) = -0.03525 0.50778
# Poissons Ratio (z) = 0.38860 0.32311
#
# Static dielectric constant tensor:
#      x y z
#    x 1.627000 0.000000 0.012360 
#    y 0.000000 1.607480 0.000000 
#    z 0.012360 0.000000 1.694490 
# 
# From -- ./inp_files/3028.got.cif
#   From: 2010.05.17/outbox.cif.g08.bks.cpg/sg3_2_cif.got.tgz:3028.got - 2010.06.03 18:33:08.
