data_PCOD9112895
_publ_section_title
;
Structure prediction by ZEFSAII (Michael W. Deem and Ramdas Pophale) SiO2 
 PCOD9112895
Probable space group: P 2
;
_chemical_formula_sum "Si O2"
_cell_formula_units_Z 15
_cell_length_a 14.360763
_cell_length_b 8.281607
_cell_length_c 17.778383
_cell_angle_alpha 90.000000
_cell_angle_beta 21.857367
_cell_angle_gamma 90.000000
_cell_volume 787.180386
_symmetry_space_group_name_H-M "P 2"
_symmetry_group_IT_number 3
_symmetry_cell_setting 'monoclinic'
loop_
_space_group_symop_operation_xyz
x,y,z
-x,y,-z
loop_
_atom_site_type_symbol
_atom_site_label
_atom_site_fract_x
_atom_site_fract_y
_atom_site_fract_z
Si Si1 0.171305 0.736770 0.965953
Si Si2 0.356231 0.609453 0.683458
Si Si3 0.500000 0.053209 0.000000
Si Si4 0.493716 0.541711 0.832024
Si Si5 0.817070 0.269985 0.862713
Si Si6 0.602433 0.342399 0.598508
Si Si7 0.284700 0.867363 0.300591
Si Si8 0.651933 0.058346 0.129156
O O1 0.366407 0.721006 0.750310
O O2 0.275875 0.656075 0.962385
O O3 0.143750 0.926923 0.998176
O O4 0.931552 0.630274 0.125052
O O5 0.500000 0.654435 0.500000
O O6 0.460544 0.441812 0.639148
O O7 0.724291 0.167821 0.860547
O O8 0.568479 0.939054 0.879949
O O9 0.588783 0.441470 0.688042
O O10 0.689732 0.673827 0.713505
O O11 0.369363 0.421953 0.985128
O O12 0.107304 0.316306 0.639071
O O13 0.766251 0.163001 0.975452
O O14 0.454097 0.177931 0.728258
O O15 0.000000 0.913626 0.500000
O O16 0.416498 0.954675 0.272917
#
# Coordination Sequence:
#
# PCOD9112895 Si02
#       8
#     2   2   1   2   2   2   2   2
#     4   9  19  38  56  76 109 141 179 229 271 327
#     4  10  20  35  56  80 106 139 181 227 274 322
#     4  10  22  34  52  82 114 148 184 230 280 314
#     4   9  20  35  55  79 107 147 183 219 275 325
#     4  10  20  36  56  82 115 144 182 230 271 326
#     4  10  20  36  58  81 106 145 185 223 275 331
#     4  10  20  36  56  81 112 147 189 229 266 321
#     4   9  20  38  58  80 110 149 182 220 280 326
#
# _framework density 19.055354000000001
#
# number of rings (size 3 to 8) (size 9 to 14) (size 15 to 20)
#    0.000    2.400    0.000    1.600    0.000    4.800 
#    0.000   20.667    0.000    0.000    0.000    0.000 
#    0.000    0.000    0.000    0.000    0.000    0.000 
#
# Total GULP energy -83514.182842 kJ/mol
# GULP energy per Si atom -5567.612189 kJ/mol
# Density = 1.901198 g / cm^3
# Si number density = 19.055354 Si / 1000 Ang^3
#
#
#
# Elastic Constant Matrix: (Units=GPa)
#
#
# Indices 1 2 3 4 5 6 
#
# 1 49.5440 13.2731 12.9210 0.0000 -4.4742 0.0000
# 2 13.2731 86.8252 26.6637 0.0000 -2.3909 0.0000
# 3 12.9210 26.6637 80.3196 0.0000 -8.3574 0.0000
# 4 0.0000 0.0000 0.0000 4.5696 0.0000 15.0721
# 5 -4.4742 -2.3909 -8.3574 0.0000 29.4530 0.0000
# 6 0.0000 0.0000 0.0000 15.0721 0.0000 -16.7929
#
#
#
# Elastic Compliance Matrix: (Units=1/GPa)
#
#
# Indices 1 2 3 4 5 6 
#
# 1 0.021702 -0.002512 -0.002406 0.000000 0.002410 0.000000
# 2 -0.002512 0.013117 -0.003997 0.000000 -0.000451 0.000000
# 3 -0.002406 -0.003997 0.014521 0.000000 0.003430 0.000000
# 4 0.000000 0.000000 0.000000 0.055257 0.000000 0.049595
# 5 0.002410 -0.000451 0.003430 0.000000 0.035255 0.000000
# 6 0.000000 0.000000 0.000000 0.049595 0.000000 -0.015036
#
#
# Mechanical properties :
#
#
# Convention : Reuss Voigt Hill
#
# Bulk Modulus (GPa) = 31.73753 35.82272 33.78013
# Shear Modulus (GPa) = 32.64765 14.36802 23.50783
#
# Velocity S-wave (km/s) = 4.14370 2.74891 3.51616
# Velocity P-wave (km/s) = 6.29168 5.37731 5.85238
#
# Compressibility (1/GPa) = 0.03150844
#
# Stress axis : x y z
#
# Youngs Moduli (GPa) = 46.07790 76.23975 68.86461
#
# Poissons Ratio (x) = 0.19154 0.16572
# Poissons Ratio (y) = 0.11576 0.27526
# Poissons Ratio (z) = 0.11089 0.30474
#
# Static dielectric constant tensor:
#      x y z
#    x 1.721350 0.000000 -0.037310 
#    y 0.000000 1.693130 0.000000 
#    z -0.037310 0.000000 1.780860 
# 
# From -- ./inp_files/15353.got.cif
#   From: 2010.05.17/outbox.cif.g08.bks.cpg/sg3_8_cif.got.tgz:15353.got - 2010.06.03 18:33:08.
