data_PCOD9112185
_publ_section_title
;
Structure prediction by ZEFSAII (Michael W. Deem and Ramdas Pophale) SiO2 
 PCOD9112185
Probable space group: P -1
;
_chemical_formula_sum "Si O2"
_cell_formula_units_Z 15
_cell_length_a 8.394987
_cell_length_b 11.727624
_cell_length_c 10.276723
_cell_angle_alpha 62.989747
_cell_angle_beta 44.793578
_cell_angle_gamma 82.645643
_cell_volume 603.911974
_symmetry_space_group_name_H-M "P -1"
_symmetry_group_IT_number 2
_symmetry_cell_setting 'triclinic'
loop_
_space_group_symop_operation_xyz
x,y,z
-x,-y,-z
loop_
_atom_site_type_symbol
_atom_site_label
_atom_site_fract_x
_atom_site_fract_y
_atom_site_fract_z
Si Si1 0.427940 0.772100 0.903788
Si Si2 0.364601 0.545990 0.351260
Si Si3 0.773658 0.008858 0.706024
Si Si4 0.273820 0.256538 0.636804
Si Si5 0.500000 0.500000 0.000000
Si Si6 0.083141 0.727554 0.369641
Si Si7 0.659563 0.153782 0.359203
Si Si8 0.814409 0.810708 0.995843
O O1 0.562989 0.925809 0.779204
O O2 0.576993 0.667035 0.878209
O O3 0.324459 0.761728 0.826610
O O4 0.232259 0.729529 0.150348
O O5 0.329277 0.417274 0.530640
O O6 0.129772 0.595144 0.474392
O O7 0.600489 0.671531 0.175035
O O8 0.399790 0.492973 0.213296
O O9 0.802900 0.158974 0.650247
O O10 0.739759 0.925737 0.904283
O O11 0.000000 0.000000 0.500000
O O12 0.512501 0.216265 0.509024
O O13 0.142474 0.177233 0.880387
O O14 0.130103 0.227598 0.597955
O O15 0.500000 0.000000 0.500000
O O16 0.932439 0.176856 0.223599
#
# Coordination Sequence:
#
# PCOD9112185 Si02
#       8
#     2   2   2   2   1   2   2   2
#     4  11  22  46  71 102 141 184 245 292 358 426
#     4  11  25  46  77 108 141 194 248 300 364 428
#     4  12  26  45  72 108 140 189 247 301 366 429
#     4  12  26  48  72 106 149 195 242 296 369 440
#     4  10  20  44  74 100 140 182 242 298 344 420
#     4  11  24  45  77 100 144 189 239 304 356 427
#     4  12  27  46  71 105 146 197 238 291 369 440
#     4  12  27  47  70 108 150 187 240 307 363 428
#
# _framework density 24.838055000000001
#
# number of rings (size 3 to 8) (size 9 to 14) (size 15 to 20)
#    0.000    0.533    5.333    3.600    1.867    2.667 
#    0.000    2.667    0.000    0.000    0.000    0.000 
#    0.000    0.000    0.000    0.000    0.000    0.000 
#
# Total GULP energy -83540.256265 kJ/mol
# GULP energy per Si atom -5569.350418 kJ/mol
# Density = 2.478152 g / cm^3
# Si number density = 24.838055 Si / 1000 Ang^3
#
#
#
# Elastic Constant Matrix: (Units=GPa)
#
#
# Indices 1 2 3 4 5 6 
#
# 1 84.2968 25.0057 10.5880 -0.4566 3.3454 -9.4358
# 2 25.0057 137.1510 15.3115 -5.2269 2.7055 3.7062
# 3 10.5880 15.3115 65.1051 5.5476 10.3978 -7.0616
# 4 -0.4566 -5.2269 5.5476 34.2142 2.3122 -6.7138
# 5 3.3454 2.7055 10.3978 2.3122 56.2778 -3.2796
# 6 -9.4358 3.7062 -7.0616 -6.7138 -3.2796 24.7261
#
#
#
# Elastic Compliance Matrix: (Units=1/GPa)
#
#
# Indices 1 2 3 4 5 6 
#
# 1 0.013332 -0.002413 -0.001072 0.001057 -0.000207 0.005403
# 2 -0.002413 0.008041 -0.001831 0.001032 -0.000086 -0.002380
# 3 -0.001072 -0.001831 0.016984 -0.002124 -0.002678 0.003784
# 4 0.001057 0.001032 -0.002124 0.031367 -0.000537 0.008088
# 5 -0.000207 -0.000086 -0.002678 -0.000537 0.018388 0.001462
# 6 0.005403 -0.002380 0.003784 0.008088 0.001462 0.046332
#
#
# Mechanical properties :
#
#
# Convention : Reuss Voigt Hill
#
# Bulk Modulus (GPa) = 36.06761 43.15148 39.60954
# Shear Modulus (GPa) = 32.40098 38.75347 35.57722
#
# Velocity S-wave (km/s) = 3.61569 3.95428 3.78877
# Velocity P-wave (km/s) = 5.65540 6.18541 5.92633
#
# Compressibility (1/GPa) = 0.02772571
#
# Stress axis : x y z
#
# Youngs Moduli (GPa) = 75.00835 124.36458 58.87933
#
# Poissons Ratio (x) = 0.30005 0.06310
# Poissons Ratio (y) = 0.18097 0.10781
# Poissons Ratio (z) = 0.08039 0.22772
#
# Static dielectric constant tensor:
#      x y z
#    x 2.038030 -0.023340 -0.082200 
#    y -0.023340 1.947640 -0.034740 
#    z -0.082200 -0.034740 2.004450 
# 
# From -- ./inp_files/389252.got.cif
#   From: 2010.05.17/outbox.cif.g08.bks.cpg/sg2_195_cif.got.tgz:389252.got - 2010.06.03 11:33:40.
