data_PCOD9112207
_publ_section_title
;
Structure prediction by ZEFSAII (Michael W. Deem and Ramdas Pophale) SiO2 
 PCOD9112207
Probable space group: P -1
;
_chemical_formula_sum "Si O2"
_cell_formula_units_Z 13
_cell_length_a 8.624033
_cell_length_b 11.165355
_cell_length_c 5.216425
_cell_angle_alpha 87.706147
_cell_angle_beta 104.113128
_cell_angle_gamma 73.111150
_cell_volume 462.782412
_symmetry_space_group_name_H-M "P -1"
_symmetry_group_IT_number 2
_symmetry_cell_setting 'triclinic'
loop_
_space_group_symop_operation_xyz
x,y,z
-x,-y,-z
loop_
_atom_site_type_symbol
_atom_site_label
_atom_site_fract_x
_atom_site_fract_y
_atom_site_fract_z
Si Si1 0.157669 0.243048 0.793877
Si Si2 0.578113 0.097320 0.391028
Si Si3 0.437008 0.323839 0.611419
Si Si4 0.115625 0.093724 0.276341
Si Si5 0.265090 0.813010 0.941411
Si Si6 0.000000 0.500000 0.000000
Si Si7 0.689965 0.444309 0.202034
O O1 0.322891 0.275659 0.766955
O O2 0.112482 0.177265 0.525841
O O3 0.182803 0.151962 0.055371
O O4 0.029807 0.373973 0.836558
O O5 0.452893 0.236707 0.380758
O O6 0.627857 0.097723 0.116768
O O7 0.500000 0.000000 0.500000
O O8 0.764752 0.046074 0.599418
O O9 0.340908 0.471583 0.556913
O O10 0.627882 0.276837 0.789742
O O11 0.926006 0.107943 0.125695
O O12 0.271685 0.704197 0.741731
O O13 0.842258 0.466551 0.097556
O O14 0.500000 0.500000 0.000000
#
# Coordination Sequence:
#
# PCOD9112207 Si02
#       7
#     2   2   2   2   2   1   2
#     4  11  25  47  74 109 148 195 250 306 375 451
#     4  12  26  45  70 104 147 204 247 307 367 455
#     4  10  24  45  75 101 148 196 248 307 378 449
#     4  12  27  45  74 110 151 194 247 309 374 446
#     4  11  25  45  71 108 146 193 250 317 372 449
#     4  10  20  44  76 104 150 194 246 310 376 446
#     4   9  20  43  71 110 142 191 252 311 384 446
#
# _framework density 28.090955999999998
#
# number of rings (size 3 to 8) (size 9 to 14) (size 15 to 20)
#    0.000    1.231    3.077    1.385    4.308    3.077 
#    0.000    0.000    0.000    0.000    0.000    0.000 
#    0.000    0.000    0.000    0.000    0.000    0.000 
#
# Total GULP energy -72449.515779 kJ/mol
# GULP energy per Si atom -5573.039675 kJ/mol
# Density = 2.802702 g / cm^3
# Si number density = 28.090956 Si / 1000 Ang^3
#
#
#
# Elastic Constant Matrix: (Units=GPa)
#
#
# Indices 1 2 3 4 5 6 
#
# 1 158.0606 57.6183 31.1628 -4.3240 -24.5128 -16.9810
# 2 57.6183 184.2152 36.5878 39.9313 -10.0242 -38.1880
# 3 31.1628 36.5878 105.2059 12.2411 -12.4735 -6.8262
# 4 -4.3240 39.9313 12.2411 44.9059 -7.8360 -11.7461
# 5 -24.5128 -10.0242 -12.4735 -7.8360 48.4799 -9.8168
# 6 -16.9810 -38.1880 -6.8262 -11.7461 -9.8168 51.9661
#
#
#
# Elastic Compliance Matrix: (Units=1/GPa)
#
#
# Indices 1 2 3 4 5 6 
#
# 1 0.008846 -0.002774 -0.001508 0.005320 0.004936 0.002789
# 2 -0.002774 0.008790 -0.001224 -0.006791 -0.000225 0.003815
# 3 -0.001508 -0.001224 0.010747 -0.001762 0.001443 -0.000107
# 4 0.005320 -0.006791 -0.001762 0.031838 0.006998 0.005035
# 5 0.004936 -0.000225 0.001443 0.006998 0.026234 0.008175
# 6 0.002789 0.003815 -0.000107 0.005035 0.008175 0.025626
#
#
# Mechanical properties :
#
#
# Convention : Reuss Voigt Hill
#
# Bulk Modulus (GPa) = 57.57174 77.57996 67.57585
# Shear Modulus (GPa) = 38.79481 50.54456 44.66969
#
# Velocity S-wave (km/s) = 3.72027 4.24644 3.99203
# Velocity P-wave (km/s) = 6.24445 7.19169 6.73474
#
# Compressibility (1/GPa) = 0.01736963
#
# Stress axis : x y z
#
# Youngs Moduli (GPa) = 113.04785 113.77055 93.04968
#
# Poissons Ratio (x) = 0.31556 0.14036
# Poissons Ratio (y) = 0.31355 0.11392
# Poissons Ratio (z) = 0.17053 0.13929
#
# Static dielectric constant tensor:
#      x y z
#    x 2.257580 0.098180 0.039580 
#    y 0.098180 2.301450 0.185620 
#    z 0.039580 0.185620 2.269320 
# 
# From -- ./inp_files/24208.got.cif
#   From: 2010.05.17/outbox.cif.g08.bks.cpg/sg2_13_cif.got.tgz:24208.got - 2010.06.03 11:33:40.
