data_PCOD9112640
_publ_section_title
;
Structure prediction by ZEFSAII (Michael W. Deem and Ramdas Pophale) SiO2 
 PCOD9112640
Probable space group: P 2
;
_chemical_formula_sum "Si O2"
_cell_formula_units_Z 12
_cell_length_a 6.907758
_cell_length_b 13.563140
_cell_length_c 5.260988
_cell_angle_alpha 90.000000
_cell_angle_beta 78.575342
_cell_angle_gamma 90.000000
_cell_volume 483.140199
_symmetry_space_group_name_H-M "P 2"
_symmetry_group_IT_number 3
_symmetry_cell_setting 'monoclinic'
loop_
_space_group_symop_operation_xyz
x,y,z
-x,y,-z
loop_
_atom_site_type_symbol
_atom_site_label
_atom_site_fract_x
_atom_site_fract_y
_atom_site_fract_z
Si Si1 0.766972 0.287190 0.007530
Si Si2 0.281138 0.000652 0.770487
Si Si3 0.863042 0.792524 0.285463
Si Si4 0.763318 0.375554 0.509729
Si Si5 0.137532 0.576940 0.714048
Si Si6 0.273242 0.080064 0.269536
O O1 0.691545 0.364965 0.816840
O O2 0.735331 0.185526 0.864236
O O3 0.690076 0.298031 0.315461
O O4 0.000000 0.299088 0.000000
O O5 0.187765 0.068913 0.574388
O O6 0.501988 0.042724 0.748977
O O7 0.274142 0.888169 0.684061
O O8 0.188939 0.008173 0.075089
O O9 0.762738 0.684352 0.296895
O O10 0.000000 0.798194 0.500000
O O11 0.000000 0.795788 0.000000
O O12 0.735471 0.480241 0.378134
O O13 0.000000 0.362996 0.500000
O O14 0.000000 0.583107 0.500000
O O15 0.000000 0.561852 0.000000
#
# Coordination Sequence:
#
# PCOD9112640 Si02
#       6
#     2   2   2   2   2   2
#     4  10  19  30  48  76 105 134 173 216 252 298
#     4  10  21  37  53  73 101 141 182 219 266 314
#     4  10  20  33  53  81 108 135 173 221 264 309
#     4   9  16  28  46  72 107 137 162 204 259 311
#     4   9  16  28  47  73 107 139 164 202 261 319
#     4  10  21  36  53  73 100 143 185 218 262 313
#
# _framework density 24.837510000000002
#
# number of rings (size 3 to 8) (size 9 to 14) (size 15 to 20)
#    0.000    2.333    0.000    4.500    0.000    2.000 
#    0.000    0.000    0.000    0.000    0.000   28.000 
#    0.000    0.000    0.000    0.000    0.000    1.000 
#
# Total GULP energy -66985.690999 kJ/mol
# GULP energy per Si atom -5582.140917 kJ/mol
# Density = 2.478098 g / cm^3
# Si number density = 24.837510 Si / 1000 Ang^3
#
#
#
# Elastic Constant Matrix: (Units=GPa)
#
#
# Indices 1 2 3 4 5 6 
#
# 1 78.6312 -3.0647 44.9003 0.0000 8.8450 0.0000
# 2 -3.0647 177.7598 77.1355 0.0000 12.7262 0.0000
# 3 44.9003 77.1355 240.6071 0.0000 10.2046 0.0000
# 4 0.0000 0.0000 0.0000 29.5139 0.0000 216.6896
# 5 8.8450 12.7262 10.2046 0.0000 35.1985 0.0000
# 6 0.0000 0.0000 0.0000 216.6896 0.0000-3377.0416
#
#
#
# Elastic Compliance Matrix: (Units=1/GPa)
#
#
# Indices 1 2 3 4 5 6 
#
# 1 0.015065 0.001937 -0.003282 0.000000 -0.003534 0.000000
# 2 0.001937 0.006895 -0.002476 0.000000 -0.002262 0.000000
# 3 -0.003282 -0.002476 0.005558 0.000000 0.000109 0.000000
# 4 0.000000 0.000000 0.000000 0.023032 0.000000 0.001478
# 5 -0.003534 -0.002262 0.000109 0.000000 0.030085 0.000000
# 6 0.000000 0.000000 0.000000 0.001478 0.000000 -0.000201
#
#
# Mechanical properties :
#
#
# Convention : Reuss Voigt Hill
#
# Bulk Modulus (GPa) = 50.31342 81.66005 65.98673
# Shear Modulus (GPa) = 52.79733 -637.26404 -292.23335
#
# Velocity S-wave (km/s) = 4.61554 -16.03528 -10.85880
# Velocity P-wave (km/s) = 6.97892 17.60373 11.42773
#
# Compressibility (1/GPa) = 0.01987541
#
# Stress axis : x y z
#
# Youngs Moduli (GPa) = 66.37889 145.02481 179.92410
#
# Poissons Ratio (x) = -0.28093 0.59059
# Poissons Ratio (y) = -0.12858 0.44551
# Poissons Ratio (z) = 0.21788 0.35910
#
# Static dielectric constant tensor:
#      x y z
#    x 5.555180 0.000000 -1.755010 
#    y 0.000000 2.044760 0.000000 
#    z -1.755010 0.000000 2.825770 
# 
# From -- ./inp_files/1289.got.cif
#   From: 2010.05.17/outbox.cif.g08.bks.cpg/sg3_1_cif.got.tgz:1289.got - 2010.06.03 18:33:08.
