data_PCOD9112715
_publ_section_title
;
Structure prediction by ZEFSAII (Michael W. Deem and Ramdas Pophale) SiO2 
 PCOD9112715
Probable space group: P 2
;
_chemical_formula_sum "Si O2"
_cell_formula_units_Z 14
_cell_length_a 9.034725
_cell_length_b 9.207710
_cell_length_c 16.905928
_cell_angle_alpha 90.000000
_cell_angle_beta 148.150604
_cell_angle_gamma 90.000000
_cell_volume 742.135250
_symmetry_space_group_name_H-M "P 2"
_symmetry_group_IT_number 3
_symmetry_cell_setting 'monoclinic'
loop_
_space_group_symop_operation_xyz
x,y,z
-x,y,-z
loop_
_atom_site_type_symbol
_atom_site_label
_atom_site_fract_x
_atom_site_fract_y
_atom_site_fract_z
Si Si1 0.300578 0.139420 0.836909
Si Si2 0.770140 0.462994 0.220745
Si Si3 0.510840 0.862774 0.159497
Si Si4 0.298738 0.769057 0.227434
Si Si5 0.896818 0.718392 0.575936
Si Si6 0.222949 0.606221 0.951831
Si Si7 0.204198 0.939963 0.335068
O O1 0.195186 0.292149 0.756184
O O2 0.045153 0.044516 0.754313
O O3 0.466408 0.030085 0.854369
O O4 0.500000 0.179915 0.000000
O O5 0.802781 0.529697 0.145794
O O6 0.994055 0.555116 0.370726
O O7 0.451226 0.505723 0.100134
O O8 0.321615 0.823095 0.148474
O O9 0.828348 0.810790 0.323828
O O10 0.386180 0.762637 0.031884
O O11 0.614452 0.730251 0.398190
O O12 0.076359 0.640685 0.144553
O O13 0.212038 0.899526 0.247064
O O14 0.831545 0.788671 0.632523
O O15 0.500000 0.001009 0.500000
#
# Coordination Sequence:
#
# PCOD9112715 Si02
#       7
#     2   2   2   2   2   2   2
#     4  11  21  36  59  84 116 160 194 236 295 356
#     4  10  20  37  56  87 113 153 198 238 293 349
#     4  10  22  34  61  86 117 152 193 243 295 346
#     4  11  19  35  61  89 115 143 197 251 291 326
#     4   9  19  36  61  84 110 154 197 239 284 346
#     4  10  19  34  57  85 113 144 199 253 278 334
#     4   9  19  34  55  84 112 146 202 248 276 332
#
# _framework density 18.864485999999999
#
# number of rings (size 3 to 8) (size 9 to 14) (size 15 to 20)
#    0.000    2.000    2.857    1.714    6.000    0.000 
#    2.571    0.000    9.429   10.286    0.000    0.000 
#    0.000    0.000    0.000    0.000    0.000    0.000 
#
# Total GULP energy -78019.041628 kJ/mol
# GULP energy per Si atom -5572.788688 kJ/mol
# Density = 1.882155 g / cm^3
# Si number density = 18.864486 Si / 1000 Ang^3
#
#
#
# Elastic Constant Matrix: (Units=GPa)
#
#
# Indices 1 2 3 4 5 6 
#
# 1 101.7653 19.9619 8.9548 0.0000 4.6613 0.0000
# 2 19.9619 115.6087 13.0981 0.0000 -3.9277 0.0000
# 3 8.9548 13.0981 61.0531 0.0000 20.7496 0.0000
# 4 0.0000 0.0000 0.0000 11.2519 0.0000 -1.6540
# 5 4.6613 -3.9277 20.7496 0.0000 25.8016 0.0000
# 6 0.0000 0.0000 0.0000 -1.6540 0.0000 6.8741
#
#
#
# Elastic Compliance Matrix: (Units=1/GPa)
#
#
# Indices 1 2 3 4 5 6 
#
# 1 0.010300 -0.001772 -0.000559 0.000000 -0.001681 0.000000
# 2 -0.001772 0.009475 -0.003264 0.000000 0.004387 0.000000
# 3 -0.000559 -0.003264 0.023801 0.000000 -0.019537 0.000000
# 4 0.000000 0.000000 0.000000 0.092133 0.000000 0.022169
# 5 -0.001681 0.004387 -0.019537 0.000000 0.055440 0.000000
# 6 0.000000 0.000000 0.000000 0.022169 0.000000 0.150808
#
#
# Mechanical properties :
#
#
# Convention : Reuss Voigt Hill
#
# Bulk Modulus (GPa) = 30.87792 40.27296 35.57544
# Shear Modulus (GPa) = 13.73842 24.54633 19.14237
#
# Velocity S-wave (km/s) = 2.70157 3.61112 3.18894
# Velocity P-wave (km/s) = 5.11225 6.22750 5.69723
#
# Compressibility (1/GPa) = 0.03238560
#
# Stress axis : x y z
#
# Youngs Moduli (GPa) = 97.08373 105.54410 42.01469
#
# Poissons Ratio (x) = 0.18705 0.02350
# Poissons Ratio (y) = 0.17206 0.13713
# Poissons Ratio (z) = 0.05430 0.34447
#
# Static dielectric constant tensor:
#      x y z
#    x 1.707030 0.000000 -0.004960 
#    y 0.000000 1.649190 0.000000 
#    z -0.004960 0.000000 1.708530 
# 
# From -- ./inp_files/15055.got.cif
#   From: 2010.05.17/outbox.cif.g08.bks.cpg/sg3_8_cif.got.tgz:15055.got - 2010.06.03 18:33:08.
