data_PCOD9112475
_publ_section_title
;
Structure prediction by ZEFSAII (Michael W. Deem and Ramdas Pophale) SiO2 
 PCOD9112475
Probable space group: P 2
;
_chemical_formula_sum "Si O2"
_cell_formula_units_Z 14
_cell_length_a 20.781339
_cell_length_b 5.328397
_cell_length_c 12.998232
_cell_angle_alpha 90.000000
_cell_angle_beta 25.682820
_cell_angle_gamma 90.000000
_cell_volume 623.781010
_symmetry_space_group_name_H-M "P 2"
_symmetry_group_IT_number 3
_symmetry_cell_setting 'monoclinic'
loop_
_space_group_symop_operation_xyz
x,y,z
-x,y,-z
loop_
_atom_site_type_symbol
_atom_site_label
_atom_site_fract_x
_atom_site_fract_y
_atom_site_fract_z
Si Si1 0.461003 0.709740 0.677719
Si Si2 0.511546 0.386380 0.108672
Si Si3 0.794281 0.114749 0.470707
Si Si4 0.361856 0.210990 0.778554
Si Si5 0.786612 0.814553 0.284428
Si Si6 0.365699 0.901812 0.110990
Si Si7 0.111055 0.318404 0.980364
O O1 0.500000 0.673916 0.500000
O O2 0.414235 0.431776 0.778024
O O3 0.611488 0.788763 0.516246
O O4 0.342636 0.933606 0.851492
O O5 0.341129 0.295519 0.376105
O O6 0.500000 0.394940 0.000000
O O7 0.601710 0.645414 0.997014
O O8 0.607927 0.143257 0.996854
O O9 0.808869 0.882336 0.370905
O O10 0.766828 0.982522 0.621190
O O11 0.941680 0.280844 0.256769
O O12 0.500000 0.172963 0.500000
O O13 0.221831 0.314585 0.917766
O O14 0.858918 0.565357 0.131446
O O15 0.844864 0.065058 0.144179
O O16 0.500000 0.898217 0.000000
#
# Coordination Sequence:
#
# PCOD9112475 Si02
#       7
#     2   2   2   2   2   2   2
#     4  10  16  33  55  69  94 150 213 242 256 291
#     4   8  16  33  54  68  91 136 181 232 274 320
#     4  10  24  36  52  84 120 146 196 226 290 368
#     4  10  16  33  55  69  94 150 213 242 256 291
#     4  12  23  35  51  78 119 166 187 225 276 333
#     4   8  16  33  54  68  91 136 181 232 274 320
#     4  12  23  35  51  78 119 166 187 225 276 333
#
# _framework density 22.443773
#
# number of rings (size 3 to 8) (size 9 to 14) (size 15 to 20)
#    0.000    2.286    5.714    0.429    0.000   11.429 
#    0.000    0.000    0.000    0.000    0.000    0.000 
#    0.000   40.000    0.000    0.000    0.000    0.000 
#
# Total GULP energy -78063.040245 kJ/mol
# GULP energy per Si atom -5575.931446 kJ/mol
# Density = 2.239269 g / cm^3
# Si number density = 22.443773 Si / 1000 Ang^3
#
#
#
# Elastic Constant Matrix: (Units=GPa)
#
#
# Indices 1 2 3 4 5 6 
#
# 1 29.8533 11.1850 18.1231 0.0000 3.3689 0.0000
# 2 11.1850 235.6473 47.6494 0.0000 12.2403 0.0000
# 3 18.1231 47.6494 103.1101 0.0000 -2.5899 0.0000
# 4 0.0000 0.0000 0.0000 85.5873 0.0000 24.3996
# 5 3.3689 12.2403 -2.5899 0.0000 26.3873 0.0000
# 6 0.0000 0.0000 0.0000 24.3996 0.0000 39.0802
#
#
#
# Elastic Compliance Matrix: (Units=1/GPa)
#
#
# Indices 1 2 3 4 5 6 
#
# 1 0.038301 -0.000159 -0.006796 0.000000 -0.005483 0.000000
# 2 -0.000159 0.004837 -0.002269 0.000000 -0.002446 0.000000
# 3 -0.006796 -0.002269 0.012019 0.000000 0.003100 0.000000
# 4 0.000000 0.000000 0.000000 0.014214 0.000000 -0.008874
# 5 -0.005483 -0.002446 0.003100 0.000000 0.040036 0.000000
# 6 0.000000 0.000000 0.000000 -0.008874 0.000000 0.031129
#
#
# Mechanical properties :
#
#
# Convention : Reuss Voigt Hill
#
# Bulk Modulus (GPa) = 27.24089 58.05843 42.64966
# Shear Modulus (GPa) = 29.20202 49.65450 39.42826
#
# Velocity S-wave (km/s) = 3.61102 4.70871 4.19592
# Velocity P-wave (km/s) = 5.43596 7.44897 6.52062
#
# Compressibility (1/GPa) = 0.03670952
#
# Stress axis : x y z
#
# Youngs Moduli (GPa) = 26.10880 206.73984 83.19998
#
# Poissons Ratio (x) = 0.03285 0.56545
# Poissons Ratio (y) = 0.00415 0.18876
# Poissons Ratio (z) = 0.17744 0.46905
#
# Static dielectric constant tensor:
#      x y z
#    x 1.567470 0.000000 -0.095640 
#    y 0.000000 1.998710 0.000000 
#    z -0.095640 0.000000 1.836800 
# 
# From -- ./inp_files/14394.got.cif
#   From: 2010.05.17/outbox.cif.g08.bks.cpg/sg3_8_cif.got.tgz:14394.got - 2010.06.03 18:33:08.
