data_PCOD9112747
_publ_section_title
;
Structure prediction by ZEFSAII (Michael W. Deem and Ramdas Pophale) SiO2 
 PCOD9112747
Probable space group: P 2
;
_chemical_formula_sum "Si O2"
_cell_formula_units_Z 15
_cell_length_a 7.331879
_cell_length_b 8.339285
_cell_length_c 14.744077
_cell_angle_alpha 90.000000
_cell_angle_beta 130.425774
_cell_angle_gamma 90.000000
_cell_volume 686.257505
_symmetry_space_group_name_H-M "P 2"
_symmetry_group_IT_number 3
_symmetry_cell_setting 'monoclinic'
loop_
_space_group_symop_operation_xyz
x,y,z
-x,y,-z
loop_
_atom_site_type_symbol
_atom_site_label
_atom_site_fract_x
_atom_site_fract_y
_atom_site_fract_z
Si Si1 0.268505 0.719150 0.567633
Si Si2 0.412125 0.554489 0.101542
Si Si3 0.822556 0.398261 0.135588
Si Si4 0.384160 0.897609 0.788548
Si Si5 0.721620 0.059000 0.009897
Si Si6 0.091169 0.915151 0.247671
Si Si7 0.729494 0.556227 0.740681
Si Si8 0.500000 0.933035 0.500000
O O1 0.340416 0.841635 0.671710
O O2 0.451727 0.571354 0.624729
O O3 0.310598 0.819518 0.490897
O O4 0.000000 0.668092 0.500000
O O5 0.635410 0.433192 0.155495
O O6 0.515042 0.732815 0.136323
O O7 0.281193 0.527715 0.154446
O O8 0.242099 0.532402 0.960581
O O9 0.097207 0.426234 0.248375
O O10 0.771635 0.236110 0.064463
O O11 0.130480 0.937397 0.753498
O O12 0.591678 0.030573 0.871873
O O13 0.966461 0.969622 0.113159
O O14 0.500000 0.996480 0.000000
O O15 0.169341 0.731487 0.255184
O O16 0.323775 0.005430 0.365807
#
# Coordination Sequence:
#
# PCOD9112747 Si02
#       8
#     2   2   2   2   2   2   2   1
#     4  10  20  36  59  91 124 155 202 265 310 359
#     4  10  20  34  54  81 120 154 196 238 310 357
#     4  11  20  37  56  83 122 171 193 248 304 373
#     4  10  19  35  61  90 119 158 196 251 309 366
#     4  10  21  35  60  90 126 164 202 245 316 369
#     4  10  19  35  61  87 120 155 201 255 298 367
#     4  10  21  34  57  85 113 155 205 249 300 361
#     4  10  20  36  60  88 122 158 204 254 316 358
#
# _framework density 21.857685
#
# number of rings (size 3 to 8) (size 9 to 14) (size 15 to 20)
#    0.000    1.867    4.000    1.200    3.733    1.067 
#    0.000   10.000    0.000    6.400    0.000    1.867 
#    0.000    0.000    0.000    0.000    0.000    0.000 
#
# Total GULP energy -83559.490195 kJ/mol
# GULP energy per Si atom -5570.632680 kJ/mol
# Density = 2.180794 g / cm^3
# Si number density = 21.857685 Si / 1000 Ang^3
#
#
#
# Elastic Constant Matrix: (Units=GPa)
#
#
# Indices 1 2 3 4 5 6 
#
# 1 106.7068 17.9126 38.7408 0.0000 25.5816 0.0000
# 2 17.9126 56.2692 17.8487 0.0000 11.8228 0.0000
# 3 38.7408 17.8487 111.6947 0.0000 29.9170 0.0000
# 4 0.0000 0.0000 0.0000 14.4394 0.0000 3.9211
# 5 25.5816 11.8228 29.9170 0.0000 47.9057 0.0000
# 6 0.0000 0.0000 0.0000 3.9211 0.0000 6.0347
#
#
#
# Elastic Compliance Matrix: (Units=1/GPa)
#
#
# Indices 1 2 3 4 5 6 
#
# 1 0.011640 -0.002016 -0.002622 0.000000 -0.004081 0.000000
# 2 -0.002016 0.019516 -0.001702 0.000000 -0.002677 0.000000
# 3 -0.002622 -0.001702 0.011585 0.000000 -0.005414 0.000000
# 4 0.000000 0.000000 0.000000 0.084092 0.000000 -0.054639
# 5 -0.004081 -0.002677 -0.005414 0.000000 0.027095 0.000000
# 6 0.000000 0.000000 0.000000 -0.054639 0.000000 0.201210
#
#
# Mechanical properties :
#
#
# Convention : Reuss Voigt Hill
#
# Bulk Modulus (GPa) = 33.26775 47.07499 40.17137
# Shear Modulus (GPa) = 13.23311 27.02053 20.12682
#
# Velocity S-wave (km/s) = 2.46320 3.51978 3.03778
# Velocity P-wave (km/s) = 4.83146 6.17270 5.54280
#
# Compressibility (1/GPa) = 0.03005914
#
# Stress axis : x y z
#
# Youngs Moduli (GPa) = 85.90876 51.24007 86.32093
#
# Poissons Ratio (x) = 0.10332 0.22635
# Poissons Ratio (y) = 0.17322 0.14695
# Poissons Ratio (z) = 0.22526 0.08723
#
# Static dielectric constant tensor:
#      x y z
#    x 1.850800 0.000000 -0.004240 
#    y 0.000000 1.802350 0.000000 
#    z -0.004240 0.000000 1.933350 
# 
# From -- ./inp_files/14980.got.cif
#   From: 2010.05.17/outbox.cif.g08.bks.cpg/sg3_8_cif.got.tgz:14980.got - 2010.06.03 18:33:08.
