data_PCOD9112923
_publ_section_title
;
Structure prediction by ZEFSAII (Michael W. Deem and Ramdas Pophale) SiO2 
 PCOD9112923
Probable space group: P 2
;
_chemical_formula_sum "Si O2"
_cell_formula_units_Z 15
_cell_length_a 5.265541
_cell_length_b 5.265961
_cell_length_c 22.061290
_cell_angle_alpha 90.000000
_cell_angle_beta 113.113772
_cell_angle_gamma 90.000000
_cell_volume 562.614026
_symmetry_space_group_name_H-M "P 2"
_symmetry_group_IT_number 3
_symmetry_cell_setting 'monoclinic'
loop_
_space_group_symop_operation_xyz
x,y,z
-x,y,-z
loop_
_atom_site_type_symbol
_atom_site_label
_atom_site_fract_x
_atom_site_fract_y
_atom_site_fract_z
Si Si1 0.614031 0.399740 0.673052
Si Si2 0.285195 0.580953 0.871288
Si Si3 0.231700 0.230836 0.433430
Si Si4 0.882578 0.752129 0.389818
Si Si5 0.500000 0.367567 0.000000
Si Si6 0.002871 0.986059 0.932621
Si Si7 0.797973 0.179380 0.801537
Si Si8 0.902312 0.774151 0.256402
O O1 0.659902 0.190226 0.625670
O O2 0.560154 0.304510 0.737009
O O3 0.904878 0.536778 0.709497
O O4 0.403949 0.604826 0.625334
O O5 0.133561 0.783748 0.899631
O O6 0.059143 0.366290 0.835795
O O7 0.346417 0.694704 0.811184
O O8 0.531696 0.504834 0.938380
O O9 0.500000 0.225851 0.500000
O O10 0.091858 0.511996 0.420372
O O11 0.019522 0.004769 0.430801
O O12 0.824034 0.854956 0.315854
O O13 0.771445 0.204384 0.035378
O O14 0.750718 0.094172 0.867318
O O15 0.000000 0.876257 0.000000
O O16 0.913993 0.961584 0.767384
#
# Coordination Sequence:
#
# PCOD9112923 Si02
#       8
#     2   2   2   2   1   2   2   2
#     4  10  22  40  68  98 135 177 234 291 342 434
#     4   9  19  35  57  83 121 166 213 275 351 405
#     4  11  25  46  68 103 149 186 229 298 356 420
#     4  11  24  41  73 102 133 188 239 277 364 430
#     4  10  20  36  56  78 114 164 218 274 330 420
#     4  10  21  36  56  84 123 167 219 281 348 412
#     4   9  18  38  60  86 127 169 214 292 354 402
#     4   9  19  39  60  90 130 165 217 297 346 410
#
# _framework density 26.661261
#
# number of rings (size 3 to 8) (size 9 to 14) (size 15 to 20)
#    0.000    2.133    1.333    0.800    1.867    3.733 
#    0.000   16.000    0.000    0.000    0.000    0.000 
#    0.000    0.000    0.000    0.000    0.000    0.000 
#
# Total GULP energy -83679.366506 kJ/mol
# GULP energy per Si atom -5578.624434 kJ/mol
# Density = 2.660058 g / cm^3
# Si number density = 26.661261 Si / 1000 Ang^3
#
#
#
# Elastic Constant Matrix: (Units=GPa)
#
#
# Indices 1 2 3 4 5 6 
#
# 1 48.3885 15.9112 39.5446 0.0000 11.4429 0.0000
# 2 15.9112 96.4751 67.3015 0.0000 14.1299 0.0000
# 3 39.5446 67.3015 197.0145 0.0000 10.5266 0.0000
# 4 0.0000 0.0000 0.0000 29.4315 0.0000 32.4938
# 5 11.4429 14.1299 10.5266 0.0000 32.1433 0.0000
# 6 0.0000 0.0000 0.0000 32.4938 0.0000 63.9013
#
#
#
# Elastic Compliance Matrix: (Units=1/GPa)
#
#
# Indices 1 2 3 4 5 6 
#
# 1 0.026534 0.000269 -0.004994 0.000000 -0.007929 0.000000
# 2 0.000269 0.014294 -0.004678 0.000000 -0.004847 0.000000
# 3 -0.004994 -0.004678 0.007604 0.000000 0.001344 0.000000
# 4 0.000000 0.000000 0.000000 0.077469 0.000000 -0.039393
# 5 -0.007929 -0.004847 0.001344 0.000000 0.035624 0.000000
# 6 0.000000 0.000000 0.000000 -0.039393 0.000000 0.035681
#
#
# Mechanical properties :
#
#
# Convention : Reuss Voigt Hill
#
# Bulk Modulus (GPa) = 33.75356 65.26586 49.50971
# Shear Modulus (GPa) = 22.13483 39.70328 30.91906
#
# Velocity S-wave (km/s) = 2.88449 3.86317 3.40913
# Velocity P-wave (km/s) = 4.87661 6.66570 5.84007
#
# Compressibility (1/GPa) = 0.02962650
#
# Stress axis : x y z
#
# Youngs Moduli (GPa) = 37.68752 69.95747 131.50205
#
# Poissons Ratio (x) = -0.01882 0.65674
# Poissons Ratio (y) = -0.01014 0.61518
# Poissons Ratio (z) = 0.18822 0.32727
#
# Static dielectric constant tensor:
#      x y z
#    x 2.165070 0.000000 -0.062760 
#    y 0.000000 2.209240 0.000000 
#    z -0.062760 0.000000 2.155330 
# 
# From -- ./inp_files/16190.got.cif
#   From: 2010.05.17/outbox.cif.g08.bks.cpg/sg3_9_cif.got.tgz:16190.got - 2010.06.03 18:33:08.
