data_PCOD9112236
_publ_section_title
;
Structure prediction by ZEFSAII (Michael W. Deem and Ramdas Pophale) SiO2 
 PCOD9112236
Probable space group: P -1
;
_chemical_formula_sum "Si O2"
_cell_formula_units_Z 14
_cell_length_a 10.217384
_cell_length_b 15.494217
_cell_length_c 5.264701
_cell_angle_alpha 94.918436
_cell_angle_beta 72.070949
_cell_angle_gamma 109.821365
_cell_volume 745.840121
_symmetry_space_group_name_H-M "P -1"
_symmetry_group_IT_number 2
_symmetry_cell_setting 'triclinic'
loop_
_space_group_symop_operation_xyz
x,y,z
-x,-y,-z
loop_
_atom_site_type_symbol
_atom_site_label
_atom_site_fract_x
_atom_site_fract_y
_atom_site_fract_z
Si Si1 0.403338 0.972957 0.800995
Si Si2 0.173580 0.519791 0.871322
Si Si3 0.199542 0.627640 0.372479
Si Si4 0.803991 0.216748 0.275498
Si Si5 0.960529 0.667619 0.229489
Si Si6 0.984843 0.849416 0.517039
Si Si7 0.134533 0.020118 0.116677
O O1 0.316528 0.864183 0.814440
O O2 0.500000 0.000000 0.500000
O O3 0.500000 0.000000 0.000000
O O4 0.282128 0.023239 0.894956
O O5 0.215281 0.568505 0.588805
O O6 0.171169 0.414839 0.830659
O O7 0.245774 0.584317 0.082481
O O8 0.000000 0.500000 0.000000
O O9 0.263494 0.732415 0.460638
O O10 0.033713 0.626782 0.405869
O O11 0.913255 0.172580 0.336067
O O12 0.905725 0.291108 0.037987
O O13 0.924139 0.755826 0.370923
O O14 0.864650 0.888854 0.712412
O O15 0.089730 0.932937 0.310147
O O16 0.000000 0.000000 0.000000
#
# Coordination Sequence:
#
# PCOD9112236 Si02
#       7
#     2   2   2   2   2   2   2
#     4  12  27  41  58  85 119 151 198 250 290 330
#     4  10  17  27  42  75 110 150 173 228 282 342
#     4  10  19  28  47  71 111 154 181 217 284 358
#     4  11  20  35  53  80 110 158 192 231 289 348
#     4  10  18  28  50  75 114 145 189 228 283 350
#     4  10  20  32  58  82 106 150 201 235 278 352
#     4  11  21  39  60  79 112 155 204 237 292 352
#
# _framework density 18.770779000000001
#
# number of rings (size 3 to 8) (size 9 to 14) (size 15 to 20)
#    0.000    1.429    5.714    2.571    6.000    0.000 
#    0.000    0.000    0.000    0.000    0.000    0.000 
#    0.000    6.857    0.000    0.571    0.000    0.000 
#
# Total GULP energy -78016.451792 kJ/mol
# GULP energy per Si atom -5572.603699 kJ/mol
# Density = 1.872806 g / cm^3
# Si number density = 18.770779 Si / 1000 Ang^3
#
#
#
# Elastic Constant Matrix: (Units=GPa)
#
#
# Indices 1 2 3 4 5 6 
#
# 1 58.5906 33.6003 45.3558 6.4883 1.8521 2.0247
# 2 33.6003 155.6248 55.9368 38.8725 7.2853 -8.6022
# 3 45.3558 55.9368 125.9223 15.8055 10.1898 -5.3254
# 4 6.4883 38.8725 15.8055 43.2162 -3.2665 3.6674
# 5 1.8521 7.2853 10.1898 -3.2665 29.9980 8.3451
# 6 2.0247 -8.6022 -5.3254 3.6674 8.3451 16.3468
#
#
#
# Elastic Compliance Matrix: (Units=1/GPa)
#
#
# Indices 1 2 3 4 5 6 
#
# 1 0.026716 -0.004897 -0.009299 0.005505 0.007135 -0.013793
# 2 -0.004897 0.011517 -0.000926 -0.010837 -0.006768 0.012252
# 3 -0.009299 -0.000926 0.013109 -0.003845 -0.006627 0.009181
# 4 0.005505 -0.010837 -0.003845 0.036468 0.013951 -0.022941
# 5 0.007135 -0.006768 -0.006627 0.013951 0.047806 -0.034139
# 6 -0.013793 0.012252 0.009181 -0.022941 -0.034139 0.094896
#
#
# Mechanical properties :
#
#
# Convention : Reuss Voigt Hill
#
# Bulk Modulus (GPa) = 47.39840 67.76925 57.58383
# Shear Modulus (GPa) = 18.67141 31.59519 25.13330
#
# Velocity S-wave (km/s) = 3.15732 4.10715 3.66315
# Velocity P-wave (km/s) = 6.21269 7.65986 6.97392
#
# Compressibility (1/GPa) = 0.02109776
#
# Stress axis : x y z
#
# Youngs Moduli (GPa) = 37.43069 86.83004 76.28142
#
# Poissons Ratio (x) = 0.42522 0.70934
# Poissons Ratio (y) = 0.18330 0.07064
# Poissons Ratio (z) = 0.34807 0.08040
#
# Static dielectric constant tensor:
#      x y z
#    x 1.667790 -0.035610 0.035460 
#    y -0.035610 1.774770 0.049300 
#    z 0.035460 0.049300 1.730270 
# 
# From -- ./inp_files/35455.got.cif
#   From: 2010.05.17/outbox.cif.g08.bks.cpg/sg2_18_cif.got.tgz:35455.got - 2010.06.03 11:33:40.
