data_PCOD9112543
_publ_section_title
;
Structure prediction by ZEFSAII (Michael W. Deem and Ramdas Pophale) SiO2 
 PCOD9112543
Probable space group: P 2
;
_chemical_formula_sum "Si O2"
_cell_formula_units_Z 14
_cell_length_a 16.888384
_cell_length_b 5.538877
_cell_length_c 6.634993
_cell_angle_alpha 90.000000
_cell_angle_beta 53.798341
_cell_angle_gamma 90.000000
_cell_volume 500.833369
_symmetry_space_group_name_H-M "P 2"
_symmetry_group_IT_number 3
_symmetry_cell_setting 'monoclinic'
loop_
_space_group_symop_operation_xyz
x,y,z
-x,y,-z
loop_
_atom_site_type_symbol
_atom_site_label
_atom_site_fract_x
_atom_site_fract_y
_atom_site_fract_z
Si Si1 0.905196 0.262380 0.286538
Si Si2 0.384721 0.269629 0.855579
Si Si3 0.595239 0.655150 0.474080
Si Si4 0.375503 0.769602 0.099711
Si Si5 0.178501 0.755199 0.949919
Si Si6 0.853604 0.762640 0.477405
Si Si7 0.170681 0.253538 0.017837
O O1 0.900000 0.499106 0.429689
O O2 0.902306 0.023451 0.423738
O O3 0.816441 0.257605 0.250507
O O4 0.000000 0.265116 0.000000
O O5 0.407996 0.367718 0.586570
O O6 0.407257 0.514773 0.947207
O O7 0.268738 0.247904 0.000370
O O8 0.409596 0.025950 0.946314
O O9 0.500000 0.761359 0.500000
O O10 0.701412 0.745097 0.227317
O O11 0.597328 0.733310 0.704308
O O12 0.256627 0.768351 0.271679
O O13 0.154635 0.757370 0.753005
O O14 0.131050 0.517704 0.110901
O O15 0.129444 0.990808 0.112093
#
# Coordination Sequence:
#
# PCOD9112543 Si02
#       7
#     2   2   2   2   2   2   2
#     4  10  18  31  58  92 124 162 207 260 332 399
#     4  11  23  42  67  95 125 171 229 276 331 405
#     4  10  23  44  67  97 137 174 216 286 354 408
#     4  11  24  43  69  95 126 175 230 277 328 403
#     4   8  16  32  55  79 109 155 203 245 302 374
#     4   9  18  33  54  84 120 159 209 260 307 380
#     4   9  17  33  55  82 115 154 206 256 301 377
#
# _framework density 27.953406999999999
#
# number of rings (size 3 to 8) (size 9 to 14) (size 15 to 20)
#    0.000    2.286    0.000    3.857    0.000    7.429 
#    0.000   14.286    0.000    5.143    0.000    0.000 
#    0.000    0.000    0.000    0.000    0.000    0.000 
#
# Total GULP energy -78040.222626 kJ/mol
# GULP energy per Si atom -5574.301616 kJ/mol
# Density = 2.788978 g / cm^3
# Si number density = 27.953407 Si / 1000 Ang^3
#
#
#
# Elastic Constant Matrix: (Units=GPa)
#
#
# Indices 1 2 3 4 5 6 
#
# 1 128.5473 34.0624 56.3595 0.0000 11.6756 0.0000
# 2 34.0624 353.2923 74.4666 0.0000 20.1675 0.0000
# 3 56.3595 74.4666 118.8633 0.0000 41.2159 0.0000
# 4 0.0000 0.0000 0.0000 19.2364 0.0000 -0.4192
# 5 11.6756 20.1675 41.2159 0.0000 65.7455 0.0000
# 6 0.0000 0.0000 0.0000 -0.4192 0.0000 -18.2039
#
#
#
# Elastic Compliance Matrix: (Units=1/GPa)
#
#
# Indices 1 2 3 4 5 6 
#
# 1 0.009940 0.000069 -0.005285 0.000000 0.001527 0.000000
# 2 0.000069 0.003268 -0.002208 0.000000 0.000370 0.000000
# 3 -0.005285 -0.002208 0.015004 0.000000 -0.007790 0.000000
# 4 0.000000 0.000000 0.000000 0.051959 0.000000 -0.001197
# 5 0.001527 0.000370 -0.007790 0.000000 0.019709 0.000000
# 6 0.000000 0.000000 0.000000 -0.001197 0.000000 -0.054906
#
#
# Mechanical properties :
#
#
# Convention : Reuss Voigt Hill
#
# Bulk Modulus (GPa) = 74.84242 103.38666 89.11454
# Shear Modulus (GPa) = 77.78749 42.40987 60.09868
#
# Velocity S-wave (km/s) = 5.28091 3.89930 4.64180
# Velocity P-wave (km/s) = 8.00100 7.57221 7.78956
#
# Compressibility (1/GPa) = 0.01336141
#
# Stress axis : x y z
#
# Youngs Moduli (GPa) = 100.60682 305.97416 66.65031
#
# Poissons Ratio (x) = -0.02098 0.35228
# Poissons Ratio (y) = -0.00690 0.14718
# Poissons Ratio (z) = 0.53175 0.67565
#
# Static dielectric constant tensor:
#      x y z
#    x 2.287400 0.000000 0.015850 
#    y 0.000000 2.296800 0.000000 
#    z 0.015850 0.000000 2.241820 
# 
# From -- ./inp_files/9315.got.cif
#   From: 2010.05.17/outbox.cif.g08.bks.cpg/sg3_5_cif.got.tgz:9315.got - 2010.06.03 18:33:08.
