data_PCOD9112659
_publ_section_title
;
Structure prediction by ZEFSAII (Michael W. Deem and Ramdas Pophale) SiO2 
 PCOD9112659
Probable space group: P 2
;
_chemical_formula_sum "Si O2"
_cell_formula_units_Z 12
_cell_length_a 7.020048
_cell_length_b 5.143346
_cell_length_c 12.865948
_cell_angle_alpha 90.000000
_cell_angle_beta 96.806430
_cell_angle_gamma 90.000000
_cell_volume 461.270800
_symmetry_space_group_name_H-M "P 2"
_symmetry_group_IT_number 3
_symmetry_cell_setting 'monoclinic'
loop_
_space_group_symop_operation_xyz
x,y,z
-x,y,-z
loop_
_atom_site_type_symbol
_atom_site_label
_atom_site_fract_x
_atom_site_fract_y
_atom_site_fract_z
Si Si1 0.203590 0.875000 0.140976
Si Si2 0.262145 0.901792 0.909229
Si Si3 0.718716 0.387390 0.217234
Si Si4 0.820803 0.387676 0.738126
Si Si5 0.691208 0.275356 0.443225
Si Si6 0.727999 0.754190 0.533882
O O1 0.242248 0.578422 0.174490
O O2 0.972093 0.894848 0.113604
O O3 0.245293 0.095600 0.232490
O O4 0.299167 0.898543 0.034554
O O5 0.324375 0.670625 0.834035
O O6 0.329527 0.176667 0.871713
O O7 0.635352 0.268085 0.319277
O O8 0.948809 0.374428 0.250482
O O9 0.763312 0.577751 0.637582
O O10 0.500000 0.304136 0.500000
O O11 0.796960 0.552982 0.451259
O O12 0.799505 0.041761 0.509359
O O13 0.500000 0.795960 0.500000
#
# Coordination Sequence:
#
# PCOD9112659 Si02
#       6
#     2   2   2   2   2   2
#     4   9  17  30  50  79 115 148 177 218 278 343
#     4   9  17  30  50  79 115 148 177 218 278 343
#     4  10  19  32  52  81 113 145 185 231 275 328
#     4  10  19  32  52  81 113 145 185 231 275 328
#     4  10  21  37  55  77 106 150 196 233 278 330
#     4  10  21  37  55  77 106 150 196 233 278 330
#
# _framework density 26.015089
#
# number of rings (size 3 to 8) (size 9 to 14) (size 15 to 20)
#    0.000    2.333    0.000    3.000    0.000    4.667 
#    0.000    1.667    0.000    0.000    0.000   70.000 
#    0.000    0.000    0.000    0.000    0.000    2.000 
#
# Total GULP energy -66874.529452 kJ/mol
# GULP energy per Si atom -5572.877454 kJ/mol
# Density = 2.595588 g / cm^3
# Si number density = 26.015089 Si / 1000 Ang^3
#
#
#
# Elastic Constant Matrix: (Units=GPa)
#
#
# Indices 1 2 3 4 5 6 
#
# 1 115.2552 -4.8524 12.6671 0.0000 -6.3867 0.0000
# 2 -4.8524 156.8322 3.6723 0.0000 -13.6077 0.0000
# 3 12.6671 3.6723 123.9556 0.0000 -28.4872 0.0000
# 4 0.0000 0.0000 0.0000 85.2669 0.0000 23.0622
# 5 -6.3867 -13.6077 -28.4872 0.0000 34.7546 0.0000
# 6 0.0000 0.0000 0.0000 23.0622 0.0000 9.8123
#
#
#
# Elastic Compliance Matrix: (Units=1/GPa)
#
#
# Indices 1 2 3 4 5 6 
#
# 1 0.008832 0.000398 -0.000623 0.000000 0.001268 0.000000
# 2 0.000398 0.006643 0.000465 0.000000 0.003055 0.000000
# 3 -0.000623 0.000465 0.010020 0.000000 0.008281 0.000000
# 4 0.000000 0.000000 0.000000 0.032193 0.000000 -0.075664
# 5 0.001268 0.003055 0.008281 0.000000 0.036990 0.000000
# 6 0.000000 0.000000 0.000000 -0.075664 0.000000 0.279749
#
#
# Mechanical properties :
#
#
# Convention : Reuss Voigt Hill
#
# Bulk Modulus (GPa) = 38.49971 46.55744 42.52858
# Shear Modulus (GPa) = 13.06828 51.60383 32.33606
#
# Velocity S-wave (km/s) = 2.24371 4.45861 3.52941
# Velocity P-wave (km/s) = 4.64149 6.66639 5.74388
#
# Compressibility (1/GPa) = 0.02597422
#
# Stress axis : x y z
#
# Youngs Moduli (GPa) = 113.22612 150.54058 99.79675
#
# Poissons Ratio (x) = -0.05990 0.06216
# Poissons Ratio (y) = -0.04505 -0.04636
# Poissons Ratio (z) = 0.07052 -0.06994
#
# Static dielectric constant tensor:
#      x y z
#    x 0.854480 0.000000 -0.850210 
#    y 0.000000 2.099790 0.000000 
#    z -0.850210 0.000000 1.520000 
# 
# From -- ./inp_files/6545.got.cif
#   From: 2010.05.17/outbox.cif.g08.bks.cpg/sg3_4_cif.got.tgz:6545.got - 2010.06.03 18:33:08.
