data_PCOD9112005
_publ_section_title
;
Structure prediction by ZEFSAII (Michael W. Deem and Ramdas Pophale) SiO2 
 PCOD9112005
Probable space group: P -1
;
_chemical_formula_sum "Si O2"
_cell_formula_units_Z 16
_cell_length_a 16.060493
_cell_length_b 8.900183
_cell_length_c 5.472185
_cell_angle_alpha 83.335517
_cell_angle_beta 67.824851
_cell_angle_gamma 87.454847
_cell_volume 719.450659
_symmetry_space_group_name_H-M "P -1"
_symmetry_group_IT_number 2
_symmetry_cell_setting 'triclinic'
loop_
_space_group_symop_operation_xyz
x,y,z
-x,-y,-z
loop_
_atom_site_type_symbol
_atom_site_label
_atom_site_fract_x
_atom_site_fract_y
_atom_site_fract_z
Si Si1 0.766317 0.256359 0.488575
Si Si2 0.105144 0.985463 0.439855
Si Si3 0.383734 0.656070 0.021518
Si Si4 0.724918 0.542555 0.204041
Si Si5 0.445815 0.399538 0.381356
Si Si6 0.996259 0.295846 0.802375
Si Si7 0.844144 0.043062 0.104318
Si Si8 0.091975 0.375490 0.184273
O O1 0.855635 0.187470 0.530724
O O2 0.680691 0.239678 0.762833
O O3 0.771227 0.432456 0.377264
O O4 0.763770 0.149702 0.270148
O O5 0.130361 0.050982 0.665491
O O6 0.160967 0.039285 0.132237
O O7 0.000000 0.000000 0.500000
O O8 0.412592 0.517393 0.191479
O O9 0.325359 0.578417 0.889494
O O10 0.478880 0.711357 0.793649
O O11 0.647510 0.649666 0.381417
O O12 0.801089 0.624721 0.954123
O O13 0.500000 0.500000 0.500000
O O14 0.053260 0.301577 0.486980
O O15 0.937006 0.448469 0.817087
O O16 0.050695 0.309623 0.992661
O O17 0.928080 0.156832 0.943420
#
# Coordination Sequence:
#
# PCOD9112005 Si02
#       8
#     2   2   2   2   2   2   2   2
#     4   9  19  25  47  60  90 113 156 179 228 261
#     4  10  20  32  48  67  85 115 151 188 229 273
#     4   9  16  27  42  61  84 119 154 183 219 266
#     4  10  17  27  41  63  87 125 156 187 219 253
#     4   8  16  27  40  58  85 114 157 182 220 261
#     4  10  20  30  40  61  84 120 153 190 220 241
#     4  10  19  32  46  60  88 118 149 184 226 266
#     4  10  20  27  42  60  88 114 159 192 208 245
#
# _framework density 22.239187999999999
#
# number of rings (size 3 to 8) (size 9 to 14) (size 15 to 20)
#    0.750    1.750    1.250    1.875    3.500    0.000 
#    0.000    0.000    0.000    0.000    0.000    0.000 
#    0.000    0.000    0.000    6.750    0.000    0.375 
#
# Total GULP energy -89183.883823 kJ/mol
# GULP energy per Si atom -5573.992739 kJ/mol
# Density = 2.218857 g / cm^3
# Si number density = 22.239188 Si / 1000 Ang^3
#
#
#
# Elastic Constant Matrix: (Units=GPa)
#
#
# Indices 1 2 3 4 5 6 
#
# 1 76.8639 25.0502 53.1327 2.2280 -15.6866 -24.5379
# 2 25.0502 64.2569 36.9838 5.1070 -8.8513 -13.5766
# 3 53.1327 36.9838 205.5640 37.8438 -26.6318 -16.0566
# 4 2.2280 5.1070 37.8438 33.4242 -16.8732 -2.4859
# 5 -15.6866 -8.8513 -26.6318 -16.8732 53.1627 6.4174
# 6 -24.5379 -13.5766 -16.0566 -2.4859 6.4174 19.9150
#
#
#
# Elastic Compliance Matrix: (Units=1/GPa)
#
#
# Indices 1 2 3 4 5 6 
#
# 1 0.026615 -0.001586 -0.005580 0.009011 0.004405 0.026919
# 2 -0.001586 0.019592 -0.002473 0.000979 0.000744 0.009290
# 3 -0.005580 -0.002473 0.008090 -0.008864 -0.000457 -0.002997
# 4 0.009011 0.000979 -0.008864 0.045814 0.012146 0.006429
# 5 0.004405 0.000744 -0.000457 0.012146 0.023936 -0.000631
# 6 0.026919 0.009290 -0.002997 0.006429 -0.000631 0.088303
#
#
# Mechanical properties :
#
#
# Convention : Reuss Voigt Hill
#
# Bulk Modulus (GPa) = 28.55533 64.11313 46.33423
# Shear Modulus (GPa) = 20.55064 36.73492 28.64278
#
# Velocity S-wave (km/s) = 3.04316 4.06866 3.59268
# Velocity P-wave (km/s) = 5.02152 7.13887 6.17167
#
# Compressibility (1/GPa) = 0.03501973
#
# Stress axis : x y z
#
# Youngs Moduli (GPa) = 37.57274 51.04145 123.60533
#
# Poissons Ratio (x) = 0.08096 0.68966
# Poissons Ratio (y) = 0.05960 0.30567
# Poissons Ratio (z) = 0.20964 0.12622
#
# Static dielectric constant tensor:
#      x y z
#    x 1.859370 -0.048660 0.047120 
#    y -0.048660 1.903980 0.073900 
#    z 0.047120 0.073900 1.970760 
# 
# From -- ./inp_files/93503.got.cif
#   From: 2010.05.17/outbox.cif.g08.bks.cpg/sg2_47_cif.got.tgz:93503.got - 2010.06.03 11:33:40.
