data_PCOD9112553
_publ_section_title
;
Structure prediction by ZEFSAII (Michael W. Deem and Ramdas Pophale) SiO2 
 PCOD9112553
Probable space group: P 2
;
_chemical_formula_sum "Si O2"
_cell_formula_units_Z 16
_cell_length_a 8.852070
_cell_length_b 10.005925
_cell_length_c 8.147070
_cell_angle_alpha 90.000000
_cell_angle_beta 110.271673
_cell_angle_gamma 90.000000
_cell_volume 676.915265
_symmetry_space_group_name_H-M "P 2"
_symmetry_group_IT_number 3
_symmetry_cell_setting 'monoclinic'
loop_
_space_group_symop_operation_xyz
x,y,z
-x,y,-z
loop_
_atom_site_type_symbol
_atom_site_label
_atom_site_fract_x
_atom_site_fract_y
_atom_site_fract_z
Si Si1 0.325707 0.670530 0.885587
Si Si2 0.315412 0.948406 0.062275
Si Si3 0.811720 0.446985 0.977678
Si Si4 0.828141 0.176493 0.855524
Si Si5 0.677648 0.059899 0.264840
Si Si6 0.690076 0.575260 0.602871
Si Si7 0.681029 0.301264 0.488339
Si Si8 0.331997 0.826499 0.536615
O O1 0.340385 0.738591 0.711300
O O2 0.500000 0.615656 0.000000
O O3 0.298496 0.795531 0.002535
O O4 0.209889 0.545054 0.875422
O O5 0.499659 0.994319 0.166918
O O6 0.230565 0.023593 0.177713
O O7 0.245287 0.031110 0.880467
O O8 0.746345 0.294129 0.940408
O O9 0.721747 0.520964 0.794538
O O10 0.000000 0.442532 0.000000
O O11 0.802846 0.238146 0.666498
O O12 0.000000 0.168817 0.000000
O O13 0.743877 0.964111 0.432113
O O14 0.675502 0.209927 0.326232
O O15 0.500000 0.596131 0.500000
O O16 0.731954 0.455417 0.494544
O O17 0.765497 0.721207 0.610263
O O18 0.500000 0.296384 0.500000
O O19 0.500000 0.856412 0.500000
#
# Coordination Sequence:
#
# PCOD9112553 Si02
#       8
#     2   2   2   2   2   2   2   2
#     4  11  20  37  60  91 122 158 206 253 304 363
#     4  10  20  36  55  86 121 152 196 252 298 361
#     4  10  23  42  61  86 125 166 202 248 309 370
#     4  10  22  40  59  85 121 161 200 244 302 371
#     4  10  19  33  54  86 117 150 188 248 306 348
#     4   9  19  33  55  85 112 145 200 250 290 352
#     4  10  18  32  56  84 109 143 196 244 291 349
#     4  10  19  32  54  86 117 151 186 250 307 352
#
# _framework density 23.636638000000001
#
# number of rings (size 3 to 8) (size 9 to 14) (size 15 to 20)
#    0.000    2.000    3.750    1.875    0.000    1.500 
#    2.250    1.250    0.000    7.500    0.000    0.000 
#    0.000    0.000    0.000    0.000    0.000    0.000 
#
# Total GULP energy -89067.548051 kJ/mol
# GULP energy per Si atom -5566.721753 kJ/mol
# Density = 2.358284 g / cm^3
# Si number density = 23.636638 Si / 1000 Ang^3
#
#
#
# Elastic Constant Matrix: (Units=GPa)
#
#
# Indices 1 2 3 4 5 6 
#
# 1 24.4272 2.2466 8.7983 0.0000 1.4620 0.0000
# 2 2.2466 124.8927 15.5085 0.0000 -20.8832 0.0000
# 3 8.7983 15.5085 74.7825 0.0000 -6.2719 0.0000
# 4 0.0000 0.0000 0.0000 1242.6475 0.0000 1484.3169
# 5 1.4620 -20.8832 -6.2719 0.0000 29.8685 0.0000
# 6 0.0000 0.0000 0.0000 1484.3169 0.0000 1875.3455
#
#
#
# Elastic Compliance Matrix: (Units=1/GPa)
#
#
# Indices 1 2 3 4 5 6 
#
# 1 0.043114 -0.000750 -0.005230 0.000000 -0.003733 0.000000
# 2 -0.000750 0.009221 -0.001303 0.000000 0.006210 0.000000
# 3 -0.005230 -0.001303 0.014457 0.000000 0.002381 0.000000
# 4 0.000000 0.000000 0.000000 0.014744 0.000000 -0.011669
# 5 -0.003733 0.006210 0.002381 0.000000 0.038505 0.000000
# 6 0.000000 0.000000 0.000000 -0.011669 0.000000 0.009769
#
#
# Mechanical properties :
#
#
# Convention : Reuss Voigt Hill
#
# Bulk Modulus (GPa) = 19.14781 30.80102 24.97442
# Shear Modulus (GPa) = 30.90521 642.74222 336.82372
#
# Velocity S-wave (km/s) = 3.61988 16.50808 11.95032
# Velocity P-wave (km/s) = 5.05864 19.40141 14.17753
#
# Compressibility (1/GPa) = 0.05222528
#
# Stress axis : x y z
#
# Youngs Moduli (GPa) = 23.19420 108.45367 69.16902
#
# Poissons Ratio (x) = 0.08138 0.36175
# Poissons Ratio (y) = 0.01740 0.09013
# Poissons Ratio (z) = 0.12130 0.14132
#
# Static dielectric constant tensor:
#      x y z
#    x 1.850810 0.000000 -0.258730 
#    y 0.000000 1.981240 0.000000 
#    z -0.258730 0.000000 1.753880 
# 
# From -- ./inp_files/5858.got.cif
#   From: 2010.05.17/outbox.cif.g08.bks.cpg/sg3_3_cif.got.tgz:5858.got - 2010.06.03 18:33:08.
