data_PCOD9112342
_publ_section_title
;
Structure prediction by ZEFSAII (Michael W. Deem and Ramdas Pophale) SiO2 
 PCOD9112342
Probable space group: P -1
;
_chemical_formula_sum "Si O2"
_cell_formula_units_Z 16
_cell_length_a 11.638818
_cell_length_b 7.616061
_cell_length_c 9.433981
_cell_angle_alpha 49.482556
_cell_angle_beta 92.955043
_cell_angle_gamma 91.595730
_cell_volume 634.858536
_symmetry_space_group_name_H-M "P -1"
_symmetry_group_IT_number 2
_symmetry_cell_setting 'triclinic'
loop_
_space_group_symop_operation_xyz
x,y,z
-x,-y,-z
loop_
_atom_site_type_symbol
_atom_site_label
_atom_site_fract_x
_atom_site_fract_y
_atom_site_fract_z
Si Si1 0.875635 0.034143 0.047096
Si Si2 0.494759 0.897052 0.751773
Si Si3 0.258590 0.874428 0.285834
Si Si4 0.759347 0.558345 0.281352
Si Si5 0.614240 0.687181 0.600849
Si Si6 0.502480 0.726961 0.123450
Si Si7 0.104901 0.742300 0.768621
Si Si8 0.144380 0.186758 0.340995
O O1 0.785569 0.128018 0.875453
O O2 0.878421 0.197078 0.098676
O O3 0.832699 0.777372 0.219036
O O4 0.000000 0.000000 0.000000
O O5 0.522651 0.768185 0.674298
O O6 0.616035 0.016272 0.737016
O O7 0.402714 0.104998 0.620072
O O8 0.458177 0.718251 0.963303
O O9 0.245957 0.635786 0.495520
O O10 0.173613 0.054999 0.266381
O O11 0.632123 0.642976 0.192218
O O12 0.812622 0.442846 0.203822
O O13 0.572627 0.432490 0.694980
O O14 0.741921 0.683276 0.670899
O O15 0.500000 0.000000 0.000000
O O16 0.973414 0.676015 0.759766
O O17 0.125119 0.983980 0.560610
#
# Coordination Sequence:
#
# PCOD9112342 Si02
#       8
#     2   2   2   2   2   2   2   2
#     4  12  25  47  75 115 151 198 258 313 377 461
#     4  10  21  43  74 106 139 192 252 310 379 452
#     4  10  20  46  75 103 158 193 246 320 379 451
#     4  11  26  50  76 107 154 202 252 319 383 455
#     4  10  22  44  78 105 142 197 251 309 382 450
#     4  12  26  47  71 109 151 196 252 317 378 457
#     4  10  23  47  77 109 155 199 254 313 383 455
#     4   9  20  45  75 113 148 199 256 311 376 460
#
# _framework density 25.202466000000001
#
# number of rings (size 3 to 8) (size 9 to 14) (size 15 to 20)
#    0.000    1.500    3.750    0.375    1.750    2.500 
#    6.750    1.250    2.750    0.000    0.000    0.000 
#    0.000    0.000    0.000    0.000    0.000    0.000 
#
# Total GULP energy -89726.065793 kJ/mol
# GULP energy per Si atom -5607.879112 kJ/mol
# Density = 2.514510 g / cm^3
# Si number density = 25.202466 Si / 1000 Ang^3
#
#
#
# Elastic Constant Matrix: (Units=GPa)
#
#
# Indices 1 2 3 4 5 6 
#
# 1 137.4357 44.8653 25.6172 -14.4010 12.8034 1.9918
# 2 44.8653 103.7498 36.8708 -0.4026 4.3607 -10.0559
# 3 25.6172 36.8708 106.7460 -15.8736 2.4773 -1.6094
# 4 -14.4010 -0.4026 -15.8736 47.5511 2.6387 -5.8671
# 5 12.8034 4.3607 2.4773 2.6387 40.2486 -2.1325
# 6 1.9918 -10.0559 -1.6094 -5.8671 -2.1325 35.7128
#
#
#
# Elastic Compliance Matrix: (Units=1/GPa)
#
#
# Indices 1 2 3 4 5 6 
#
# 1 0.009142 -0.003796 -0.000458 0.002569 -0.002708 -0.001339
# 2 -0.003796 0.012937 -0.003798 -0.001909 0.000345 0.003390
# 3 -0.000458 -0.003798 0.011341 0.003641 -0.000377 0.000043
# 4 0.002569 -0.001909 0.003641 0.023527 -0.002206 0.003217
# 5 -0.002708 0.000345 -0.000377 -0.002206 0.025913 0.001416
# 6 -0.001339 0.003390 0.000043 0.003217 0.001416 0.029645
#
#
# Mechanical properties :
#
#
# Convention : Reuss Voigt Hill
#
# Bulk Modulus (GPa) = 57.75631 62.51534 60.13583
# Shear Modulus (GPa) = 37.20794 40.74105 38.97450
#
# Velocity S-wave (km/s) = 3.84651 4.02500 3.93677
# Velocity P-wave (km/s) = 6.53408 6.81615 6.67661
#
# Compressibility (1/GPa) = 0.01731413
#
# Stress axis : x y z
#
# Youngs Moduli (GPa) = 109.38950 77.29886 88.17824
#
# Poissons Ratio (x) = 0.29346 0.04038
# Poissons Ratio (y) = 0.41530 0.33491
# Poissons Ratio (z) = 0.05009 0.29359
#
# Static dielectric constant tensor:
#      x y z
#    x 1.959800 -0.073640 -0.029430 
#    y -0.073640 2.074220 0.032480 
#    z -0.029430 0.032480 2.001820 
# 
# From -- ./inp_files/416149.got.cif
#   From: 2010.05.17/outbox.cif.g08.bks.cpg/sg2_209_cif.got.tgz:416149.got - 2010.06.03 11:33:40.
