data_PCOD9112581
_publ_section_title
;
Structure prediction by ZEFSAII (Michael W. Deem and Ramdas Pophale) SiO2 
 PCOD9112581
Probable space group: P 2
;
_chemical_formula_sum "Si O2"
_cell_formula_units_Z 15
_cell_length_a 8.341087
_cell_length_b 7.648556
_cell_length_c 14.770649
_cell_angle_alpha 90.000000
_cell_angle_beta 55.717443
_cell_angle_gamma 90.000000
_cell_volume 778.616436
_symmetry_space_group_name_H-M "P 2"
_symmetry_group_IT_number 3
_symmetry_cell_setting 'monoclinic'
loop_
_space_group_symop_operation_xyz
x,y,z
-x,y,-z
loop_
_atom_site_type_symbol
_atom_site_label
_atom_site_fract_x
_atom_site_fract_y
_atom_site_fract_z
Si Si1 0.180177 0.665070 0.004939
Si Si2 0.480452 0.370340 0.104705
Si Si3 0.812910 0.684828 0.787266
Si Si4 0.460979 0.527705 0.648965
Si Si5 0.169634 0.551107 0.579045
Si Si6 0.544087 0.824043 0.204699
Si Si7 0.587332 0.167569 0.693286
Si Si8 0.000000 0.259613 0.500000
O O1 0.339474 0.508260 0.952515
O O2 0.280809 0.827790 0.921854
O O3 0.137238 0.714200 0.122945
O O4 0.000000 0.612352 0.000000
O O5 0.291708 0.494298 0.177111
O O6 0.462037 0.231252 0.189536
O O7 0.500000 0.285687 0.000000
O O8 0.650796 0.807495 0.793667
O O9 0.996794 0.678569 0.662753
O O10 0.283961 0.516686 0.635909
O O11 0.655728 0.609035 0.542134
O O12 0.423558 0.648137 0.747162
O O13 0.511040 0.329408 0.658681
O O14 0.073485 0.386794 0.557836
O O15 0.520389 0.984094 0.280387
O O16 0.815025 0.154702 0.596516
#
# Coordination Sequence:
#
# PCOD9112581 Si02
#       8
#     2   2   2   2   2   2   2   1
#     4  10  20  36  59  84 119 154 196 247 294 349
#     4   9  18  34  56  83 111 151 194 238 290 344
#     4  10  18  34  60  85 111 154 198 237 292 347
#     4  10  21  38  58  88 119 155 192 243 297 350
#     4  10  19  36  65  84 116 156 195 242 298 348
#     4  11  22  38  60  86 120 156 195 242 293 349
#     4  11  21  38  61  86 121 156 194 246 289 352
#     4  10  20  38  60  92 118 150 204 244 288 354
#
# _framework density 19.264942000000001
#
# number of rings (size 3 to 8) (size 9 to 14) (size 15 to 20)
#    0.000    1.867    4.000    2.800    0.000    2.133 
#    0.000    8.667    0.000    0.000    0.000    0.000 
#    0.000    0.000    0.000    0.000    0.000    0.000 
#
# Total GULP energy -83557.572398 kJ/mol
# GULP energy per Si atom -5570.504827 kJ/mol
# Density = 1.922109 g / cm^3
# Si number density = 19.264942 Si / 1000 Ang^3
#
#
#
# Elastic Constant Matrix: (Units=GPa)
#
#
# Indices 1 2 3 4 5 6 
#
# 1 65.8401 -2.4258 17.6804 0.0000 6.0803 0.0000
# 2 -2.4258 39.0831 6.7218 0.0000 -1.8823 0.0000
# 3 17.6804 6.7218 82.6098 0.0000 3.9838 0.0000
# 4 0.0000 0.0000 0.0000 23.4943 0.0000 -2.8975
# 5 6.0803 -1.8823 3.9838 0.0000 29.2558 0.0000
# 6 0.0000 0.0000 0.0000 -2.8975 0.0000 3.2879
#
#
#
# Elastic Compliance Matrix: (Units=1/GPa)
#
#
# Indices 1 2 3 4 5 6 
#
# 1 0.016447 0.001486 -0.003504 0.000000 -0.002845 0.000000
# 2 0.001486 0.026197 -0.002533 0.000000 0.001721 0.000000
# 3 -0.003504 -0.002533 0.013120 0.000000 -0.001221 0.000000
# 4 0.000000 0.000000 0.000000 0.047754 0.000000 0.042085
# 5 -0.002845 0.001721 -0.001221 0.000000 0.035050 0.000000
# 6 0.000000 0.000000 0.000000 0.042085 0.000000 0.341238
#
#
# Mechanical properties :
#
#
# Convention : Reuss Voigt Hill
#
# Bulk Modulus (GPa) = 21.42990 25.72064 23.57527
# Shear Modulus (GPa) = 9.91158 22.24469 16.07813
#
# Velocity S-wave (km/s) = 2.27069 3.40173 2.89204
# Velocity P-wave (km/s) = 4.24531 5.36741 4.83899
#
# Compressibility (1/GPa) = 0.04666378
#
# Stress axis : x y z
#
# Youngs Moduli (GPa) = 60.80236 38.17187 76.21972
#
# Poissons Ratio (x) = -0.05674 0.26705
# Poissons Ratio (y) = -0.09037 0.19305
# Poissons Ratio (z) = 0.21303 0.09668
#
# Static dielectric constant tensor:
#      x y z
#    x 1.686070 0.000000 0.003010 
#    y 0.000000 1.674500 0.000000 
#    z 0.003010 0.000000 1.707930 
# 
# From -- ./inp_files/13548.got.cif
#   From: 2010.05.17/outbox.cif.g08.bks.cpg/sg3_7_cif.got.tgz:13548.got - 2010.06.03 18:33:08.
