data_PCOD9112984
_publ_section_title
;
Structure prediction by ZEFSAII (Michael W. Deem and Ramdas Pophale) SiO2 
 PCOD9112984
Probable space group: P 2
;
_chemical_formula_sum "Si O2"
_cell_formula_units_Z 15
_cell_length_a 8.980729
_cell_length_b 16.857243
_cell_length_c 5.303233
_cell_angle_alpha 90.000000
_cell_angle_beta 107.127771
_cell_angle_gamma 90.000000
_cell_volume 767.251746
_symmetry_space_group_name_H-M "P 2"
_symmetry_group_IT_number 3
_symmetry_cell_setting 'monoclinic'
loop_
_space_group_symop_operation_xyz
x,y,z
-x,y,-z
loop_
_atom_site_type_symbol
_atom_site_label
_atom_site_fract_x
_atom_site_fract_y
_atom_site_fract_z
Si Si1 0.602296 0.075740 0.801437
Si Si2 0.848691 0.957867 0.783081
Si Si3 0.687125 0.800517 0.581301
Si Si4 0.832774 0.202216 0.057625
Si Si5 0.106477 0.371218 0.802140
Si Si6 0.312940 0.702431 0.915588
Si Si7 0.000000 0.088279 0.500000
Si Si8 0.893407 0.547644 0.197432
O O1 0.500000 0.063991 0.500000
O O2 0.719870 0.001344 0.889673
O O3 0.500000 0.081383 0.000000
O O4 0.703618 0.156316 0.834299
O O5 0.767265 0.885776 0.602603
O O6 0.914860 0.029767 0.649775
O O7 0.000000 0.925625 0.000000
O O8 0.500000 0.811048 0.500000
O O9 0.730559 0.748655 0.360881
O O10 0.729952 0.754479 0.860249
O O11 0.792325 0.291646 0.117023
O O12 0.871884 0.145013 0.310932
O O13 0.000000 0.205044 0.000000
O O14 0.179280 0.458861 0.821040
O O15 0.000000 0.360134 0.500000
O O16 0.000000 0.374318 0.000000
O O17 0.230274 0.617752 0.879915
O O18 0.500000 0.692995 0.000000
O O19 0.000000 0.557285 0.500000
O O20 0.000000 0.551118 0.000000
#
# Coordination Sequence:
#
# PCOD9112984 Si02
#       8
#     2   2   2   2   2   2   1   2
#     4  12  26  41  61  88 125 167 206 255 314 363
#     4  12  26  41  62  91 119 160 212 259 304 362
#     4  10  24  42  62  87 119 159 200 247 305 363
#     4  11  21  39  64  87 122 164 210 251 300 371
#     4   9  19  33  60  91 119 155 193 251 302 354
#     4  10  22  42  63  85 120 164 196 235 306 373
#     4  12  20  40  64  90 122 154 218 248 308 352
#     4  10  20  37  61  94 122 149 200 249 300 350
#
# _framework density 19.550295999999999
#
# number of rings (size 3 to 8) (size 9 to 14) (size 15 to 20)
#    0.000    1.333    3.333    2.000    1.867    3.200 
#    0.000    0.667    0.000    2.400    0.000    0.000 
#    0.000    0.000    0.000    0.000    0.000    0.000 
#
# Total GULP energy -83773.262618 kJ/mol
# GULP energy per Si atom -5584.884175 kJ/mol
# Density = 1.950580 g / cm^3
# Si number density = 19.550296 Si / 1000 Ang^3
#
#
#
# Elastic Constant Matrix: (Units=GPa)
#
#
# Indices 1 2 3 4 5 6 
#
# 1 55.9654 36.5996 26.4189 0.0000 -5.8800 0.0000
# 2 36.5996 151.8861 27.1454 0.0000 4.4705 0.0000
# 3 26.4189 27.1454 96.6302 0.0000 -16.1362 0.0000
# 4 0.0000 0.0000 0.0000 14.2583 0.0000 -8.0978
# 5 -5.8800 4.4705 -16.1362 0.0000 23.2889 0.0000
# 6 0.0000 0.0000 0.0000 -8.0978 0.0000 -15.0511
#
#
#
# Elastic Compliance Matrix: (Units=1/GPa)
#
#
# Indices 1 2 3 4 5 6 
#
# 1 0.023640 -0.005024 -0.004404 0.000000 0.003882 0.000000
# 2 -0.005024 0.008194 -0.001586 0.000000 -0.003940 0.000000
# 3 -0.004404 -0.001586 0.013416 0.000000 0.008488 0.000000
# 4 0.000000 0.000000 0.000000 0.053720 0.000000 -0.028902
# 5 0.003882 -0.003940 0.008488 0.000000 0.050556 0.000000
# 6 0.000000 0.000000 0.000000 -0.028902 0.000000 -0.050890
#
#
# Mechanical properties :
#
#
# Convention : Reuss Voigt Hill
#
# Bulk Modulus (GPa) = 43.06226 53.86771 48.46499
# Shear Modulus (GPa) = 38.93950 18.78709 28.86330
#
# Velocity S-wave (km/s) = 4.46776 3.10330 3.84651
# Velocity P-wave (km/s) = 6.97773 6.36033 6.67617
#
# Compressibility (1/GPa) = 0.02322219
#
# Stress axis : x y z
#
# Youngs Moduli (GPa) = 42.30074 122.04156 74.53911
#
# Poissons Ratio (x) = 0.61310 0.32826
# Poissons Ratio (y) = 0.21251 0.11824
# Poissons Ratio (z) = 0.18628 0.19360
#
# Static dielectric constant tensor:
#      x y z
#    x 1.722260 0.000000 -0.020670 
#    y 0.000000 1.684480 0.000000 
#    z -0.020670 0.000000 1.718170 
# 
# From -- ./inp_files/1563.got.cif
#   From: 2010.05.17/outbox.cif.g08.bks.cpg/sg3_1_cif.got.tgz:1563.got - 2010.06.03 18:33:08.
