data_PCOD9112693
_publ_section_title
;
Structure prediction by ZEFSAII (Michael W. Deem and Ramdas Pophale) SiO2 
 PCOD9112693
Probable space group: P 2
;
_chemical_formula_sum "Si O2"
_cell_formula_units_Z 16
_cell_length_a 8.629620
_cell_length_b 12.533359
_cell_length_c 8.956428
_cell_angle_alpha 90.000000
_cell_angle_beta 121.205847
_cell_angle_gamma 90.000000
_cell_volume 828.549094
_symmetry_space_group_name_H-M "P 2"
_symmetry_group_IT_number 3
_symmetry_cell_setting 'monoclinic'
loop_
_space_group_symop_operation_xyz
x,y,z
-x,y,-z
loop_
_atom_site_type_symbol
_atom_site_label
_atom_site_fract_x
_atom_site_fract_y
_atom_site_fract_z
Si Si1 0.970515 0.525530 0.160005
Si Si2 0.466316 0.063250 0.661292
Si Si3 0.794062 0.511134 0.461508
Si Si4 0.331622 0.289157 0.526639
Si Si5 0.310347 0.676971 0.820810
Si Si6 0.960614 0.287496 0.156712
Si Si7 0.816755 0.915380 0.313086
Si Si8 0.833008 0.064816 0.033478
O O1 0.837859 0.616647 0.151444
O O2 0.892219 0.406673 0.157947
O O3 0.162876 0.530366 0.342644
O O4 0.000000 0.533883 0.000000
O O5 0.500000 0.049735 0.500000
O O6 0.379162 0.180970 0.635867
O O7 0.332635 0.976585 0.663267
O O8 0.652642 0.057696 0.845096
O O9 0.703456 0.396033 0.397826
O O10 0.686115 0.604018 0.326125
O O11 0.000000 0.510383 0.500000
O O12 0.500000 0.308526 0.500000
O O13 0.147627 0.271549 0.340097
O O14 0.245177 0.795138 0.749918
O O15 0.500000 0.679299 0.000000
O O16 0.842354 0.181785 0.115934
O O17 0.000000 0.291167 0.000000
O O18 0.000000 0.915671 0.500000
O O19 0.839913 0.977811 0.167865
O O20 0.000000 0.055163 0.000000
#
# Coordination Sequence:
#
# PCOD9112693 Si02
#       8
#     2   2   2   2   2   2   2   2
#     4   9  19  37  61  85 115 155 195 232 283 352
#     4  11  23  40  61  91 124 156 199 244 294 356
#     4   9  20  38  57  82 119 156 191 234 290 348
#     4  10  19  33  57  88 120 152 193 240 287 345
#     4  11  24  41  59  84 116 148 194 248 294 346
#     4   9  17  32  55  86 122 156 190 233 291 349
#     4  12  25  44  65  84 115 158 202 250 301 349
#     4  11  22  39  63  92 124 157 196 243 298 355
#
# _framework density 19.310866999999998
#
# number of rings (size 3 to 8) (size 9 to 14) (size 15 to 20)
#    0.000    1.750    0.000    6.750    0.000    8.000 
#    0.000    4.375    0.000    0.000    0.000    0.000 
#    0.000    0.000    0.000    0.000    0.000    0.000 
#
# Total GULP energy -89336.972488 kJ/mol
# GULP energy per Si atom -5583.560781 kJ/mol
# Density = 1.926691 g / cm^3
# Si number density = 19.310867 Si / 1000 Ang^3
#
#
#
# Elastic Constant Matrix: (Units=GPa)
#
#
# Indices 1 2 3 4 5 6 
#
# 1 73.3745 71.3333 54.9645 0.0000 8.5588 0.0000
# 2 71.3333 201.3923 102.0005 0.0000 8.8985 0.0000
# 3 54.9645 102.0005 170.2001 0.0000 5.9143 0.0000
# 4 0.0000 0.0000 0.0000 32.0211 0.0000 62.3931
# 5 8.5588 8.8985 5.9143 0.0000 36.8703 0.0000
# 6 0.0000 0.0000 0.0000 62.3931 0.0000 -377.7881
#
#
#
# Elastic Compliance Matrix: (Units=1/GPa)
#
#
# Indices 1 2 3 4 5 6 
#
# 1 0.022534 -0.006046 -0.003543 0.000000 -0.003203 0.000000
# 2 -0.006046 0.008791 -0.003310 0.000000 -0.000187 0.000000
# 3 -0.003543 -0.003310 0.008997 0.000000 0.000178 0.000000
# 4 0.000000 0.000000 0.000000 0.023626 0.000000 0.003902
# 5 -0.003203 -0.000187 0.000178 0.000000 0.027882 0.000000
# 6 0.000000 0.000000 0.000000 0.003902 0.000000 -0.002003
#
#
# Mechanical properties :
#
#
# Convention : Reuss Voigt Hill
#
# Bulk Modulus (GPa) = 68.84272 100.17372 84.50822
# Shear Modulus (GPa) = 41.50554 -47.33478 -2.91462
#
# Velocity S-wave (km/s) = 4.64112 -4.95633 -1.22987
# Velocity P-wave (km/s) = 8.02790 4.38558 6.46840
#
# Compressibility (1/GPa) = 0.01452586
#
# Stress axis : x y z
#
# Youngs Moduli (GPa) = 44.37833 113.74735 111.15047
#
# Poissons Ratio (x) = 0.68768 0.39375
# Poissons Ratio (y) = 0.26830 0.36788
# Poissons Ratio (z) = 0.15721 0.37648
#
# Static dielectric constant tensor:
#      x y z
#    x 1.688530 0.000000 -0.010710 
#    y 0.000000 1.675680 0.000000 
#    z -0.010710 0.000000 1.688830 
# 
# From -- ./inp_files/6084.got.cif
#   From: 2010.05.17/outbox.cif.g08.bks.cpg/sg3_4_cif.got.tgz:6084.got - 2010.06.03 18:33:08.
