data_PCOD9112764
_publ_section_title
;
Structure prediction by ZEFSAII (Michael W. Deem and Ramdas Pophale) SiO2 
 PCOD9112764
Probable space group: P 2
;
_chemical_formula_sum "Si O2"
_cell_formula_units_Z 12
_cell_length_a 9.343789
_cell_length_b 8.512857
_cell_length_c 12.896511
_cell_angle_alpha 90.000000
_cell_angle_beta 36.980996
_cell_angle_gamma 90.000000
_cell_volume 617.081313
_symmetry_space_group_name_H-M "P 2"
_symmetry_group_IT_number 3
_symmetry_cell_setting 'monoclinic'
loop_
_space_group_symop_operation_xyz
x,y,z
-x,y,-z
loop_
_atom_site_type_symbol
_atom_site_label
_atom_site_fract_x
_atom_site_fract_y
_atom_site_fract_z
Si Si1 0.791833 0.846650 0.540225
Si Si2 0.879411 0.216109 0.457472
Si Si3 0.728328 0.882749 0.178584
Si Si4 0.243322 0.666927 0.646504
Si Si5 0.342484 0.254522 0.796804
Si Si6 0.031744 0.369570 0.155514
O O1 0.515797 0.826542 0.736538
O O2 0.815368 0.730503 0.431553
O O3 0.000000 0.814149 0.500000
O O4 0.836287 0.027012 0.476483
O O5 0.615820 0.287512 0.614931
O O6 0.012983 0.285413 0.278874
O O7 0.000000 0.244647 0.500000
O O8 0.707808 0.814789 0.306405
O O9 0.708853 0.068288 0.172302
O O10 0.000000 0.833893 0.000000
O O11 0.500000 0.580152 0.500000
O O12 0.028711 0.553346 0.801655
O O13 0.179631 0.311363 0.797171
O O14 0.262014 0.327946 0.953350
#
# Coordination Sequence:
#
# PCOD9112764 Si02
#       6
#     2   2   2   2   2   2
#     4   9  20  38  59  84 113 152 196 235 289 350
#     4  10  21  38  61  83 116 157 192 239 291 346
#     4  10  19  36  59  86 111 146 191 243 286 334
#     4  10  21  35  58  85 116 151 189 238 293 350
#     4  10  21  37  59  89 115 147 197 246 285 343
#     4  11  21  36  58  89 115 151 193 240 290 342
#
# _framework density 19.446383000000001
#
# number of rings (size 3 to 8) (size 9 to 14) (size 15 to 20)
#    0.000    2.000    1.667    2.500    2.333    4.000 
#    0.000    0.833    3.667    0.000    0.000    0.000 
#    0.000    0.000    0.000    0.000    0.000    0.000 
#
# Total GULP energy -66807.247995 kJ/mol
# GULP energy per Si atom -5567.270666 kJ/mol
# Density = 1.940212 g / cm^3
# Si number density = 19.446383 Si / 1000 Ang^3
#
#
#
# Elastic Constant Matrix: (Units=GPa)
#
#
# Indices 1 2 3 4 5 6 
#
# 1 107.3539 28.7866 35.8397 0.0000 -0.2567 0.0000
# 2 28.7866 50.7508 30.3286 0.0000 10.3418 0.0000
# 3 35.8397 30.3286 80.9246 0.0000 7.7200 0.0000
# 4 0.0000 0.0000 0.0000 15.7837 0.0000 -7.0596
# 5 -0.2567 10.3418 7.7200 0.0000 31.0045 0.0000
# 6 0.0000 0.0000 0.0000 -7.0596 0.0000 -2.0652
#
#
#
# Elastic Compliance Matrix: (Units=1/GPa)
#
#
# Indices 1 2 3 4 5 6 
#
# 1 0.011905 -0.005155 -0.003600 0.000000 0.002714 0.000000
# 2 -0.005155 0.028862 -0.007797 0.000000 -0.007729 0.000000
# 3 -0.003600 -0.007797 0.017033 0.000000 -0.001670 0.000000
# 4 0.000000 0.000000 0.000000 0.025053 0.000000 -0.085638
# 5 0.002714 -0.007729 -0.001670 0.000000 0.035270 0.000000
# 6 0.000000 0.000000 0.000000 -0.085638 0.000000 -0.191469
#
#
# Mechanical properties :
#
#
# Convention : Reuss Voigt Hill
#
# Bulk Modulus (GPa) = 40.48906 47.65992 44.07449
# Shear Modulus (GPa) = -156.19899 18.54954 -68.82472
#
# Velocity S-wave (km/s) = -8.97203 3.09185 -5.95558
# Velocity P-wave (km/s) = 9.29858 6.10800 4.95762
#
# Compressibility (1/GPa) = 0.02469803
#
# Stress axis : x y z
#
# Youngs Moduli (GPa) = 83.99483 34.64744 58.71061
#
# Poissons Ratio (x) = 0.17861 0.21134
# Poissons Ratio (y) = 0.43299 0.45774
# Poissons Ratio (z) = 0.30235 0.27013
#
# Static dielectric constant tensor:
#      x y z
#    x 1.657230 0.000000 -0.025390 
#    y 0.000000 1.718810 0.000000 
#    z -0.025390 0.000000 1.781830 
# 
# From -- ./inp_files/5234.got.cif
#   From: 2010.05.17/outbox.cif.g08.bks.cpg/sg3_3_cif.got.tgz:5234.got - 2010.06.03 18:33:08.
