data_PCOD9112297
_publ_section_title
;
Structure prediction by ZEFSAII (Michael W. Deem and Ramdas Pophale) SiO2 
 PCOD9112297
Probable space group: P -1
;
_chemical_formula_sum "Si O2"
_cell_formula_units_Z 15
_cell_length_a 17.862901
_cell_length_b 19.762774
_cell_length_c 12.981482
_cell_angle_alpha 36.327634
_cell_angle_beta 155.155992
_cell_angle_gamma 158.387394
_cell_volume 687.462350
_symmetry_space_group_name_H-M "P -1"
_symmetry_group_IT_number 2
_symmetry_cell_setting 'triclinic'
loop_
_space_group_symop_operation_xyz
x,y,z
-x,-y,-z
loop_
_atom_site_type_symbol
_atom_site_label
_atom_site_fract_x
_atom_site_fract_y
_atom_site_fract_z
Si Si1 0.121745 0.923298 0.078942
Si Si2 0.435331 0.864215 0.451895
Si Si3 0.586688 0.520241 0.966619
Si Si4 0.595110 0.423612 0.750392
Si Si5 0.660297 0.926829 0.245027
Si Si6 0.280490 0.808524 0.104055
Si Si7 0.234010 0.217771 0.746574
Si Si8 0.000000 0.500000 0.500000
O O1 0.293537 0.915997 0.235216
O O2 0.778131 0.718967 0.910348
O O3 0.259152 0.986301 0.287763
O O4 0.195331 0.080917 0.926950
O O5 0.456113 0.858602 0.363007
O O6 0.217063 0.664624 0.480057
O O7 0.801953 0.519704 0.230582
O O8 0.500000 0.500000 0.000000
O O9 0.295481 0.346711 0.748380
O O10 0.500000 0.500000 0.500000
O O11 0.410771 0.232672 0.694320
O O12 0.517122 0.364991 0.844384
O O13 0.944454 0.597231 0.957215
O O14 0.403778 0.824983 0.130599
O O15 0.957765 0.089022 0.484129
O O16 0.687313 0.037673 0.055547
#
# Coordination Sequence:
#
# PCOD9112297 Si02
#       8
#     2   2   2   2   2   2   2   1
#     4  10  23  41  68 101 142 179 233 277 353 423
#     4  10  21  41  69 100 136 186 221 285 346 423
#     4  11  26  44  70 106 143 182 236 289 352 431
#     4  12  25  45  73 102 136 182 239 292 347 419
#     4  11  27  46  69 104 139 185 237 288 357 416
#     4  11  25  47  69 100 145 179 235 290 356 420
#     4  12  25  45  72 102 140 185 231 291 350 417
#     4  10  20  46  64 100 142 180 236 278 352 420
#
# _framework density 21.819375000000001
#
# number of rings (size 3 to 8) (size 9 to 14) (size 15 to 20)
#    0.000    1.067    2.667    3.200    5.600    1.600 
#    2.400    0.000    0.000    0.000    0.000    0.000 
#    0.000    0.000    0.000    0.000    0.000    0.000 
#
# Total GULP energy -83661.224722 kJ/mol
# GULP energy per Si atom -5577.414981 kJ/mol
# Density = 2.176971 g / cm^3
# Si number density = 21.819375 Si / 1000 Ang^3
#
#
#
# Elastic Constant Matrix: (Units=GPa)
#
#
# Indices 1 2 3 4 5 6 
#
# 1 73.7991 47.5575 25.8060 1.2620 -21.7101 -5.2105
# 2 47.5575 148.6377 30.3352 -11.0067 -17.9031 5.9600
# 3 25.8060 30.3352 36.7693 -4.8450 -11.7411 -2.0847
# 4 1.2620 -11.0067 -4.8450 20.0010 6.9233 0.3730
# 5 -21.7101 -17.9031 -11.7411 6.9233 30.0247 6.3543
# 6 -5.2105 5.9600 -2.0847 0.3730 6.3543 30.0948
#
#
#
# Elastic Compliance Matrix: (Units=1/GPa)
#
#
# Indices 1 2 3 4 5 6 
#
# 1 0.024583 -0.005134 -0.010286 -0.011368 0.012894 0.001979
# 2 -0.005134 0.009651 -0.003883 0.004718 0.000102 -0.003149
# 3 -0.010286 -0.003883 0.039865 0.006729 0.004116 0.000797
# 4 -0.011368 0.004718 0.006729 0.060773 -0.016868 0.000372
# 5 0.012894 0.000102 0.004116 -0.016868 0.049844 -0.007818
# 6 0.001979 -0.003149 0.000797 0.000372 -0.007818 0.035896
#
#
# Mechanical properties :
#
#
# Convention : Reuss Voigt Hill
#
# Bulk Modulus (GPa) = 28.17441 51.84482 40.00962
# Shear Modulus (GPa) = 18.44682 26.39125 22.41904
#
# Velocity S-wave (km/s) = 2.91079 3.48161 3.20891
# Velocity P-wave (km/s) = 4.92316 6.32255 5.66622
#
# Compressibility (1/GPa) = 0.03549320
#
# Stress axis : x y z
#
# Youngs Moduli (GPa) = 40.67848 103.61664 25.08450
#
# Poissons Ratio (x) = 0.53201 0.25801
# Poissons Ratio (y) = 0.20886 0.09740
# Poissons Ratio (z) = 0.41841 0.40233
#
# Static dielectric constant tensor:
#      x y z
#    x 1.791600 -0.020750 0.010510 
#    y -0.020750 1.826080 0.030970 
#    z 0.010510 0.030970 1.807200 
# 
# From -- ./inp_files/467108.got.cif
#   From: 2010.05.17/outbox.cif.g08.bks.cpg/sg2_234_cif.got.tgz:467108.got - 2010.06.03 11:33:40.
