data_PCOD9112148
_publ_section_title
;
Structure prediction by ZEFSAII (Michael W. Deem and Ramdas Pophale) SiO2 
 PCOD9112148
Probable space group: P -1
;
_chemical_formula_sum "Si O2"
_cell_formula_units_Z 11
_cell_length_a 7.646725
_cell_length_b 13.536997
_cell_length_c 11.590680
_cell_angle_alpha 32.711323
_cell_angle_beta 42.550769
_cell_angle_gamma 39.079066
_cell_volume 396.258853
_symmetry_space_group_name_H-M "P -1"
_symmetry_group_IT_number 2
_symmetry_cell_setting 'triclinic'
loop_
_space_group_symop_operation_xyz
x,y,z
-x,-y,-z
loop_
_atom_site_type_symbol
_atom_site_label
_atom_site_fract_x
_atom_site_fract_y
_atom_site_fract_z
Si Si1 0.204421 0.496874 0.083699
Si Si2 0.981523 0.898989 0.878479
Si Si3 0.713755 0.854104 0.446265
Si Si4 0.733821 0.675739 0.387460
Si Si5 0.289755 0.531812 0.764345
Si Si6 0.000000 0.000000 0.500000
O O1 0.186638 0.355483 0.331508
O O2 0.876505 0.569527 0.124971
O O3 0.379996 0.424326 0.950913
O O4 0.251572 0.683005 0.930669
O O5 0.798492 0.813236 0.128741
O O6 0.053970 0.055800 0.765214
O O7 0.912198 0.984654 0.698660
O O8 0.567597 0.834901 0.417140
O O9 0.500000 0.000000 0.500000
O O10 0.547975 0.560390 0.551925
O O11 0.000000 0.500000 0.500000
O O12 0.067765 0.762170 0.676698
#
# Coordination Sequence:
#
# PCOD9112148 Si02
#       6
#     2   2   2   2   2   1
#     4  10  22  45  72 101 139 187 248 291 342 429
#     4  11  24  45  71 104 144 184 241 294 363 417
#     4  12  25  45  74 103 142 195 242 288 351 439
#     4  12  27  46  69 108 155 186 227 299 375 423
#     4  10  23  43  71 104 138 192 239 295 349 421
#     4  10  20  44  72 102 130 184 252 282 340 424
#
# _framework density 27.759630999999999
#
# number of rings (size 3 to 8) (size 9 to 14) (size 15 to 20)
#    0.000    1.091    3.636    2.727    2.545    2.909 
#    0.000    0.000    0.000    0.000    0.000    0.000 
#    0.000    0.000    0.000    0.000    0.000    0.000 
#
# Total GULP energy -61275.598015 kJ/mol
# GULP energy per Si atom -5570.508910 kJ/mol
# Density = 2.769645 g / cm^3
# Si number density = 27.759631 Si / 1000 Ang^3
#
#
#
# Elastic Constant Matrix: (Units=GPa)
#
#
# Indices 1 2 3 4 5 6 
#
# 1 94.8843 -4.3646 88.8471 -9.7050 17.9318 30.5463
# 2 -4.3646 49.4682 10.9765 -3.7306 11.9671 22.2232
# 3 88.8471 10.9765 294.7299 13.3865 0.8589 16.4271
# 4 -9.7050 -3.7306 13.3865 59.9664 9.4070 2.7481
# 5 17.9318 11.9671 0.8589 9.4070 62.3877 5.5634
# 6 30.5463 22.2232 16.4271 2.7481 5.5634 38.2950
#
#
#
# Elastic Compliance Matrix: (Units=1/GPa)
#
#
# Indices 1 2 3 4 5 6 
#
# 1 0.045146 0.034524 -0.012890 0.017355 -0.017651 -0.049198
# 2 0.034524 0.055342 -0.010168 0.016608 -0.018100 -0.053855
# 3 -0.012890 -0.010168 0.007192 -0.005737 0.005285 0.012741
# 4 0.017355 0.016608 -0.005737 0.024323 -0.009860 -0.021333
# 5 -0.017651 -0.018100 0.005285 -0.009860 0.024249 0.019501
# 6 -0.049198 -0.053855 0.012741 -0.021333 0.019501 0.089842
#
#
# Mechanical properties :
#
#
# Convention : Reuss Voigt Hill
#
# Bulk Modulus (GPa) = 7.65623 70.00006 38.82815
# Shear Modulus (GPa) = 18.74757 55.03803 36.89280
#
# Velocity S-wave (km/s) = 2.60158 4.45754 3.64951
# Velocity P-wave (km/s) = 3.43341 7.19473 5.63704
#
# Compressibility (1/GPa) = 0.13061262
#
# Stress axis : x y z
#
# Youngs Moduli (GPa) = 22.15013 18.06934 139.03566
#
# Poissons Ratio (x) = -0.62383 1.79217
# Poissons Ratio (y) = -0.76471 1.41377
# Poissons Ratio (z) = 0.28552 0.18374
#
# Static dielectric constant tensor:
#      x y z
#    x 2.447600 -0.517220 -0.023310 
#    y -0.517220 3.191790 0.092780 
#    z -0.023310 0.092780 2.090120 
# 
# From -- ./inp_files/166769.got.cif
#   From: 2010.05.17/outbox.cif.g08.bks.cpg/sg2_84_cif.got.tgz:166769.got - 2010.06.03 11:33:40.
