data_PCOD9112101
_publ_section_title
;
Structure prediction by ZEFSAII (Michael W. Deem and Ramdas Pophale) SiO2 
 PCOD9112101
Probable space group: P -1
;
_chemical_formula_sum "Si O2"
_cell_formula_units_Z 14
_cell_length_a 11.414203
_cell_length_b 11.260975
_cell_length_c 4.982571
_cell_angle_alpha 90.540420
_cell_angle_beta 121.887634
_cell_angle_gamma 61.919321
_cell_volume 454.653044
_symmetry_space_group_name_H-M "P -1"
_symmetry_group_IT_number 2
_symmetry_cell_setting 'triclinic'
loop_
_space_group_symop_operation_xyz
x,y,z
-x,-y,-z
loop_
_atom_site_type_symbol
_atom_site_label
_atom_site_fract_x
_atom_site_fract_y
_atom_site_fract_z
Si Si1 0.000000 0.000000 0.500000
Si Si2 0.110980 0.103197 0.163999
Si Si3 0.883956 0.396875 0.098883
Si Si4 0.500000 0.500000 0.500000
Si Si5 0.812725 0.668539 0.199636
Si Si6 0.291806 0.685674 0.728136
Si Si7 0.675915 0.977113 0.055374
Si Si8 0.438119 0.290093 0.682497
O O1 0.865406 0.158578 0.484389
O O2 0.997383 0.081306 0.221173
O O3 0.266927 0.043366 0.564004
O O4 0.001667 0.275874 0.025738
O O5 0.177410 0.031540 0.948189
O O6 0.833682 0.557070 0.002131
O O7 0.731203 0.390614 0.038646
O O8 0.016591 0.352988 0.500669
O O9 0.355854 0.574630 0.565710
O O10 0.483239 0.357134 0.495343
O O11 0.692742 0.833081 0.983274
O O12 0.731387 0.643756 0.358510
O O13 0.434442 0.710454 0.956281
O O14 0.515384 0.120513 0.768696
#
# Coordination Sequence:
#
# PCOD9112101 Si02
#       8
#     1   2   2   1   2   2   2   2
#     4  10  20  44  70 102 148 192 244 308 374 444
#     4  10  22  43  70 104 145 191 247 308 374 449
#     4   9  21  45  70 102 145 191 246 306 377 445
#     4  12  26  44  74 110 150 190 250 320 384 444
#     4  10  22  46  71 103 151 192 248 307 375 456
#     4  11  23  47  71 107 142 192 249 312 375 450
#     4  11  24  46  69 107 145 196 246 309 376 454
#     4  12  25  46  72 106 145 195 249 309 380 454
#
# _framework density 30.792715000000001
#
# number of rings (size 3 to 8) (size 9 to 14) (size 15 to 20)
#    0.000    1.429    2.857    1.714    0.000    1.143 
#   20.571    3.571    0.000    0.000    0.000    0.000 
#    0.000    0.000    0.000    0.000    0.000    0.000 
#
# Total GULP energy -78099.133309 kJ/mol
# GULP energy per Si atom -5578.509522 kJ/mol
# Density = 3.072263 g / cm^3
# Si number density = 30.792715 Si / 1000 Ang^3
#
#
#
# Elastic Constant Matrix: (Units=GPa)
#
#
# Indices 1 2 3 4 5 6 
#
# 1 157.2701 15.2853 34.0484 7.4798 -17.6616 3.9382
# 2 15.2853 167.3455 14.2093 -27.7146 -9.9240 -1.5509
# 3 34.0484 14.2093 104.5904 6.1123 -23.9204 -8.0254
# 4 7.4798 -27.7146 6.1123 44.2537 2.0976 -16.9282
# 5 -17.6616 -9.9240 -23.9204 2.0976 28.7613 -2.2926
# 6 3.9382 -1.5509 -8.0254 -16.9282 -2.2926 67.2352
#
#
#
# Elastic Compliance Matrix: (Units=1/GPa)
#
#
# Indices 1 2 3 4 5 6 
#
# 1 0.007211 -0.000687 -0.001537 -0.001966 0.002976 -0.001015
# 2 -0.000687 0.007023 -0.000640 0.005100 0.001213 0.001451
# 3 -0.001537 -0.000640 0.012537 -0.001768 0.009507 0.001451
# 4 -0.001966 0.005100 -0.001768 0.029281 -0.002471 0.007310
# 5 0.002976 0.001213 0.009507 -0.002471 0.045254 0.001909
# 6 -0.001015 0.001451 0.001451 0.007310 0.001909 0.017045
#
#
# Mechanical properties :
#
#
# Convention : Reuss Voigt Hill
#
# Bulk Modulus (GPa) = 47.51774 61.81021 54.66398
# Shear Modulus (GPa) = 38.14110 52.42759 45.28435
#
# Velocity S-wave (km/s) = 3.52325 4.13073 3.83903
# Velocity P-wave (km/s) = 5.65827 6.54730 6.11895
#
# Compressibility (1/GPa) = 0.02104477
#
# Stress axis : x y z
#
# Youngs Moduli (GPa) = 138.67713 142.39418 79.76194
#
# Poissons Ratio (x) = 0.09778 0.12257
# Poissons Ratio (y) = 0.09523 0.05103
# Poissons Ratio (z) = 0.21310 0.09110
#
# Static dielectric constant tensor:
#      x y z
#    x 2.337600 0.161940 0.082990 
#    y 0.161940 2.506350 0.042240 
#    z 0.082990 0.042240 2.213870 
# 
# From -- ./inp_files/66414.got.cif
#   From: 2010.05.17/outbox.cif.g08.bks.cpg/sg2_34_cif.got.tgz:66414.got - 2010.06.03 11:33:40.
