data_PCOD9112489
_publ_section_title
;
Structure prediction by ZEFSAII (Michael W. Deem and Ramdas Pophale) SiO2 
 PCOD9112489
Probable space group: P 2
;
_chemical_formula_sum "Si O2"
_cell_formula_units_Z 14
_cell_length_a 10.872856
_cell_length_b 12.983746
_cell_length_c 5.535341
_cell_angle_alpha 90.000000
_cell_angle_beta 59.392727
_cell_angle_gamma 90.000000
_cell_volume 672.555964
_symmetry_space_group_name_H-M "P 2"
_symmetry_group_IT_number 3
_symmetry_cell_setting 'monoclinic'
loop_
_space_group_symop_operation_xyz
x,y,z
-x,y,-z
loop_
_atom_site_type_symbol
_atom_site_label
_atom_site_fract_x
_atom_site_fract_y
_atom_site_fract_z
Si Si1 0.414055 0.728410 0.335954
Si Si2 0.588209 0.970960 0.661783
Si Si3 0.167275 0.448149 0.082769
Si Si4 0.181329 0.143725 0.568660
Si Si5 0.508427 0.367176 0.241573
Si Si6 0.759883 0.528593 0.490077
Si Si7 0.868097 0.220917 0.881911
O O1 0.500000 0.708978 0.500000
O O2 0.376391 0.849093 0.373619
O O3 0.287997 0.646379 0.462023
O O4 0.500000 0.708978 0.000000
O O5 0.500000 0.991331 0.500000
O O6 0.731797 0.038487 0.518189
O O7 0.500000 0.991331 0.000000
O O8 0.154919 0.504670 0.350470
O O9 0.084902 0.339650 0.165117
O O10 0.336411 0.418620 0.913614
O O11 0.154926 0.504684 0.839793
O O12 0.214219 0.200893 0.284184
O O13 0.007525 0.147325 0.742475
O O14 0.214212 0.200909 0.787337
O O15 0.500000 0.307592 0.500000
O O16 0.383628 0.454983 0.366392
O O17 0.500000 0.307592 0.000000
#
# Coordination Sequence:
#
# PCOD9112489 Si02
#       7
#     2   2   2   2   2   2   2
#     4  10  18  30  51  78 112 154 188 219 283 356
#     4  10  21  37  58  86 117 147 185 243 300 344
#     4  10  18  29  46  74 105 137 187 227 260 318
#     4  10  21  40  59  81 108 146 199 245 294 340
#     4   8  14  23  36  57  95 135 161 196 246 295
#     4  10  17  28  46  73 115 150 175 217 270 335
#     4  10  21  37  60  81 104 151 201 241 283 340
#
# _framework density 20.816113000000001
#
# number of rings (size 3 to 8) (size 9 to 14) (size 15 to 20)
#    0.000    2.286    0.000    5.143    0.000    0.000 
#    0.000   12.857    0.000    0.000    0.000   24.000 
#    0.000    0.000    0.000    0.000    0.000    0.000 
#
# Total GULP energy -78043.673429 kJ/mol
# GULP energy per Si atom -5574.548102 kJ/mol
# Density = 2.076873 g / cm^3
# Si number density = 20.816113 Si / 1000 Ang^3
#
#
#
# Elastic Constant Matrix: (Units=GPa)
#
#
# Indices 1 2 3 4 5 6 
#
# 1 67.9802 51.7591 107.0116 0.0000 -12.3352 0.0000
# 2 51.7591 102.0920 58.8486 0.0000 6.1902 0.0000
# 3 107.0116 58.8486 143.2899 0.0000 77.7308 0.0000
# 4 0.0000 0.0000 0.0000 16.4046 0.0000 1.7294
# 5 -12.3352 6.1902 77.7308 0.0000 51.2710 0.0000
# 6 0.0000 0.0000 0.0000 1.7294 0.0000 14.4147
#
#
#
# Elastic Compliance Matrix: (Units=1/GPa)
#
#
# Indices 1 2 3 4 5 6 
#
# 1 -0.000132 -0.004849 0.010077 0.000000 -0.014723 0.000000
# 2 -0.004849 0.014108 -0.003468 0.000000 0.002388 0.000000
# 3 0.010077 -0.003468 -0.003742 0.000000 0.008516 0.000000
# 4 0.000000 0.000000 0.000000 0.061739 0.000000 -0.007407
# 5 -0.014723 0.002388 0.008516 0.000000 0.002762 0.000000
# 6 0.000000 0.000000 0.000000 -0.007407 0.000000 0.070262
#
#
# Mechanical properties :
#
#
# Convention : Reuss Voigt Hill
#
# Bulk Modulus (GPa) = 72.71036 83.17785 77.94410
# Shear Modulus (GPa) = 34.23185 22.80092 28.51639
#
# Velocity S-wave (km/s) = 4.05963 3.31320 3.70526
# Velocity P-wave (km/s) = 7.54850 7.39469 7.47199
#
# Compressibility (1/GPa) = 0.01375320
#
# Stress axis : x y z
#
# Youngs Moduli (GPa) = -7601.23598 70.88331 -267.22310
#
# Poissons Ratio (x) = 0.34371 2.69269
# Poissons Ratio (y) = -36.85838 -0.92672
# Poissons Ratio (z) = 76.59444 0.24582
#
# Static dielectric constant tensor:
#      x y z
#    x 1.794670 0.000000 0.024310 
#    y 0.000000 1.695500 0.000000 
#    z 0.024310 0.000000 1.822740 
# 
# From -- ./inp_files/2460.got.cif
#   From: 2010.05.17/outbox.cif.g08.bks.cpg/sg3_2_cif.got.tgz:2460.got - 2010.06.03 18:33:08.
