data_PCOD9112627
_publ_section_title
;
Structure prediction by ZEFSAII (Michael W. Deem and Ramdas Pophale) SiO2 
 PCOD9112627
Probable space group: P 2
;
_chemical_formula_sum "Si O2"
_cell_formula_units_Z 14
_cell_length_a 8.004761
_cell_length_b 5.302877
_cell_length_c 13.291518
_cell_angle_alpha 90.000000
_cell_angle_beta 108.368068
_cell_angle_gamma 90.000000
_cell_volume 535.456772
_symmetry_space_group_name_H-M "P 2"
_symmetry_group_IT_number 3
_symmetry_cell_setting 'monoclinic'
loop_
_space_group_symop_operation_xyz
x,y,z
-x,y,-z
loop_
_atom_site_type_symbol
_atom_site_label
_atom_site_fract_x
_atom_site_fract_y
_atom_site_fract_z
Si Si1 0.985477 0.580210 0.603498
Si Si2 0.877784 0.344897 0.166055
Si Si3 0.501960 0.312538 0.666455
Si Si4 0.677279 0.811179 0.652829
Si Si5 0.867471 0.703956 0.901622
Si Si6 0.501542 0.570398 0.859295
Si Si7 0.748715 0.976231 0.278198
O O1 0.024883 0.422804 0.711006
O O2 0.130191 0.797355 0.635002
O O3 0.000000 0.446408 0.500000
O O4 0.804289 0.723474 0.588904
O O5 0.674245 0.450362 0.124376
O O6 0.007814 0.465393 0.109015
O O7 0.840675 0.055235 0.189936
O O8 0.532011 0.587083 0.626832
O O9 0.571877 0.360684 0.793517
O O10 0.602020 0.091007 0.628717
O O11 0.313310 0.204851 0.662420
O O12 0.789496 0.805288 0.779960
O O13 0.689686 0.662091 0.934076
O O14 0.000000 0.856914 0.000000
O O15 0.418948 0.811773 0.787001
#
# Coordination Sequence:
#
# PCOD9112627 Si02
#       7
#     2   2   2   2   2   2   2
#     4  10  23  40  64  97 131 171 224 276 333 397
#     4   9  21  38  65  93 132 177 220 274 335 397
#     4  10  18  39  67  91 121 175 212 260 334 384
#     4  10  22  39  67  91 132 170 213 274 327 394
#     4  10  20  38  65  97 130 176 224 276 333 397
#     4   9  19  37  65  93 130 171 217 272 325 400
#     4  10  19  39  70  91 126 180 216 269 336 397
#
# _framework density 26.145902
#
# number of rings (size 3 to 8) (size 9 to 14) (size 15 to 20)
#    0.000    2.286    2.857    0.000    6.000    1.143 
#    0.000    3.571    6.286    5.143    0.000    0.000 
#    0.000    0.000    0.000    0.000    0.000    0.000 
#
# Total GULP energy -77996.448753 kJ/mol
# GULP energy per Si atom -5571.174911 kJ/mol
# Density = 2.608639 g / cm^3
# Si number density = 26.145902 Si / 1000 Ang^3
#
#
#
# Elastic Constant Matrix: (Units=GPa)
#
#
# Indices 1 2 3 4 5 6 
#
# 1 128.3168 31.4159 32.1662 0.0000 16.2761 0.0000
# 2 31.4159 91.2486 4.3874 0.0000 7.6518 0.0000
# 3 32.1662 4.3874 99.0044 0.0000 -12.8664 0.0000
# 4 0.0000 0.0000 0.0000 -5.5861 0.0000 34.2589
# 5 16.2761 7.6518 -12.8664 0.0000 39.3150 0.0000
# 6 0.0000 0.0000 0.0000 34.2589 0.0000 -322.9346
#
#
#
# Elastic Compliance Matrix: (Units=1/GPa)
#
#
# Indices 1 2 3 4 5 6 
#
# 1 0.010055 -0.002875 -0.003768 0.000000 -0.004836 0.000000
# 2 -0.002875 0.012026 0.000263 0.000000 -0.001064 0.000000
# 3 -0.003768 0.000263 0.012020 0.000000 0.005443 0.000000
# 4 0.000000 0.000000 0.000000 -0.512371 0.000000 -0.054355
# 5 -0.004836 -0.001064 0.005443 0.000000 0.029426 0.000000
# 6 0.000000 0.000000 0.000000 -0.054355 0.000000 -0.008863
#
#
# Mechanical properties :
#
#
# Convention : Reuss Voigt Hill
#
# Bulk Modulus (GPa) = 46.85885 50.50096 48.67991
# Shear Modulus (GPa) = -11.41988 -41.13446 -26.27717
#
# Velocity S-wave (km/s) = -2.09218 -3.97074 -3.17365
# Velocity P-wave (km/s) = 3.48205 1.29052 2.28684
#
# Compressibility (1/GPa) = 0.02134069
#
# Stress axis : x y z
#
# Youngs Moduli (GPa) = 99.45157 83.15627 83.19166
#
# Poissons Ratio (x) = 0.23909 0.31347
# Poissons Ratio (y) = 0.28594 -0.02187
# Poissons Ratio (z) = 0.37473 -0.02186
#
# Static dielectric constant tensor:
#      x y z
#    x 2.438250 0.000000 0.174860 
#    y 0.000000 2.131620 0.000000 
#    z 0.174860 0.000000 2.296020 
# 
# From -- ./inp_files/13363.got.cif
#   From: 2010.05.17/outbox.cif.g08.bks.cpg/sg3_7_cif.got.tgz:13363.got - 2010.06.03 18:33:08.
