data_PCOD9112655
_publ_section_title
;
Structure prediction by ZEFSAII (Michael W. Deem and Ramdas Pophale) SiO2 
 PCOD9112655
Probable space group: P 2
;
_chemical_formula_sum "Si O2"
_cell_formula_units_Z 14
_cell_length_a 11.643048
_cell_length_b 13.764169
_cell_length_c 11.745091
_cell_angle_alpha 90.000000
_cell_angle_beta 24.824875
_cell_angle_gamma 90.000000
_cell_volume 790.247718
_symmetry_space_group_name_H-M "P 2"
_symmetry_group_IT_number 3
_symmetry_cell_setting 'monoclinic'
loop_
_space_group_symop_operation_xyz
x,y,z
-x,y,-z
loop_
_atom_site_type_symbol
_atom_site_label
_atom_site_fract_x
_atom_site_fract_y
_atom_site_fract_z
Si Si1 0.704988 0.976140 0.710323
Si Si2 0.009042 0.655711 0.289759
Si Si3 0.700496 0.380674 0.570269
Si Si4 0.477914 0.772171 0.157999
Si Si5 0.295202 0.193268 0.291642
Si Si6 0.723991 0.466698 0.890794
Si Si7 0.788211 0.512441 0.292191
O O1 0.606485 0.881685 0.731279
O O2 0.000000 0.955123 0.500000
O O3 0.705651 0.083721 0.656990
O O4 0.500000 0.985798 0.000000
O O5 0.759470 0.700949 0.584262
O O6 0.896698 0.591262 0.286284
O O7 0.228673 0.737826 0.059803
O O8 0.188011 0.578094 0.200518
O O9 0.643637 0.272941 0.666921
O O10 0.445862 0.446807 0.841251
O O11 0.745982 0.411479 0.399206
O O12 0.990087 0.410378 0.367680
O O13 0.500000 0.771720 0.000000
O O14 0.000000 0.208192 0.500000
O O15 0.500000 0.201516 0.000000
O O16 0.500000 0.437030 0.000000
O O17 0.500000 0.544176 0.500000
O O18 0.000000 0.501324 0.000000
#
# Coordination Sequence:
#
# PCOD9112655 Si02
#       7
#     2   2   2   2   2   2   2
#     4   9  18  31  48  73 108 147 172 194 234 289
#     4  11  22  34  52  75  99 138 176 206 255 305
#     4  11  21  34  53  75  99 137 175 205 255 306
#     4  11  20  33  51  78 112 140 167 200 241 305
#     4  10  19  32  51  77 110 140 168 200 240 301
#     4  11  21  32  46  74 110 136 160 200 247 310
#     4  11  23  40  54  70  99 132 176 229 263 300
#
# _framework density 17.715962999999999
#
# number of rings (size 3 to 8) (size 9 to 14) (size 15 to 20)
#    0.000    1.429    0.000    9.429    0.000    2.286 
#    0.000    2.857    0.000    0.000    0.000    4.000 
#    0.000    2.286    0.000    0.000    0.000    0.000 
#
# Total GULP energy -78116.787566 kJ/mol
# GULP energy per Si atom -5579.770540 kJ/mol
# Density = 1.767564 g / cm^3
# Si number density = 17.715963 Si / 1000 Ang^3
#
#
#
# Elastic Constant Matrix: (Units=GPa)
#
#
# Indices 1 2 3 4 5 6 
#
# 1 51.0559 36.1853 23.1223 0.0000 -1.4003 0.0000
# 2 36.1853 119.5489 35.5019 0.0000 8.7570 0.0000
# 3 23.1223 35.5019 136.1330 0.0000 -0.5318 0.0000
# 4 0.0000 0.0000 0.0000 33.1316 0.0000 -4.0836
# 5 -1.4003 8.7570 -0.5318 0.0000 33.1316 0.0000
# 6 0.0000 0.0000 0.0000 -4.0836 0.0000 10.3935
#
#
#
# Elastic Compliance Matrix: (Units=1/GPa)
#
#
# Indices 1 2 3 4 5 6 
#
# 1 0.026007 -0.007353 -0.002488 0.000000 0.003003 0.000000
# 2 -0.007353 0.011347 -0.001723 0.000000 -0.003337 0.000000
# 3 -0.002488 -0.001723 0.008220 0.000000 0.000482 0.000000
# 4 0.000000 0.000000 0.000000 0.031719 0.000000 0.012462
# 5 0.003003 -0.003337 0.000482 0.000000 0.031199 0.000000
# 6 0.000000 0.000000 0.000000 0.012462 0.000000 0.101110
#
#
# Mechanical properties :
#
#
# Convention : Reuss Voigt Hill
#
# Bulk Modulus (GPa) = 44.55374 55.15075 49.85225
# Shear Modulus (GPa) = 20.81502 29.45989 25.13745
#
# Velocity S-wave (km/s) = 3.43144 4.08229 3.77094
# Velocity P-wave (km/s) = 6.39557 7.30878 6.86737
#
# Compressibility (1/GPa) = 0.02244480
#
# Stress axis : x y z
#
# Youngs Moduli (GPa) = 38.45160 88.13248 121.66012
#
# Poissons Ratio (x) = 0.64803 0.30269
# Poissons Ratio (y) = 0.28273 0.20965
# Poissons Ratio (z) = 0.09567 0.15187
#
# Static dielectric constant tensor:
#      x y z
#    x 1.607460 0.000000 0.007730 
#    y 0.000000 1.676140 0.000000 
#    z 0.007730 0.000000 1.610880 
# 
# From -- ./inp_files/11910.got.cif
#   From: 2010.05.17/outbox.cif.g08.bks.cpg/sg3_6_cif.got.tgz:11910.got - 2010.06.03 18:33:08.
