data_PCOD9112780
_publ_section_title
;
Structure prediction by ZEFSAII (Michael W. Deem and Ramdas Pophale) SiO2 
 PCOD9112780
Probable space group: P 2
;
_chemical_formula_sum "Si O2"
_cell_formula_units_Z 15
_cell_length_a 9.056111
_cell_length_b 11.351391
_cell_length_c 12.617773
_cell_angle_alpha 90.000000
_cell_angle_beta 37.042800
_cell_angle_gamma 90.000000
_cell_volume 781.388002
_symmetry_space_group_name_H-M "P 2"
_symmetry_group_IT_number 3
_symmetry_cell_setting 'monoclinic'
loop_
_space_group_symop_operation_xyz
x,y,z
-x,y,-z
loop_
_atom_site_type_symbol
_atom_site_label
_atom_site_fract_x
_atom_site_fract_y
_atom_site_fract_z
Si Si1 0.410625 0.675700 0.930359
Si Si2 0.254316 0.218614 0.399793
Si Si3 0.775401 0.286846 0.343850
Si Si4 0.288899 0.812617 0.806440
Si Si5 0.245397 0.462513 0.295484
Si Si6 0.730182 0.083587 0.206152
Si Si7 0.500000 0.645873 0.500000
Si Si8 0.007433 0.513704 0.776741
O O1 0.421127 0.782951 0.842594
O O2 0.564547 0.566496 0.795993
O O3 0.500000 0.701960 0.000000
O O4 0.138446 0.620365 0.087328
O O5 0.172848 0.266228 0.562309
O O6 0.322241 0.332870 0.289763
O O7 0.497613 0.140454 0.276864
O O8 0.000000 0.164481 0.500000
O O9 0.500000 0.333516 0.500000
O O10 0.764450 0.163189 0.290664
O O11 0.937597 0.389232 0.197876
O O12 0.394172 0.724963 0.656850
O O13 0.327474 0.946336 0.745997
O O14 0.000000 0.800692 0.000000
O O15 0.000000 0.489502 0.500000
O O16 0.170030 0.473304 0.216529
O O17 0.000000 0.090199 0.000000
O O18 0.269693 0.567081 0.593029
#
# Coordination Sequence:
#
# PCOD9112780 Si02
#       8
#     2   2   2   2   2   2   1   2
#     4  10  23  40  64  92 135 165 215 271 330 387
#     4  10  20  39  63  91 129 163 213 262 318 395
#     4  10  20  36  60  89 127 159 205 261 323 390
#     4  11  24  46  65  92 129 174 232 274 309 386
#     4  10  19  36  61  89 131 164 199 265 331 392
#     4  10  25  43  62  89 125 172 217 273 324 371
#     4  12  24  38  70  98 126 180 218 262 338 390
#     4  11  20  36  59 100 128 165 203 264 336 392
#
# _framework density 19.19661
#
# number of rings (size 3 to 8) (size 9 to 14) (size 15 to 20)
#    0.000    1.600    4.667    0.800    4.667    0.000 
#    0.000    6.667    0.000    0.000    0.000    0.000 
#    0.000    0.000    0.000    0.000    0.000    0.000 
#
# Total GULP energy -83527.369159 kJ/mol
# GULP energy per Si atom -5568.491277 kJ/mol
# Density = 1.915292 g / cm^3
# Si number density = 19.196610 Si / 1000 Ang^3
#
#
#
# Elastic Constant Matrix: (Units=GPa)
#
#
# Indices 1 2 3 4 5 6 
#
# 1 85.4533 45.1003 10.7640 0.0000 -3.3415 0.0000
# 2 45.1003 117.5102 22.7545 0.0000 6.7264 0.0000
# 3 10.7640 22.7545 39.8323 0.0000 -9.4737 0.0000
# 4 0.0000 0.0000 0.0000 30.4004 0.0000 1.0214
# 5 -3.3415 6.7264 -9.4737 0.0000 33.7061 0.0000
# 6 0.0000 0.0000 0.0000 1.0214 0.0000 25.3889
#
#
#
# Elastic Compliance Matrix: (Units=1/GPa)
#
#
# Indices 1 2 3 4 5 6 
#
# 1 0.014905 -0.005861 -0.000054 0.000000 0.002632 0.000000
# 2 -0.005861 0.012322 -0.006621 0.000000 -0.004901 0.000000
# 3 -0.000054 -0.006621 0.031308 0.000000 0.010116 0.000000
# 4 0.000000 0.000000 0.000000 0.032939 0.000000 -0.001325
# 5 0.002632 -0.004901 0.010116 0.000000 0.033750 0.000000
# 6 0.000000 0.000000 0.000000 -0.001325 0.000000 0.039441
#
#
# Mechanical properties :
#
#
# Convention : Reuss Voigt Hill
#
# Bulk Modulus (GPa) = 29.88280 44.44816 37.16548
# Shear Modulus (GPa) = 24.88921 28.84423 26.86672
#
# Velocity S-wave (km/s) = 3.60466 3.88050 3.74512
# Velocity P-wave (km/s) = 5.73805 6.57892 6.17282
#
# Compressibility (1/GPa) = 0.03346407
#
# Stress axis : x y z
#
# Youngs Moduli (GPa) = 67.09056 81.15644 31.94085
#
# Poissons Ratio (x) = 0.47565 0.00172
# Poissons Ratio (y) = 0.39321 0.21147
# Poissons Ratio (z) = 0.00361 0.53732
#
# Static dielectric constant tensor:
#      x y z
#    x 1.661570 0.000000 -0.033370 
#    y 0.000000 1.668990 0.000000 
#    z -0.033370 0.000000 1.691510 
# 
# From -- ./inp_files/7754.got.cif
#   From: 2010.05.17/outbox.cif.g08.bks.cpg/sg3_4_cif.got.tgz:7754.got - 2010.06.03 18:33:08.
