data_PCOD9112370
_publ_section_title
;
Structure prediction by ZEFSAII (Michael W. Deem and Ramdas Pophale) SiO2 
 PCOD9112370
Probable space group: P -1
;
_chemical_formula_sum "Si O2"
_cell_formula_units_Z 14
_cell_length_a 6.958403
_cell_length_b 4.874676
_cell_length_c 17.699840
_cell_angle_alpha 83.287745
_cell_angle_beta 109.387348
_cell_angle_gamma 66.428511
_cell_volume 496.973555
_symmetry_space_group_name_H-M "P -1"
_symmetry_group_IT_number 2
_symmetry_cell_setting 'triclinic'
loop_
_space_group_symop_operation_xyz
x,y,z
-x,-y,-z
loop_
_atom_site_type_symbol
_atom_site_label
_atom_site_fract_x
_atom_site_fract_y
_atom_site_fract_z
Si Si1 0.338916 0.630302 0.284311
Si Si2 0.060588 0.762356 0.714776
Si Si3 0.695591 0.941796 0.175733
Si Si4 0.806464 0.560492 0.882589
Si Si5 0.778744 0.284768 0.038928
Si Si6 0.391070 0.890884 0.554154
Si Si7 0.196845 0.497198 0.592120
O O1 0.259562 0.545827 0.199879
O O2 0.397961 0.341407 0.357666
O O3 0.580543 0.638089 0.317844
O O4 0.159276 0.959405 0.284120
O O5 0.167532 0.425553 0.779333
O O6 0.015145 0.719090 0.622254
O O7 0.242658 0.892196 0.752031
O O8 0.417165 0.111965 0.131946
O O9 0.788960 0.022844 0.107516
O O10 0.967038 0.390726 0.088980
O O11 0.823292 0.303404 0.954787
O O12 0.500000 0.500000 0.000000
O O13 0.267889 0.676265 0.532438
O O14 0.500000 0.000000 0.500000
O O15 0.204686 0.197997 0.564131
#
# Coordination Sequence:
#
# PCOD9112370 Si02
#       7
#     2   2   2   2   2   2   2
#     4  10  25  41  78 110 148 207 260 320 388 466
#     4  12  25  44  72 112 154 199 265 319 386 468
#     4  11  25  45  74 108 154 205 262 330 387 461
#     4  10  20  51  79 112 156 207 267 329 397 464
#     4   9  22  45  84 113 153 207 267 329 398 462
#     4  10  22  45  77 110 154 202 255 317 390 467
#     4  10  22  44  70 107 155 200 249 317 389 456
#
# _framework density 28.170514000000001
#
# number of rings (size 3 to 8) (size 9 to 14) (size 15 to 20)
#    0.857    0.857    1.429    2.143    4.000    1.143 
#    0.000    9.286    0.000    0.000    0.000    0.000 
#    0.000    0.000    0.000    0.000    0.000    0.000 
#
# Total GULP energy -78396.769944 kJ/mol
# GULP energy per Si atom -5599.769282 kJ/mol
# Density = 2.810640 g / cm^3
# Si number density = 28.170514 Si / 1000 Ang^3
#
#
#
# Elastic Constant Matrix: (Units=GPa)
#
#
# Indices 1 2 3 4 5 6 
#
# 1 192.5626 57.8229 56.3007 2.5701 -2.4845 -3.1455
# 2 57.8229 202.4350 70.5852 -13.8022 -17.8934 13.7722
# 3 56.3007 70.5852 176.9213 -5.6129 -28.6847 8.5227
# 4 2.5701 -13.8022 -5.6129 46.6622 10.3923 2.2126
# 5 -2.4845 -17.8934 -28.6847 10.3923 49.6512 1.2593
# 6 -3.1455 13.7722 8.5227 2.2126 1.2593 41.4995
#
#
#
# Elastic Compliance Matrix: (Units=1/GPa)
#
#
# Indices 1 2 3 4 5 6 
#
# 1 0.006115 -0.001410 -0.001638 -0.000788 -0.001018 0.001341
# 2 -0.001410 0.006280 -0.001769 0.001618 0.000881 -0.001941
# 3 -0.001638 -0.001769 0.007530 -0.000301 0.003724 -0.001181
# 4 -0.000788 0.001618 -0.000301 0.022973 -0.004397 -0.001626
# 5 -0.001018 0.000881 0.003724 -0.004397 0.023520 -0.001614
# 6 0.001341 -0.001941 -0.001181 -0.001626 -0.001614 0.025220
#
#
# Mechanical properties :
#
#
# Convention : Reuss Voigt Hill
#
# Bulk Modulus (GPa) = 97.17565 104.59295 100.88430
# Shear Modulus (GPa) = 47.75457 53.37660 50.56558
#
# Velocity S-wave (km/s) = 4.12174 4.35762 4.24132
# Velocity P-wave (km/s) = 7.56453 7.90744 7.73788
#
# Compressibility (1/GPa) = 0.01029064
#
# Stress axis : x y z
#
# Youngs Moduli (GPa) = 163.53858 159.24213 132.79882
#
# Poissons Ratio (x) = 0.22460 0.21749
# Poissons Ratio (y) = 0.23066 0.23490
# Poissons Ratio (z) = 0.26783 0.28168
#
# Static dielectric constant tensor:
#      x y z
#    x 2.241800 -0.095860 -0.005490 
#    y -0.095860 2.206520 0.011450 
#    z -0.005490 0.011450 2.244420 
# 
# From -- ./inp_files/564161.got.cif
#   From: 2010.05.17/outbox.cif.g08.bks.cpg/sg2_283_cif.got.tgz:564161.got - 2010.06.03 11:33:40.
