data_PCOD9112854
_publ_section_title
;
Structure prediction by ZEFSAII (Michael W. Deem and Ramdas Pophale) SiO2 
 PCOD9112854
Probable space group: P 2
;
_chemical_formula_sum "Si O2"
_cell_formula_units_Z 11
_cell_length_a 19.811859
_cell_length_b 5.024279
_cell_length_c 13.258964
_cell_angle_alpha 90.000000
_cell_angle_beta 160.456937
_cell_angle_gamma 90.000000
_cell_volume 441.493673
_symmetry_space_group_name_H-M "P 2"
_symmetry_group_IT_number 3
_symmetry_cell_setting 'monoclinic'
loop_
_space_group_symop_operation_xyz
x,y,z
-x,y,-z
loop_
_atom_site_type_symbol
_atom_site_label
_atom_site_fract_x
_atom_site_fract_y
_atom_site_fract_z
Si Si1 0.500000 0.771500 0.500000
Si Si2 0.440846 0.414056 0.775684
Si Si3 0.518445 0.048894 0.725637
Si Si4 0.847749 0.736272 0.862796
Si Si5 0.180436 0.918681 0.472651
Si Si6 0.806561 0.743609 0.289452
O O1 0.684137 0.607651 0.709069
O O2 0.586300 0.964547 0.709615
O O3 0.480391 0.346029 0.712765
O O4 0.292248 0.649215 0.595535
O O5 0.338970 0.152753 0.676875
O O6 0.660884 0.506000 0.120362
O O7 0.296400 0.917310 0.409414
O O8 0.669845 0.918638 0.020275
O O9 0.000000 0.588644 0.000000
O O10 0.982113 0.923227 0.124603
O O11 0.132875 0.898622 0.524267
O O12 0.000000 0.649865 0.500000
#
# Coordination Sequence:
#
# PCOD9112854 Si02
#       6
#     1   2   2   2   2   2
#     4   8  20  42  78 106 156 190 258 320 390 454
#     4  12  26  50  77 117 152 208 261 326 384 491
#     4  10  23  48  75 109 161 192 269 322 392 471
#     4  10  19  46  73 115 143 210 248 327 384 469
#     4  12  27  49  81 110 157 206 270 319 406 465
#     4  12  28  48  79 117 159 211 260 335 397 475
#
# _framework density 24.915420000000001
#
# number of rings (size 3 to 8) (size 9 to 14) (size 15 to 20)
#    1.091    0.000    3.636    1.636    5.091    0.727 
#   13.091    0.909    0.000    0.000    0.000    0.000 
#    0.000    0.000    0.000    0.000    0.000    0.000 
#
# Total GULP energy -61401.851534 kJ/mol
# GULP energy per Si atom -5581.986503 kJ/mol
# Density = 2.485871 g / cm^3
# Si number density = 24.915420 Si / 1000 Ang^3
#
#
#
# Elastic Constant Matrix: (Units=GPa)
#
#
# Indices 1 2 3 4 5 6 
#
# 1 161.6603 9.6240 45.1776 0.0000 -7.4466 0.0000
# 2 9.6240 77.2602 -0.3980 0.0000 -7.6396 0.0000
# 3 45.1776 -0.3980 112.1716 0.0000 -1.3783 0.0000
# 4 0.0000 0.0000 0.0000 7.9673 0.0000 -4.5183
# 5 -7.4466 -7.6396 -1.3783 0.0000 69.2032 0.0000
# 6 0.0000 0.0000 0.0000 -4.5183 0.0000 32.9348
#
#
#
# Elastic Compliance Matrix: (Units=1/GPa)
#
#
# Indices 1 2 3 4 5 6 
#
# 1 0.007057 -0.000833 -0.002837 0.000000 0.000611 0.000000
# 2 -0.000833 0.013185 0.000399 0.000000 0.001374 0.000000
# 3 -0.002837 0.000399 0.010058 0.000000 -0.000061 0.000000
# 4 0.000000 0.000000 0.000000 0.136103 0.000000 0.018672
# 5 0.000611 0.001374 -0.000061 0.000000 0.014666 0.000000
# 6 0.000000 0.000000 0.000000 0.018672 0.000000 0.032925
#
#
# Mechanical properties :
#
#
# Convention : Reuss Voigt Hill
#
# Bulk Modulus (GPa) = 42.09295 51.09990 46.59642
# Shear Modulus (GPa) = 21.88610 41.80029 31.84320
#
# Velocity S-wave (km/s) = 2.96702 4.10040 3.57886
# Velocity P-wave (km/s) = 5.35431 6.55527 5.98499
#
# Compressibility (1/GPa) = 0.02375695
#
# Stress axis : x y z
#
# Youngs Moduli (GPa) = 141.71302 75.84397 99.41949
#
# Poissons Ratio (x) = 0.06319 0.28210
# Poissons Ratio (y) = 0.11808 -0.03969
# Poissons Ratio (z) = 0.40211 -0.03028
#
# Static dielectric constant tensor:
#      x y z
#    x 2.069980 0.000000 -0.007770 
#    y 0.000000 1.942660 0.000000 
#    z -0.007770 0.000000 1.983150 
# 
# From -- ./inp_files/14214.got.cif
#   From: 2010.05.17/outbox.cif.g08.bks.cpg/sg3_8_cif.got.tgz:14214.got - 2010.06.03 18:33:08.
