data_PCOD9112589
_publ_section_title
;
Structure prediction by ZEFSAII (Michael W. Deem and Ramdas Pophale) SiO2 
 PCOD9112589
Probable space group: P 2
;
_chemical_formula_sum "Si O2"
_cell_formula_units_Z 14
_cell_length_a 11.510518
_cell_length_b 9.714017
_cell_length_c 10.785388
_cell_angle_alpha 90.000000
_cell_angle_beta 141.746274
_cell_angle_gamma 90.000000
_cell_volume 746.658276
_symmetry_space_group_name_H-M "P 2"
_symmetry_group_IT_number 3
_symmetry_cell_setting 'monoclinic'
loop_
_space_group_symop_operation_xyz
x,y,z
-x,y,-z
loop_
_atom_site_type_symbol
_atom_site_label
_atom_site_fract_x
_atom_site_fract_y
_atom_site_fract_z
Si Si1 0.044540 0.291180 0.893441
Si Si2 0.651262 0.349965 0.462223
Si Si3 0.808221 0.000708 0.896888
Si Si4 0.706016 0.564331 0.327179
Si Si5 0.119783 0.549991 0.795225
Si Si6 0.625696 0.741742 0.843330
Si Si7 0.500000 0.134157 0.500000
Si Si8 0.500000 0.584989 0.500000
O O1 0.144464 0.413502 0.901033
O O2 0.851034 0.281887 0.654463
O O3 0.000000 0.332109 0.000000
O O4 0.133882 0.140180 0.982106
O O5 0.620512 0.420008 0.304906
O O6 0.506966 0.236606 0.388471
O O7 0.636593 0.480783 0.542433
O O8 0.678411 0.900426 0.869054
O O9 0.681943 0.044065 0.673371
O O10 0.000000 0.938930 0.000000
O O11 0.756790 0.551031 0.226343
O O12 0.561619 0.687146 0.241401
O O13 0.904985 0.571429 0.568911
O O14 0.196846 0.673685 0.941582
O O15 0.601231 0.677208 0.686256
#
# Coordination Sequence:
#
# PCOD9112589 Si02
#       8
#     2   2   2   2   2   2   1   1
#     4  10  18  35  56  91 119 146 196 256 306 367
#     4   9  17  32  60  83 115 146 195 254 307 348
#     4  11  24  36  54  88 128 162 200 236 317 377
#     4   9  21  39  60  92 113 159 212 256 304 362
#     4  10  21  38  67  84 122 154 210 266 307 352
#     4  11  22  37  58  85 127 162 204 249 303 371
#     4  11  19  36  56  80 128 160 184 262 306 362
#     4   9  19  32  56  94 112 154 206 246 312 362
#
# _framework density 18.750212000000001
#
# number of rings (size 3 to 8) (size 9 to 14) (size 15 to 20)
#    0.000    2.000    2.857    1.714    4.000    5.143 
#    0.000    0.000    6.286    1.714    0.000    0.000 
#    0.000    0.000    0.000    0.000    0.000    0.000 
#
# Total GULP energy -77968.631589 kJ/mol
# GULP energy per Si atom -5569.187971 kJ/mol
# Density = 1.870754 g / cm^3
# Si number density = 18.750212 Si / 1000 Ang^3
#
#
#
# Elastic Constant Matrix: (Units=GPa)
#
#
# Indices 1 2 3 4 5 6 
#
# 1 93.6610 48.3153 23.0399 0.0000 -3.5130 0.0000
# 2 48.3153 96.4334 35.9980 0.0000 -0.7947 0.0000
# 3 23.0399 35.9980 67.0768 0.0000 -0.7889 0.0000
# 4 0.0000 0.0000 0.0000 17.6330 0.0000 14.1675
# 5 -3.5130 -0.7947 -0.7889 0.0000 30.8865 0.0000
# 6 0.0000 0.0000 0.0000 14.1675 0.0000 21.5824
#
#
#
# Elastic Compliance Matrix: (Units=1/GPa)
#
#
# Indices 1 2 3 4 5 6 
#
# 1 0.014560 -0.006781 -0.001345 0.000000 0.001447 0.000000
# 2 -0.006781 0.016126 -0.006332 0.000000 -0.000518 0.000000
# 3 -0.001345 -0.006332 0.018770 0.000000 0.000164 0.000000
# 4 0.000000 0.000000 0.000000 0.120006 0.000000 -0.078776
# 5 0.001447 -0.000518 0.000164 0.000000 0.032532 0.000000
# 6 0.000000 0.000000 0.000000 -0.078776 0.000000 0.098045
#
#
# Mechanical properties :
#
#
# Convention : Reuss Voigt Hill
#
# Bulk Modulus (GPa) = 48.68148 52.43083 50.55616
# Shear Modulus (GPa) = 14.88976 24.00826 19.44901
#
# Velocity S-wave (km/s) = 2.82106 3.58219 3.22416
# Velocity P-wave (km/s) = 6.05233 6.71810 6.39389
#
# Compressibility (1/GPa) = 0.02054169
#
# Stress axis : x y z
#
# Youngs Moduli (GPa) = 68.68200 62.00995 53.27613
#
# Poissons Ratio (x) = 0.42048 0.07166
# Poissons Ratio (y) = 0.46572 0.33732
# Poissons Ratio (z) = 0.09238 0.39262
#
# Static dielectric constant tensor:
#      x y z
#    x 1.711550 0.000000 0.041720 
#    y 0.000000 1.649610 0.000000 
#    z 0.041720 0.000000 1.672090 
# 
# From -- ./inp_files/7093.got.cif
#   From: 2010.05.17/outbox.cif.g08.bks.cpg/sg3_4_cif.got.tgz:7093.got - 2010.06.03 18:33:08.
