data_PCOD9112371
_publ_section_title
;
Structure prediction by ZEFSAII (Michael W. Deem and Ramdas Pophale) SiO2 
 PCOD9112371
Probable space group: P -1
;
_chemical_formula_sum "Si O2"
_cell_formula_units_Z 11
_cell_length_a 5.273067
_cell_length_b 9.914518
_cell_length_c 9.789301
_cell_angle_alpha 62.773977
_cell_angle_beta 85.312514
_cell_angle_gamma 85.513230
_cell_volume 453.078623
_symmetry_space_group_name_H-M "P -1"
_symmetry_group_IT_number 2
_symmetry_cell_setting 'triclinic'
loop_
_space_group_symop_operation_xyz
x,y,z
-x,-y,-z
loop_
_atom_site_type_symbol
_atom_site_label
_atom_site_fract_x
_atom_site_fract_y
_atom_site_fract_z
Si Si1 0.233148 0.506562 0.092722
Si Si2 0.553775 0.252538 0.841078
Si Si3 0.172166 0.051488 0.092430
Si Si4 0.500000 0.500000 0.500000
Si Si5 0.419051 0.256188 0.406392
Si Si6 0.820988 0.025432 0.366802
O O1 0.243024 0.658235 0.117091
O O2 0.244209 0.366278 0.265600
O O3 0.500000 0.500000 0.000000
O O4 0.000000 0.500000 0.000000
O O5 0.453634 0.373810 0.679782
O O6 0.654411 0.102466 0.825067
O O7 0.344816 0.188319 0.981605
O O8 0.989462 0.082323 0.211786
O O9 0.000000 0.000000 0.000000
O O10 0.570718 0.364995 0.446817
O O11 0.593446 0.145856 0.355032
O O12 0.276371 0.143523 0.565617
O O13 0.000000 0.000000 0.500000
#
# Coordination Sequence:
#
# PCOD9112371 Si02
#       6
#     2   2   2   1   2   2
#     4  11  28  47  75 108 155 203 257 319 386 463
#     4  10  25  46  75 107 150 198 257 318 389 460
#     4  11  25  44  76 109 149 200 254 320 383 461
#     4  10  20  52  68 104 148 196 244 322 392 456
#     4  10  25  46  75 107 150 198 257 318 389 460
#     4  11  25  44  76 109 149 200 254 320 383 461
#
# _framework density 24.278345000000002
#
# number of rings (size 3 to 8) (size 9 to 14) (size 15 to 20)
#    0.000    1.455    0.000    2.182   10.182    2.909 
#    0.000    6.364    0.000    0.000    0.000    0.000 
#    0.000    0.000    0.000    0.000    0.000    0.000 
#
# Total GULP energy -61327.217659 kJ/mol
# GULP energy per Si atom -5575.201605 kJ/mol
# Density = 2.422309 g / cm^3
# Si number density = 24.278345 Si / 1000 Ang^3
#
#
#
# Elastic Constant Matrix: (Units=GPa)
#
#
# Indices 1 2 3 4 5 6 
#
# 1 91.3658 35.8603 40.4995 -15.6537 2.8559 14.0971
# 2 35.8603 121.7211 71.1497 -37.5981 -2.6948 24.2485
# 3 40.4995 71.1497 136.3148 -30.8337 -4.4147 8.2145
# 4 -15.6537 -37.5981 -30.8337 52.5386 5.2262 2.4056
# 5 2.8559 -2.6948 -4.4147 5.2262 31.8981 5.5978
# 6 14.0971 24.2485 8.2145 2.4056 5.5978 23.9263
#
#
#
# Elastic Compliance Matrix: (Units=1/GPa)
#
#
# Indices 1 2 3 4 5 6 
#
# 1 0.013935 -0.000047 -0.003097 0.002715 -0.000867 -0.007169
# 2 -0.000047 0.018854 -0.006283 0.010412 0.002268 -0.018501
# 3 -0.003097 -0.006283 0.011568 0.001141 0.000459 0.004000
# 4 0.002715 0.010412 0.001141 0.028782 -0.001264 -0.015142
# 5 -0.000867 0.002268 0.000459 -0.001264 0.033588 -0.009676
# 6 -0.007169 -0.018501 0.004000 -0.015142 -0.009676 0.067182
#
#
# Mechanical properties :
#
#
# Convention : Reuss Voigt Hill
#
# Bulk Modulus (GPa) = 39.21479 71.60231 55.40855
# Shear Modulus (GPa) = 24.84284 35.13210 29.98747
#
# Velocity S-wave (km/s) = 3.20230 3.80814 3.51829
# Velocity P-wave (km/s) = 5.46445 6.99230 6.27505
#
# Compressibility (1/GPa) = 0.02550058
#
# Stress axis : x y z
#
# Youngs Moduli (GPa) = 71.76232 53.03810 86.44772
#
# Poissons Ratio (x) = 0.00251 0.26776
# Poissons Ratio (y) = 0.00340 0.54319
# Poissons Ratio (z) = 0.22228 0.33326
#
# Static dielectric constant tensor:
#      x y z
#    x 2.244820 0.015050 0.006910 
#    y 0.015050 1.948490 0.000710 
#    z 0.006910 0.000710 1.883970 
# 
# From -- ./inp_files/129272.got.cif
#   From: 2010.05.17/outbox.cif.g08.bks.cpg/sg2_65_cif.got.tgz:129272.got - 2010.06.03 11:33:40.
