data_PCOD9112732
_publ_section_title
;
Structure prediction by ZEFSAII (Michael W. Deem and Ramdas Pophale) SiO2 
 PCOD9112732
Probable space group: P 2
;
_chemical_formula_sum "Si O2"
_cell_formula_units_Z 13
_cell_length_a 10.044455
_cell_length_b 9.795722
_cell_length_c 7.312878
_cell_angle_alpha 90.000000
_cell_angle_beta 52.208567
_cell_angle_gamma 90.000000
_cell_volume 568.609117
_symmetry_space_group_name_H-M "P 2"
_symmetry_group_IT_number 3
_symmetry_cell_setting 'monoclinic'
loop_
_space_group_symop_operation_xyz
x,y,z
-x,y,-z
loop_
_atom_site_type_symbol
_atom_site_label
_atom_site_fract_x
_atom_site_fract_y
_atom_site_fract_z
Si Si1 0.268618 0.583340 0.498793
Si Si2 0.500000 0.205344 0.500000
Si Si3 0.072607 0.034165 0.631789
Si Si4 0.385956 0.676389 0.809943
Si Si5 0.961403 0.749885 0.818280
Si Si6 0.854714 0.321842 0.255693
Si Si7 0.541728 0.968966 0.749995
O O1 0.324915 0.619501 0.663523
O O2 0.450681 0.597244 0.253708
O O3 0.181963 0.436061 0.561941
O O4 0.120386 0.688958 0.577920
O O5 0.666319 0.296206 0.341215
O O6 0.491998 0.104295 0.680684
O O7 0.086672 0.171503 0.734801
O O8 0.000000 0.077473 0.500000
O O9 0.257489 0.968465 0.452339
O O10 0.954456 0.912938 0.802255
O O11 0.451286 0.833921 0.746915
O O12 0.217201 0.681063 0.072050
O O13 0.000000 0.726802 0.000000
O O14 0.000000 0.376719 0.000000
O O15 0.500000 0.976714 0.000000
#
# Coordination Sequence:
#
# PCOD9112732 Si02
#       7
#     2   1   2   2   2   2   2
#     4  10  20  38  61  95 127 169 220 272 324 403
#     4  10  24  40  62 100 132 180 226 274 332 414
#     4  11  24  41  61  97 135 173 220 282 333 405
#     4  10  19  34  65  88 128 163 210 274 329 378
#     4  10  20  35  64  97 123 161 214 270 333 394
#     4  11  24  40  66  94 131 181 229 267 340 405
#     4  11  23  39  66 102 137 169 221 285 345 393
#
# _framework density 22.862805999999999
#
# number of rings (size 3 to 8) (size 9 to 14) (size 15 to 20)
#    0.000    1.538    1.538    4.615   10.769    0.000 
#    0.000    0.769    3.385    1.846    0.000    0.000 
#    0.000    0.000    0.000    0.000    0.000    0.000 
#
# Total GULP energy -72586.889147 kJ/mol
# GULP energy per Si atom -5583.606857 kJ/mol
# Density = 2.281077 g / cm^3
# Si number density = 22.862806 Si / 1000 Ang^3
#
#
#
# Elastic Constant Matrix: (Units=GPa)
#
#
# Indices 1 2 3 4 5 6 
#
# 1 57.9638 12.3762 31.5213 0.0000 -13.9418 0.0000
# 2 12.3762 102.4152 34.7566 0.0000 -17.4345 0.0000
# 3 31.5213 34.7566 93.2435 0.0000 -12.6080 0.0000
# 4 0.0000 0.0000 0.0000 21.5087 0.0000 -21.3729
# 5 -13.9418 -17.4345 -12.6080 0.0000 38.7000 0.0000
# 6 0.0000 0.0000 0.0000 -21.3729 0.0000 -2.2319
#
#
#
# Elastic Compliance Matrix: (Units=1/GPa)
#
#
# Indices 1 2 3 4 5 6 
#
# 1 0.022377 0.000712 -0.007005 0.000000 0.006100 0.000000
# 2 0.000712 0.011777 -0.004057 0.000000 0.004240 0.000000
# 3 -0.007005 -0.004057 0.014662 0.000000 0.000426 0.000000
# 4 0.000000 0.000000 0.000000 0.004421 0.000000 -0.042339
# 5 0.006100 0.004240 0.000426 0.000000 0.030086 0.000000
# 6 0.000000 0.000000 0.000000 -0.042339 0.000000 -0.042608
#
#
# Mechanical properties :
#
#
# Convention : Reuss Voigt Hill
#
# Bulk Modulus (GPa) = 35.56804 45.65898 40.61351
# Shear Modulus (GPa) = 70.63322 23.25993 46.94657
#
# Velocity S-wave (km/s) = 5.56430 3.19308 4.53637
# Velocity P-wave (km/s) = 7.54141 5.79729 6.72612
#
# Compressibility (1/GPa) = 0.02811513
#
# Stress axis : x y z
#
# Youngs Moduli (GPa) = 44.68928 84.91247 68.20127
#
# Poissons Ratio (x) = -0.06042 0.47775
# Poissons Ratio (y) = -0.03180 0.27670
# Poissons Ratio (z) = 0.31305 0.34449
#
# Static dielectric constant tensor:
#      x y z
#    x 1.843950 0.000000 0.018390 
#    y 0.000000 1.845400 0.000000 
#    z 0.018390 0.000000 1.861050 
# 
# From -- ./inp_files/7308.got.cif
#   From: 2010.05.17/outbox.cif.g08.bks.cpg/sg3_4_cif.got.tgz:7308.got - 2010.06.03 18:33:08.
