data_PCOD9112079
_publ_section_title
;
Structure prediction by ZEFSAII (Michael W. Deem and Ramdas Pophale) SiO2 
 PCOD9112079
Probable space group: P -1
;
_chemical_formula_sum "Si O2"
_cell_formula_units_Z 14
_cell_length_a 9.500974
_cell_length_b 24.760449
_cell_length_c 12.180823
_cell_angle_alpha 28.154633
_cell_angle_beta 35.361320
_cell_angle_gamma 28.609580
_cell_volume 636.428765
_symmetry_space_group_name_H-M "P -1"
_symmetry_group_IT_number 2
_symmetry_cell_setting 'triclinic'
loop_
_space_group_symop_operation_xyz
x,y,z
-x,-y,-z
loop_
_atom_site_type_symbol
_atom_site_label
_atom_site_fract_x
_atom_site_fract_y
_atom_site_fract_z
Si Si1 0.307023 0.939486 0.636463
Si Si2 0.131895 0.324513 0.905967
Si Si3 0.546741 0.725060 0.682346
Si Si4 0.732554 0.243234 0.426047
Si Si5 0.329309 0.546081 0.222759
Si Si6 0.807245 0.437253 0.478401
Si Si7 0.664200 0.070999 0.122879
O O1 0.324253 0.850713 0.681121
O O2 0.384207 0.862348 0.843399
O O3 0.547023 0.974012 0.393506
O O4 0.978791 0.087001 0.593408
O O5 0.150404 0.439721 0.747749
O O6 0.960793 0.387109 0.788738
O O7 0.457827 0.180484 0.963199
O O8 0.932745 0.287538 0.164003
O O9 0.455192 0.758940 0.551884
O O10 0.881314 0.682036 0.562291
O O11 0.520161 0.598311 0.957551
O O12 0.517504 0.375994 0.404122
O O13 0.229690 0.604922 0.302043
O O14 0.500000 0.500000 0.500000
O O15 0.000000 0.000000 0.000000
#
# Coordination Sequence:
#
# PCOD9112079 Si02
#       7
#     2   2   2   2   2   2   2
#     4  10  24  40  64  96 128 170 213 265 323 378
#     4  10  21  43  65  93 124 169 222 259 312 386
#     4  11  23  43  63  97 133 163 218 270 319 379
#     4  10  20  44  69  92 125 175 218 263 317 386
#     4  11  23  43  71  92 126 174 218 265 322 377
#     4  12  27  37  64 101 131 165 213 272 323 378
#     4  10  24  41  64  90 133 175 212 255 324 393
#
# _framework density 21.997748999999999
#
# number of rings (size 3 to 8) (size 9 to 14) (size 15 to 20)
#    0.000    1.429    2.857    1.714    6.000    2.857 
#    0.000    0.000    0.000    6.857    0.000    0.000 
#    0.000    0.000    0.000    0.000    0.000    0.000 
#
# Total GULP energy -78201.605373 kJ/mol
# GULP energy per Si atom -5585.828955 kJ/mol
# Density = 2.194768 g / cm^3
# Si number density = 21.997749 Si / 1000 Ang^3
#
#
#
# Elastic Constant Matrix: (Units=GPa)
#
#
# Indices 1 2 3 4 5 6 
#
# 1 85.7411 26.8697 29.6458 -2.1286 10.5768 -12.3452
# 2 26.8697 120.0329 33.5877 8.4701 14.6006 -19.3945
# 3 29.6458 33.5877 39.2142 6.5093 9.4263 -15.9157
# 4 -2.1286 8.4701 6.5093 25.1095 -5.9306 -7.9068
# 5 10.5768 14.6006 9.4263 -5.9306 15.1641 -1.8521
# 6 -12.3452 -19.3945 -15.9157 -7.9068 -1.8521 44.2005
#
#
#
# Elastic Compliance Matrix: (Units=1/GPa)
#
#
# Indices 1 2 3 4 5 6 
#
# 1 0.016394 -0.000226 -0.012173 0.004451 -0.001810 0.000817
# 2 -0.000226 0.011781 -0.006610 -0.003704 -0.008316 0.001715
# 3 -0.012173 -0.006610 0.051590 -0.014580 -0.021847 0.008752
# 4 0.004451 -0.003704 -0.014580 0.054363 0.031446 0.005411
# 5 -0.001810 -0.008316 -0.021847 0.031446 0.100828 -0.002171
# 6 0.000817 0.001715 0.008752 0.005411 -0.002171 0.027633
#
#
# Mechanical properties :
#
#
# Convention : Reuss Voigt Hill
#
# Bulk Modulus (GPa) = 23.95370 47.24382 35.59876
# Shear Modulus (GPa) = 15.89711 27.22050 21.55881
#
# Velocity S-wave (km/s) = 2.69117 3.52152 3.13396
# Velocity P-wave (km/s) = 4.53534 6.16912 5.41421
#
# Compressibility (1/GPa) = 0.04174720
#
# Stress axis : x y z
#
# Youngs Moduli (GPa) = 60.99798 84.88012 19.38378
#
# Poissons Ratio (x) = 0.01915 0.23595
# Poissons Ratio (y) = 0.01376 0.12814
# Poissons Ratio (z) = 0.74251 0.56110
#
# Static dielectric constant tensor:
#      x y z
#    x 1.810990 -0.026670 0.002790 
#    y -0.026670 1.879980 -0.031520 
#    z 0.002790 -0.031520 1.807990 
# 
# From -- ./inp_files/186854.got.cif
#   From: 2010.05.17/outbox.cif.g08.bks.cpg/sg2_94_cif.got.tgz:186854.got - 2010.06.03 11:33:40.
