data_PCOD9112290
_publ_section_title
;
Structure prediction by ZEFSAII (Michael W. Deem and Ramdas Pophale) SiO2 
 PCOD9112290
Probable space group: P -1
;
_chemical_formula_sum "Si O2"
_cell_formula_units_Z 13
_cell_length_a 11.536727
_cell_length_b 8.564832
_cell_length_c 7.214546
_cell_angle_alpha 107.837344
_cell_angle_beta 46.872969
_cell_angle_gamma 95.546359
_cell_volume 488.705397
_symmetry_space_group_name_H-M "P -1"
_symmetry_group_IT_number 2
_symmetry_cell_setting 'triclinic'
loop_
_space_group_symop_operation_xyz
x,y,z
-x,-y,-z
loop_
_atom_site_type_symbol
_atom_site_label
_atom_site_fract_x
_atom_site_fract_y
_atom_site_fract_z
Si Si1 0.426880 0.762579 0.098171
Si Si2 0.000000 0.000000 0.000000
Si Si3 0.027272 0.409437 0.730971
Si Si4 0.330681 0.513584 0.856535
Si Si5 0.239421 0.661315 0.611954
Si Si6 0.655400 0.873115 0.344720
Si Si7 0.721996 0.895261 0.707923
O O1 0.345403 0.734031 0.369710
O O2 0.303553 0.906150 0.174908
O O3 0.444203 0.598320 0.896206
O O4 0.598334 0.823510 0.950072
O O5 0.905235 0.187989 0.131916
O O6 0.826297 0.926306 0.121845
O O7 0.160197 0.513794 0.552348
O O8 0.104814 0.217429 0.539789
O O9 0.000000 0.500000 0.000000
O O10 0.851259 0.434372 0.850851
O O11 0.674306 0.407347 0.316300
O O12 0.353525 0.316704 0.759008
O O13 0.653760 0.876265 0.570615
O O14 0.500000 0.000000 0.500000
#
# Coordination Sequence:
#
# PCOD9112290 Si02
#       7
#     2   1   2   2   2   2   2
#     4  11  28  45  75 116 155 205 261 329 395 475
#     4  12  24  48  84 114 156 216 258 324 398 466
#     4  10  20  45  79 101 152 206 249 326 392 464
#     4  11  25  51  76 115 150 203 269 323 392 476
#     4  11  23  46  78 108 157 208 250 325 404 459
#     4  12  26  50  82 116 157 209 270 323 394 482
#     4  11  24  51  67 112 163 200 258 329 403 452
#
# _framework density 26.600892999999999
#
# number of rings (size 3 to 8) (size 9 to 14) (size 15 to 20)
#    0.000    0.923    6.154    0.923    2.154    3.692 
#    5.538    2.308    0.000    0.000    0.000    0.000 
#    0.000    0.000    0.000    0.000    0.000    0.000 
#
# Total GULP energy -72593.869833 kJ/mol
# GULP energy per Si atom -5584.143833 kJ/mol
# Density = 2.654035 g / cm^3
# Si number density = 26.600893 Si / 1000 Ang^3
#
#
#
# Elastic Constant Matrix: (Units=GPa)
#
#
# Indices 1 2 3 4 5 6 
#
# 1 71.9804 49.8524 35.9147 -8.5043 -20.4141 -8.1053
# 2 49.8524 179.6314 62.9230 20.3971 -22.6339 1.0441
# 3 35.9147 62.9230 124.1398 6.6137 -33.0011 -12.6006
# 4 -8.5043 20.3971 6.6137 72.2707 -6.2907 -7.7328
# 5 -20.4141 -22.6339 -33.0011 -6.2907 45.6770 4.6186
# 6 -8.1053 1.0441 -12.6006 -7.7328 4.6186 47.3014
#
#
#
# Elastic Compliance Matrix: (Units=1/GPa)
#
#
# Indices 1 2 3 4 5 6 
#
# 1 0.020908 -0.004984 -0.001883 0.004914 0.005845 0.003424
# 2 -0.004984 0.008271 -0.002937 -0.002931 -0.000426 -0.002256
# 3 -0.001883 -0.002937 0.011944 0.000302 0.006135 0.002374
# 4 0.004914 -0.002931 0.000302 0.015812 0.002807 0.003298
# 5 0.005845 -0.000426 0.006135 0.002807 0.029086 0.000264
# 6 0.003424 -0.002256 0.002374 0.003298 0.000264 0.022923
#
#
# Mechanical properties :
#
#
# Convention : Reuss Voigt Hill
#
# Bulk Modulus (GPa) = 46.47801 74.79244 60.63522
# Shear Modulus (GPa) = 36.83936 48.18726 42.51331
#
# Velocity S-wave (km/s) = 3.72545 4.26078 4.00208
# Velocity P-wave (km/s) = 6.00130 7.23762 6.64826
#
# Compressibility (1/GPa) = 0.02151555
#
# Stress axis : x y z
#
# Youngs Moduli (GPa) = 47.82836 120.90278 83.72152
#
# Poissons Ratio (x) = 0.60264 0.15765
# Poissons Ratio (y) = 0.23840 0.24585
# Poissons Ratio (z) = 0.09006 0.35504
#
# Static dielectric constant tensor:
#      x y z
#    x 2.066340 -0.007030 -0.017020 
#    y -0.007030 2.114850 -0.040770 
#    z -0.017020 -0.040770 2.159710 
# 
# From -- ./inp_files/240088.got.cif
#   From: 2010.05.17/outbox.cif.g08.bks.cpg/sg2_121_cif.got.tgz:240088.got - 2010.06.03 11:33:40.
