data_PCOD9112213
_publ_section_title
;
Structure prediction by ZEFSAII (Michael W. Deem and Ramdas Pophale) SiO2 
 PCOD9112213
Probable space group: P -1
;
_chemical_formula_sum "Si O2"
_cell_formula_units_Z 14
_cell_length_a 8.960056
_cell_length_b 14.719008
_cell_length_c 5.139125
_cell_angle_alpha 83.216991
_cell_angle_beta 88.529467
_cell_angle_gamma 127.869302
_cell_volume 527.108351
_symmetry_space_group_name_H-M "P -1"
_symmetry_group_IT_number 2
_symmetry_cell_setting 'triclinic'
loop_
_space_group_symop_operation_xyz
x,y,z
-x,-y,-z
loop_
_atom_site_type_symbol
_atom_site_label
_atom_site_fract_x
_atom_site_fract_y
_atom_site_fract_z
Si Si1 0.270942 0.849452 0.057368
Si Si2 0.174074 0.927480 0.533861
Si Si3 0.610932 0.859178 0.213066
Si Si4 0.286009 0.424871 0.930911
Si Si5 0.222779 0.204864 0.131903
Si Si6 0.390347 0.646687 0.600769
Si Si7 0.937916 0.375857 0.117057
O O1 0.207120 0.895985 0.263916
O O2 0.478033 0.886930 0.089801
O O3 0.132881 0.709097 0.097710
O O4 0.247357 0.881733 0.760290
O O5 0.955297 0.860742 0.642995
O O6 0.299216 0.063829 0.556353
O O7 0.478252 0.719095 0.307688
O O8 0.776342 0.885158 0.013168
O O9 0.297434 0.510959 0.686872
O O10 0.135187 0.400601 0.167475
O O11 0.500000 0.500000 0.000000
O O12 0.218938 0.295795 0.923517
O O13 0.422966 0.283908 0.248628
O O14 0.242482 0.670734 0.679467
O O15 0.000000 0.500000 0.000000
#
# Coordination Sequence:
#
# PCOD9112213 Si02
#       7
#     2   2   2   2   2   2   2
#     4  12  26  50  77 111 149 197 257 311 378 446
#     4  12  29  48  78 110 152 204 254 316 372 443
#     4  12  27  45  73 109 151 202 256 311 374 449
#     4   9  20  42  72 105 151 194 246 307 385 443
#     4  11  24  44  73 105 154 192 256 307 379 445
#     4  10  23  43  70 109 149 195 250 311 376 448
#     4  10  20  44  76 108 149 192 252 306 375 449
#
# _framework density 26.560002999999998
#
# number of rings (size 3 to 8) (size 9 to 14) (size 15 to 20)
#    0.000    1.143    2.857    2.143    4.000    1.143 
#    0.000   13.571    0.000    0.000    0.000    0.000 
#    0.000    0.000    0.000    0.000    0.000    0.000 
#
# Total GULP energy -78348.700699 kJ/mol
# GULP energy per Si atom -5596.335764 kJ/mol
# Density = 2.649955 g / cm^3
# Si number density = 26.560003 Si / 1000 Ang^3
#
#
#
# Elastic Constant Matrix: (Units=GPa)
#
#
# Indices 1 2 3 4 5 6 
#
# 1 166.6380 41.2955 47.9506 -4.3887 -37.9662 -7.0693
# 2 41.2955 129.5916 39.4580 -6.2536 -10.4983 -9.6226
# 3 47.9506 39.4580 85.4891 -5.0416 -17.2716 -7.5948
# 4 -4.3887 -6.2536 -5.0416 33.9592 -1.0852 -4.8160
# 5 -37.9662 -10.4983 -17.2716 -1.0852 48.6973 -3.0271
# 6 -7.0693 -9.6226 -7.5948 -4.8160 -3.0271 52.0169
#
#
#
# Elastic Compliance Matrix: (Units=1/GPa)
#
#
# Indices 1 2 3 4 5 6 
#
# 1 0.008431 -0.001258 -0.002955 0.000711 0.005323 0.000857
# 2 -0.001258 0.009298 -0.003432 0.001201 -0.000095 0.001154
# 3 -0.002955 -0.003432 0.015711 0.001625 0.002662 0.001563
# 4 0.000711 0.001201 0.001625 0.030574 0.002290 0.003520
# 5 0.005323 -0.000095 0.002662 0.002290 0.025835 0.002810
# 6 0.000857 0.001154 0.001563 0.003520 0.002810 0.020272
#
#
# Mechanical properties :
#
#
# Convention : Reuss Voigt Hill
#
# Bulk Modulus (GPa) = 55.09247 71.01410 63.05329
# Shear Modulus (GPa) = 38.03424 43.80230 40.91827
#
# Velocity S-wave (km/s) = 3.78830 4.06542 3.92930
# Velocity P-wave (km/s) = 6.31843 6.98800 6.66163
#
# Compressibility (1/GPa) = 0.01815130
#
# Stress axis : x y z
#
# Youngs Moduli (GPa) = 118.61222 107.54712 63.64811
#
# Poissons Ratio (x) = 0.13526 0.18807
# Poissons Ratio (y) = 0.14918 0.21844
# Poissons Ratio (z) = 0.35048 0.36911
#
# Static dielectric constant tensor:
#      x y z
#    x 2.113520 -0.021950 -0.000390 
#    y -0.021950 2.123310 -0.073750 
#    z -0.000390 -0.073750 2.089090 
# 
# From -- ./inp_files/38560.got.cif
#   From: 2010.05.17/outbox.cif.g08.bks.cpg/sg2_20_cif.got.tgz:38560.got - 2010.06.03 11:33:40.
