data_PCOD9112103
_publ_section_title
;
Structure prediction by ZEFSAII (Michael W. Deem and Ramdas Pophale) SiO2 
 PCOD9112103
Probable space group: P -1
;
_chemical_formula_sum "Si O2"
_cell_formula_units_Z 11
_cell_length_a 10.304403
_cell_length_b 9.179122
_cell_length_c 14.374079
_cell_angle_alpha 133.365716
_cell_angle_beta 142.912471
_cell_angle_gamma 75.124112
_cell_volume 445.757855
_symmetry_space_group_name_H-M "P -1"
_symmetry_group_IT_number 2
_symmetry_cell_setting 'triclinic'
loop_
_space_group_symop_operation_xyz
x,y,z
-x,-y,-z
loop_
_atom_site_type_symbol
_atom_site_label
_atom_site_fract_x
_atom_site_fract_y
_atom_site_fract_z
Si Si1 0.005016 0.048386 0.869394
Si Si2 0.428573 0.227496 0.351082
Si Si3 0.000000 0.500000 0.000000
Si Si4 0.153176 0.864415 0.496275
Si Si5 0.569031 0.419654 0.869573
Si Si6 0.321882 0.078047 0.894678
O O1 0.070953 0.975011 0.779820
O O2 0.191969 0.049986 0.056472
O O3 0.064901 0.318103 0.003292
O O4 0.691687 0.863895 0.654144
O O5 0.500000 0.500000 0.500000
O O6 0.689926 0.242919 0.489931
O O7 0.257833 0.610818 0.118211
O O8 0.315463 0.131917 0.643520
O O9 0.786751 0.050073 0.325272
O O10 0.818992 0.626638 0.178877
O O11 0.502743 0.602276 0.872633
O O12 0.500000 0.000000 0.000000
#
# Coordination Sequence:
#
# PCOD9112103 Si02
#       6
#     2   2   1   2   2   2
#     4  10  22  44  65 101 141 179 244 290 361 418
#     4  11  23  41  70 100 142 188 237 297 363 420
#     4  10  20  44  70 104 138 180 240 298 350 418
#     4  12  25  49  73 104 148 192 239 293 369 430
#     4  11  26  47  75 106 146 190 240 294 366 432
#     4  11  24  47  71 107 143 192 239 300 354 433
#
# _framework density 24.677073
#
# number of rings (size 3 to 8) (size 9 to 14) (size 15 to 20)
#    0.000    1.091    3.636    2.182    2.545    0.727 
#   16.364    4.545    0.000    0.000    0.000    0.000 
#    0.000    0.000    0.000    0.000    0.000    0.000 
#
# Total GULP energy -61328.694386 kJ/mol
# GULP energy per Si atom -5575.335853 kJ/mol
# Density = 2.462091 g / cm^3
# Si number density = 24.677073 Si / 1000 Ang^3
#
#
#
# Elastic Constant Matrix: (Units=GPa)
#
#
# Indices 1 2 3 4 5 6 
#
# 1 180.5054 51.4798 21.2574 -1.5010 -2.4614 -2.0614
# 2 51.4798 176.0910 29.1759 -5.7605 -0.6222 -30.4848
# 3 21.2574 29.1759 71.9186 0.3917 -13.1238 5.9532
# 4 -1.5010 -5.7605 0.3917 31.9464 1.6018 5.5843
# 5 -2.4614 -0.6222 -13.1238 1.6018 11.2371 -1.1413
# 6 -2.0614 -30.4848 5.9532 5.5843 -1.1413 58.5602
#
#
#
# Elastic Compliance Matrix: (Units=1/GPa)
#
#
# Indices 1 2 3 4 5 6 
#
# 1 0.006150 -0.001714 -0.001093 0.000099 -0.000097 -0.000576
# 2 -0.001714 0.007484 -0.003568 0.000797 -0.003831 0.004048
# 3 -0.001093 -0.003568 0.020153 -0.001508 0.022974 -0.003353
# 4 0.000099 0.000797 -0.001508 0.032258 -0.006560 -0.002632
# 5 -0.000097 -0.003831 0.022974 -0.006560 0.116378 -0.001439
# 6 -0.000576 0.004048 -0.003353 -0.002632 -0.001439 0.019727
#
#
# Mechanical properties :
#
#
# Convention : Reuss Voigt Hill
#
# Bulk Modulus (GPa) = 47.53329 70.26014 58.89671
# Shear Modulus (GPa) = 22.53118 42.12222 32.32670
#
# Velocity S-wave (km/s) = 3.02494 4.13599 3.62330
# Velocity P-wave (km/s) = 5.61286 7.16535 6.43609
#
# Compressibility (1/GPa) = 0.02103789
#
# Stress axis : x y z
#
# Youngs Moduli (GPa) = 162.59049 133.61135 49.61929
#
# Poissons Ratio (x) = 0.22897 0.05425
# Poissons Ratio (y) = 0.27863 0.17705
# Poissons Ratio (z) = 0.17776 0.47675
#
# Static dielectric constant tensor:
#      x y z
#    x 1.926340 -0.011700 -0.093100 
#    y -0.011700 1.830010 -0.165220 
#    z -0.093100 -0.165220 1.925990 
# 
# From -- ./inp_files/211229.got.cif
#   From: 2010.05.17/outbox.cif.g08.bks.cpg/sg2_106_cif.got.tgz:211229.got - 2010.06.03 11:33:40.
