data_PCOD9112032
_publ_section_title
;
Structure prediction by ZEFSAII (Michael W. Deem and Ramdas Pophale) SiO2 
 PCOD9112032
Probable space group: P -1
;
_chemical_formula_sum "Si O2"
_cell_formula_units_Z 15
_cell_length_a 10.466392
_cell_length_b 10.876165
_cell_length_c 8.455875
_cell_angle_alpha 113.267763
_cell_angle_beta 119.320624
_cell_angle_gamma 42.742665
_cell_volume 568.589227
_symmetry_space_group_name_H-M "P -1"
_symmetry_group_IT_number 2
_symmetry_cell_setting 'triclinic'
loop_
_space_group_symop_operation_xyz
x,y,z
-x,-y,-z
loop_
_atom_site_type_symbol
_atom_site_label
_atom_site_fract_x
_atom_site_fract_y
_atom_site_fract_z
Si Si1 0.693054 0.202680 0.881920
Si Si2 0.621955 0.740659 0.468867
Si Si3 0.195315 0.591833 0.102382
Si Si4 0.738713 0.992410 0.380222
Si Si5 0.500000 0.000000 0.000000
Si Si6 0.181171 0.161185 0.181014
Si Si7 0.138056 0.636816 0.449953
Si Si8 0.629493 0.283972 0.236780
O O1 0.480303 0.261812 0.747012
O O2 0.740565 0.294201 0.839268
O O3 0.835597 0.986294 0.867582
O O4 0.688078 0.270837 0.086089
O O5 0.435855 0.845041 0.531403
O O6 0.707957 0.835186 0.602883
O O7 0.807224 0.535561 0.526391
O O8 0.104685 0.642883 0.247254
O O9 0.399233 0.381994 0.136880
O O10 0.035042 0.650932 0.904015
O O11 0.657760 0.914138 0.198614
O O12 0.752989 0.093265 0.300777
O O13 0.949222 0.831638 0.501471
O O14 0.318841 0.095832 0.075427
O O15 0.330783 0.608795 0.585009
#
# Coordination Sequence:
#
# PCOD9112032 Si02
#       8
#     2   2   2   2   1   2   2   2
#     4  12  25  48  70 101 151 193 235 295 357 430
#     4  11  26  47  72 105 150 186 238 301 354 428
#     4  12  24  43  74 109 144 185 239 300 358 425
#     4  11  23  42  73 103 138 186 237 294 354 425
#     4  10  20  44  68 100 136 180 236 292 344 424
#     4  11  25  45  74 106 138 193 238 293 366 423
#     4  12  24  45  72 111 139 189 240 297 359 423
#     4  12  24  44  70 103 148 183 243 294 356 420
#
# _framework density 26.381080999999998
#
# number of rings (size 3 to 8) (size 9 to 14) (size 15 to 20)
#    0.000    0.533    5.333    2.800    0.000    3.733 
#    0.000    0.667    0.000    0.000    0.000    0.000 
#    0.000    0.000    0.000    0.000    0.000    0.000 
#
# Total GULP energy -83729.649216 kJ/mol
# GULP energy per Si atom -5581.976614 kJ/mol
# Density = 2.632104 g / cm^3
# Si number density = 26.381081 Si / 1000 Ang^3
#
#
#
# Elastic Constant Matrix: (Units=GPa)
#
#
# Indices 1 2 3 4 5 6 
#
# 1 60.2176 10.0171 7.0916 -4.9359 0.1828 -8.4137
# 2 10.0171 86.7202 13.0358 -22.1215 -7.0556 -10.3297
# 3 7.0916 13.0358 109.3914 -18.4916 20.8643 -9.1244
# 4 -4.9359 -22.1215 -18.4916 27.6948 0.8393 3.0538
# 5 0.1828 -7.0556 20.8643 0.8393 39.5621 -2.8162
# 6 -8.4137 -10.3297 -9.1244 3.0538 -2.8162 31.4384
#
#
#
# Elastic Compliance Matrix: (Units=1/GPa)
#
#
# Indices 1 2 3 4 5 6 
#
# 1 0.017531 -0.001066 -0.000457 0.001511 0.000229 0.004083
# 2 -0.001066 0.015273 -0.000014 0.011490 0.002767 0.003860
# 3 -0.000457 -0.000014 0.011853 0.007792 -0.006275 0.001994
# 4 0.001511 0.011490 0.007792 0.050713 -0.003054 0.001241
# 5 0.000229 0.002767 -0.006275 -0.003054 0.029291 0.002070
# 6 0.004083 0.003860 0.001994 0.001241 0.002070 0.034813
#
#
# Mechanical properties :
#
#
# Convention : Reuss Voigt Hill
#
# Bulk Modulus (GPa) = 24.04916 35.17980 29.61448
# Shear Modulus (GPa) = 28.34323 34.81803 31.58063
#
# Velocity S-wave (km/s) = 3.28132 3.63686 3.46366
# Velocity P-wave (km/s) = 4.84685 5.56775 5.21976
#
# Compressibility (1/GPa) = 0.04158150
#
# Stress axis : x y z
#
# Youngs Moduli (GPa) = 57.04129 65.47672 84.36633
#
# Poissons Ratio (x) = 0.06980 0.03857
# Poissons Ratio (y) = 0.06081 0.00122
# Poissons Ratio (z) = 0.02608 0.00094
#
# Static dielectric constant tensor:
#      x y z
#    x 2.113380 -0.012380 0.032880 
#    y -0.012380 2.133030 0.035050 
#    z 0.032880 0.035050 2.020920 
# 
# From -- ./inp_files/259606.got.cif
#   From: 2010.05.17/outbox.cif.g08.bks.cpg/sg2_130_cif.got.tgz:259606.got - 2010.06.03 11:33:40.
