data_PCOD9112486
_publ_section_title
;
Structure prediction by ZEFSAII (Michael W. Deem and Ramdas Pophale) SiO2 
 PCOD9112486
Probable space group: P 2
;
_chemical_formula_sum "Si O2"
_cell_formula_units_Z 10
_cell_length_a 11.676627
_cell_length_b 7.483967
_cell_length_c 8.833346
_cell_angle_alpha 90.000000
_cell_angle_beta 38.154093
_cell_angle_gamma 90.000000
_cell_volume 476.878053
_symmetry_space_group_name_H-M "P 2"
_symmetry_group_IT_number 3
_symmetry_cell_setting 'monoclinic'
loop_
_space_group_symop_operation_xyz
x,y,z
-x,y,-z
loop_
_atom_site_type_symbol
_atom_site_label
_atom_site_fract_x
_atom_site_fract_y
_atom_site_fract_z
Si Si1 0.500000 0.977931 0.500000
Si Si2 0.603729 0.512212 0.056822
Si Si3 0.737923 0.136214 0.988109
Si Si4 0.694715 0.719752 0.519816
Si Si5 0.500000 0.929558 0.000000
Si Si6 0.931411 0.794618 0.743577
O O1 0.644925 0.847483 0.433306
O O2 0.605998 0.094836 0.266761
O O3 0.736025 0.345917 0.958655
O O4 0.431254 0.542453 0.350236
O O5 0.500000 0.489984 0.000000
O O6 0.738380 0.684828 0.939425
O O7 0.641687 0.054139 0.940048
O O8 0.909712 0.999082 0.824614
O O9 0.613708 0.819366 0.755235
O O10 0.911640 0.697427 0.320638
O O11 0.000000 0.797237 0.500000
#
# Coordination Sequence:
#
# PCOD9112486 Si02
#       6
#     1   2   2   2   1   2
#     4  10  24  46  70  86 140 192 208 266 344 416
#     4  12  22  40  69 104 133 173 226 284 338 392
#     4  11  23  40  66 100 132 177 224 269 332 400
#     4  11  21  43  70  91 135 179 223 272 335 397
#     4  10  16  38  64  90 124 178 214 258 320 392
#     4  12  22  41  70 102 133 174 226 286 336 392
#
# _framework density 20.969723999999999
#
# number of rings (size 3 to 8) (size 9 to 14) (size 15 to 20)
#    0.000    0.800   10.000    0.000    0.000    2.400 
#    7.200    0.000    4.400    0.000    0.000    0.000 
#    0.000    0.000    0.000    0.000    0.000    0.000 
#
# Total GULP energy -55734.518401 kJ/mol
# GULP energy per Si atom -5573.451840 kJ/mol
# Density = 2.092200 g / cm^3
# Si number density = 20.969724 Si / 1000 Ang^3
#
#
#
# Elastic Constant Matrix: (Units=GPa)
#
#
# Indices 1 2 3 4 5 6 
#
# 1 84.7621 16.3711 29.7206 0.0000 -16.4019 0.0000
# 2 16.3711 107.2285 7.3768 0.0000 -6.3582 0.0000
# 3 29.7206 7.3768 36.1020 0.0000 -15.8668 0.0000
# 4 0.0000 0.0000 0.0000 18.7856 0.0000 -3.3508
# 5 -16.4019 -6.3582 -15.8668 0.0000 38.8545 0.0000
# 6 0.0000 0.0000 0.0000 -3.3508 0.0000 14.9815
#
#
#
# Elastic Compliance Matrix: (Units=1/GPa)
#
#
# Indices 1 2 3 4 5 6 
#
# 1 0.016949 -0.001603 -0.012914 0.000000 0.001619 0.000000
# 2 -0.001603 0.009638 -0.000309 0.000000 0.000774 0.000000
# 3 -0.012914 -0.000309 0.043845 0.000000 0.012403 0.000000
# 4 0.000000 0.000000 0.000000 0.055444 0.000000 0.012401
# 5 0.001619 0.000774 0.012403 0.000000 0.031612 0.000000
# 6 0.000000 0.000000 0.000000 0.012401 0.000000 0.069523
#
#
# Mechanical properties :
#
#
# Convention : Reuss Voigt Hill
#
# Bulk Modulus (GPa) = 24.52277 37.22554 30.87415
# Shear Modulus (GPa) = 18.50104 26.16592 22.33348
#
# Velocity S-wave (km/s) = 2.97353 3.53625 3.26703
# Velocity P-wave (km/s) = 4.84860 5.87060 5.38391
#
# Compressibility (1/GPa) = 0.04077843
#
# Stress axis : x y z
#
# Youngs Moduli (GPa) = 59.00179 103.75783 22.80786
#
# Poissons Ratio (x) = 0.16635 0.29454
# Poissons Ratio (y) = 0.09459 0.00705
# Poissons Ratio (z) = 0.76193 0.03209
#
# Static dielectric constant tensor:
#      x y z
#    x 1.787720 0.000000 -0.015560 
#    y 0.000000 1.827680 0.000000 
#    z -0.015560 0.000000 1.763590 
# 
# From -- ./inp_files/6806.got.cif
#   From: 2010.05.17/outbox.cif.g08.bks.cpg/sg3_4_cif.got.tgz:6806.got - 2010.06.03 18:33:08.
