data_PCOD9112432
_publ_section_title
;
Structure prediction by ZEFSAII (Michael W. Deem and Ramdas Pophale) SiO2 
 PCOD9112432
Probable space group: P -1
;
_chemical_formula_sum "Si O2"
_cell_formula_units_Z 16
_cell_length_a 9.666409
_cell_length_b 5.403004
_cell_length_c 14.855086
_cell_angle_alpha 101.120099
_cell_angle_beta 99.614983
_cell_angle_gamma 92.489983
_cell_volume 748.286758
_symmetry_space_group_name_H-M "P -1"
_symmetry_group_IT_number 2
_symmetry_cell_setting 'triclinic'
loop_
_space_group_symop_operation_xyz
x,y,z
-x,-y,-z
loop_
_atom_site_type_symbol
_atom_site_label
_atom_site_fract_x
_atom_site_fract_y
_atom_site_fract_z
Si Si1 0.875628 0.600387 0.710142
Si Si2 0.942748 0.730843 0.065208
Si Si3 0.190797 0.096068 0.611310
Si Si4 0.787106 0.339408 0.281626
Si Si5 0.804713 0.889111 0.883109
Si Si6 0.443968 0.843934 0.070501
Si Si7 0.313944 0.486200 0.888757
Si Si8 0.852744 0.041238 0.602718
O O1 0.824756 0.644056 0.809220
O O2 0.825235 0.320657 0.652310
O O3 0.046045 0.644521 0.723779
O O4 0.820059 0.818775 0.655752
O O5 0.840136 0.654819 0.130185
O O6 0.848499 0.865927 0.990869
O O7 0.074327 0.907994 0.125382
O O8 0.000000 0.500000 0.000000
O O9 0.247409 0.890963 0.670668
O O10 0.217063 0.029816 0.505841
O O11 0.237381 0.386495 0.659622
O O12 0.021557 0.061403 0.605046
O O13 0.695701 0.318100 0.179248
O O14 0.651283 0.985964 0.869361
O O15 0.566167 0.705210 0.122084
O O16 0.341927 0.620938 0.997418
O O17 0.500000 0.000000 0.000000
#
# Coordination Sequence:
#
# PCOD9112432 Si02
#       8
#     2   2   2   2   2   2   2   2
#     4  10  21  32  56  86 122 151 200 244 294 363
#     4  11  22  37  58  82 119 149 203 252 301 352
#     4   9  18  33  55  83 121 156 188 238 309 363
#     4  10  21  33  57  88 117 152 203 247 290 360
#     4  11  24  36  58  87 113 164 200 249 302 350
#     4  11  24  43  57  79 121 163 206 249 297 357
#     4  11  24  38  60  84 116 164 202 254 297 347
#     4   9  18  34  52  84 123 157 183 240 310 363
#
# _framework density 21.382178
#
# number of rings (size 3 to 8) (size 9 to 14) (size 15 to 20)
#    0.000    1.750    2.500    1.500   10.500    3.000 
#    0.000    0.000    0.000    0.000    0.000    5.250 
#    0.000    0.000    0.000    0.000    0.000    0.000 
#
# Total GULP energy -89467.409053 kJ/mol
# GULP energy per Si atom -5591.713066 kJ/mol
# Density = 2.133351 g / cm^3
# Si number density = 21.382178 Si / 1000 Ang^3
#
#
#
# Elastic Constant Matrix: (Units=GPa)
#
#
# Indices 1 2 3 4 5 6 
#
# 1 48.6479 25.2286 15.2698 0.5351 -4.9646 -9.3761
# 2 25.2286 128.7569 43.8831 -2.9616 -3.5559 -16.3334
# 3 15.2698 43.8831 99.0548 1.8325 -6.2294 -15.7537
# 4 0.5351 -2.9616 1.8325 44.9607 -6.3146 -1.4987
# 5 -4.9646 -3.5559 -6.2294 -6.3146 13.3917 2.0667
# 6 -9.3761 -16.3334 -15.7537 -1.4987 2.0667 24.9008
#
#
#
# Elastic Compliance Matrix: (Units=1/GPa)
#
#
# Indices 1 2 3 4 5 6 
#
# 1 0.024513 -0.003566 -0.000836 0.000711 0.007191 0.005808
# 2 -0.003566 0.010049 -0.003437 0.000906 -0.000312 0.003155
# 3 -0.000836 -0.003437 0.012824 -0.000013 0.003932 0.005217
# 4 0.000711 0.000906 -0.000013 0.023966 0.011593 0.001334
# 5 0.007191 -0.000312 0.003932 0.011593 0.084759 -0.001347
# 6 0.005808 0.003155 0.005217 0.001334 -0.001347 0.047908
#
#
# Mechanical properties :
#
#
# Convention : Reuss Voigt Hill
#
# Bulk Modulus (GPa) = 31.53813 49.46919 40.50366
# Shear Modulus (GPa) = 21.71384 29.45585 25.58484
#
# Velocity S-wave (km/s) = 3.19017 3.71561 3.46287
# Velocity P-wave (km/s) = 5.32459 6.44931 5.91375
#
# Compressibility (1/GPa) = 0.03170766
#
# Stress axis : x y z
#
# Youngs Moduli (GPa) = 40.79430 99.51089 77.97825
#
# Poissons Ratio (x) = 0.35490 0.06520
# Poissons Ratio (y) = 0.14549 0.26800
# Poissons Ratio (z) = 0.03411 0.34200
#
# Static dielectric constant tensor:
#      x y z
#    x 1.750870 0.023060 0.014870 
#    y 0.023060 1.837830 -0.006390 
#    z 0.014870 -0.006390 1.797800 
# 
# From -- ./inp_files/80131.got.cif
#   From: 2010.05.17/outbox.cif.g08.bks.cpg/sg2_41_cif.got.tgz:80131.got - 2010.06.03 11:33:40.
