data_PCOD9112850
_publ_section_title
;
Structure prediction by ZEFSAII (Michael W. Deem and Ramdas Pophale) SiO2 
 PCOD9112850
Probable space group: P 2
;
_chemical_formula_sum "Si O2"
_cell_formula_units_Z 16
_cell_length_a 9.456584
_cell_length_b 9.188340
_cell_length_c 11.327401
_cell_angle_alpha 90.000000
_cell_angle_beta 51.121615
_cell_angle_gamma 90.000000
_cell_volume 766.212218
_symmetry_space_group_name_H-M "P 2"
_symmetry_group_IT_number 3
_symmetry_cell_setting 'monoclinic'
loop_
_space_group_symop_operation_xyz
x,y,z
-x,y,-z
loop_
_atom_site_type_symbol
_atom_site_label
_atom_site_fract_x
_atom_site_fract_y
_atom_site_fract_z
Si Si1 0.567728 0.954660 0.193824
Si Si2 0.083144 0.826571 0.077514
Si Si3 0.388752 0.294360 0.877779
Si Si4 0.191701 0.854798 0.458471
Si Si5 0.301068 0.361257 0.660211
Si Si6 0.680773 0.448923 0.854181
Si Si7 0.949621 0.595330 0.336833
Si Si8 0.214216 0.025335 0.690165
O O1 0.365844 0.893143 0.289378
O O2 0.593144 0.121316 0.140604
O O3 0.640234 0.960679 0.292195
O O4 0.706529 0.854628 0.049669
O O5 0.026698 0.719410 0.209462
O O6 0.980051 0.979619 0.153790
O O7 0.000000 0.766120 0.000000
O O8 0.312794 0.361499 0.796761
O O9 0.590487 0.355806 0.797561
O O10 0.280404 0.347131 0.051056
O O11 0.171204 0.686194 0.507424
O O12 0.000000 0.894970 0.500000
O O13 0.224043 0.947966 0.559622
O O14 0.500000 0.383309 0.500000
O O15 0.168262 0.479379 0.673384
O O16 0.241299 0.196258 0.662619
O O17 0.864056 0.522720 0.717297
O O18 0.500000 0.535262 0.000000
#
# Coordination Sequence:
#
# PCOD9112850 Si02
#       8
#     2   2   2   2   2   2   2   2
#     4  10  19  41  70  92 123 160 220 271 315 372
#     4   9  21  36  62  95 119 164 207 266 317 366
#     4   8  20  41  67  98 121 165 213 275 329 358
#     4  11  25  43  61  90 132 175 211 252 325 395
#     4  11  23  38  67  97 126 167 219 271 323 386
#     4   8  21  41  63  92 134 160 212 270 327 381
#     4  11  25  41  58  93 131 174 206 258 320 394
#     4   9  20  42  66  91 124 154 222 267 317 366
#
# _framework density 20.881945000000002
#
# number of rings (size 3 to 8) (size 9 to 14) (size 15 to 20)
#    0.750    1.500    0.000    1.875    3.500    6.000 
#    6.750    0.625    0.000    0.000    0.000    0.000 
#    0.000    0.000    0.000    0.000    0.000    0.000 
#
# Total GULP energy -89241.467590 kJ/mol
# GULP energy per Si atom -5577.591724 kJ/mol
# Density = 2.083442 g / cm^3
# Si number density = 20.881945 Si / 1000 Ang^3
#
#
#
# Elastic Constant Matrix: (Units=GPa)
#
#
# Indices 1 2 3 4 5 6 
#
# 1 91.6840 55.2386 31.5524 0.0000 -17.1905 0.0000
# 2 55.2386 79.3665 29.8240 0.0000 -5.6551 0.0000
# 3 31.5524 29.8240 55.2434 0.0000 -20.0839 0.0000
# 4 0.0000 0.0000 0.0000 23.9594 0.0000 1.4489
# 5 -17.1905 -5.6551 -20.0839 0.0000 35.8596 0.0000
# 6 0.0000 0.0000 0.0000 1.4489 0.0000 26.3307
#
#
#
# Elastic Compliance Matrix: (Units=1/GPa)
#
#
# Indices 1 2 3 4 5 6 
#
# 1 0.020918 -0.013171 -0.002444 0.000000 0.006582 0.000000
# 2 -0.013171 0.024339 -0.008183 0.000000 -0.007059 0.000000
# 3 -0.002444 -0.008183 0.028906 0.000000 0.013727 0.000000
# 4 0.000000 0.000000 0.000000 0.041877 0.000000 -0.002304
# 5 0.006582 -0.007059 0.013727 0.000000 0.037617 0.000000
# 6 0.000000 0.000000 0.000000 -0.002304 0.000000 0.038105
#
#
# Mechanical properties :
#
#
# Convention : Reuss Voigt Hill
#
# Bulk Modulus (GPa) = 37.64191 51.05822 44.35006
# Shear Modulus (GPa) = 20.14398 24.54187 22.34293
#
# Velocity S-wave (km/s) = 3.10927 3.43194 3.27458
# Velocity P-wave (km/s) = 5.56374 6.34100 5.96504
#
# Compressibility (1/GPa) = 0.02656614
#
# Stress axis : x y z
#
# Youngs Moduli (GPa) = 47.80650 41.08622 34.59510
#
# Poissons Ratio (x) = 0.54116 0.08453
# Poissons Ratio (y) = 0.62968 0.28310
# Poissons Ratio (z) = 0.11682 0.33622
#
# Static dielectric constant tensor:
#      x y z
#    x 1.742100 0.000000 -0.007580 
#    y 0.000000 1.746310 0.000000 
#    z -0.007580 0.000000 1.776230 
# 
# From -- ./inp_files/10724.got.cif
#   From: 2010.05.17/outbox.cif.g08.bks.cpg/sg3_6_cif.got.tgz:10724.got - 2010.06.03 18:33:08.
