data_PCOD9112636
_publ_section_title
;
Structure prediction by ZEFSAII (Michael W. Deem and Ramdas Pophale) SiO2 
 PCOD9112636
Probable space group: P 2
;
_chemical_formula_sum "Si O2"
_cell_formula_units_Z 16
_cell_length_a 7.899185
_cell_length_b 19.826300
_cell_length_c 6.997512
_cell_angle_alpha 90.000000
_cell_angle_beta 139.169217
_cell_angle_gamma 90.000000
_cell_volume 716.523775
_symmetry_space_group_name_H-M "P 2"
_symmetry_group_IT_number 3
_symmetry_cell_setting 'monoclinic'
loop_
_space_group_symop_operation_xyz
x,y,z
-x,y,-z
loop_
_atom_site_type_symbol
_atom_site_label
_atom_site_fract_x
_atom_site_fract_y
_atom_site_fract_z
Si Si1 0.784791 0.038720 0.647647
Si Si2 0.785661 0.892679 0.648952
Si Si3 0.214887 0.183649 0.352228
Si Si4 0.784923 0.329280 0.650853
Si Si5 0.501257 0.698831 0.721056
Si Si6 0.427538 0.546067 0.164032
Si Si7 0.072285 0.475587 0.344466
Si Si8 0.000301 0.753907 0.232946
O O1 0.500000 0.038873 0.500000
O O2 0.812624 0.111196 0.567507
O O3 0.799675 0.965840 0.559069
O O4 0.000000 0.038872 0.000000
O O5 0.500000 0.884811 0.500000
O O6 0.872607 0.826163 0.610798
O O7 0.000000 0.895899 0.000000
O O8 0.500000 0.183783 0.500000
O O9 0.195475 0.256474 0.437343
O O10 0.000000 0.183644 0.000000
O O11 0.500000 0.334402 0.500000
O O12 0.846510 0.397625 0.593585
O O13 0.000000 0.327427 0.000000
O O14 0.500000 0.722634 0.500000
O O15 0.617930 0.624051 0.829332
O O16 0.194157 0.700541 0.495869
O O17 0.696799 0.744361 0.009760
O O18 0.680372 0.520750 0.489898
O O19 0.500000 0.543726 0.000000
O O20 0.184566 0.496806 0.987662
O O21 0.000000 0.490778 0.500000
O O22 0.000000 0.746313 0.000000
#
# Coordination Sequence:
#
# PCOD9112636 Si02
#       8
#     2   2   2   2   2   2   2   2
#     4   8  13  20  32  51  77 112 145 169 202 251
#     4   9  14  21  34  52  79 115 146 170 205 256
#     4   8  14  24  37  57  85 113 141 175 214 252
#     4  10  19  31  49  71  94 120 150 187 227 268
#     4  10  19  30  45  64  86 111 140 178 222 263
#     4  10  21  36  51  66  87 116 149 186 226 269
#     4  10  21  36  51  68  92 120 150 187 229 272
#     4   9  16  26  39  59  86 113 140 174 216 257
#
# _framework density 22.330031000000002
#
# number of rings (size 3 to 8) (size 9 to 14) (size 15 to 20)
#    0.000    2.750    0.000    3.375    0.000    1.500 
#    0.000    0.000    0.000    0.000    0.000    0.000 
#    0.000    2.000    0.000    0.000    0.000   13.750 
#
# Total GULP energy -89128.348014 kJ/mol
# GULP energy per Si atom -5570.521751 kJ/mol
# Density = 2.227921 g / cm^3
# Si number density = 22.330031 Si / 1000 Ang^3
#
#
#
# Elastic Constant Matrix: (Units=GPa)
#
#
# Indices 1 2 3 4 5 6 
#
# 1 51.2848 -0.8999 34.2856 0.0000 11.5884 0.0000
# 2 -0.8999 163.7433 24.8050 0.0000 28.8237 0.0000
# 3 34.2856 24.8050 144.0926 0.0000 42.4459 0.0000
# 4 0.0000 0.0000 0.0000 32.7224 0.0000 8.4210
# 5 11.5884 28.8237 42.4459 0.0000 32.4935 0.0000
# 6 0.0000 0.0000 0.0000 8.4210 0.0000 -47.9986
#
#
#
# Elastic Compliance Matrix: (Units=1/GPa)
#
#
# Indices 1 2 3 4 5 6 
#
# 1 0.023531 0.001451 -0.004872 0.000000 -0.003314 0.000000
# 2 0.001451 0.007426 0.000763 0.000000 -0.008101 0.000000
# 3 -0.004872 0.000763 0.012444 0.000000 -0.015194 0.000000
# 4 0.000000 0.000000 0.000000 0.029240 0.000000 0.005130
# 5 -0.003314 -0.008101 -0.015194 0.000000 0.058991 0.000000
# 6 0.000000 0.000000 0.000000 0.005130 0.000000 -0.019934
#
#
# Mechanical properties :
#
#
# Convention : Reuss Voigt Hill
#
# Bulk Modulus (GPa) = 26.25891 52.83356 39.54623
# Shear Modulus (GPa) = 38.54783 23.50546 31.02664
#
# Velocity S-wave (km/s) = 4.15936 3.24796 3.73159
# Velocity P-wave (km/s) = 5.90356 6.14633 6.02616
#
# Compressibility (1/GPa) = 0.03808232
#
# Stress axis : x y z
#
# Youngs Moduli (GPa) = 42.49779 134.67097 80.36100
#
# Poissons Ratio (x) = -0.19538 0.39155
# Poissons Ratio (y) = -0.06166 -0.06130
# Poissons Ratio (z) = 0.20707 -0.10272
#
# Static dielectric constant tensor:
#      x y z
#    x 1.901680 0.000000 0.041530 
#    y 0.000000 1.912920 0.000000 
#    z 0.041530 0.000000 1.813800 
# 
# From -- ./inp_files/2592.got.cif
#   From: 2010.05.17/outbox.cif.g08.bks.cpg/sg3_2_cif.got.tgz:2592.got - 2010.06.03 18:33:08.
