data_PCOD9112196
_publ_section_title
;
Structure prediction by ZEFSAII (Michael W. Deem and Ramdas Pophale) SiO2 
 PCOD9112196
Probable space group: P -1
;
_chemical_formula_sum "Si O2"
_cell_formula_units_Z 12
_cell_length_a 10.720261
_cell_length_b 12.655564
_cell_length_c 5.292547
_cell_angle_alpha 65.663437
_cell_angle_beta 67.590574
_cell_angle_gamma 47.081714
_cell_volume 473.639424
_symmetry_space_group_name_H-M "P -1"
_symmetry_group_IT_number 2
_symmetry_cell_setting 'triclinic'
loop_
_space_group_symop_operation_xyz
x,y,z
-x,-y,-z
loop_
_atom_site_type_symbol
_atom_site_label
_atom_site_fract_x
_atom_site_fract_y
_atom_site_fract_z
Si Si1 0.219670 0.352678 0.733973
Si Si2 0.654507 0.354412 0.387612
Si Si3 0.449105 0.897290 0.074331
Si Si4 0.970608 0.326458 0.240581
Si Si5 0.952235 0.098040 0.689969
Si Si6 0.549452 0.197391 0.338936
O O1 0.343901 0.280881 0.463337
O O2 0.901823 0.471095 0.319100
O O3 0.377067 0.274991 0.889816
O O4 0.109092 0.301599 0.960009
O O5 0.500000 0.500000 0.500000
O O6 0.805956 0.361439 0.184333
O O7 0.749686 0.232440 0.661202
O O8 0.586795 0.311897 0.252012
O O9 0.376660 0.911183 0.845929
O O10 0.356189 0.907265 0.386828
O O11 0.500000 0.000000 0.000000
O O12 0.024848 0.190706 0.511636
O O13 0.000000 0.000000 0.500000
O O14 0.000000 0.000000 0.000000
#
# Coordination Sequence:
#
# PCOD9112196 Si02
#       6
#     2   2   2   2   2   2
#     4   9  20  42  69 109 145 193 253 302 380 455
#     4  10  20  44  75 113 148 199 253 319 382 451
#     4  10  22  41  69 103 146 193 245 311 378 449
#     4   9  20  45  71 106 148 200 244 316 372 459
#     4  10  24  47  69 106 148 203 249 308 381 452
#     4  10  21  41  68 105 144 190 247 305 377 443
#
# _framework density 25.335730000000002
#
# number of rings (size 3 to 8) (size 9 to 14) (size 15 to 20)
#    2.000    0.333    1.667    0.500    0.000    2.667 
#    9.000    4.167    0.000    0.000    0.000    0.000 
#    0.000    0.000    0.000    0.000    0.000    0.000 
#
# Total GULP energy -66868.150697 kJ/mol
# GULP energy per Si atom -5572.345891 kJ/mol
# Density = 2.527807 g / cm^3
# Si number density = 25.335730 Si / 1000 Ang^3
#
#
#
# Elastic Constant Matrix: (Units=GPa)
#
#
# Indices 1 2 3 4 5 6 
#
# 1 109.6113 33.2086 54.1071 0.0328 -16.3084 6.8549
# 2 33.2086 151.6643 66.2110 -11.1891 0.4742 -4.0582
# 3 54.1071 66.2110 167.5697 13.9266 18.5436 21.9390
# 4 0.0328 -11.1891 13.9266 29.0286 13.2210 -2.8269
# 5 -16.3084 0.4742 18.5436 13.2210 31.5371 2.2909
# 6 6.8549 -4.0582 21.9390 -2.8269 2.2909 53.6312
#
#
#
# Elastic Compliance Matrix: (Units=1/GPa)
#
#
# Indices 1 2 3 4 5 6 
#
# 1 0.013578 -0.001158 -0.004835 -0.003348 0.011322 -0.000505
# 2 -0.001158 0.009135 -0.003995 0.006275 -0.001225 0.002857
# 3 -0.004835 -0.003995 0.010710 -0.003971 -0.006783 -0.003985
# 4 -0.003348 0.006275 -0.003971 0.048601 -0.020298 0.005956
# 5 0.011322 -0.001225 -0.006783 -0.020298 0.050223 -0.001980
# 6 -0.000505 0.002857 -0.003985 0.005956 -0.001980 0.020955
#
#
# Mechanical properties :
#
#
# Convention : Reuss Voigt Hill
#
# Bulk Modulus (GPa) = 74.37517 81.76652 78.07084
# Shear Modulus (GPa) = 28.14347 41.19396 34.66871
#
# Velocity S-wave (km/s) = 3.33651 4.03665 3.70316
# Velocity P-wave (km/s) = 6.65302 7.35318 7.01185
#
# Compressibility (1/GPa) = 0.01344535
#
# Stress axis : x y z
#
# Youngs Moduli (GPa) = 73.64908 109.47497 93.37091
#
# Poissons Ratio (x) = 0.12678 0.45146
# Poissons Ratio (y) = 0.08529 0.37304
# Poissons Ratio (z) = 0.35610 0.43738
#
# Static dielectric constant tensor:
#      x y z
#    x 1.703160 0.239850 -0.022590 
#    y 0.239850 1.917240 -0.026590 
#    z -0.022590 -0.026590 2.100880 
# 
# From -- ./inp_files/74522.got.cif
#   From: 2010.05.17/outbox.cif.g08.bks.cpg/sg2_38_cif.got.tgz:74522.got - 2010.06.03 11:33:40.
