data_PCOD9112935
_publ_section_title
;
Structure prediction by ZEFSAII (Michael W. Deem and Ramdas Pophale) SiO2 
 PCOD9112935
Probable space group: P 2
;
_chemical_formula_sum "Si O2"
_cell_formula_units_Z 13
_cell_length_a 7.261221
_cell_length_b 9.355766
_cell_length_c 8.723664
_cell_angle_alpha 90.000000
_cell_angle_beta 76.253965
_cell_angle_gamma 90.000000
_cell_volume 575.661902
_symmetry_space_group_name_H-M "P 2"
_symmetry_group_IT_number 3
_symmetry_cell_setting 'monoclinic'
loop_
_space_group_symop_operation_xyz
x,y,z
-x,y,-z
loop_
_atom_site_type_symbol
_atom_site_label
_atom_site_fract_x
_atom_site_fract_y
_atom_site_fract_z
Si Si1 0.373948 0.454230 0.327840
Si Si2 0.271017 0.807591 0.828344
Si Si3 0.500000 0.701349 0.500000
Si Si4 0.094497 0.198641 0.334746
Si Si5 0.000000 0.617294 0.000000
Si Si6 0.217686 0.091230 0.009261
Si Si7 0.500000 0.598070 0.000000
Si Si8 0.773910 0.350763 0.193794
O O1 0.358811 0.596081 0.433302
O O2 0.220411 0.330914 0.369473
O O3 0.387451 0.506968 0.148176
O O4 0.583469 0.392136 0.318787
O O5 0.382453 0.789511 0.648280
O O6 0.056670 0.743499 0.861049
O O7 0.304758 0.960443 0.899417
O O8 0.356760 0.699121 0.937734
O O9 0.000000 0.123960 0.500000
O O10 0.926802 0.269382 0.267031
O O11 0.214368 0.100637 0.193841
O O12 0.132400 0.492446 0.893717
O O13 0.285944 0.242505 0.929642
O O14 0.000000 0.080399 0.000000
#
# Coordination Sequence:
#
# PCOD9112935 Si02
#       8
#     2   2   1   2   1   2   1   2
#     4  11  21  39  64  98 134 166 211 285 323 373
#     4  11  23  39  68  91 130 178 214 270 329 395
#     4  10  22  40  64 100 136 160 226 272 330 386
#     4  11  23  37  63  97 132 167 217 277 326 380
#     4  12  18  38  72  90 116 176 228 252 322 388
#     4  10  22  43  62  90 130 177 216 260 328 403
#     4  10  20  36  58  92 126 164 218 260 316 396
#     4  11  21  40  67  94 127 173 225 263 324 399
#
# _framework density 22.582699999999999
#
# number of rings (size 3 to 8) (size 9 to 14) (size 15 to 20)
#    0.000    1.231    6.154    2.769    0.000    1.231 
#    0.000   10.000    0.000    0.000    0.000    0.000 
#    0.000    0.000    0.000    0.000    0.000    0.000 
#
# Total GULP energy -72419.161383 kJ/mol
# GULP energy per Si atom -5570.704722 kJ/mol
# Density = 2.253130 g / cm^3
# Si number density = 22.582700 Si / 1000 Ang^3
#
#
#
# Elastic Constant Matrix: (Units=GPa)
#
#
# Indices 1 2 3 4 5 6 
#
# 1 44.9302 -19.2125 8.7908 0.0000 0.4548 0.0000
# 2 -19.2125 80.0305 64.1091 0.0000 -0.7337 0.0000
# 3 8.7908 64.1091 178.2396 0.0000 -14.5658 0.0000
# 4 0.0000 0.0000 0.0000 41.9630 0.0000 -9.2244
# 5 0.4548 -0.7337 -14.5658 0.0000 26.4284 0.0000
# 6 0.0000 0.0000 0.0000 -9.2244 0.0000 12.4629
#
#
#
# Elastic Compliance Matrix: (Units=1/GPa)
#
#
# Indices 1 2 3 4 5 6 
#
# 1 0.028279 0.011370 -0.005758 0.000000 -0.003344 0.000000
# 2 0.011370 0.022376 -0.008978 0.000000 -0.004523 0.000000
# 3 -0.005758 -0.008978 0.009541 0.000000 0.005108 0.000000
# 4 0.000000 0.000000 0.000000 0.028461 0.000000 0.021065
# 5 -0.003344 -0.004523 0.005108 0.000000 0.040585 0.000000
# 6 0.000000 0.000000 0.000000 0.021065 0.000000 0.095830
#
#
# Mechanical properties :
#
#
# Convention : Reuss Voigt Hill
#
# Bulk Modulus (GPa) = 18.70396 45.61946 32.16171
# Shear Modulus (GPa) = 20.03002 32.80506 26.41754
#
# Velocity S-wave (km/s) = 2.98142 3.81552 3.42396
# Velocity P-wave (km/s) = 4.48913 6.29729 5.46846
#
# Compressibility (1/GPa) = 0.05346462
#
# Stress axis : x y z
#
# Youngs Moduli (GPa) = 35.36166 44.69137 104.80839
#
# Poissons Ratio (x) = -0.50816 0.60346
# Poissons Ratio (y) = -0.40208 0.94102
# Poissons Ratio (z) = 0.20360 0.40126
#
# Static dielectric constant tensor:
#      x y z
#    x 1.249980 0.000000 0.063180 
#    y 0.000000 1.880450 0.000000 
#    z 0.063180 0.000000 1.884950 
# 
# From -- ./inp_files/5122.got.cif
#   From: 2010.05.17/outbox.cif.g08.bks.cpg/sg3_3_cif.got.tgz:5122.got - 2010.06.03 18:33:08.
