data_PCOD9112999
_publ_section_title
;
Structure prediction by ZEFSAII (Michael W. Deem and Ramdas Pophale) SiO2 
 PCOD9112999
Probable space group: P 2
;
_chemical_formula_sum "Si O2"
_cell_formula_units_Z 16
_cell_length_a 27.278716
_cell_length_b 6.410757
_cell_length_c 9.644820
_cell_angle_alpha 90.000000
_cell_angle_beta 26.887097
_cell_angle_gamma 90.000000
_cell_volume 762.764457
_symmetry_space_group_name_H-M "P 2"
_symmetry_group_IT_number 3
_symmetry_cell_setting 'monoclinic'
loop_
_space_group_symop_operation_xyz
x,y,z
-x,y,-z
loop_
_atom_site_type_symbol
_atom_site_label
_atom_site_fract_x
_atom_site_fract_y
_atom_site_fract_z
Si Si1 0.124956 0.416380 0.636933
Si Si2 0.690241 0.714411 0.760442
Si Si3 0.850164 0.576623 0.959385
Si Si4 0.518163 0.495859 0.797014
Si Si5 0.285496 0.216254 0.799061
Si Si6 0.081299 0.696970 0.495921
Si Si7 0.665396 0.842160 0.530023
Si Si8 0.781333 0.031785 0.735867
O O1 0.197065 0.584753 0.537485
O O2 0.121941 0.513572 0.490922
O O3 0.187382 0.199926 0.459925
O O4 0.000000 0.398336 0.000000
O O5 0.663858 0.869193 0.698723
O O6 0.704487 0.854812 0.861969
O O7 0.594326 0.541997 0.997477
O O8 0.850300 0.706945 0.816831
O O9 0.961977 0.629283 0.751424
O O10 0.820825 0.345118 0.983447
O O11 0.754431 0.660408 0.292617
O O12 0.608374 0.365606 0.485731
O O13 0.564960 0.726613 0.711991
O O14 0.500000 0.404593 0.000000
O O15 0.303278 0.037476 0.640461
O O16 0.267673 0.131726 0.000050
O O17 0.105577 0.913427 0.510575
#
# Coordination Sequence:
#
# PCOD9112999 Si02
#       8
#     2   2   2   2   2   2   2   2
#     4  11  24  42  64  92 136 176 218 261 327 397
#     4  10  24  44  67  95 136 176 214 268 340 396
#     4  10  20  37  64  92 128 170 212 268 329 375
#     4   9  22  43  68  95 128 170 219 278 328 386
#     4  11  22  41  71  99 130 166 223 283 325 390
#     4  10  21  39  60  90 134 170 212 265 325 380
#     4  10  21  40  67  96 127 167 221 271 325 385
#     4  11  24  42  66  97 136 172 220 271 325 404
#
# _framework density 20.976331999999999
#
# number of rings (size 3 to 8) (size 9 to 14) (size 15 to 20)
#    0.000    1.750    2.500    0.750    0.000   10.500 
#    0.000    3.750    0.000    0.000    0.000    0.000 
#    0.000    0.000    0.000    0.000    0.000    0.000 
#
# Total GULP energy -89142.213963 kJ/mol
# GULP energy per Si atom -5571.388373 kJ/mol
# Density = 2.092859 g / cm^3
# Si number density = 20.976332 Si / 1000 Ang^3
#
#
#
# Elastic Constant Matrix: (Units=GPa)
#
#
# Indices 1 2 3 4 5 6 
#
# 1 109.5960 39.2633 46.4745 0.0000 -4.2295 0.0000
# 2 39.2633 78.8697 28.5308 0.0000 0.1807 0.0000
# 3 46.4745 28.5308 80.4792 0.0000 -11.7154 0.0000
# 4 0.0000 0.0000 0.0000 32.7831 0.0000 7.6956
# 5 -4.2295 0.1807 -11.7154 0.0000 16.1278 0.0000
# 6 0.0000 0.0000 0.0000 7.6956 0.0000 19.4210
#
#
#
# Elastic Compliance Matrix: (Units=1/GPa)
#
#
# Indices 1 2 3 4 5 6 
#
# 1 0.013312 -0.004347 -0.006297 0.000000 -0.001034 0.000000
# 2 -0.004347 0.016245 -0.003848 0.000000 -0.004117 0.000000
# 3 -0.006297 -0.003848 0.019225 0.000000 0.012357 0.000000
# 4 0.000000 0.000000 0.000000 0.033632 0.000000 -0.013327
# 5 -0.001034 -0.004117 0.012357 0.000000 0.070756 0.000000
# 6 0.000000 0.000000 0.000000 -0.013327 0.000000 0.056771
#
#
# Mechanical properties :
#
#
# Convention : Reuss Voigt Hill
#
# Bulk Modulus (GPa) = 50.51057 55.27582 52.89320
# Shear Modulus (GPa) = 20.36468 23.97812 22.17140
#
# Velocity S-wave (km/s) = 3.11921 3.38465 3.25464
# Velocity P-wave (km/s) = 6.09136 6.45625 6.27646
#
# Compressibility (1/GPa) = 0.01979784
#
# Stress axis : x y z
#
# Youngs Moduli (GPa) = 75.12034 61.55915 52.01604
#
# Poissons Ratio (x) = 0.26758 0.32754
# Poissons Ratio (y) = 0.32653 0.20016
# Poissons Ratio (z) = 0.47302 0.23688
#
# Static dielectric constant tensor:
#      x y z
#    x 1.767770 0.000000 -0.014680 
#    y 0.000000 1.764850 0.000000 
#    z -0.014680 0.000000 1.808970 
# 
# From -- ./inp_files/8280.got.cif
#   From: 2010.05.17/outbox.cif.g08.bks.cpg/sg3_5_cif.got.tgz:8280.got - 2010.06.03 18:33:08.
