data_PCOD9112272
_publ_section_title
;
Structure prediction by ZEFSAII (Michael W. Deem and Ramdas Pophale) SiO2 
 PCOD9112272
Probable space group: P -1
;
_chemical_formula_sum "Si O2"
_cell_formula_units_Z 15
_cell_length_a 14.719057
_cell_length_b 7.254397
_cell_length_c 15.050258
_cell_angle_alpha 48.799624
_cell_angle_beta 153.556940
_cell_angle_gamma 119.423883
_cell_volume 514.644546
_symmetry_space_group_name_H-M "P -1"
_symmetry_group_IT_number 2
_symmetry_cell_setting 'triclinic'
loop_
_space_group_symop_operation_xyz
x,y,z
-x,-y,-z
loop_
_atom_site_type_symbol
_atom_site_label
_atom_site_fract_x
_atom_site_fract_y
_atom_site_fract_z
Si Si1 0.358811 0.355014 0.339686
Si Si2 0.000000 0.500000 0.500000
Si Si3 0.957372 0.251900 0.718218
Si Si4 0.814291 0.962247 0.473281
Si Si5 0.054583 0.579127 0.149966
Si Si6 0.773637 0.917809 0.240980
Si Si7 0.609101 0.927498 0.820177
Si Si8 0.470742 0.505997 0.204690
O O1 0.262025 0.521763 0.288176
O O2 0.447269 0.487708 0.295872
O O3 0.517407 0.099778 0.599222
O O4 0.150289 0.303022 0.128057
O O5 0.015840 0.448129 0.639111
O O6 0.259800 0.318025 0.767024
O O7 0.941992 0.270246 0.805368
O O8 0.708702 0.315511 0.455580
O O9 0.175930 0.021393 0.971040
O O10 0.937605 0.704158 0.715905
O O11 0.794614 0.918233 0.365296
O O12 0.582032 0.039851 0.288038
O O13 0.977924 0.138021 0.567247
O O14 0.615380 0.193712 0.990265
O O15 0.670678 0.638846 0.926721
#
# Coordination Sequence:
#
# PCOD9112272 Si02
#       8
#     2   1   2   2   2   2   2   2
#     4  10  22  44  77 103 144 198 246 305 363 429
#     4  12  28  48  68 110 152 186 242 310 376 438
#     4  12  27  45  70 107 150 194 245 300 371 436
#     4  10  21  43  77 104 139 201 246 297 378 435
#     4  10  20  45  73 105 142 191 250 301 364 433
#     4  11  24  44  74 106 146 190 248 310 364 447
#     4  11  25  46  73 108 151 195 247 304 361 442
#     4  12  26  45  72 112 147 193 248 301 369 443
#
# _framework density 29.146331
#
# number of rings (size 3 to 8) (size 9 to 14) (size 15 to 20)
#    0.000    1.067    4.000    1.200    3.733    4.267 
#    0.000    0.000    0.000    0.000    0.000    0.000 
#    0.000    0.000    0.000    0.000    0.000    0.000 
#
# Total GULP energy -83785.424234 kJ/mol
# GULP energy per Si atom -5585.694949 kJ/mol
# Density = 2.907999 g / cm^3
# Si number density = 29.146331 Si / 1000 Ang^3
#
#
#
# Elastic Constant Matrix: (Units=GPa)
#
#
# Indices 1 2 3 4 5 6 
#
# 1 211.6949 39.5113 83.1735 4.4096 -1.7166 -17.9893
# 2 39.5113 80.4245 46.0650 -2.6824 -6.1111 -10.5986
# 3 83.1735 46.0650 207.4274 -1.2908 -1.8265 -5.7662
# 4 4.4096 -2.6824 -1.2908 42.3709 0.3899 -6.1757
# 5 -1.7166 -6.1111 -1.8265 0.3899 76.0973 -0.8031
# 6 -17.9893 -10.5986 -5.7662 -6.1757 -0.8031 43.1138
#
#
#
# Elastic Compliance Matrix: (Units=1/GPa)
#
#
# Indices 1 2 3 4 5 6 
#
# 1 0.005962 -0.001573 -0.001996 -0.000524 -0.000018 0.001758
# 2 -0.001573 0.015256 -0.002655 0.001471 0.001150 0.002971
# 3 -0.001996 -0.002655 0.006193 0.000136 -0.000117 -0.000640
# 4 -0.000524 0.001471 0.000136 0.024283 0.000024 0.003640
# 5 -0.000018 0.001150 -0.000117 0.000024 0.013235 0.000509
# 6 0.001758 0.002971 -0.000640 0.003640 0.000509 0.025104
#
#
# Mechanical properties :
#
#
# Convention : Reuss Voigt Hill
#
# Bulk Modulus (GPa) = 66.83507 93.00514 79.92010
# Shear Modulus (GPa) = 46.52545 54.36954 50.44750
#
# Velocity S-wave (km/s) = 3.99967 4.32371 4.16484
# Velocity P-wave (km/s) = 6.65661 7.54354 7.11391
#
# Compressibility (1/GPa) = 0.01496221
#
# Stress axis : x y z
#
# Youngs Moduli (GPa) = 167.73854 65.54950 161.47465
#
# Poissons Ratio (x) = 0.10311 0.32226
# Poissons Ratio (y) = 0.26384 0.42877
# Poissons Ratio (z) = 0.33476 0.17406
#
# Static dielectric constant tensor:
#      x y z
#    x 2.263580 0.294400 -0.008610 
#    y 0.294400 -1.355850 1.505370 
#    z -0.008610 1.505370 1.779460 
# 
# From -- ./inp_files/529436.got.cif
#   From: 2010.05.17/outbox.cif.g08.bks.cpg/sg2_265_cif.got.tgz:529436.got - 2010.06.03 11:33:40.
