data_PCOD9112452
_publ_section_title
;
Structure prediction by ZEFSAII (Michael W. Deem and Ramdas Pophale) SiO2 
 PCOD9112452
Probable space group: P 2
;
_chemical_formula_sum "Si O2"
_cell_formula_units_Z 16
_cell_length_a 17.631260
_cell_length_b 5.305115
_cell_length_c 8.996604
_cell_angle_alpha 90.000000
_cell_angle_beta 120.631115
_cell_angle_gamma 90.000000
_cell_volume 724.086081
_symmetry_space_group_name_H-M "P 2"
_symmetry_group_IT_number 3
_symmetry_cell_setting 'monoclinic'
loop_
_space_group_symop_operation_xyz
x,y,z
-x,y,-z
loop_
_atom_site_type_symbol
_atom_site_label
_atom_site_fract_x
_atom_site_fract_y
_atom_site_fract_z
Si Si1 0.494976 0.850100 0.678481
Si Si2 0.913906 0.969514 0.257221
Si Si3 0.902683 0.179801 0.921930
Si Si4 0.117365 0.860528 0.394899
Si Si5 0.701681 0.990533 0.495239
Si Si6 0.731881 0.486393 0.707525
Si Si7 0.436917 0.351229 0.288848
Si Si8 0.104743 0.467056 0.599217
O O1 0.500000 0.824321 0.500000
O O2 0.399088 0.928421 0.640495
O O3 0.520452 0.576253 0.760897
O O4 0.560864 0.076716 0.779816
O O5 0.871129 0.202193 0.304998
O O6 0.022818 0.945345 0.371751
O O7 0.874297 0.706900 0.275622
O O8 0.895896 0.030315 0.068460
O O9 0.893050 0.977385 0.779385
O O10 0.829448 0.396538 0.845903
O O11 0.000000 0.294677 0.000000
O O12 0.215615 0.960513 0.532172
O O13 0.124665 0.565141 0.451205
O O14 0.722456 0.769540 0.638291
O O15 0.703821 0.274466 0.558354
O O16 0.659890 0.439498 0.762461
O O17 0.500000 0.323793 0.500000
O O18 0.000000 0.449322 0.500000
#
# Coordination Sequence:
#
# PCOD9112452 Si02
#       8
#     2   2   2   2   2   2   2   2
#     4  10  15  26  43  65 103 142 167 208 283 354
#     4  10  21  38  56  75 108 151 192 233 286 348
#     4   9  21  38  54  81 117 151 189 238 295 347
#     4   9  21  36  56  83 110 143 193 245 291 339
#     4  11  19  29  47  76 107 142 173 229 287 346
#     4  11  19  30  47  71 105 150 177 221 278 352
#     4  10  15  26  43  65  99 140 175 210 274 347
#     4  10  20  37  59  76 101 147 199 242 284 337
#
# _framework density 22.096819
#
# number of rings (size 3 to 8) (size 9 to 14) (size 15 to 20)
#    0.000    2.000    5.000    1.125    0.000   10.000 
#    0.000    6.875    0.000    0.000    0.000    0.000 
#    0.000    6.000    0.000    0.000    0.000    0.000 
#
# Total GULP energy -89098.913765 kJ/mol
# GULP energy per Si atom -5568.682110 kJ/mol
# Density = 2.204653 g / cm^3
# Si number density = 22.096819 Si / 1000 Ang^3
#
#
#
# Elastic Constant Matrix: (Units=GPa)
#
#
# Indices 1 2 3 4 5 6 
#
# 1 98.1097 1.1936 27.6582 0.0000 4.4018 0.0000
# 2 1.1936 104.6824 11.5797 0.0000 -10.8060 0.0000
# 3 27.6582 11.5797 28.5277 0.0000 -8.5542 0.0000
# 4 0.0000 0.0000 0.0000 6.0792 0.0000 2.0543
# 5 4.4018 -10.8060 -8.5542 0.0000 21.0295 0.0000
# 6 0.0000 0.0000 0.0000 2.0543 0.0000 33.3502
#
#
#
# Elastic Compliance Matrix: (Units=1/GPa)
#
#
# Indices 1 2 3 4 5 6 
#
# 1 0.016049 0.000825 -0.019105 0.000000 -0.010707 0.000000
# 2 0.000825 0.010344 -0.003937 0.000000 0.003541 0.000000
# 3 -0.019105 -0.003937 0.063514 0.000000 0.027812 0.000000
# 4 0.000000 0.000000 0.000000 0.167991 0.000000 -0.010348
# 5 -0.010707 0.003541 0.027812 0.000000 0.062926 0.000000
# 6 0.000000 0.000000 0.000000 -0.010348 0.000000 0.030622
#
#
# Mechanical properties :
#
#
# Convention : Reuss Voigt Hill
#
# Bulk Modulus (GPa) = 21.99093 34.68697 28.33895
# Shear Modulus (GPa) = 12.16431 24.81769 18.49100
#
# Velocity S-wave (km/s) = 2.34882 3.35495 2.89592
# Velocity P-wave (km/s) = 4.16289 5.54432 4.90250
#
# Compressibility (1/GPa) = 0.04547330
#
# Stress axis : x y z
#
# Youngs Moduli (GPa) = 62.30931 96.67118 15.74453
#
# Poissons Ratio (x) = -0.07977 0.30080
# Poissons Ratio (y) = -0.05141 0.06199
# Poissons Ratio (z) = 1.19043 0.38059
#
# Static dielectric constant tensor:
#      x y z
#    x 1.864880 0.000000 -0.033730 
#    y 0.000000 1.878330 0.000000 
#    z -0.033730 0.000000 1.901590 
# 
# From -- ./inp_files/8913.got.cif
#   From: 2010.05.17/outbox.cif.g08.bks.cpg/sg3_5_cif.got.tgz:8913.got - 2010.06.03 18:33:08.
