data_PCOD9112366
_publ_section_title
;
Structure prediction by ZEFSAII (Michael W. Deem and Ramdas Pophale) SiO2 
 PCOD9112366
Probable space group: P -1
;
_chemical_formula_sum "Si O2"
_cell_formula_units_Z 11
_cell_length_a 7.520441
_cell_length_b 13.732831
_cell_length_c 5.082791
_cell_angle_alpha 61.365704
_cell_angle_beta 66.061674
_cell_angle_gamma 60.153484
_cell_volume 389.858454
_symmetry_space_group_name_H-M "P -1"
_symmetry_group_IT_number 2
_symmetry_cell_setting 'triclinic'
loop_
_space_group_symop_operation_xyz
x,y,z
-x,-y,-z
loop_
_atom_site_type_symbol
_atom_site_label
_atom_site_fract_x
_atom_site_fract_y
_atom_site_fract_z
Si Si1 0.277239 0.828433 0.648641
Si Si2 0.520461 0.700317 0.179182
Si Si3 0.120673 0.311116 0.728835
Si Si4 0.881142 0.924089 0.035639
Si Si5 0.500000 0.000000 0.500000
Si Si6 0.284362 0.487462 0.065809
O O1 0.361602 0.742859 0.459657
O O2 0.371714 0.931196 0.488891
O O3 0.024837 0.880281 0.745601
O O4 0.382111 0.748712 0.943524
O O5 0.699515 0.751297 0.079819
O O6 0.782225 0.611078 0.609346
O O7 0.667133 0.561849 0.199245
O O8 0.096235 0.207321 0.701959
O O9 0.911230 0.392968 0.898165
O O10 0.644953 0.999919 0.157456
O O11 0.000000 0.000000 0.000000
O O12 0.500000 0.500000 0.000000
#
# Coordination Sequence:
#
# PCOD9112366 Si02
#       6
#     2   2   2   2   1   2
#     4  11  25  45  73 106 149 191 245 302 362 440
#     4  12  23  49  71 108 148 191 241 306 365 435
#     4  11  24  46  73 109 146 193 245 303 365 437
#     4  10  22  46  74 108 144 194 242 302 365 438
#     4  10  20  48  72 104 144 192 248 298 366 422
#     4  11  25  47  75 107 148 195 245 304 367 437
#
# _framework density 28.215368000000002
#
# number of rings (size 3 to 8) (size 9 to 14) (size 15 to 20)
#    0.000    1.091    3.636    1.636    0.000    1.455 
#   13.091    4.545    0.000    0.000    0.000    0.000 
#    0.000    0.000    0.000    0.000    0.000    0.000 
#
# Total GULP energy -61269.222857 kJ/mol
# GULP energy per Si atom -5569.929351 kJ/mol
# Density = 2.815115 g / cm^3
# Si number density = 28.215368 Si / 1000 Ang^3
#
#
#
# Elastic Constant Matrix: (Units=GPa)
#
#
# Indices 1 2 3 4 5 6 
#
# 1 116.7000 39.8719 77.8999 2.6648 -24.0706 1.0464
# 2 39.8719 167.7792 63.3860 21.2146 7.0436 14.5010
# 3 77.8999 63.3860 196.9778 51.9746 -12.8112 -1.9681
# 4 2.6648 21.2146 51.9746 69.5108 12.0169 -11.7212
# 5 -24.0706 7.0436 -12.8112 12.0169 57.2996 1.8837
# 6 1.0464 14.5010 -1.9681 -11.7212 1.8837 52.0963
#
#
#
# Elastic Compliance Matrix: (Units=1/GPa)
#
#
# Indices 1 2 3 4 5 6 
#
# 1 0.013554 -0.001839 -0.005441 0.003546 0.003937 0.000689
# 2 -0.001839 0.007366 -0.001466 -0.001173 -0.001685 -0.002272
# 3 -0.005441 -0.001466 0.009618 -0.006922 0.001521 -0.000732
# 4 0.003546 -0.001173 -0.006922 0.021413 -0.004568 0.004977
# 5 0.003937 -0.001685 0.001521 -0.004568 0.020655 -0.001327
# 6 0.000689 -0.002272 -0.000732 0.004977 -0.001327 0.020954
#
#
# Mechanical properties :
#
#
# Convention : Reuss Voigt Hill
#
# Bulk Modulus (GPa) = 76.64445 93.75253 85.19849
# Shear Modulus (GPa) = 43.32665 55.80129 49.56397
#
# Velocity S-wave (km/s) = 3.92288 4.45195 4.19576
# Velocity P-wave (km/s) = 6.90954 7.72826 7.33034
#
# Compressibility (1/GPa) = 0.01304726
#
# Stress axis : x y z
#
# Youngs Moduli (GPa) = 73.77717 135.75020 103.96640
#
# Poissons Ratio (x) = 0.24959 0.56572
# Poissons Ratio (y) = 0.13565 0.15242
# Poissons Ratio (z) = 0.40145 0.19901
#
# Static dielectric constant tensor:
#      x y z
#    x 2.242360 -0.050650 0.069690 
#    y -0.050650 2.303940 -0.083950 
#    z 0.069690 -0.083950 2.207920 
# 
# From -- ./inp_files/29907.got.cif
#   From: 2010.05.17/outbox.cif.g08.bks.cpg/sg2_15_cif.got.tgz:29907.got - 2010.06.03 11:33:40.
