data_PCOD9112463
_publ_section_title
;
Structure prediction by ZEFSAII (Michael W. Deem and Ramdas Pophale) SiO2 
 PCOD9112463
Probable space group: P 2
;
_chemical_formula_sum "Si O2"
_cell_formula_units_Z 16
_cell_length_a 21.152844
_cell_length_b 9.471047
_cell_length_c 9.087551
_cell_angle_alpha 90.000000
_cell_angle_beta 150.769616
_cell_angle_gamma 90.000000
_cell_volume 889.038066
_symmetry_space_group_name_H-M "P 2"
_symmetry_group_IT_number 3
_symmetry_cell_setting 'monoclinic'
loop_
_space_group_symop_operation_xyz
x,y,z
-x,y,-z
loop_
_atom_site_type_symbol
_atom_site_label
_atom_site_fract_x
_atom_site_fract_y
_atom_site_fract_z
Si Si1 0.338088 0.009490 0.916450
Si Si2 0.742992 0.002397 0.578251
Si Si3 0.036929 0.791086 0.911480
Si Si4 0.870190 0.906615 0.318037
Si Si5 0.402081 0.503829 0.436985
Si Si6 0.528054 0.766747 0.219343
Si Si7 0.864774 0.621662 0.142674
Si Si8 0.446579 0.231308 0.724270
O O1 0.261188 0.025504 0.605970
O O2 0.243816 0.009370 0.865035
O O3 0.447644 0.129646 0.138762
O O4 0.409572 0.857753 0.045395
O O5 0.687991 0.144446 0.538194
O O6 0.636525 0.883867 0.403432
O O7 0.875100 0.931667 0.897853
O O8 0.105501 0.662389 0.965817
O O9 0.918104 0.834510 0.566884
O O10 0.000000 0.749920 0.000000
O O11 0.824042 0.774830 0.126264
O O12 0.000000 0.962795 0.500000
O O13 0.500000 0.495137 0.500000
O O14 0.428744 0.647633 0.581128
O O15 0.426754 0.373862 0.595855
O O16 0.252739 0.514496 0.081633
O O17 0.500000 0.704200 0.000000
O O18 0.000000 0.584562 0.500000
O O19 0.500000 0.251160 0.000000
#
# Coordination Sequence:
#
# PCOD9112463 Si02
#       8
#     2   2   2   2   2   2   2   2
#     4   9  16  33  55  83 112 137 175 234 289 328
#     4   9  16  32  56  84 108 134 177 234 281 328
#     4  10  16  29  57  89 107 138 181 227 278 343
#     4   9  18  30  49  84 115 144 171 228 283 332
#     4  12  22  37  56  82 111 157 195 228 270 336
#     4   9  18  31  57  86 106 135 181 235 287 330
#     4   9  21  37  54  81 122 149 180 237 289 322
#     4   9  21  38  56  77 113 148 182 237 284 320
#
# _framework density 17.996979
#
# number of rings (size 3 to 8) (size 9 to 14) (size 15 to 20)
#    0.000    2.750    2.500    2.625    0.000    0.000 
#    4.500    1.250    2.750    0.750    0.000    0.000 
#    0.000    0.000    0.000    0.000    0.000    0.000 
#
# Total GULP energy -89141.342609 kJ/mol
# GULP energy per Si atom -5571.333913 kJ/mol
# Density = 1.795602 g / cm^3
# Si number density = 17.996979 Si / 1000 Ang^3
#
#
#
# Elastic Constant Matrix: (Units=GPa)
#
#
# Indices 1 2 3 4 5 6 
#
# 1 132.7404 37.1892 34.7748 0.0000 9.2823 0.0000
# 2 37.1892 57.3572 28.1897 0.0000 4.9779 0.0000
# 3 34.7748 28.1897 61.6796 0.0000 3.4216 0.0000
# 4 0.0000 0.0000 0.0000 19.2227 0.0000 -4.1285
# 5 9.2823 4.9779 3.4216 0.0000 22.3064 0.0000
# 6 0.0000 0.0000 0.0000 -4.1285 0.0000 10.5512
#
#
#
# Elastic Compliance Matrix: (Units=1/GPa)
#
#
# Indices 1 2 3 4 5 6 
#
# 1 0.009858 -0.004522 -0.003348 0.000000 -0.002579 0.000000
# 2 -0.004522 0.024830 -0.008669 0.000000 -0.002329 0.000000
# 3 -0.003348 -0.008669 0.022066 0.000000 -0.000057 0.000000
# 4 0.000000 0.000000 0.000000 0.056794 0.000000 0.022223
# 5 -0.002579 -0.002329 -0.000057 0.000000 0.046432 0.000000
# 6 0.000000 0.000000 0.000000 0.022223 0.000000 0.103471
#
#
# Mechanical properties :
#
#
# Convention : Reuss Voigt Hill
#
# Bulk Modulus (GPa) = 42.23969 50.23161 46.23565
# Shear Modulus (GPa) = 16.42460 20.52430 18.47445
#
# Velocity S-wave (km/s) = 3.02426 3.38069 3.20743
# Velocity P-wave (km/s) = 5.97630 6.57347 6.28199
#
# Compressibility (1/GPa) = 0.02367442
#
# Stress axis : x y z
#
# Youngs Moduli (GPa) = 101.44076 40.27448 45.31948
#
# Poissons Ratio (x) = 0.18214 0.15173
# Poissons Ratio (y) = 0.45876 0.39288
# Poissons Ratio (z) = 0.33961 0.34914
#
# Static dielectric constant tensor:
#      x y z
#    x 1.655450 0.000000 0.018760 
#    y 0.000000 1.577540 0.000000 
#    z 0.018760 0.000000 1.658990 
# 
# From -- ./inp_files/7199.got.cif
#   From: 2010.05.17/outbox.cif.g08.bks.cpg/sg3_4_cif.got.tgz:7199.got - 2010.06.03 18:33:08.
