data_PCOD9112382
_publ_section_title
;
Structure prediction by ZEFSAII (Michael W. Deem and Ramdas Pophale) SiO2 
 PCOD9112382
Probable space group: P -1
;
_chemical_formula_sum "Si O2"
_cell_formula_units_Z 14
_cell_length_a 5.194827
_cell_length_b 11.812751
_cell_length_c 13.139496
_cell_angle_alpha 99.454923
_cell_angle_beta 102.573416
_cell_angle_gamma 71.885885
_cell_volume 743.902224
_symmetry_space_group_name_H-M "P -1"
_symmetry_group_IT_number 2
_symmetry_cell_setting 'triclinic'
loop_
_space_group_symop_operation_xyz
x,y,z
-x,-y,-z
loop_
_atom_site_type_symbol
_atom_site_label
_atom_site_fract_x
_atom_site_fract_y
_atom_site_fract_z
Si Si1 0.423650 0.964613 0.617449
Si Si2 0.945874 0.746106 0.643631
Si Si3 0.097831 0.055575 0.789896
Si Si4 0.358299 0.839010 0.398197
Si Si5 0.076246 0.831478 0.877370
Si Si6 0.533555 0.360780 0.472442
Si Si7 0.379083 0.142132 0.994109
O O1 0.738757 0.880215 0.627009
O O2 0.275713 0.912113 0.508234
O O3 0.312051 0.962669 0.720667
O O4 0.408972 0.101495 0.612433
O O5 0.731349 0.667032 0.606329
O O6 0.074033 0.752585 0.766047
O O7 0.190211 0.700416 0.577309
O O8 0.863749 0.128402 0.704679
O O9 0.003717 0.970670 0.851037
O O10 0.238985 0.144392 0.872660
O O11 0.444790 0.704302 0.425130
O O12 0.367681 0.805543 0.955809
O O13 0.850699 0.815074 0.933734
O O14 0.500000 0.500000 0.500000
O O15 0.500000 0.000000 0.000000
#
# Coordination Sequence:
#
# PCOD9112382 Si02
#       7
#     2   2   2   2   2   2   2
#     4  10  21  32  52  86 114 146 182 215 273 344
#     4  11  21  38  61  79 112 149 180 226 275 326
#     4  11  20  31  51  79 121 151 179 220 272 330
#     4  10  22  32  55  78 115 150 180 220 275 331
#     4  11  20  34  51  80 110 150 184 215 269 330
#     4  11  25  41  57  83 111 144 188 229 271 326
#     4  10  21  31  48  75 118 152 178 216 265 326
#
# _framework density 18.819678
#
# number of rings (size 3 to 8) (size 9 to 14) (size 15 to 20)
#    0.000    1.429    1.429    6.857    8.000    0.000 
#    0.000    0.000    0.000    0.000    0.000    6.000 
#    0.000    0.000    0.000    0.000    0.000    0.000 
#
# Total GULP energy -78101.773156 kJ/mol
# GULP energy per Si atom -5578.698083 kJ/mol
# Density = 1.877684 g / cm^3
# Si number density = 18.819678 Si / 1000 Ang^3
#
#
#
# Elastic Constant Matrix: (Units=GPa)
#
#
# Indices 1 2 3 4 5 6 
#
# 1 74.4204 9.6400 14.2740 -0.8510 14.6526 11.1391
# 2 9.6400 72.2198 11.2750 -6.2562 10.1166 20.2137
# 3 14.2740 11.2750 97.1998 -7.1076 32.2690 0.9540
# 4 -0.8510 -6.2562 -7.1076 9.6043 -1.2003 2.8431
# 5 14.6526 10.1166 32.2690 -1.2003 46.5711 4.6434
# 6 11.1391 20.2137 0.9540 2.8431 4.6434 18.3037
#
#
#
# Elastic Compliance Matrix: (Units=1/GPa)
#
#
# Indices 1 2 3 4 5 6 
#
# 1 0.015892 0.002423 -0.000923 0.005492 -0.003523 -0.012258
# 2 0.002423 0.025337 -0.000400 0.025921 -0.002036 -0.032945
# 3 -0.000923 -0.000400 0.014197 0.008607 -0.009367 0.001303
# 4 0.005492 0.025921 0.008607 0.143183 -0.004291 -0.053569
# 5 -0.003523 -0.002036 -0.009367 -0.004291 0.029599 -0.001961
# 6 -0.012258 -0.032945 0.001303 -0.053569 -0.001961 0.107227
#
#
# Mechanical properties :
#
#
# Convention : Reuss Voigt Hill
#
# Bulk Modulus (GPa) = 17.35365 34.91312 26.13338
# Shear Modulus (GPa) = 14.18671 28.80590 21.49630
#
# Velocity S-wave (km/s) = 2.74856 3.91657 3.38335
# Velocity P-wave (km/s) = 4.39475 6.24855 5.40177
#
# Compressibility (1/GPa) = 0.05762475
#
# Stress axis : x y z
#
# Youngs Moduli (GPa) = 62.92634 39.46753 70.43966
#
# Poissons Ratio (x) = -0.09564 0.06504
# Poissons Ratio (y) = -0.15248 0.02818
# Poissons Ratio (z) = 0.05811 0.01579
#
# Static dielectric constant tensor:
#      x y z
#    x 1.743440 0.011890 0.025820 
#    y 0.011890 1.646450 -0.005140 
#    z 0.025820 -0.005140 1.712430 
# 
# From -- ./inp_files/63894.got.cif
#   From: 2010.05.17/outbox.cif.g08.bks.cpg/sg2_32_cif.got.tgz:63894.got - 2010.06.03 11:33:40.
