data_PCOD9112682
_publ_section_title
;
Structure prediction by ZEFSAII (Michael W. Deem and Ramdas Pophale) SiO2 
 PCOD9112682
Probable space group: P 2
;
_chemical_formula_sum "Si O2"
_cell_formula_units_Z 16
_cell_length_a 8.397477
_cell_length_b 12.504316
_cell_length_c 9.165228
_cell_angle_alpha 90.000000
_cell_angle_beta 123.255971
_cell_angle_gamma 90.000000
_cell_volume 804.780171
_symmetry_space_group_name_H-M "P 2"
_symmetry_group_IT_number 3
_symmetry_cell_setting 'monoclinic'
loop_
_space_group_symop_operation_xyz
x,y,z
-x,y,-z
loop_
_atom_site_type_symbol
_atom_site_label
_atom_site_fract_x
_atom_site_fract_y
_atom_site_fract_z
Si Si1 0.830336 0.512800 0.300364
Si Si2 0.300358 0.923018 0.984121
Si Si3 0.710538 0.284641 0.178078
Si Si4 0.212051 0.089239 0.172019
Si Si5 0.451772 0.533201 0.305614
Si Si6 0.540541 0.291306 0.688544
Si Si7 0.976440 0.081797 0.315906
Si Si8 0.296424 0.675958 0.985427
O O1 0.798227 0.401621 0.197578
O O2 0.645615 0.531547 0.308754
O O3 0.842139 0.608192 0.189272
O O4 0.000000 0.504487 0.500000
O O5 0.309108 0.989524 0.139578
O O6 0.500000 0.929108 0.000000
O O7 0.246912 0.799737 0.980067
O O8 0.146159 0.983057 0.806710
O O9 0.656108 0.282579 0.321904
O O10 0.854302 0.188941 0.218730
O O11 0.500000 0.276605 0.000000
O O12 0.322042 0.197423 0.191892
O O13 0.173958 0.081038 0.325554
O O14 0.000000 0.094172 0.000000
O O15 0.500000 0.554594 0.500000
O O16 0.377648 0.411064 0.253961
O O17 0.321716 0.616893 0.153300
O O18 0.500000 0.276129 0.500000
O O19 0.000000 0.075703 0.500000
O O20 0.500000 0.673210 0.000000
#
# Coordination Sequence:
#
# PCOD9112682 Si02
#       8
#     2   2   2   2   2   2   2   2
#     4  10  20  35  57  86 115 144 182 229 281 334
#     4  10  21  39  59  77 106 149 194 230 274 338
#     4  11  20  34  57  82 113 151 186 219 272 344
#     4  10  21  36  54  79 112 142 179 228 275 325
#     4   9  19  37  57  82 113 146 184 228 274 333
#     4  10  19  33  54  80 111 142 175 219 271 332
#     4  11  22  36  56  83 115 145 183 236 286 329
#     4   9  19  38  60  79 106 149 192 229 276 335
#
# _framework density 19.881205000000001
#
# number of rings (size 3 to 8) (size 9 to 14) (size 15 to 20)
#    0.000    2.000    0.000    5.625    0.000    2.500 
#    0.000    8.750    0.000    0.000    0.000    0.000 
#    0.000    0.000    0.000    0.000    0.000    0.000 
#
# Total GULP energy -89300.469117 kJ/mol
# GULP energy per Si atom -5581.279320 kJ/mol
# Density = 1.983595 g / cm^3
# Si number density = 19.881205 Si / 1000 Ang^3
#
#
#
# Elastic Constant Matrix: (Units=GPa)
#
#
# Indices 1 2 3 4 5 6 
#
# 1 47.1845 51.2345 22.3868 0.0000 -15.6368 0.0000
# 2 51.2345 182.9136 71.2382 0.0000 -10.3800 0.0000
# 3 22.3868 71.2382 104.2011 0.0000 -22.4308 0.0000
# 4 0.0000 0.0000 0.0000 9.4429 0.0000 -2.0462
# 5 -15.6368 -10.3800 -22.4308 0.0000 33.6358 0.0000
# 6 0.0000 0.0000 0.0000 -2.0462 0.0000 9.9554
#
#
#
# Elastic Compliance Matrix: (Units=1/GPa)
#
#
# Indices 1 2 3 4 5 6 
#
# 1 0.036227 -0.010266 0.002544 0.000000 0.015370 0.000000
# 2 -0.010266 0.010408 -0.006125 0.000000 -0.005645 0.000000
# 3 0.002544 -0.006125 0.015279 0.000000 0.009481 0.000000
# 4 0.000000 0.000000 0.000000 0.110836 0.000000 0.022781
# 5 0.015370 -0.005645 0.009481 0.000000 0.041456 0.000000
# 6 0.000000 0.000000 0.000000 0.022781 0.000000 0.105130
#
#
# Mechanical properties :
#
#
# Convention : Reuss Voigt Hill
#
# Bulk Modulus (GPa) = 29.22324 69.33537 49.27931
# Shear Modulus (GPa) = 13.94950 23.23614 18.59282
#
# Velocity S-wave (km/s) = 2.65173 3.42241 3.06141
# Velocity P-wave (km/s) = 4.90982 7.11110 6.11040
#
# Compressibility (1/GPa) = 0.03421933
#
# Stress axis : x y z
#
# Youngs Moduli (GPa) = 27.60379 96.08344 65.45056
#
# Poissons Ratio (x) = 0.98637 -0.16649
# Poissons Ratio (y) = 0.28337 0.40088
# Poissons Ratio (z) = -0.07022 0.58851
#
# Static dielectric constant tensor:
#      x y z
#    x 1.728880 0.000000 -0.027920 
#    y 0.000000 1.697760 0.000000 
#    z -0.027920 0.000000 1.743280 
# 
# From -- ./inp_files/5996.got.cif
#   From: 2010.05.17/outbox.cif.g08.bks.cpg/sg3_3_cif.got.tgz:5996.got - 2010.06.03 18:33:08.
