data_PCOD9112911
_publ_section_title
;
Structure prediction by ZEFSAII (Michael W. Deem and Ramdas Pophale) SiO2 
 PCOD9112911
Probable space group: P 2
;
_chemical_formula_sum "Si O2"
_cell_formula_units_Z 16
_cell_length_a 8.603574
_cell_length_b 9.500760
_cell_length_c 20.164868
_cell_angle_alpha 90.000000
_cell_angle_beta 30.173369
_cell_angle_gamma 90.000000
_cell_volume 828.458621
_symmetry_space_group_name_H-M "P 2"
_symmetry_group_IT_number 3
_symmetry_cell_setting 'monoclinic'
loop_
_space_group_symop_operation_xyz
x,y,z
-x,y,-z
loop_
_atom_site_type_symbol
_atom_site_label
_atom_site_fract_x
_atom_site_fract_y
_atom_site_fract_z
Si Si1 0.860065 0.897040 0.363400
Si Si2 0.749800 0.506717 0.045365
Si Si3 0.646849 0.193267 0.124437
Si Si4 0.911988 0.085950 0.605743
Si Si5 0.057221 0.577462 0.292362
Si Si6 0.933065 0.394563 0.207506
Si Si7 0.753094 0.107352 0.857660
Si Si8 0.801783 0.384140 0.506190
O O1 0.500000 0.925353 0.500000
O O2 0.918854 0.732101 0.336908
O O3 0.019771 0.960473 0.369836
O O4 0.003700 0.989521 0.251769
O O5 0.663861 0.361647 0.115386
O O6 0.428930 0.587898 0.159704
O O7 0.000000 0.580900 0.000000
O O8 0.901475 0.458950 0.919181
O O9 0.443000 0.135007 0.259381
O O10 0.445043 0.153045 0.134171
O O11 0.000000 0.142793 0.000000
O O12 0.000000 0.044750 0.500000
O O13 0.107333 0.226729 0.552099
O O14 0.999224 0.489492 0.247183
O O15 0.904508 0.493256 0.410771
O O16 0.560452 0.388051 0.341471
O O17 0.084982 0.242744 0.168319
O O18 0.500000 0.046406 0.000000
O O19 0.000000 0.408337 0.500000
#
# Coordination Sequence:
#
# PCOD9112911 Si02
#       8
#     2   2   2   2   2   2   2   2
#     4  11  25  42  60  86 126 170 204 251 304 366
#     4  11  22  39  64  94 125 155 200 263 319 365
#     4  10  20  35  60  91 124 156 192 252 312 363
#     4  10  22  40  62  92 122 158 205 256 308 365
#     4  12  23  43  60  89 127 166 212 252 305 368
#     4  12  22  38  66  93 122 159 206 263 315 366
#     4  11  21  39  61  93 120 159 205 257 309 366
#     4  11  23  38  64  96 122 157 209 262 312 366
#
# _framework density 19.312974000000001
#
# number of rings (size 3 to 8) (size 9 to 14) (size 15 to 20)
#    0.000    1.000    3.750    3.750    5.250    2.500 
#    0.000    3.750    0.000    0.000    0.000    0.000 
#    0.000    0.000    0.000    0.000    0.000    0.000 
#
# Total GULP energy -89375.834892 kJ/mol
# GULP energy per Si atom -5585.989681 kJ/mol
# Density = 1.926902 g / cm^3
# Si number density = 19.312974 Si / 1000 Ang^3
#
#
#
# Elastic Constant Matrix: (Units=GPa)
#
#
# Indices 1 2 3 4 5 6 
#
# 1 62.9316 -1.4583 33.6211 0.0000 -1.7678 0.0000
# 2 -1.4583 59.2372 19.1605 0.0000 12.8827 0.0000
# 3 33.6211 19.1605 157.8028 0.0000 -7.6087 0.0000
# 4 0.0000 0.0000 0.0000 26.4395 0.0000 -7.1954
# 5 -1.7678 12.8827 -7.6087 0.0000 47.1015 0.0000
# 6 0.0000 0.0000 0.0000 -7.1954 0.0000 2.2710
#
#
#
# Elastic Compliance Matrix: (Units=1/GPa)
#
#
# Indices 1 2 3 4 5 6 
#
# 1 0.018117 0.001885 -0.004113 0.000000 -0.000500 0.000000
# 2 0.001885 0.019124 -0.002996 0.000000 -0.005644 0.000000
# 3 -0.004113 -0.002996 0.007669 0.000000 0.001904 0.000000
# 4 0.000000 0.000000 0.000000 0.274626 0.000000 0.870135
# 5 -0.000500 -0.005644 0.001904 0.000000 0.023063 0.000000
# 6 0.000000 0.000000 0.000000 0.870135 0.000000 3.197311
#
#
# Mechanical properties :
#
#
# Convention : Reuss Voigt Hill
#
# Bulk Modulus (GPa) = 29.01676 42.51313 35.76494
# Shear Modulus (GPa) = 1.40377 30.40561 15.90469
#
# Velocity S-wave (km/s) = 0.85348 3.97213 2.87282
# Velocity P-wave (km/s) = 4.00354 6.56487 5.43718
#
# Compressibility (1/GPa) = 0.03446284
#
# Stress axis : x y z
#
# Youngs Moduli (GPa) = 55.19589 52.29002 130.39706
#
# Poissons Ratio (x) = -0.09857 0.53633
# Poissons Ratio (y) = -0.10405 0.39065
# Poissons Ratio (z) = 0.22702 0.15665
#
# Static dielectric constant tensor:
#      x y z
#    x 1.678600 0.000000 0.007860 
#    y 0.000000 1.631850 0.000000 
#    z 0.007860 0.000000 1.699970 
# 
# From -- ./inp_files/15820.got.cif
#   From: 2010.05.17/outbox.cif.g08.bks.cpg/sg3_8_cif.got.tgz:15820.got - 2010.06.03 18:33:08.
