data_PCOD9112130
_publ_section_title
;
Structure prediction by ZEFSAII (Michael W. Deem and Ramdas Pophale) SiO2 
 PCOD9112130
Probable space group: P -1
;
_chemical_formula_sum "Si O2"
_cell_formula_units_Z 15
_cell_length_a 9.022423
_cell_length_b 19.606083
_cell_length_c 11.734980
_cell_angle_alpha 30.916698
_cell_angle_beta 142.553228
_cell_angle_gamma 131.960116
_cell_volume 647.971505
_symmetry_space_group_name_H-M "P -1"
_symmetry_group_IT_number 2
_symmetry_cell_setting 'triclinic'
loop_
_space_group_symop_operation_xyz
x,y,z
-x,-y,-z
loop_
_atom_site_type_symbol
_atom_site_label
_atom_site_fract_x
_atom_site_fract_y
_atom_site_fract_z
Si Si1 0.114812 0.785870 0.097595
Si Si2 0.584813 0.360971 0.805454
Si Si3 0.207533 0.962400 0.090222
Si Si4 0.000000 0.500000 0.500000
Si Si5 0.432848 0.100577 0.419559
Si Si6 0.535898 0.386917 0.010590
Si Si7 0.109478 0.401588 0.109944
Si Si8 0.384086 0.188962 0.742350
O O1 0.341142 0.842069 0.086913
O O2 0.125313 0.626973 0.328117
O O3 0.156876 0.822206 0.203953
O O4 0.851300 0.855061 0.811079
O O5 0.500000 0.500000 0.500000
O O6 0.544453 0.364210 0.911092
O O7 0.419412 0.259908 0.783761
O O8 0.876443 0.342339 0.991456
O O9 0.464464 0.962465 0.311496
O O10 0.217378 0.067391 0.843005
O O11 0.000000 0.000000 0.000000
O O12 0.733969 0.556583 0.212857
O O13 0.500000 0.000000 0.500000
O O14 0.573243 0.238715 0.294139
O O15 0.725054 0.497810 0.002283
O O16 0.264885 0.287452 0.434117
O O17 0.000000 0.500000 0.000000
#
# Coordination Sequence:
#
# PCOD9112130 Si02
#       8
#     2   2   2   1   2   2   2   2
#     4  11  25  48  71 103 146 182 234 301 354 415
#     4  11  21  37  66 101 134 183 230 286 353 419
#     4  12  28  45  73 102 137 195 242 281 357 432
#     4  10  20  44  70  98 146 182 218 292 364 410
#     4  11  24  46  68 101 139 188 237 288 347 424
#     4  10  21  41  68 100 143 178 231 294 349 419
#     4  10  21  39  64 102 139 178 230 289 348 414
#     4  12  25  45  69 105 141 182 237 299 354 416
#
# _framework density 23.149166999999998
#
# number of rings (size 3 to 8) (size 9 to 14) (size 15 to 20)
#    0.000    1.067    5.333    1.200    5.600    2.667 
#    2.400    1.333    0.000    0.000    0.000    0.000 
#    0.000    0.000    0.000    0.000    0.000    0.000 
#
# Total GULP energy -83590.784633 kJ/mol
# GULP energy per Si atom -5572.718976 kJ/mol
# Density = 2.309648 g / cm^3
# Si number density = 23.149167 Si / 1000 Ang^3
#
#
#
# Elastic Constant Matrix: (Units=GPa)
#
#
# Indices 1 2 3 4 5 6 
#
# 1 68.7718 -0.4821 17.7647 -6.9866 -4.4109 17.3715
# 2 -0.4821 48.5517 22.3144 8.1947 -6.4959 15.2851
# 3 17.7647 22.3144 108.1194 -5.3603 5.7228 11.9197
# 4 -6.9866 8.1947 -5.3603 35.7209 11.0680 -7.4714
# 5 -4.4109 -6.4959 5.7228 11.0680 26.3795 1.8361
# 6 17.3715 15.2851 11.9197 -7.4714 1.8361 35.9887
#
#
#
# Elastic Compliance Matrix: (Units=1/GPa)
#
#
# Indices 1 2 3 4 5 6 
#
# 1 0.018853 0.007605 -0.003947 -0.003787 0.008322 -0.012234
# 2 0.007605 0.038274 -0.008894 -0.020344 0.022718 -0.022363
# 3 -0.003947 -0.008894 0.012118 0.006409 -0.008407 0.003429
# 4 -0.003787 -0.020344 0.006409 0.045384 -0.027409 0.019166
# 5 0.008322 0.022718 -0.008407 -0.027409 0.059583 -0.019612
# 6 -0.012234 -0.022363 0.003429 0.019166 -0.019612 0.047034
#
#
# Mechanical properties :
#
#
# Convention : Reuss Voigt Hill
#
# Bulk Modulus (GPa) = 17.01479 33.84854 25.43167
# Shear Modulus (GPa) = 19.89586 32.00755 25.95170
#
# Velocity S-wave (km/s) = 2.93484 3.72245 3.35186
# Velocity P-wave (km/s) = 4.34171 5.75580 5.09802
#
# Compressibility (1/GPa) = 0.05877239
#
# Stress axis : x y z
#
# Youngs Moduli (GPa) = 53.04231 26.12757 82.52245
#
# Poissons Ratio (x) = -0.19870 0.32569
# Poissons Ratio (y) = -0.40339 0.73399
# Poissons Ratio (z) = 0.20934 0.23239
#
# Static dielectric constant tensor:
#      x y z
#    x 1.991590 -0.007410 0.058820 
#    y -0.007410 1.954570 -0.032620 
#    z 0.058820 -0.032620 1.858460 
# 
# From -- ./inp_files/255741.got.cif
#   From: 2010.05.17/outbox.cif.g08.bks.cpg/sg2_128_cif.got.tgz:255741.got - 2010.06.03 11:33:40.
