data_PCOD9112437
_publ_section_title
;
Structure prediction by ZEFSAII (Michael W. Deem and Ramdas Pophale) SiO2 
 PCOD9112437
Probable space group: P -1
;
_chemical_formula_sum "Si O2"
_cell_formula_units_Z 12
_cell_length_a 12.012251
_cell_length_b 5.343638
_cell_length_c 17.704293
_cell_angle_alpha 90.930823
_cell_angle_beta 30.871668
_cell_angle_gamma 84.016131
_cell_volume 567.358659
_symmetry_space_group_name_H-M "P -1"
_symmetry_group_IT_number 2
_symmetry_cell_setting 'triclinic'
loop_
_space_group_symop_operation_xyz
x,y,z
-x,-y,-z
loop_
_atom_site_type_symbol
_atom_site_label
_atom_site_fract_x
_atom_site_fract_y
_atom_site_fract_z
Si Si1 0.282865 0.659038 0.584059
Si Si2 0.840055 0.490636 0.838567
Si Si3 0.380955 0.382803 0.733432
Si Si4 0.676176 0.852915 0.080125
Si Si5 0.504092 0.802925 0.929153
Si Si6 0.854356 0.052308 0.186730
O O1 0.500000 0.500000 0.500000
O O2 0.382317 0.717749 0.446667
O O3 0.188953 0.889475 0.698203
O O4 0.096206 0.495836 0.680961
O O5 0.704982 0.574039 0.839209
O O6 0.758713 0.682139 0.957395
O O7 0.739853 0.256130 0.922710
O O8 0.390430 0.316362 0.815743
O O9 0.285454 0.684522 0.771276
O O10 0.220908 0.207152 0.791489
O O11 0.482300 0.079842 0.160494
O O12 0.889243 0.958825 0.982092
O O13 0.500000 0.000000 0.000000
#
# Coordination Sequence:
#
# PCOD9112437 Si02
#       6
#     2   2   2   2   2   2
#     4   9  20  37  58  85 118 157 186 230 288 352
#     4   9  19  38  59  82 114 147 198 237 283 341
#     4  11  22  37  53  90 120 154 186 236 289 343
#     4  10  21  32  59  83 113 150 192 242 285 333
#     4   9  19  36  59  84 105 150 198 243 280 332
#     4  10  22  36  56  83 122 156 194 227 282 344
#
# _framework density 21.150642999999999
#
# number of rings (size 3 to 8) (size 9 to 14) (size 15 to 20)
#    0.000    2.333    0.000    1.500    9.333    0.000 
#    9.000    0.833    0.000    9.000    0.000    0.000 
#    0.000    0.000    0.000    0.000    0.000    0.000 
#
# Total GULP energy -66904.659549 kJ/mol
# GULP energy per Si atom -5575.388296 kJ/mol
# Density = 2.110250 g / cm^3
# Si number density = 21.150643 Si / 1000 Ang^3
#
#
#
# Elastic Constant Matrix: (Units=GPa)
#
#
# Indices 1 2 3 4 5 6 
#
# 1 89.4135 17.7457 48.1744 -9.8895 0.6311 -23.9756
# 2 17.7457 56.7402 6.0182 -11.9405 -3.4679 0.2993
# 3 48.1744 6.0182 102.6736 -19.2928 4.1705 -9.2732
# 4 -9.8895 -11.9405 -19.2928 25.8838 3.3072 -1.9793
# 5 0.6311 -3.4679 4.1705 3.3072 34.2851 -12.0667
# 6 -23.9756 0.2993 -9.2732 -1.9793 -12.0667 43.0247
#
#
#
# Elastic Compliance Matrix: (Units=1/GPa)
#
#
# Indices 1 2 3 4 5 6 
#
# 1 0.019090 -0.005107 -0.008056 -0.000778 0.003683 0.009934
# 2 -0.005107 0.020979 0.002796 0.009631 0.000291 -0.001865
# 3 -0.008056 0.002796 0.015164 0.009764 -0.002922 -0.001611
# 4 -0.000778 0.009631 0.009764 0.050797 -0.004119 0.002786
# 5 0.003683 0.000291 -0.002922 -0.004119 0.033635 0.010664
# 6 0.009934 -0.001865 -0.001611 0.002786 0.010664 0.031563
#
#
# Mechanical properties :
#
#
# Convention : Reuss Voigt Hill
#
# Bulk Modulus (GPa) = 28.98674 43.63377 36.31026
# Shear Modulus (GPa) = 24.57463 32.43131 28.50297
#
# Velocity S-wave (km/s) = 3.41234 3.92005 3.67497
# Velocity P-wave (km/s) = 5.40926 6.41590 5.93397
#
# Compressibility (1/GPa) = 0.03449853
#
# Stress axis : x y z
#
# Youngs Moduli (GPa) = 52.38396 47.66616 65.94724
#
# Poissons Ratio (x) = 0.24343 0.53128
# Poissons Ratio (y) = 0.26752 -0.18439
# Poissons Ratio (z) = 0.42201 -0.13327
#
# Static dielectric constant tensor:
#      x y z
#    x 1.854930 -0.045730 0.009320 
#    y -0.045730 1.870400 0.022570 
#    z 0.009320 0.022570 1.761550 
# 
# From -- ./inp_files/27290.got.cif
#   From: 2010.05.17/outbox.cif.g08.bks.cpg/sg2_14_cif.got.tgz:27290.got - 2010.06.03 11:33:40.
