data_PCOD9112664
_publ_section_title
;
Structure prediction by ZEFSAII (Michael W. Deem and Ramdas Pophale) SiO2 
 PCOD9112664
Probable space group: P 2
;
_chemical_formula_sum "Si O2"
_cell_formula_units_Z 16
_cell_length_a 5.423181
_cell_length_b 16.597297
_cell_length_c 9.000885
_cell_angle_alpha 90.000000
_cell_angle_beta 121.596699
_cell_angle_gamma 90.000000
_cell_volume 690.068894
_symmetry_space_group_name_H-M "P 2"
_symmetry_group_IT_number 3
_symmetry_cell_setting 'monoclinic'
loop_
_space_group_symop_operation_xyz
x,y,z
-x,y,-z
loop_
_atom_site_type_symbol
_atom_site_label
_atom_site_fract_x
_atom_site_fract_y
_atom_site_fract_z
Si Si1 0.823682 0.194850 0.585997
Si Si2 0.828248 0.388415 0.587158
Si Si3 0.346184 0.515031 0.108928
Si Si4 0.767613 0.348886 0.020264
Si Si5 0.645803 0.848719 0.707982
Si Si6 0.648195 0.686732 0.881732
Si Si7 0.155558 0.086720 0.893566
Si Si8 0.851864 0.925639 0.290957
O O1 0.500000 0.162477 0.500000
O O2 0.801612 0.291498 0.562827
O O3 0.000000 0.164908 0.500000
O O4 0.004345 0.166267 0.782311
O O5 0.500000 0.421162 0.500000
O O6 0.000000 0.422516 0.500000
O O7 0.048590 0.394110 0.794640
O O8 0.441507 0.598725 0.215767
O O9 0.500000 0.525984 0.000000
O O10 0.375893 0.417547 0.132235
O O11 0.000000 0.522318 0.000000
O O12 0.500000 0.301682 0.000000
O O13 0.000000 0.302072 0.000000
O O14 0.500000 0.858218 0.500000
O O15 0.578789 0.760823 0.752635
O O16 0.484019 0.906592 0.776609
O O17 0.982010 0.867157 0.774619
O O18 0.500000 0.696212 0.000000
O O19 0.000000 0.688169 0.000000
O O20 0.100536 0.013245 0.762674
O O21 0.500000 0.096995 0.000000
O O22 0.000000 0.068050 0.000000
O O23 0.000000 0.919000 0.500000
#
# Coordination Sequence:
#
# PCOD9112664 Si02
#       8
#     2   2   2   2   2   2   2   2
#     4  10  22  41  61  80 113 160 196 225 284 355
#     4  10  21  37  58  86 116 150 194 239 281 333
#     4   8  16  30  49  74 103 137 179 215 266 336
#     4  10  19  33  57  83 113 149 186 231 282 340
#     4  10  21  36  55  80 106 140 188 236 279 333
#     4  10  19  32  54  77 104 141 179 224 278 337
#     4  12  25  38  58  88 117 144 190 248 287 326
#     4  10  22  39  56  76 110 151 186 224 287 352
#
# _framework density 23.18609
#
# number of rings (size 3 to 8) (size 9 to 14) (size 15 to 20)
#    0.000    2.000    0.000    3.375    0.000    5.500 
#    0.000    0.000    0.000   20.250    0.000    0.000 
#    0.000    0.000    0.000    0.000    0.000    0.000 
#
# Total GULP energy -89118.959597 kJ/mol
# GULP energy per Si atom -5569.934975 kJ/mol
# Density = 2.313332 g / cm^3
# Si number density = 23.186090 Si / 1000 Ang^3
#
#
#
# Elastic Constant Matrix: (Units=GPa)
#
#
# Indices 1 2 3 4 5 6 
#
# 1 247.4699 43.8953 50.5665 0.0000 -14.5743 0.0000
# 2 43.8953 42.6577 4.7842 0.0000 -15.0590 0.0000
# 3 50.5665 4.7842 41.9289 0.0000 -11.3155 0.0000
# 4 0.0000 0.0000 0.0000 17.4491 0.0000 -11.4768
# 5 -14.5743 -15.0590 -11.3155 0.0000 33.5276 0.0000
# 6 0.0000 0.0000 0.0000 -11.4768 0.0000 53.5321
#
#
#
# Elastic Compliance Matrix: (Units=1/GPa)
#
#
# Indices 1 2 3 4 5 6 
#
# 1 0.006810 -0.007154 -0.008213 0.000000 -0.003025 0.000000
# 2 -0.007154 0.035378 0.008846 0.000000 0.015766 0.000000
# 3 -0.008213 0.008846 0.036146 0.000000 0.012603 0.000000
# 4 0.000000 0.000000 0.000000 0.066718 0.000000 0.014304
# 5 -0.003025 0.015766 0.012603 0.000000 0.039846 0.000000
# 6 0.000000 0.000000 0.000000 0.014304 0.000000 0.021747
#
#
# Mechanical properties :
#
#
# Convention : Reuss Voigt Hill
#
# Bulk Modulus (GPa) = 15.31584 58.94983 37.13283
# Shear Modulus (GPa) = 20.70822 36.42246 28.56534
#
# Velocity S-wave (km/s) = 2.99177 3.96773 3.51380
# Velocity P-wave (km/s) = 4.30746 6.81691 5.70195
#
# Compressibility (1/GPa) = 0.06529190
#
# Stress axis : x y z
#
# Youngs Moduli (GPa) = 146.84532 28.26642 27.66536
#
# Poissons Ratio (x) = 0.20222 0.22721
# Poissons Ratio (y) = 1.05056 -0.24473
# Poissons Ratio (z) = 1.20601 -0.25005
#
# Static dielectric constant tensor:
#      x y z
#    x 1.908470 0.000000 -0.013900 
#    y 0.000000 1.905060 0.000000 
#    z -0.013900 0.000000 1.950010 
# 
# From -- ./inp_files/4589.got.cif
#   From: 2010.05.17/outbox.cif.g08.bks.cpg/sg3_3_cif.got.tgz:4589.got - 2010.06.03 18:33:08.
