data_PCOD9112020
_publ_section_title
;
Structure prediction by ZEFSAII (Michael W. Deem and Ramdas Pophale) SiO2 
 PCOD9112020
Probable space group: P -1
;
_chemical_formula_sum "Si O2"
_cell_formula_units_Z 16
_cell_length_a 20.816162
_cell_length_b 8.125652
_cell_length_c 5.415587
_cell_angle_alpha 118.701491
_cell_angle_beta 58.650614
_cell_angle_gamma 128.657630
_cell_volume 594.098207
_symmetry_space_group_name_H-M "P -1"
_symmetry_group_IT_number 2
_symmetry_cell_setting 'triclinic'
loop_
_space_group_symop_operation_xyz
x,y,z
-x,-y,-z
loop_
_atom_site_type_symbol
_atom_site_label
_atom_site_fract_x
_atom_site_fract_y
_atom_site_fract_z
Si Si1 0.684433 0.500709 0.605471
Si Si2 0.850771 0.590049 0.072658
Si Si3 0.073864 0.389930 0.565362
Si Si4 0.187966 0.916962 0.721726
Si Si5 0.642666 0.085681 0.653945
Si Si6 0.128180 0.825833 0.272249
Si Si7 0.547796 0.173332 0.267196
Si Si8 0.548872 0.493732 0.142398
O O1 0.764410 0.590818 0.324653
O O2 0.697370 0.332553 0.629019
O O3 0.602686 0.354450 0.484326
O O4 0.649633 0.624712 0.940163
O O5 0.916080 0.693063 0.247820
O O6 0.889502 0.679059 0.790947
O O7 0.832900 0.339123 0.913535
O O8 0.129467 0.651713 0.659621
O O9 0.974788 0.317660 0.655632
O O10 0.289654 0.998093 0.548609
O O11 0.151905 0.956832 0.572051
O O12 0.167171 0.980016 0.070552
O O13 0.555412 0.955262 0.563112
O O14 0.607006 0.071315 0.992814
O O15 0.547692 0.274424 0.070298
O O16 0.500000 0.500000 0.500000
O O17 0.500000 0.500000 0.000000
#
# Coordination Sequence:
#
# PCOD9112020 Si02
#       8
#     2   2   2   2   2   2   2   2
#     4  11  20  34  56  75 108 138 181 215 261 311
#     4  10  18  26  44  66  95 128 175 200 244 290
#     4  10  17  27  41  64  95 142 174 198 236 299
#     4  10  17  28  41  62  96 135 174 201 234 288
#     4  10  20  32  49  81 109 139 179 213 254 313
#     4  10  17  27  42  61  96 142 178 193 239 295
#     4  10  21  35  55  77 103 142 175 220 261 311
#     4  11  23  41  58  75  96 134 183 227 274 309
#
# _framework density 26.931577000000001
#
# number of rings (size 3 to 8) (size 9 to 14) (size 15 to 20)
#    0.000    1.750    3.750    5.625    1.750    0.000 
#    0.000    0.000    0.000    0.000    0.000    0.000 
#    0.000    0.000    0.000   38.250    0.000    0.000 
#
# Total GULP energy -89263.368693 kJ/mol
# GULP energy per Si atom -5578.960543 kJ/mol
# Density = 2.687028 g / cm^3
# Si number density = 26.931577 Si / 1000 Ang^3
#
#
#
# Elastic Constant Matrix: (Units=GPa)
#
#
# Indices 1 2 3 4 5 6 
#
# 1 89.9136 27.6647 32.7759 -8.3622 13.6638 12.8779
# 2 27.6647 57.2632 18.1949 -13.5207 -13.7406 20.7819
# 3 32.7759 18.1949 169.7550 -32.8227 15.9010 9.1021
# 4 -8.3622 -13.5207 -32.8227 22.6428 6.6490 -3.6036
# 5 13.6638 -13.7406 15.9010 6.6490 57.9786 -16.3976
# 6 12.8779 20.7819 9.1021 -3.6036 -16.3976 31.6113
#
#
#
# Elastic Compliance Matrix: (Units=1/GPa)
#
#
# Indices 1 2 3 4 5 6 
#
# 1 0.015310 -0.006551 -0.001198 0.001103 -0.006295 -0.004725
# 2 -0.006551 0.029195 0.001361 0.014017 0.002519 -0.014012
# 3 -0.001198 0.001361 0.009543 0.014999 -0.004853 -0.003963
# 4 0.001103 0.014017 0.014999 0.076651 -0.013272 -0.012130
# 5 -0.006295 0.002519 -0.004853 -0.013272 0.026258 0.014413
# 6 -0.004725 -0.014012 -0.003963 -0.012130 0.014413 0.050005
#
#
# Mechanical properties :
#
#
# Convention : Reuss Voigt Hill
#
# Bulk Modulus (GPa) = 24.22892 52.68922 38.45907
# Shear Modulus (GPa) = 21.41368 38.33295 29.87331
#
# Velocity S-wave (km/s) = 2.82284 3.77682 3.33412
# Velocity P-wave (km/s) = 4.43177 6.21496 5.39751
#
# Compressibility (1/GPa) = 0.04127299
#
# Stress axis : x y z
#
# Youngs Moduli (GPa) = 65.31692 34.25236 104.78500
#
# Poissons Ratio (x) = 0.22440 0.12549
# Poissons Ratio (y) = 0.42792 -0.14264
# Poissons Ratio (z) = 0.07823 -0.04663
#
# Static dielectric constant tensor:
#      x y z
#    x 2.172190 -0.075520 -0.028400 
#    y -0.075520 2.217910 0.067000 
#    z -0.028400 0.067000 2.247600 
# 
# From -- ./inp_files/74211.got.cif
#   From: 2010.05.17/outbox.cif.g08.bks.cpg/sg2_38_cif.got.tgz:74211.got - 2010.06.03 11:33:40.
