data_PCOD9112204
_publ_section_title
;
Structure prediction by ZEFSAII (Michael W. Deem and Ramdas Pophale) SiO2 
 PCOD9112204
Probable space group: P -1
;
_chemical_formula_sum "Si O2"
_cell_formula_units_Z 15
_cell_length_a 5.049267
_cell_length_b 9.208063
_cell_length_c 20.564811
_cell_angle_alpha 37.565439
_cell_angle_beta 80.740375
_cell_angle_gamma 70.482655
_cell_volume 540.374292
_symmetry_space_group_name_H-M "P -1"
_symmetry_group_IT_number 2
_symmetry_cell_setting 'triclinic'
loop_
_space_group_symop_operation_xyz
x,y,z
-x,-y,-z
loop_
_atom_site_type_symbol
_atom_site_label
_atom_site_fract_x
_atom_site_fract_y
_atom_site_fract_z
Si Si1 0.774745 0.776183 0.118471
Si Si2 0.025164 0.351428 0.347545
Si Si3 0.033809 0.098620 0.192525
Si Si4 0.336667 0.247543 0.683738
Si Si5 0.000000 0.500000 0.500000
Si Si6 0.854215 0.236450 0.008832
Si Si7 0.248057 0.034123 0.565328
Si Si8 0.542371 0.391611 0.202383
O O1 0.568467 0.621599 0.163788
O O2 0.037548 0.561006 0.220381
O O3 0.706234 0.023139 0.078594
O O4 0.872704 0.848628 0.019418
O O5 0.753364 0.533777 0.336240
O O6 0.923663 0.140277 0.393236
O O7 0.269382 0.213979 0.439771
O O8 0.944825 0.245835 0.075579
O O9 0.853551 0.262699 0.200476
O O10 0.368925 0.973767 0.235907
O O11 0.928045 0.857773 0.272054
O O12 0.312197 0.363116 0.572714
O O13 0.946777 0.754236 0.454482
O O14 0.655041 0.495423 0.892206
O O15 0.488174 0.836833 0.671434
#
# Coordination Sequence:
#
# PCOD9112204 Si02
#       8
#     2   2   2   2   1   2   2   2
#     4  10  23  42  69 100 138 191 242 302 354 432
#     4   9  19  43  70 100 145 179 243 291 365 424
#     4  12  27  46  72 105 147 187 245 293 368 420
#     4  11  25  46  74 106 142 190 238 302 356 437
#     4  10  20  44  76 104 146 182 240 292 370 418
#     4  11  25  43  68 102 142 193 243 295 359 423
#     4   9  19  38  72 104 139 186 233 298 359 435
#     4  11  24  43  68 102 145 187 243 295 364 428
#
# _framework density 27.758537
#
# number of rings (size 3 to 8) (size 9 to 14) (size 15 to 20)
#    0.000    1.600    2.667    0.800    3.733    5.333 
#    0.000    0.667    8.800    0.000    0.000    0.000 
#    0.000    0.000    0.000    0.000    0.000    0.000 
#
# Total GULP energy -83706.268286 kJ/mol
# GULP energy per Si atom -5580.417886 kJ/mol
# Density = 2.769536 g / cm^3
# Si number density = 27.758537 Si / 1000 Ang^3
#
#
#
# Elastic Constant Matrix: (Units=GPa)
#
#
# Indices 1 2 3 4 5 6 
#
# 1 52.2581 26.0483 28.4787 5.8853 -6.6049 18.2453
# 2 26.0483 124.6168 54.8495 -21.3649 -0.8570 31.7545
# 3 28.4787 54.8495 212.5464 18.8344 37.4031 0.7775
# 4 5.8853 -21.3649 18.8344 59.4707 7.1037 -8.1651
# 5 -6.6049 -0.8570 37.4031 7.1037 59.6487 -6.3282
# 6 18.2453 31.7545 0.7775 -8.1651 -6.3282 27.4983
#
#
#
# Elastic Compliance Matrix: (Units=1/GPa)
#
#
# Indices 1 2 3 4 5 6 
#
# 1 0.029464 -0.000073 -0.004196 -0.004851 0.004372 -0.019781
# 2 -0.000073 0.014484 -0.004184 0.004379 0.000700 -0.015098
# 3 -0.004196 -0.004184 0.007250 -0.002082 -0.004205 0.005825
# 4 -0.004851 0.004379 -0.002082 0.020209 -0.001156 0.003955
# 5 0.004372 0.000700 -0.004205 -0.001156 0.020107 0.000693
# 6 -0.019781 -0.015098 0.005825 0.003955 0.000693 0.068095
#
#
# Mechanical properties :
#
#
# Convention : Reuss Voigt Hill
#
# Bulk Modulus (GPa) = 29.16129 67.57493 48.36811
# Shear Modulus (GPa) = 26.60334 47.99320 37.29827
#
# Velocity S-wave (km/s) = 3.09914 4.16258 3.66959
# Velocity P-wave (km/s) = 4.83056 6.89198 5.95121
#
# Compressibility (1/GPa) = 0.03429204
#
# Stress axis : x y z
#
# Youngs Moduli (GPa) = 33.93952 69.04017 137.93128
#
# Poissons Ratio (x) = 0.00504 0.57877
# Poissons Ratio (y) = 0.00248 0.57712
# Poissons Ratio (z) = 0.14241 0.28887
#
# Static dielectric constant tensor:
#      x y z
#    x 2.235950 -0.130590 -0.032150 
#    y -0.130590 2.093550 0.060810 
#    z -0.032150 0.060810 2.310940 
# 
# From -- ./inp_files/582184.got.cif
#   From: 2010.05.17/outbox.cif.g08.bks.cpg/sg2_292_cif.got.tgz:582184.got - 2010.06.03 11:33:40.
