data_PCOD9112603
_publ_section_title
;
Structure prediction by ZEFSAII (Michael W. Deem and Ramdas Pophale) SiO2 
 PCOD9112603
Probable space group: P 2
;
_chemical_formula_sum "Si O2"
_cell_formula_units_Z 14
_cell_length_a 13.647915
_cell_length_b 10.135443
_cell_length_c 13.598202
_cell_angle_alpha 90.000000
_cell_angle_beta 21.554081
_cell_angle_gamma 90.000000
_cell_volume 691.043184
_symmetry_space_group_name_H-M "P 2"
_symmetry_group_IT_number 3
_symmetry_cell_setting 'monoclinic'
loop_
_space_group_symop_operation_xyz
x,y,z
-x,y,-z
loop_
_atom_site_type_symbol
_atom_site_label
_atom_site_fract_x
_atom_site_fract_y
_atom_site_fract_z
Si Si1 0.273988 0.509330 0.792409
Si Si2 0.301519 0.988819 0.963427
Si Si3 0.354954 0.272520 0.843781
Si Si4 0.594380 0.698442 0.148435
Si Si5 0.142639 0.042635 0.464808
Si Si6 0.910896 0.328627 0.415270
Si Si7 0.961770 0.627178 0.423087
O O1 0.500000 0.517177 0.500000
O O2 0.245122 0.358988 0.857474
O O3 0.352308 0.595855 0.814056
O O4 0.000000 0.555436 0.000000
O O5 0.330088 0.845969 0.889470
O O6 0.328274 0.114421 0.866373
O O7 0.551234 0.003283 0.805888
O O8 0.030540 0.999360 0.278987
O O9 0.661168 0.315303 0.573900
O O10 0.184449 0.312829 0.099431
O O11 0.291854 0.692631 0.392942
O O12 0.780822 0.660103 0.882316
O O13 0.000000 0.992546 0.500000
O O14 0.128461 0.202149 0.479044
O O15 0.908740 0.469811 0.468114
O O16 0.000000 0.667773 0.500000
#
# Coordination Sequence:
#
# PCOD9112603 Si02
#       7
#     2   2   2   2   2   2   2
#     4  12  24  42  69  94 116 158 206 259 323 370
#     4  10  23  38  60  81 123 168 190 249 316 346
#     4  10  20  40  63  87 116 151 200 255 307 357
#     4  12  25  43  59  93 133 162 205 257 302 374
#     4  10  20  34  57  86 119 162 216 248 285 357
#     4  10  18  36  58  87 122 157 199 260 297 339
#     4  12  23  37  62  92 130 174 208 248 301 359
#
# _framework density 20.259226999999999
#
# number of rings (size 3 to 8) (size 9 to 14) (size 15 to 20)
#    0.000    1.143    2.857    3.857    0.000    3.429 
#    0.000    5.714    0.000    0.000    0.000    0.000 
#    0.000    0.000    0.000    0.000    0.000    0.000 
#
# Total GULP energy -78266.377234 kJ/mol
# GULP energy per Si atom -5590.455517 kJ/mol
# Density = 2.021312 g / cm^3
# Si number density = 20.259227 Si / 1000 Ang^3
#
#
#
# Elastic Constant Matrix: (Units=GPa)
#
#
# Indices 1 2 3 4 5 6 
#
# 1 71.3437 12.8436 6.2380 0.0000 6.7281 0.0000
# 2 12.8436 124.0586 -9.6571 0.0000 9.0520 0.0000
# 3 6.2380 -9.6571 41.5796 0.0000 -1.4115 0.0000
# 4 0.0000 0.0000 0.0000 22.6343 0.0000 -7.5167
# 5 6.7281 9.0520 -1.4115 0.0000 27.4853 0.0000
# 6 0.0000 0.0000 0.0000 -7.5167 0.0000 -4.1258
#
#
#
# Elastic Compliance Matrix: (Units=1/GPa)
#
#
# Indices 1 2 3 4 5 6 
#
# 1 0.014831 -0.001506 -0.002686 0.000000 -0.003273 0.000000
# 2 -0.001506 0.008553 0.002133 0.000000 -0.002339 0.000000
# 3 -0.002686 0.002133 0.024991 0.000000 0.001238 0.000000
# 4 0.000000 0.000000 0.000000 0.027526 0.000000 -0.050150
# 5 -0.003273 -0.002339 0.001238 0.000000 0.038018 0.000000
# 6 0.000000 0.000000 0.000000 -0.050150 0.000000 -0.151012
#
#
# Mechanical properties :
#
#
# Convention : Reuss Voigt Hill
#
# Bulk Modulus (GPa) = 22.59478 28.42566 25.51022
# Shear Modulus (GPa) = -274.38955 24.36926 -125.01015
#
# Velocity S-wave (km/s) = -11.65046 3.47201 -7.86379
# Velocity P-wave (km/s) = 13.03076 5.48949 8.35662
#
# Compressibility (1/GPa) = 0.04425802
#
# Stress axis : x y z
#
# Youngs Moduli (GPa) = 67.42547 116.91407 40.01494
#
# Poissons Ratio (x) = 0.17604 0.10748
# Poissons Ratio (y) = 0.10153 -0.08535
# Poissons Ratio (z) = 0.18110 -0.24938
#
# Static dielectric constant tensor:
#      x y z
#    x 1.686410 0.000000 -0.023510 
#    y 0.000000 1.764930 0.000000 
#    z -0.023510 0.000000 1.679130 
# 
# From -- ./inp_files/13967.got.cif
#   From: 2010.05.17/outbox.cif.g08.bks.cpg/sg3_7_cif.got.tgz:13967.got - 2010.06.03 18:33:08.
