data_PCOD9112074
_publ_section_title
;
Structure prediction by ZEFSAII (Michael W. Deem and Ramdas Pophale) SiO2 
 PCOD9112074
Probable space group: P -1
;
_chemical_formula_sum "Si O2"
_cell_formula_units_Z 12
_cell_length_a 8.602972
_cell_length_b 14.386060
_cell_length_c 23.057958
_cell_angle_alpha 22.579598
_cell_angle_beta 145.142726
_cell_angle_gamma 148.231073
_cell_volume 567.897829
_symmetry_space_group_name_H-M "P -1"
_symmetry_group_IT_number 2
_symmetry_cell_setting 'triclinic'
loop_
_space_group_symop_operation_xyz
x,y,z
-x,-y,-z
loop_
_atom_site_type_symbol
_atom_site_label
_atom_site_fract_x
_atom_site_fract_y
_atom_site_fract_z
Si Si1 0.305972 0.953006 0.185961
Si Si2 0.860164 0.674035 0.019025
Si Si3 0.405284 0.875345 0.606345
Si Si4 0.816312 0.487619 0.694375
Si Si5 0.328732 0.672599 0.474947
Si Si6 0.767141 0.532114 0.952736
O O1 0.239624 0.759205 0.223008
O O2 0.342973 0.810661 0.337447
O O3 0.576530 0.230350 0.090745
O O4 0.067252 0.061805 0.073261
O O5 0.954959 0.719503 0.955493
O O6 0.995327 0.510089 0.192027
O O7 0.500000 0.500000 0.000000
O O8 0.045504 0.734399 0.584326
O O9 0.500000 0.000000 0.500000
O O10 0.519282 0.098681 0.562357
O O11 0.550506 0.662298 0.785948
O O12 0.518213 0.502800 0.617244
O O13 0.000000 0.500000 0.500000
O O14 0.000000 0.500000 0.000000
#
# Coordination Sequence:
#
# PCOD9112074 Si02
#       6
#     2   2   2   2   2   2
#     4  11  23  46  73  99 143 180 237 290 349 412
#     4  10  20  44  68  99 136 177 227 286 339 411
#     4  12  26  45  70 105 143 184 239 285 352 424
#     4  12  25  44  76 104 136 192 233 289 356 417
#     4  12  28  48  70 103 147 186 235 293 352 418
#     4  11  25  43  72 102 142 184 231 291 351 413
#
# _framework density 21.130561
#
# number of rings (size 3 to 8) (size 9 to 14) (size 15 to 20)
#    0.000    0.667    5.000    3.500    7.000    0.000 
#    0.000    1.667    0.000    0.000    0.000    0.000 
#    0.000    0.000    0.000    0.000    0.000    0.000 
#
# Total GULP energy -66935.231698 kJ/mol
# GULP energy per Si atom -5577.935975 kJ/mol
# Density = 2.108247 g / cm^3
# Si number density = 21.130561 Si / 1000 Ang^3
#
#
#
# Elastic Constant Matrix: (Units=GPa)
#
#
# Indices 1 2 3 4 5 6 
#
# 1 181.2515 67.8329 64.6418 6.6056 14.1523 -7.7523
# 2 67.8329 96.3734 36.6714 -18.3478 7.1221 -9.5779
# 3 64.6418 36.6714 94.7641 8.2508 -15.1577 -4.2784
# 4 6.6056 -18.3478 8.2508 28.8102 -12.4847 -1.9644
# 5 14.1523 7.1221 -15.1577 -12.4847 42.1027 -1.7813
# 6 -7.7523 -9.5779 -4.2784 -1.9644 -1.7813 29.8336
#
#
#
# Elastic Compliance Matrix: (Units=1/GPa)
#
#
# Indices 1 2 3 4 5 6 
#
# 1 0.010622 -0.006742 -0.005043 -0.008282 -0.006747 -0.001076
# 2 -0.006742 0.020282 -0.004067 0.017167 0.002693 0.005467
# 3 -0.005043 -0.004067 0.017053 -0.003002 0.007636 0.000088
# 4 -0.008282 0.017167 -0.003002 0.055688 0.015631 0.007529
# 5 -0.006747 0.002693 0.007636 0.015631 0.033084 0.003211
# 6 -0.001076 0.005467 0.000088 0.007529 0.003211 0.035695
#
#
# Mechanical properties :
#
#
# Convention : Reuss Voigt Hill
#
# Bulk Modulus (GPa) = 61.52734 78.96456 70.24595
# Shear Modulus (GPa) = 23.86138 33.69881 28.78010
#
# Velocity S-wave (km/s) = 3.36406 3.99781 3.69455
# Velocity P-wave (km/s) = 6.65358 7.66557 7.17743
#
# Compressibility (1/GPa) = 0.01625294
#
# Stress axis : x y z
#
# Youngs Moduli (GPa) = 94.14835 49.30537 58.64131
#
# Poissons Ratio (x) = 0.33243 0.29572
# Poissons Ratio (y) = 0.63476 0.23847
# Poissons Ratio (z) = 0.47478 0.20050
#
# Static dielectric constant tensor:
#      x y z
#    x 1.654170 -0.038950 0.078760 
#    y -0.038950 1.782680 -0.000250 
#    z 0.078760 -0.000250 1.795950 
# 
# From -- ./inp_files/146334.got.cif
#   From: 2010.05.17/outbox.cif.g08.bks.cpg/sg2_74_cif.got.tgz:146334.got - 2010.06.03 11:33:40.
