data_PCOD9112399
_publ_section_title
;
Structure prediction by ZEFSAII (Michael W. Deem and Ramdas Pophale) SiO2 
 PCOD9112399
Probable space group: P -1
;
_chemical_formula_sum "Si O2"
_cell_formula_units_Z 14
_cell_length_a 18.170636
_cell_length_b 9.765484
_cell_length_c 5.843816
_cell_angle_alpha 108.653704
_cell_angle_beta 61.264086
_cell_angle_gamma 138.520761
_cell_volume 600.785481
_symmetry_space_group_name_H-M "P -1"
_symmetry_group_IT_number 2
_symmetry_cell_setting 'triclinic'
loop_
_space_group_symop_operation_xyz
x,y,z
-x,-y,-z
loop_
_atom_site_type_symbol
_atom_site_label
_atom_site_fract_x
_atom_site_fract_y
_atom_site_fract_z
Si Si1 0.202195 0.909899 0.783806
Si Si2 0.633989 0.638892 0.452262
Si Si3 0.795060 0.898650 0.731888
Si Si4 0.246065 0.423716 0.083572
Si Si5 0.425360 0.063113 0.411379
Si Si6 0.004570 0.839767 0.811865
Si Si7 0.512713 0.184656 0.844964
O O1 0.287196 0.139401 0.668879
O O2 0.280417 0.870055 0.566452
O O3 0.070021 0.796801 0.843483
O O4 0.209445 0.951420 0.062952
O O5 0.500000 0.500000 0.500000
O O6 0.669401 0.703525 0.695049
O O7 0.685425 0.552466 0.230223
O O8 0.811674 0.788459 0.823326
O O9 0.906544 0.036760 0.469441
O O10 0.347719 0.611099 0.197294
O O11 0.130928 0.373789 0.158955
O O12 0.471249 0.188720 0.656037
O O13 0.496330 0.999742 0.258775
O O14 0.446155 0.148094 0.164162
O O15 0.000000 0.000000 0.000000
#
# Coordination Sequence:
#
# PCOD9112399 Si02
#       7
#     2   2   2   2   2   2   2
#     4  10  22  34  59  81 116 162 192 244 297 358
#     4  10  21  32  50  86 120 148 191 242 301 362
#     4  10  21  34  54  83 119 160 192 241 294 365
#     4  11  22  34  58  84 118 155 200 241 295 358
#     4  10  23  45  64  89 119 154 205 248 310 351
#     4  11  20  38  51  85 122 159 199 234 298 358
#     4  10  24  42  67  89 117 158 199 256 299 358
#
# _framework density 23.302828999999999
#
# number of rings (size 3 to 8) (size 9 to 14) (size 15 to 20)
#    0.000    1.714    4.286    1.286   10.000    1.143 
#    0.000    0.714    0.000    0.857    0.000    0.000 
#    0.000    0.000    0.000    0.000    0.000    0.000 
#
# Total GULP energy -77991.969571 kJ/mol
# GULP energy per Si atom -5570.854969 kJ/mol
# Density = 2.324979 g / cm^3
# Si number density = 23.302829 Si / 1000 Ang^3
#
#
#
# Elastic Constant Matrix: (Units=GPa)
#
#
# Indices 1 2 3 4 5 6 
#
# 1 112.9841 35.0148 46.7892 4.5176 3.2097 55.0346
# 2 35.0148 44.4661 24.8575 0.1060 1.7588 39.4187
# 3 46.7892 24.8575 155.5441 2.9339 -2.7619 25.3604
# 4 4.5176 0.1060 2.9339 23.5510 10.8367 -3.5911
# 5 3.2097 1.7588 -2.7619 10.8367 36.7824 -2.7976
# 6 55.0346 39.4187 25.3604 -3.5911 -2.7976 52.4567
#
#
#
# Elastic Compliance Matrix: (Units=1/GPa)
#
#
# Indices 1 2 3 4 5 6 
#
# 1 0.022325 0.013096 -0.003464 -0.007399 -0.003108 -0.032261
# 2 0.013096 0.078691 -0.004796 -0.009557 -0.007898 -0.071629
# 3 -0.003464 -0.004796 0.007690 -0.000419 0.001504 0.003573
# 4 -0.007399 -0.009557 -0.000419 0.052756 -0.013098 0.018060
# 5 -0.003108 -0.007898 0.001504 -0.013098 0.032516 0.009306
# 6 -0.032261 -0.071629 0.003573 0.018060 0.009306 0.106741
#
#
# Mechanical properties :
#
#
# Convention : Reuss Voigt Hill
#
# Bulk Modulus (GPa) = 8.44755 58.47971 33.46363
# Shear Modulus (GPa) = 15.12824 36.31354 25.72089
#
# Velocity S-wave (km/s) = 2.55071 3.95185 3.32590
# Velocity P-wave (km/s) = 3.50825 6.78033 5.39818
#
# Compressibility (1/GPa) = 0.11837748
#
# Stress axis : x y z
#
# Youngs Moduli (GPa) = 44.79206 12.70789 130.04299
#
# Poissons Ratio (x) = -0.16643 0.45050
# Poissons Ratio (y) = -0.58661 0.62375
# Poissons Ratio (z) = 0.15517 0.06095
#
# Static dielectric constant tensor:
#      x y z
#    x 2.000960 0.016740 0.002560 
#    y 0.016740 1.914820 0.030780 
#    z 0.002560 0.030780 1.965510 
# 
# From -- ./inp_files/63434.got.cif
#   From: 2010.05.17/outbox.cif.g08.bks.cpg/sg2_32_cif.got.tgz:63434.got - 2010.06.03 11:33:40.
