data_PCOD9112898
_publ_section_title
;
Structure prediction by ZEFSAII (Michael W. Deem and Ramdas Pophale) SiO2 
 PCOD9112898
Probable space group: P 2
;
_chemical_formula_sum "Si O2"
_cell_formula_units_Z 16
_cell_length_a 8.587804
_cell_length_b 12.041003
_cell_length_c 11.280712
_cell_angle_alpha 90.000000
_cell_angle_beta 44.562102
_cell_angle_gamma 90.000000
_cell_volume 818.505487
_symmetry_space_group_name_H-M "P 2"
_symmetry_group_IT_number 3
_symmetry_cell_setting 'monoclinic'
loop_
_space_group_symop_operation_xyz
x,y,z
-x,y,-z
loop_
_atom_site_type_symbol
_atom_site_label
_atom_site_fract_x
_atom_site_fract_y
_atom_site_fract_z
Si Si1 0.824566 0.758470 0.984175
Si Si2 0.457449 0.599570 0.711629
Si Si3 0.937026 0.223970 0.854100
Si Si4 0.125006 0.612234 0.668086
Si Si5 0.580714 0.163636 0.323453
Si Si6 0.537316 0.357361 0.182655
Si Si7 0.084012 0.390889 0.320763
Si Si8 0.775394 0.006834 0.042930
O O1 0.630545 0.678686 0.136717
O O2 0.741766 0.884170 0.011732
O O3 0.000000 0.760109 0.000000
O O4 0.948516 0.705538 0.803574
O O5 0.288845 0.605291 0.692232
O O6 0.704226 0.631086 0.533223
O O7 0.442902 0.473017 0.761007
O O8 0.995037 0.277336 0.697216
O O9 0.166124 0.207748 0.799249
O O10 0.766166 0.311713 0.004316
O O11 0.817344 0.104250 0.924379
O O12 0.000401 0.496561 0.708275
O O13 0.500000 0.142022 0.500000
O O14 0.462472 0.261934 0.315975
O O15 0.593392 0.055274 0.233109
O O16 0.347554 0.378010 0.189589
O O17 0.000000 0.405224 0.500000
O O18 0.000000 0.000384 0.000000
#
# Coordination Sequence:
#
# PCOD9112898 Si02
#       8
#     2   2   2   2   2   2   2   2
#     4   9  18  36  58  82 113 147 188 239 287 333
#     4  10  20  35  56  86 113 147 192 234 287 344
#     4  10  21  36  56  82 113 151 189 232 292 340
#     4  10  21  35  56  83 116 150 187 238 287 339
#     4  10  20  35  57  86 116 148 184 239 290 341
#     4  11  21  34  56  81 114 151 189 232 283 351
#     4  12  22  35  54  82 117 149 186 238 285 342
#     4   8  17  36  56  82 111 143 192 233 279 345
#
# _framework density 19.547820999999999
#
# number of rings (size 3 to 8) (size 9 to 14) (size 15 to 20)
#    0.000    2.000    1.250    3.750    1.750    2.000 
#    9.000    0.000    0.000    6.750    0.000    0.000 
#    0.000    0.000    0.000    0.000    0.000    0.000 
#
# Total GULP energy -89208.219395 kJ/mol
# GULP energy per Si atom -5575.513712 kJ/mol
# Density = 1.950333 g / cm^3
# Si number density = 19.547821 Si / 1000 Ang^3
#
#
#
# Elastic Constant Matrix: (Units=GPa)
#
#
# Indices 1 2 3 4 5 6 
#
# 1 21.6713 12.5340 23.6160 0.0000 -5.5733 0.0000
# 2 12.5340 161.3582 85.5319 0.0000 12.8341 0.0000
# 3 23.6160 85.5319 140.0181 0.0000 -4.0164 0.0000
# 4 0.0000 0.0000 0.0000 12.4199 0.0000 0.6393
# 5 -5.5733 12.8341 -4.0164 0.0000 22.3370 0.0000
# 6 0.0000 0.0000 0.0000 0.6393 0.0000 -6.7865
#
#
#
# Elastic Compliance Matrix: (Units=1/GPa)
#
#
# Indices 1 2 3 4 5 6 
#
# 1 0.060287 -0.000903 -0.009218 0.000000 0.013903 0.000000
# 2 -0.000903 0.010156 -0.006258 0.000000 -0.007186 0.000000
# 3 -0.009218 -0.006258 0.012622 0.000000 0.003565 0.000000
# 4 0.000000 0.000000 0.000000 0.080127 0.000000 0.007548
# 5 0.013903 -0.007186 0.003565 0.000000 0.053008 0.000000
# 6 0.000000 0.000000 0.000000 0.007548 0.000000 -0.146640
#
#
# Mechanical properties :
#
#
# Convention : Reuss Voigt Hill
#
# Bulk Modulus (GPa) = 19.87774 62.93459 41.40617
# Shear Modulus (GPa) = 41.98645 19.01845 30.50245
#
# Velocity S-wave (km/s) = 4.63955 3.12255 3.95448
# Velocity P-wave (km/s) = 6.23630 6.72796 6.48679
#
# Compressibility (1/GPa) = 0.05030753
#
# Stress axis : x y z
#
# Youngs Moduli (GPa) = 16.58741 98.46152 79.22857
#
# Poissons Ratio (x) = 0.08887 0.73033
# Poissons Ratio (y) = 0.01497 0.49581
# Poissons Ratio (z) = 0.15290 0.61617
#
# Static dielectric constant tensor:
#      x y z
#    x 1.735680 0.000000 0.003730 
#    y 0.000000 1.669280 0.000000 
#    z 0.003730 0.000000 1.753890 
# 
# From -- ./inp_files/10979.got.cif
#   From: 2010.05.17/outbox.cif.g08.bks.cpg/sg3_6_cif.got.tgz:10979.got - 2010.06.03 18:33:08.
