data_PCOD9112010
_publ_section_title
;
Structure prediction by ZEFSAII (Michael W. Deem and Ramdas Pophale) SiO2 
 PCOD9112010
Probable space group: P -1
;
_chemical_formula_sum "Si O2"
_cell_formula_units_Z 16
_cell_length_a 7.033362
_cell_length_b 19.611674
_cell_length_c 5.103080
_cell_angle_alpha 83.755498
_cell_angle_beta 106.076732
_cell_angle_gamma 116.450448
_cell_volume 605.480757
_symmetry_space_group_name_H-M "P -1"
_symmetry_group_IT_number 2
_symmetry_cell_setting 'triclinic'
loop_
_space_group_symop_operation_xyz
x,y,z
-x,-y,-z
loop_
_atom_site_type_symbol
_atom_site_label
_atom_site_fract_x
_atom_site_fract_y
_atom_site_fract_z
Si Si1 0.273807 0.065609 0.876216
Si Si2 0.958843 0.908299 0.727051
Si Si3 0.112843 0.261388 0.142893
Si Si4 0.257308 0.524692 0.033032
Si Si5 0.470966 0.720559 0.420018
Si Si6 0.279104 0.393063 0.731788
Si Si7 0.101907 0.588972 0.564634
Si Si8 0.620513 0.210159 0.126996
O O1 0.154697 0.095745 0.597282
O O2 0.523733 0.124829 0.006812
O O3 0.172059 0.066483 0.121268
O O4 0.201142 0.978965 0.793568
O O5 0.937637 0.827864 0.854629
O O6 0.319899 0.292727 0.408293
O O7 0.185207 0.313866 0.889104
O O8 0.880148 0.253191 0.165689
O O9 0.468087 0.563669 0.283091
O O10 0.269949 0.453886 0.920603
O O11 0.294343 0.596908 0.831367
O O12 0.000000 0.500000 0.000000
O O13 0.236261 0.647144 0.368045
O O14 0.495666 0.754114 0.128152
O O15 0.439233 0.775903 0.606340
O O16 0.105707 0.395542 0.452248
O O17 0.000000 0.500000 0.500000
#
# Coordination Sequence:
#
# PCOD9112010 Si02
#       8
#     2   2   2   2   2   2   2   2
#     4  10  20  44  67 100 140 186 228 282 341 420
#     4  10  22  40  71  99 141 184 229 281 350 406
#     4  12  24  42  72 104 139 185 233 293 351 416
#     4  10  22  39  64  90 130 179 223 282 349 410
#     4  12  26  47  67 107 143 183 229 297 350 415
#     4  10  22  41  61  96 131 168 235 279 342 419
#     4  10  22  43  66  92 137 179 227 285 349 408
#     4  12  26  44  73 102 144 184 235 283 355 418
#
# _framework density 26.425280000000001
#
# number of rings (size 3 to 8) (size 9 to 14) (size 15 to 20)
#    0.000    1.250    5.000    0.000    1.750    3.000 
#    0.000    0.000    0.000    6.000    0.000    0.000 
#    0.000    0.000    0.000    0.000    0.000    0.000 
#
# Total GULP energy -89367.123259 kJ/mol
# GULP energy per Si atom -5585.445204 kJ/mol
# Density = 2.636514 g / cm^3
# Si number density = 26.425280 Si / 1000 Ang^3
#
#
#
# Elastic Constant Matrix: (Units=GPa)
#
#
# Indices 1 2 3 4 5 6 
#
# 1 121.2658 31.3112 16.7487 14.8675 26.0132 14.4989
# 2 31.3112 183.9195 44.0416 26.4832 24.8685 16.7621
# 3 16.7487 44.0416 76.7487 16.9843 -0.6371 1.3908
# 4 14.8675 26.4832 16.9843 57.0901 6.4060 14.0392
# 5 26.0132 24.8685 -0.6371 6.4060 45.3302 1.0199
# 6 14.4989 16.7621 1.3908 14.0392 1.0199 37.4233
#
#
#
# Elastic Compliance Matrix: (Units=1/GPa)
#
#
# Indices 1 2 3 4 5 6 
#
# 1 0.010263 -0.000086 -0.002060 -0.000514 -0.005719 -0.003512
# 2 -0.000086 0.007296 -0.003899 -0.001149 -0.003788 -0.002555
# 3 -0.002060 -0.003899 0.016538 -0.003827 0.004021 0.003256
# 4 -0.000514 -0.001149 -0.003827 0.021283 -0.001977 -0.007074
# 5 -0.005719 -0.003788 0.004021 -0.001977 0.027672 0.003751
# 6 -0.003512 -0.002555 0.003256 -0.007074 0.003751 0.031657
#
#
# Mechanical properties :
#
#
# Convention : Reuss Voigt Hill
#
# Bulk Modulus (GPa) = 45.44222 62.90410 54.17316
# Shear Modulus (GPa) = 37.27587 47.29090 42.28338
#
# Velocity S-wave (km/s) = 3.75989 4.23497 4.00448
# Velocity P-wave (km/s) = 6.00690 6.91154 6.47504
#
# Compressibility (1/GPa) = 0.02200597
#
# Stress axis : x y z
#
# Youngs Moduli (GPa) = 97.43677 137.06192 60.46816
#
# Poissons Ratio (x) = 0.01184 0.12457
# Poissons Ratio (y) = 0.00842 0.23575
# Poissons Ratio (z) = 0.20073 0.53438
#
# Static dielectric constant tensor:
#      x y z
#    x 2.181090 0.037150 -0.226360 
#    y 0.037150 2.229620 -0.066800 
#    z -0.226360 -0.066800 2.526570 
# 
# From -- ./inp_files/51428.got.cif
#   From: 2010.05.17/outbox.cif.g08.bks.cpg/sg2_26_cif.got.tgz:51428.got - 2010.06.03 11:33:40.
