data_PCOD9112052
_publ_section_title
;
Structure prediction by ZEFSAII (Michael W. Deem and Ramdas Pophale) SiO2 
 PCOD9112052
Probable space group: P -1
;
_chemical_formula_sum "Si O2"
_cell_formula_units_Z 16
_cell_length_a 14.960328
_cell_length_b 10.959870
_cell_length_c 12.530614
_cell_angle_alpha 61.168398
_cell_angle_beta 152.435558
_cell_angle_gamma 126.585698
_cell_volume 757.504773
_symmetry_space_group_name_H-M "P -1"
_symmetry_group_IT_number 2
_symmetry_cell_setting 'triclinic'
loop_
_space_group_symop_operation_xyz
x,y,z
-x,-y,-z
loop_
_atom_site_type_symbol
_atom_site_label
_atom_site_fract_x
_atom_site_fract_y
_atom_site_fract_z
Si Si1 0.474683 0.092232 0.275030
Si Si2 0.710593 0.295372 0.093123
Si Si3 0.807862 0.163737 0.777731
Si Si4 0.599978 0.358327 0.602169
Si Si5 0.989404 0.117552 0.527162
Si Si6 0.239394 0.433184 0.120221
Si Si7 0.460021 0.327053 0.015812
Si Si8 0.601873 0.902553 0.333715
O O1 0.677853 0.111782 0.552663
O O2 0.488150 0.254277 0.186853
O O3 0.266888 0.987746 0.165442
O O4 0.484102 0.000928 0.217632
O O5 0.878976 0.222702 0.317942
O O6 0.622537 0.316266 0.104907
O O7 0.790624 0.454458 0.045705
O O8 0.518091 0.178545 0.866594
O O9 0.715752 0.274073 0.693269
O O10 0.054896 0.264923 0.985079
O O11 0.466560 0.424009 0.360450
O O12 0.754016 0.490237 0.788604
O O13 0.436053 0.230287 0.563432
O O14 0.839157 0.015362 0.506310
O O15 0.000000 0.000000 0.500000
O O16 0.222659 0.224971 0.768223
O O17 0.500000 0.500000 0.000000
#
# Coordination Sequence:
#
# PCOD9112052 Si02
#       8
#     2   2   2   2   2   2   2   2
#     4  10  23  44  65  93 132 171 217 274 317 385
#     4  11  24  44  66  98 137 165 220 281 320 390
#     4  10  22  42  66  91 127 173 215 265 322 388
#     4   9  21  40  63  98 127 165 214 272 322 386
#     4  12  24  42  73  96 122 184 224 266 332 386
#     4  10  22  39  66  94 130 169 207 267 332 386
#     4  12  28  43  65 100 138 175 214 273 335 394
#     4  10  20  44  68  94 132 164 224 281 314 381
#
# _framework density 21.121977999999999
#
# number of rings (size 3 to 8) (size 9 to 14) (size 15 to 20)
#    0.000    1.500    2.500    1.500    5.250    1.500 
#    2.250    1.875    0.000    0.000    0.000    0.000 
#    0.000    0.000    0.000    0.000    0.000    0.000 
#
# Total GULP energy -89468.951083 kJ/mol
# GULP energy per Si atom -5591.809443 kJ/mol
# Density = 2.107390 g / cm^3
# Si number density = 21.121978 Si / 1000 Ang^3
#
#
#
# Elastic Constant Matrix: (Units=GPa)
#
#
# Indices 1 2 3 4 5 6 
#
# 1 42.4360 22.5644 22.4054 -10.3095 -3.8307 8.1645
# 2 22.5644 101.9468 17.8467 -4.1742 -6.5593 13.9983
# 3 22.4054 17.8467 42.9140 -1.3252 4.3123 15.9428
# 4 -10.3095 -4.1742 -1.3252 42.9096 -2.1917 7.9452
# 5 -3.8307 -6.5593 4.3123 -2.1917 20.7431 2.9275
# 6 8.1645 13.9983 15.9428 7.9452 2.9275 19.8642
#
#
#
# Elastic Compliance Matrix: (Units=1/GPa)
#
#
# Indices 1 2 3 4 5 6 
#
# 1 0.039578 -0.003763 -0.018192 0.010055 0.011634 -0.004751
# 2 -0.003763 0.012231 -0.000490 0.002021 0.004642 -0.008172
# 3 -0.018192 -0.000490 0.043816 0.001420 -0.008716 -0.026627
# 4 0.010055 0.002021 0.001420 0.030070 0.008191 -0.019931
# 5 0.011634 0.004642 -0.008716 0.008191 0.056285 -0.012628
# 6 -0.004751 -0.008172 -0.026627 -0.019931 -0.012628 0.089256
#
#
# Mechanical properties :
#
#
# Convention : Reuss Voigt Hill
#
# Bulk Modulus (GPa) = 19.71046 34.76997 27.24022
# Shear Modulus (GPa) = 15.01331 25.00207 20.00769
#
# Velocity S-wave (km/s) = 2.66896 3.44423 3.08107
# Velocity P-wave (km/s) = 4.34163 5.68456 5.05786
#
# Compressibility (1/GPa) = 0.05073448
#
# Stress axis : x y z
#
# Youngs Moduli (GPa) = 25.26668 81.75880 22.82265
#
# Poissons Ratio (x) = 0.30763 0.41520
# Poissons Ratio (y) = 0.09507 0.01119
# Poissons Ratio (z) = 0.45966 0.04009
#
# Static dielectric constant tensor:
#      x y z
#    x 1.750930 0.005470 -0.005150 
#    y 0.005470 1.783740 -0.018390 
#    z -0.005150 -0.018390 1.736400 
# 
# From -- ./inp_files/451308.got.cif
#   From: 2010.05.17/outbox.cif.g08.bks.cpg/sg2_226_cif.got.tgz:451308.got - 2010.06.03 11:33:40.
