data_PCOD9112193
_publ_section_title
;
Structure prediction by ZEFSAII (Michael W. Deem and Ramdas Pophale) SiO2 
 PCOD9112193
Probable space group: P -1
;
_chemical_formula_sum "Si O2"
_cell_formula_units_Z 16
_cell_length_a 18.104856
_cell_length_b 9.021317
_cell_length_c 5.830030
_cell_angle_alpha 127.853699
_cell_angle_beta 65.122733
_cell_angle_gamma 105.494449
_cell_volume 682.034136
_symmetry_space_group_name_H-M "P -1"
_symmetry_group_IT_number 2
_symmetry_cell_setting 'triclinic'
loop_
_space_group_symop_operation_xyz
x,y,z
-x,-y,-z
loop_
_atom_site_type_symbol
_atom_site_label
_atom_site_fract_x
_atom_site_fract_y
_atom_site_fract_z
Si Si1 0.923163 0.857734 0.947017
Si Si2 0.192088 0.311488 0.696858
Si Si3 0.654061 0.636720 0.719633
Si Si4 0.460127 0.045142 0.844220
Si Si5 0.830375 0.160424 0.104827
Si Si6 0.319469 0.774829 0.905581
Si Si7 0.278079 0.584769 0.189593
Si Si8 0.066437 0.492020 0.707771
O O1 0.950149 0.656230 0.615539
O O2 0.871904 0.823327 0.215600
O O3 0.858720 0.957424 0.954256
O O4 0.000000 0.000000 0.000000
O O5 0.278173 0.252577 0.418521
O O6 0.147098 0.409392 0.639423
O O7 0.214731 0.475726 0.004119
O O8 0.657768 0.426931 0.419153
O O9 0.680370 0.588973 0.899484
O O10 0.569385 0.740120 0.914610
O O11 0.376993 0.923090 0.849497
O O12 0.500000 0.000000 0.500000
O O13 0.500000 0.000000 0.000000
O O14 0.775547 0.170059 0.956193
O O15 0.770069 0.270280 0.455050
O O16 0.910358 0.291130 0.148357
O O17 0.334979 0.726574 0.104940
O O18 0.000000 0.500000 0.000000
#
# Coordination Sequence:
#
# PCOD9112193 Si02
#       8
#     2   2   2   2   2   2   2   2
#     4  12  29  42  65 105 147 199 244 316 389 448
#     4  11  22  44  72 100 139 193 249 306 368 440
#     4  10  24  47  76 107 145 192 248 309 362 455
#     4  12  32  51  76 120 161 197 241 312 393 460
#     4  11  24  43  71 104 137 190 259 307 364 451
#     4  10  25  45  78 108 141 199 246 303 366 460
#     4  10  20  44  75 104 132 184 253 302 367 425
#     4  12  26  46  66 100 152 189 250 312 378 443
#
# _framework density 23.459236000000001
#
# number of rings (size 3 to 8) (size 9 to 14) (size 15 to 20)
#    0.000    1.000    5.000    0.750   14.000    4.000 
#    0.000    0.000    0.000    0.000    0.000    0.000 
#    0.000    0.000    0.000    0.000    0.000    0.000 
#
# Total GULP energy -89225.386223 kJ/mol
# GULP energy per Si atom -5576.586639 kJ/mol
# Density = 2.340584 g / cm^3
# Si number density = 23.459236 Si / 1000 Ang^3
#
#
#
# Elastic Constant Matrix: (Units=GPa)
#
#
# Indices 1 2 3 4 5 6 
#
# 1 56.5168 17.4064 21.3843 6.7941 -1.0951 -23.5254
# 2 17.4064 119.4398 30.8890 -1.5961 -8.6663 -8.0129
# 3 21.3843 30.8890 91.7926 0.3622 -16.6468 -9.2013
# 4 6.7941 -1.5961 0.3622 43.7717 -2.7217 -9.1995
# 5 -1.0951 -8.6663 -16.6468 -2.7217 32.1798 3.4958
# 6 -23.5254 -8.0129 -9.2013 -9.1995 3.4958 37.7206
#
#
#
# Elastic Compliance Matrix: (Units=1/GPa)
#
#
# Indices 1 2 3 4 5 6 
#
# 1 0.026342 -0.001918 -0.004672 -0.001215 -0.003762 0.014934
# 2 -0.001918 0.009410 -0.002472 0.000796 0.001227 0.000280
# 3 -0.004672 -0.002472 0.013948 0.000832 0.006508 -0.000437
# 4 -0.001215 0.000796 0.000832 0.024310 0.002079 0.005351
# 5 -0.003762 0.001227 0.006508 0.002079 0.035173 -0.003251
# 6 0.014934 0.000280 -0.000437 0.005351 -0.003251 0.037384
#
#
# Mechanical properties :
#
#
# Convention : Reuss Voigt Hill
#
# Bulk Modulus (GPa) = 31.67036 45.23431 38.45233
# Shear Modulus (GPa) = 28.53625 35.93904 32.23764
#
# Velocity S-wave (km/s) = 3.49150 3.91830 3.71104
# Velocity P-wave (km/s) = 5.45743 6.30830 5.89823
#
# Compressibility (1/GPa) = 0.03157527
#
# Stress axis : x y z
#
# Youngs Moduli (GPa) = 37.96259 106.27277 71.69690
#
# Poissons Ratio (x) = 0.20383 0.33495
# Poissons Ratio (y) = 0.07281 0.17725
# Poissons Ratio (z) = 0.17735 0.26273
#
# Static dielectric constant tensor:
#      x y z
#    x 2.001300 0.002300 0.075220 
#    y 0.002300 2.034900 -0.087810 
#    z 0.075220 -0.087810 1.960860 
# 
# From -- ./inp_files/107479.got.cif
#   From: 2010.05.17/outbox.cif.g08.bks.cpg/sg2_54_cif.got.tgz:107479.got - 2010.06.03 11:33:40.
