data_PCOD9112872
_publ_section_title
;
Structure prediction by ZEFSAII (Michael W. Deem and Ramdas Pophale) SiO2 
 PCOD9112872
Probable space group: P 2
;
_chemical_formula_sum "Si O2"
_cell_formula_units_Z 14
_cell_length_a 8.434171
_cell_length_b 11.406326
_cell_length_c 11.651326
_cell_angle_alpha 90.000000
_cell_angle_beta 41.409594
_cell_angle_gamma 90.000000
_cell_volume 741.399558
_symmetry_space_group_name_H-M "P 2"
_symmetry_group_IT_number 3
_symmetry_cell_setting 'monoclinic'
loop_
_space_group_symop_operation_xyz
x,y,z
-x,y,-z
loop_
_atom_site_type_symbol
_atom_site_label
_atom_site_fract_x
_atom_site_fract_y
_atom_site_fract_z
Si Si1 0.297569 0.470150 0.706328
Si Si2 0.755974 0.891305 0.689074
Si Si3 0.741583 0.517893 0.011117
Si Si4 0.267769 0.993376 0.894685
Si Si5 0.500000 0.314097 0.000000
Si Si6 0.175091 0.105242 0.187987
Si Si7 0.500000 0.720447 0.000000
Si Si8 0.716444 0.191202 0.300703
O O1 0.500000 0.498968 0.500000
O O2 0.331601 0.520654 0.815552
O O3 0.291961 0.328720 0.720913
O O4 0.024333 0.508316 0.829808
O O5 0.000000 0.844573 0.500000
O O6 0.511633 0.916753 0.747450
O O7 0.838778 0.013600 0.702288
O O8 0.672531 0.802087 0.832257
O O9 0.623987 0.400392 0.022500
O O10 0.643713 0.633866 0.004932
O O11 0.286932 0.112141 0.810471
O O12 0.278805 0.030821 0.022777
O O13 0.000000 0.945522 0.000000
O O14 0.316011 0.220509 0.152646
O O15 0.942037 0.157667 0.255194
O O16 0.500000 0.159095 0.500000
#
# Coordination Sequence:
#
# PCOD9112872 Si02
#       8
#     2   2   2   2   1   2   1   2
#     4  10  21  39  62  93 127 158 205 251 316 379
#     4  12  24  42  66  91 125 167 214 259 312 365
#     4  10  23  40  65  87 122 168 207 263 312 358
#     4  10  20  35  60  89 128 166 200 248 309 373
#     4  11  17  34  60  90 127 169 204 240 316 377
#     4  11  19  35  61  91 128 163 202 245 310 383
#     4  11  25  48  64  86 121 167 222 268 308 355
#     4  10  20  33  56  94 135 161 195 244 310 385
#
# _framework density 18.883205
#
# number of rings (size 3 to 8) (size 9 to 14) (size 15 to 20)
#    0.000    1.429    4.286    1.714    4.000    1.143 
#    2.571    2.143    0.000    0.857    0.000    0.000 
#    0.000    0.000    0.000    0.000    0.000    0.000 
#
# Total GULP energy -78001.315182 kJ/mol
# GULP energy per Si atom -5571.522513 kJ/mol
# Density = 1.884023 g / cm^3
# Si number density = 18.883205 Si / 1000 Ang^3
#
#
#
# Elastic Constant Matrix: (Units=GPa)
#
#
# Indices 1 2 3 4 5 6 
#
# 1 98.3481 39.3363 53.8464 0.0000 -1.5128 0.0000
# 2 39.3363 86.5705 48.6716 0.0000 3.6304 0.0000
# 3 53.8464 48.6716 149.8480 0.0000 -8.9476 0.0000
# 4 0.0000 0.0000 0.0000 16.8533 0.0000 -1.2189
# 5 -1.5128 3.6304 -8.9476 0.0000 18.0430 0.0000
# 6 0.0000 0.0000 0.0000 -1.2189 0.0000 5.2508
#
#
#
# Elastic Compliance Matrix: (Units=1/GPa)
#
#
# Indices 1 2 3 4 5 6 
#
# 1 0.013841 -0.004297 -0.003563 0.000000 0.000258 0.000000
# 2 -0.004297 0.015971 -0.003974 0.000000 -0.005545 0.000000
# 3 -0.003563 -0.003974 0.009557 0.000000 0.005241 0.000000
# 4 0.000000 0.000000 0.000000 0.060349 0.000000 0.014009
# 5 0.000258 -0.005545 0.005241 0.000000 0.059159 0.000000
# 6 0.000000 0.000000 0.000000 0.014009 0.000000 0.193698
#
#
# Mechanical properties :
#
#
# Convention : Reuss Voigt Hill
#
# Bulk Modulus (GPa) = 63.68880 68.71945 66.20413
# Shear Modulus (GPa) = 13.10693 20.89025 16.99859
#
# Velocity S-wave (km/s) = 2.63745 3.32970 3.00358
# Velocity P-wave (km/s) = 6.56322 7.15915 6.86765
#
# Compressibility (1/GPa) = 0.01570135
#
# Stress axis : x y z
#
# Youngs Moduli (GPa) = 72.24815 62.61427 104.63096
#
# Poissons Ratio (x) = 0.26906 0.37275
# Poissons Ratio (y) = 0.31046 0.41584
# Poissons Ratio (z) = 0.25739 0.24885
#
# Static dielectric constant tensor:
#      x y z
#    x 1.656750 0.000000 -0.011770 
#    y 0.000000 1.620670 0.000000 
#    z -0.011770 0.000000 1.672850 
# 
# From -- ./inp_files/10933.got.cif
#   From: 2010.05.17/outbox.cif.g08.bks.cpg/sg3_6_cif.got.tgz:10933.got - 2010.06.03 18:33:08.
