data_PCOD9112933
_publ_section_title
;
Structure prediction by ZEFSAII (Michael W. Deem and Ramdas Pophale) SiO2 
 PCOD9112933
Probable space group: P 2
;
_chemical_formula_sum "Si O2"
_cell_formula_units_Z 14
_cell_length_a 11.203937
_cell_length_b 8.844308
_cell_length_c 13.288259
_cell_angle_alpha 90.000000
_cell_angle_beta 146.792209
_cell_angle_gamma 90.000000
_cell_volume 721.152484
_symmetry_space_group_name_H-M "P 2"
_symmetry_group_IT_number 3
_symmetry_cell_setting 'monoclinic'
loop_
_space_group_symop_operation_xyz
x,y,z
-x,y,-z
loop_
_atom_site_type_symbol
_atom_site_label
_atom_site_fract_x
_atom_site_fract_y
_atom_site_fract_z
Si Si1 0.663649 0.308010 0.265460
Si Si2 0.395300 0.972813 0.699592
Si Si3 0.884230 0.540986 0.574564
Si Si4 0.871104 0.967511 0.117808
Si Si5 0.174452 0.301756 0.849759
Si Si6 0.702225 0.812774 0.569038
Si Si7 0.732850 0.764980 0.207062
O O1 0.761452 0.437237 0.406206
O O2 0.777394 0.296862 0.236522
O O3 0.681279 0.140321 0.324633
O O4 0.407236 0.335828 0.064583
O O5 0.335005 0.936186 0.544129
O O6 0.296501 0.848120 0.707072
O O7 0.655159 0.961181 0.898002
O O8 0.736308 0.658477 0.530858
O O9 0.997871 0.431498 0.735771
O O10 0.083326 0.637908 0.667545
O O11 0.802929 0.892633 0.176381
O O12 0.073341 0.869471 0.221519
O O13 0.911401 0.142977 0.169276
O O14 0.500000 0.803805 0.500000
O O15 0.500000 0.705812 0.000000
#
# Coordination Sequence:
#
# PCOD9112933 Si02
#       7
#     2   2   2   2   2   2   2
#     4  10  21  36  60  91 125 155 179 234 295 370
#     4  10  20  39  64  88 117 151 198 245 294 348
#     4  11  24  35  57  87 124 160 191 232 296 355
#     4   9  19  40  64  88 115 152 190 245 299 345
#     4  10  20  36  58  91 127 147 184 229 298 369
#     4  11  26  42  58  82 116 161 211 251 282 330
#     4   9  19  35  58  90 123 151 186 239 299 363
#
# _framework density 19.413371000000001
#
# number of rings (size 3 to 8) (size 9 to 14) (size 15 to 20)
#    0.000    2.000    1.429    1.286    6.000    4.571 
#    0.000    2.857    0.000    1.714    0.000    0.000 
#    0.000    0.000    0.000    0.000    0.000    0.000 
#
# Total GULP energy -78244.273099 kJ/mol
# GULP energy per Si atom -5588.876650 kJ/mol
# Density = 1.936918 g / cm^3
# Si number density = 19.413371 Si / 1000 Ang^3
#
#
#
# Elastic Constant Matrix: (Units=GPa)
#
#
# Indices 1 2 3 4 5 6 
#
# 1 56.1191 16.5568 33.2254 0.0000 22.5792 0.0000
# 2 16.5568 98.8155 54.5950 0.0000 4.3241 0.0000
# 3 33.2254 54.5950 83.3176 0.0000 9.8607 0.0000
# 4 0.0000 0.0000 0.0000 36.6245 0.0000 -2.8833
# 5 22.5792 4.3241 9.8607 0.0000 21.4416 0.0000
# 6 0.0000 0.0000 0.0000 -2.8833 0.0000 11.3928
#
#
#
# Elastic Compliance Matrix: (Units=1/GPa)
#
#
# Indices 1 2 3 4 5 6 
#
# 1 0.039137 0.002024 -0.012699 0.000000 -0.035781 0.000000
# 2 0.002024 0.016024 -0.011287 0.000000 -0.000173 0.000000
# 3 -0.012699 -0.011287 0.023912 0.000000 0.004652 0.000000
# 4 0.000000 0.000000 0.000000 0.027859 0.000000 0.007051
# 5 -0.035781 -0.000173 0.004652 0.000000 0.082213 0.000000
# 6 0.000000 0.000000 0.000000 0.007051 0.000000 0.089559
#
#
# Mechanical properties :
#
#
# Convention : Reuss Voigt Hill
#
# Bulk Modulus (GPa) = 28.44956 49.66739 39.05847
# Shear Modulus (GPa) = 14.95470 22.81680 18.88575
#
# Velocity S-wave (km/s) = 2.77849 3.43200 3.12239
# Velocity P-wave (km/s) = 4.99798 6.42997 5.75866
#
# Compressibility (1/GPa) = 0.03514993
#
# Stress axis : x y z
#
# Youngs Moduli (GPa) = 25.55147 62.40572 41.82086
#
# Poissons Ratio (x) = -0.12632 0.53107
# Poissons Ratio (y) = -0.05172 0.47203
# Poissons Ratio (z) = 0.32447 0.70436
#
# Static dielectric constant tensor:
#      x y z
#    x 1.637510 0.000000 0.009260 
#    y 0.000000 1.685390 0.000000 
#    z 0.009260 0.000000 1.745100 
# 
# From -- ./inp_files/13765.got.cif
#   From: 2010.05.17/outbox.cif.g08.bks.cpg/sg3_7_cif.got.tgz:13765.got - 2010.06.03 18:33:08.
