data_PCOD9112222
_publ_section_title
;
Structure prediction by ZEFSAII (Michael W. Deem and Ramdas Pophale) SiO2 
 PCOD9112222
Probable space group: P -1
;
_chemical_formula_sum "Si O2"
_cell_formula_units_Z 16
_cell_length_a 13.088063
_cell_length_b 14.310392
_cell_length_c 9.069910
_cell_angle_alpha 27.356272
_cell_angle_beta 62.949205
_cell_angle_gamma 64.092649
_cell_volume 692.954212
_symmetry_space_group_name_H-M "P -1"
_symmetry_group_IT_number 2
_symmetry_cell_setting 'triclinic'
loop_
_space_group_symop_operation_xyz
x,y,z
-x,-y,-z
loop_
_atom_site_type_symbol
_atom_site_label
_atom_site_fract_x
_atom_site_fract_y
_atom_site_fract_z
Si Si1 0.834325 0.052332 0.323350
Si Si2 0.504055 0.053841 0.747155
Si Si3 0.189826 0.404207 0.064838
Si Si4 0.953594 0.716629 0.171580
Si Si5 0.729018 0.724711 0.479556
Si Si6 0.439854 0.365819 0.848671
Si Si7 0.616317 0.306413 0.084852
Si Si8 0.053580 0.768226 0.758534
O O1 0.849300 0.809610 0.674064
O O2 0.714797 0.130676 0.216575
O O3 0.830558 0.192908 0.276756
O O4 0.951201 0.125265 0.071916
O O5 0.374021 0.100079 0.709008
O O6 0.567270 0.240261 0.369344
O O7 0.500000 0.000000 0.000000
O O8 0.565864 0.855903 0.907895
O O9 0.215650 0.332299 0.318284
O O10 0.310879 0.451532 0.849651
O O11 0.102190 0.607027 0.832839
O O12 0.830061 0.780746 0.225756
O O13 0.000000 0.500000 0.500000
O O14 0.962182 0.667122 0.062011
O O15 0.675127 0.518397 0.751781
O O16 0.500000 0.500000 0.500000
O O17 0.514181 0.332667 0.995646
O O18 0.000000 0.000000 0.500000
#
# Coordination Sequence:
#
# PCOD9112222 Si02
#       8
#     2   2   2   2   2   2   2   2
#     4  10  23  42  72 103 139 192 242 297 364 435
#     4  12  27  44  72 112 145 194 248 301 374 441
#     4  12  23  45  76 100 147 194 243 300 380 429
#     4  10  20  45  64 106 138 178 256 285 360 436
#     4  12  23  42  77 103 141 202 232 305 371 436
#     4  12  28  46  67 112 149 188 252 302 364 453
#     4  12  22  46  74 105 148 193 240 306 367 434
#     4  10  24  45  71 100 144 187 244 306 363 432
#
# _framework density 23.089549000000002
#
# number of rings (size 3 to 8) (size 9 to 14) (size 15 to 20)
#    0.750    0.000    6.250    2.250    1.750    3.000 
#    2.250    0.000    0.000    0.000    0.000    0.000 
#    0.000    0.000    0.000    0.000    0.000    0.000 
#
# Total GULP energy -89116.366196 kJ/mol
# GULP energy per Si atom -5569.772887 kJ/mol
# Density = 2.303700 g / cm^3
# Si number density = 23.089549 Si / 1000 Ang^3
#
#
#
# Elastic Constant Matrix: (Units=GPa)
#
#
# Indices 1 2 3 4 5 6 
#
# 1 74.5596 42.1363 36.4149 11.9472 -12.5411 -18.3117
# 2 42.1363 116.7255 39.8575 -0.8114 -8.0909 -27.9325
# 3 36.4149 39.8575 114.3668 7.7668 -7.2989 -9.9959
# 4 11.9472 -0.8114 7.7668 39.5163 -8.6976 -3.1681
# 5 -12.5411 -8.0909 -7.2989 -8.6976 43.2006 2.1324
# 6 -18.3117 -27.9325 -9.9959 -3.1681 2.1324 62.7613
#
#
#
# Elastic Compliance Matrix: (Units=1/GPa)
#
#
# Indices 1 2 3 4 5 6 
#
# 1 0.020101 -0.005111 -0.003879 -0.004507 0.003185 0.002636
# 2 -0.005111 0.012192 -0.002439 0.002735 0.000758 0.003659
# 3 -0.003879 -0.002439 0.010857 -0.001039 0.000069 -0.000543
# 4 -0.004507 0.002735 -0.001039 0.028026 0.004622 0.000994
# 5 0.003185 0.000758 0.000069 0.004622 0.025124 0.000657
# 6 0.002636 0.003659 -0.000543 0.000994 0.000657 0.018272
#
#
# Mechanical properties :
#
#
# Convention : Reuss Voigt Hill
#
# Bulk Modulus (GPa) = 49.28450 60.27436 54.77943
# Shear Modulus (GPa) = 34.67549 41.57851 38.12700
#
# Velocity S-wave (km/s) = 3.87949 4.24813 4.06799
# Velocity P-wave (km/s) = 6.43883 7.08685 6.77060
#
# Compressibility (1/GPa) = 0.02029036
#
# Stress axis : x y z
#
# Youngs Moduli (GPa) = 49.74982 82.01998 92.11060
#
# Poissons Ratio (x) = 0.41922 0.35730
# Poissons Ratio (y) = 0.25428 0.22468
# Poissons Ratio (z) = 0.19298 0.20007
#
# Static dielectric constant tensor:
#      x y z
#    x 2.037020 0.001830 0.059760 
#    y 0.001830 1.890510 -0.005370 
#    z 0.059760 -0.005370 1.887090 
# 
# From -- ./inp_files/312244.got.cif
#   From: 2010.05.17/outbox.cif.g08.bks.cpg/sg2_157_cif.got.tgz:312244.got - 2010.06.03 11:33:40.
