data_PCOD9112638
_publ_section_title
;
Structure prediction by ZEFSAII (Michael W. Deem and Ramdas Pophale) SiO2 
 PCOD9112638
Probable space group: P 2
;
_chemical_formula_sum "Si O2"
_cell_formula_units_Z 14
_cell_length_a 23.196961
_cell_length_b 5.292610
_cell_length_c 13.834281
_cell_angle_alpha 90.000000
_cell_angle_beta 27.556124
_cell_angle_gamma 90.000000
_cell_volume 785.740994
_symmetry_space_group_name_H-M "P 2"
_symmetry_group_IT_number 3
_symmetry_cell_setting 'monoclinic'
loop_
_space_group_symop_operation_xyz
x,y,z
-x,y,-z
loop_
_atom_site_type_symbol
_atom_site_label
_atom_site_fract_x
_atom_site_fract_y
_atom_site_fract_z
Si Si1 0.503754 0.258220 0.111331
Si Si2 0.723992 0.572213 0.580937
Si Si3 0.934110 0.834339 0.495108
Si Si4 0.887338 0.355608 0.088051
Si Si5 0.645118 0.755635 0.900650
Si Si6 0.848745 0.853633 0.222225
Si Si7 0.959269 0.339576 0.333357
O O1 0.370897 0.385587 0.332335
O O2 0.500000 0.250567 0.000000
O O3 0.600435 0.477632 0.998140
O O4 0.551654 0.981249 0.069518
O O5 0.656137 0.730436 0.766738
O O6 0.794264 0.765184 0.405450
O O7 0.825699 0.397240 0.482472
O O8 0.784681 0.809504 0.728101
O O9 0.980682 0.586717 0.367544
O O10 0.000000 0.850717 0.500000
O O11 0.957148 0.085881 0.398409
O O12 0.946027 0.313728 0.896394
O O13 0.820099 0.623277 0.193455
O O14 0.000000 0.380097 0.000000
O O15 0.806813 0.121117 0.244078
O O16 0.000000 0.878384 0.000000
#
# Coordination Sequence:
#
# PCOD9112638 Si02
#       7
#     2   2   2   2   2   2   2
#     4  10  19  32  46  72 101 138 181 206 248 325
#     4  10  20  32  53  76 110 155 171 207 268 330
#     4  11  23  37  55  74 100 139 194 234 272 314
#     4  10  19  30  46  72 110 141 168 204 254 330
#     4  10  21  33  48  70 101 137 179 224 255 304
#     4  10  19  30  45  72 110 143 173 202 247 314
#     4  11  21  34  52  76 108 149 172 215 280 311
#
# _framework density 17.817575000000001
#
# number of rings (size 3 to 8) (size 9 to 14) (size 15 to 20)
#    0.000    1.714    2.857    5.143    6.000    4.571 
#    0.000    0.000    0.000    0.000    0.000    0.000 
#    0.000   17.143    0.000    0.000    0.000    0.000 
#
# Total GULP energy -78080.186039 kJ/mol
# GULP energy per Si atom -5577.156146 kJ/mol
# Density = 1.777702 g / cm^3
# Si number density = 17.817575 Si / 1000 Ang^3
#
#
#
# Elastic Constant Matrix: (Units=GPa)
#
#
# Indices 1 2 3 4 5 6 
#
# 1 70.2350 26.7212 24.0806 0.0000 1.4905 0.0000
# 2 26.7212 129.8888 18.3143 0.0000 -0.2066 0.0000
# 3 24.0806 18.3143 55.5156 0.0000 6.7785 0.0000
# 4 0.0000 0.0000 0.0000 28.0789 0.0000 11.6377
# 5 1.4905 -0.2066 6.7785 0.0000 12.7913 0.0000
# 6 0.0000 0.0000 0.0000 11.6377 0.0000 14.0579
#
#
#
# Elastic Compliance Matrix: (Units=1/GPa)
#
#
# Indices 1 2 3 4 5 6 
#
# 1 0.017592 -0.002636 -0.006956 0.000000 0.001594 0.000000
# 2 -0.002636 0.008502 -0.001834 0.000000 0.001417 0.000000
# 3 -0.006956 -0.001834 0.023030 0.000000 -0.011423 0.000000
# 4 0.000000 0.000000 0.000000 0.054216 0.000000 -0.044882
# 5 0.001594 0.001417 -0.011423 0.000000 0.084069 0.000000
# 6 0.000000 0.000000 0.000000 -0.044882 0.000000 0.108290
#
#
# Mechanical properties :
#
#
# Convention : Reuss Voigt Hill
#
# Bulk Modulus (GPa) = 38.06331 43.76352 40.91341
# Shear Modulus (GPa) = 15.27617 23.42052 19.34835
#
# Velocity S-wave (km/s) = 2.93126 3.62948 3.29890
# Velocity P-wave (km/s) = 5.73285 6.49458 6.12556
#
# Compressibility (1/GPa) = 0.02627202
#
# Stress axis : x y z
#
# Youngs Moduli (GPa) = 56.84507 117.61886 43.42160
#
# Poissons Ratio (x) = 0.31001 0.30203
# Poissons Ratio (y) = 0.14983 0.07965
# Poissons Ratio (z) = 0.39539 0.21577
#
# Static dielectric constant tensor:
#      x y z
#    x 1.556110 0.000000 0.009880 
#    y 0.000000 1.693220 0.000000 
#    z 0.009880 0.000000 1.656770 
# 
# From -- ./inp_files/12596.got.cif
#   From: 2010.05.17/outbox.cif.g08.bks.cpg/sg3_7_cif.got.tgz:12596.got - 2010.06.03 18:33:08.
