data_PCOD9112740
_publ_section_title
;
Structure prediction by ZEFSAII (Michael W. Deem and Ramdas Pophale) SiO2 
 PCOD9112740
Probable space group: P 2
;
_chemical_formula_sum "Si O2"
_cell_formula_units_Z 16
_cell_length_a 9.003223
_cell_length_b 9.238623
_cell_length_c 13.954720
_cell_angle_alpha 90.000000
_cell_angle_beta 130.178725
_cell_angle_gamma 90.000000
_cell_volume 886.829233
_symmetry_space_group_name_H-M "P 2"
_symmetry_group_IT_number 3
_symmetry_cell_setting 'monoclinic'
loop_
_space_group_symop_operation_xyz
x,y,z
-x,y,-z
loop_
_atom_site_type_symbol
_atom_site_label
_atom_site_fract_x
_atom_site_fract_y
_atom_site_fract_z
Si Si1 0.583645 0.979010 0.762002
Si Si2 0.059641 0.979010 0.237998
Si Si3 0.169900 0.630013 0.500000
Si Si4 0.321972 0.137354 0.000000
Si Si5 0.179675 0.452059 0.000000
Si Si6 0.172844 0.982280 0.500000
Si Si7 0.578778 0.636804 0.755548
Si Si8 0.067680 0.636804 0.244451
O O1 0.383446 0.027280 0.627508
O O2 0.564334 0.806938 0.775018
O O3 0.764904 0.998310 0.764904
O O4 0.621700 0.060627 0.876690
O O5 0.868321 0.060628 0.123310
O O6 0.128430 0.027280 0.372492
O O7 0.014297 0.806938 0.224981
O O8 0.176563 0.806115 0.500000
O O9 0.375844 0.583579 0.628131
O O10 0.119581 0.583579 0.371868
O O11 0.000000 0.584788 0.500000
O O12 0.264495 0.301508 0.000001
O O13 0.500000 0.128954 0.000000
O O14 0.095031 0.544586 0.876784
O O15 0.341464 0.544586 0.123217
O O16 0.000000 0.429075 0.000000
O O17 0.000000 0.026302 0.500000
O O18 0.739185 0.627197 0.739184
#
# Coordination Sequence:
#
# PCOD9112740 Si02
#       8
#     2   2   2   2   2   2   2   2
#     4  10  19  35  59  84 108 140 180 221 265 319
#     4  10  19  35  59  84 108 140 180 221 265 319
#     4   9  17  29  50  81 114 141 168 208 262 317
#     4  12  25  38  52  76 110 146 181 224 272 318
#     4  10  21  38  56  76 104 140 181 224 266 316
#     4   9  17  31  52  83 116 141 170 216 268 317
#     4   9  18  34  58  83 106 135 176 221 264 312
#     4   9  18  34  58  83 106 135 176 221 264 312
#
# _framework density 18.041803999999999
#
# number of rings (size 3 to 8) (size 9 to 14) (size 15 to 20)
#    0.000    2.250    0.000    3.375    0.000    7.000 
#    0.000    2.500    0.000    4.500    0.000    0.000 
#    0.000    0.000    0.000    0.000    0.000    0.000 
#
# Total GULP energy -89306.306282 kJ/mol
# GULP energy per Si atom -5581.644143 kJ/mol
# Density = 1.800074 g / cm^3
# Si number density = 18.041804 Si / 1000 Ang^3
#
#
#
# Elastic Constant Matrix: (Units=GPa)
#
#
# Indices 1 2 3 4 5 6 
#
# 1 93.6516 61.6041 101.9536 0.0000 2.8970 0.0000
# 2 61.6041 66.5869 85.2021 0.0000 1.5352 0.0000
# 3 101.9536 85.2021 230.4250 0.0000 6.0023 0.0000
# 4 0.0000 0.0000 0.0000 -8.5049 0.0000 -1.8100
# 5 2.8970 1.5352 6.0023 0.0000 18.3138 0.0000
# 6 0.0000 0.0000 0.0000 -1.8100 0.0000 19.3060
#
#
#
# Elastic Compliance Matrix: (Units=1/GPa)
#
#
# Indices 1 2 3 4 5 6 
#
# 1 0.031033 -0.021170 -0.005871 0.000000 -0.001210 0.000000
# 2 -0.021170 0.042967 -0.006570 0.000000 0.001900 0.000000
# 3 -0.005871 -0.006570 0.009409 0.000000 -0.001604 0.000000
# 4 0.000000 0.000000 0.000000 -0.115279 0.000000 -0.010808
# 5 -0.001210 0.001900 -0.001604 0.000000 0.055162 0.000000
# 6 0.000000 0.000000 0.000000 -0.010808 0.000000 0.050784
#
#
# Mechanical properties :
#
#
# Convention : Reuss Voigt Hill
#
# Bulk Modulus (GPa) = 61.78337 98.68700 80.23519
# Shear Modulus (GPa) = 34.08490 15.28322 24.68406
#
# Velocity S-wave (km/s) = 4.35123 2.91366 3.70288
# Velocity P-wave (km/s) = 7.71772 8.13247 7.92780
#
# Compressibility (1/GPa) = 0.01618559
#
# Stress axis : x y z
#
# Youngs Moduli (GPa) = 32.22411 23.27386 106.28286
#
# Poissons Ratio (x) = 0.49270 0.62403
# Poissons Ratio (y) = 0.68217 0.69830
# Poissons Ratio (z) = 0.18920 0.15291
#
# Static dielectric constant tensor:
#      x y z
#    x 1.600160 0.000000 0.000090 
#    y 0.000000 1.602260 0.000000 
#    z 0.000090 0.000000 1.601520 
# 
# From -- ./inp_files/7514.got.cif
#   From: 2010.05.17/outbox.cif.g08.bks.cpg/sg3_4_cif.got.tgz:7514.got - 2010.06.03 18:33:08.
