data_PCOD9112862
_publ_section_title
;
Structure prediction by ZEFSAII (Michael W. Deem and Ramdas Pophale) SiO2 
 PCOD9112862
Probable space group: P 2
;
_chemical_formula_sum "Si O2"
_cell_formula_units_Z 14
_cell_length_a 16.935579
_cell_length_b 8.005396
_cell_length_c 16.242803
_cell_angle_alpha 90.000000
_cell_angle_beta 162.791434
_cell_angle_gamma 90.000000
_cell_volume 651.503405
_symmetry_space_group_name_H-M "P 2"
_symmetry_group_IT_number 3
_symmetry_cell_setting 'monoclinic'
loop_
_space_group_symop_operation_xyz
x,y,z
-x,y,-z
loop_
_atom_site_type_symbol
_atom_site_label
_atom_site_fract_x
_atom_site_fract_y
_atom_site_fract_z
Si Si1 0.763691 0.465840 0.209100
Si Si2 0.557190 0.529575 0.834262
Si Si3 0.241710 0.448416 0.298229
Si Si4 0.207847 0.007666 0.952483
Si Si5 0.305364 0.213053 0.519380
Si Si6 0.950581 0.668765 0.756595
Si Si7 0.763978 0.073217 0.207130
O O1 0.824646 0.270678 0.250674
O O2 0.000000 0.535427 0.500000
O O3 0.500000 0.466048 0.000000
O O4 0.696891 0.563289 0.059775
O O5 0.425787 0.346034 0.704287
O O6 0.307036 0.643248 0.558976
O O7 0.803536 0.541116 0.016301
O O8 0.500000 0.472179 0.500000
O O9 0.294933 0.314459 0.423708
O O10 0.157078 0.618438 0.261128
O O11 0.000000 0.392176 0.000000
O O12 0.254019 0.989578 0.900414
O O13 0.983660 0.149288 0.743013
O O14 0.483385 0.063120 0.269021
O O15 0.085139 0.844549 0.872469
O O16 0.000000 0.006609 0.500000
O O17 0.500000 0.062279 0.000000
#
# Coordination Sequence:
#
# PCOD9112862 Si02
#       7
#     2   2   2   2   2   2   2
#     4  10  20  32  57  91 120 161 221 281 318 351
#     4  11  21  41  62  93 125 171 222 266 316 395
#     4  11  23  44  70  97 128 167 213 263 330 406
#     4  12  23  42  65 101 133 170 223 270 317 388
#     4  11  23  39  71  95 124 166 219 271 316 379
#     4  11  25  41  67  95 133 175 208 258 339 398
#     4  10  21  35  58  92 127 172 216 271 324 361
#
# _framework density 21.488759999999999
#
# number of rings (size 3 to 8) (size 9 to 14) (size 15 to 20)
#    0.000    1.143    1.429    6.857    4.000    0.000 
#    0.000    5.714    0.000    1.714    0.000    0.000 
#    0.000    0.000    0.000    0.000    0.000    0.000 
#
# Total GULP energy -78284.345257 kJ/mol
# GULP energy per Si atom -5591.738947 kJ/mol
# Density = 2.143985 g / cm^3
# Si number density = 21.488760 Si / 1000 Ang^3
#
#
#
# Elastic Constant Matrix: (Units=GPa)
#
#
# Indices 1 2 3 4 5 6 
#
# 1 114.8666 29.1321 30.0284 0.0000 3.6131 0.0000
# 2 29.1321 60.9017 13.7970 0.0000 1.6527 0.0000
# 3 30.0284 13.7970 121.1965 0.0000 -9.4894 0.0000
# 4 0.0000 0.0000 0.0000 30.7577 0.0000 7.9521
# 5 3.6131 1.6527 -9.4894 0.0000 49.0960 0.0000
# 6 0.0000 0.0000 0.0000 7.9521 0.0000 9.8113
#
#
#
# Elastic Compliance Matrix: (Units=1/GPa)
#
#
# Indices 1 2 3 4 5 6 
#
# 1 0.010437 -0.004476 -0.002158 0.000000 -0.001034 0.000000
# 2 -0.004476 0.018818 -0.001073 0.000000 -0.000512 0.000000
# 3 -0.002158 -0.001073 0.009060 0.000000 0.001946 0.000000
# 4 0.000000 0.000000 0.000000 0.041131 0.000000 -0.033337
# 5 -0.001034 -0.000512 0.001946 0.000000 0.020838 0.000000
# 6 0.000000 0.000000 0.000000 -0.033337 0.000000 0.128943
#
#
# Mechanical properties :
#
#
# Convention : Reuss Voigt Hill
#
# Bulk Modulus (GPa) = 43.66393 49.20886 46.43640
# Shear Modulus (GPa) = 19.81967 32.86680 26.34324
#
# Velocity S-wave (km/s) = 3.04028 3.91511 3.50509
# Velocity P-wave (km/s) = 5.71734 6.58688 6.16745
#
# Compressibility (1/GPa) = 0.02290220
#
# Stress axis : x y z
#
# Youngs Moduli (GPa) = 95.80874 53.14071 110.37299
#
# Poissons Ratio (x) = 0.23785 0.23813
# Poissons Ratio (y) = 0.42883 0.11847
# Poissons Ratio (z) = 0.20671 0.05704
#
# Static dielectric constant tensor:
#      x y z
#    x 1.771450 0.000000 -0.013530 
#    y 0.000000 1.839270 0.000000 
#    z -0.013530 0.000000 1.775380 
# 
# From -- ./inp_files/14014.got.cif
#   From: 2010.05.17/outbox.cif.g08.bks.cpg/sg3_8_cif.got.tgz:14014.got - 2010.06.03 18:33:08.
