data_PCOD9112154
_publ_section_title
;
Structure prediction by ZEFSAII (Michael W. Deem and Ramdas Pophale) SiO2 
 PCOD9112154
Probable space group: P -1
;
_chemical_formula_sum "Si O2"
_cell_formula_units_Z 14
_cell_length_a 9.694983
_cell_length_b 8.665276
_cell_length_c 6.933877
_cell_angle_alpha 103.578647
_cell_angle_beta 100.415851
_cell_angle_gamma 73.844874
_cell_volume 539.696404
_symmetry_space_group_name_H-M "P -1"
_symmetry_group_IT_number 2
_symmetry_cell_setting 'triclinic'
loop_
_space_group_symop_operation_xyz
x,y,z
-x,-y,-z
loop_
_atom_site_type_symbol
_atom_site_label
_atom_site_fract_x
_atom_site_fract_y
_atom_site_fract_z
Si Si1 0.768114 0.787629 0.750769
Si Si2 0.596765 0.345440 0.741800
Si Si3 0.219464 0.995489 0.813649
Si Si4 0.126432 0.561834 0.155918
Si Si5 0.669325 0.360873 0.307595
Si Si6 0.036087 0.771604 0.553546
Si Si7 0.507780 0.962228 0.221382
O O1 0.885547 0.784562 0.617939
O O2 0.781796 0.602889 0.765130
O O3 0.810951 0.890476 0.973352
O O4 0.000000 0.500000 0.000000
O O5 0.743441 0.372457 0.886714
O O6 0.636834 0.334708 0.519576
O O7 0.457062 0.497674 0.765658
O O8 0.549646 0.187781 0.759113
O O9 0.317911 0.814152 0.836676
O O10 0.090022 0.935543 0.661953
O O11 0.321101 0.064150 0.713284
O O12 0.395129 0.122983 0.320880
O O13 0.045433 0.706595 0.320163
O O14 0.836592 0.371280 0.352922
O O15 0.500000 0.000000 0.000000
#
# Coordination Sequence:
#
# PCOD9112154 Si02
#       7
#     2   2   2   2   2   2   2
#     4  11  22  44  69 103 153 187 239 303 362 437
#     4  10  20  44  72 105 147 190 240 310 354 440
#     4   9  20  42  69 108 144 185 240 296 367 432
#     4  11  25  45  69 106 144 195 250 292 365 438
#     4   8  19  40  73 108 142 178 249 292 375 418
#     4   9  21  44  75 103 145 187 241 299 362 440
#     4  10  23  42  69 110 146 191 240 294 372 436
#
# _framework density 25.94051
#
# number of rings (size 3 to 8) (size 9 to 14) (size 15 to 20)
#    0.857    1.429    0.000    1.714    0.000    4.000 
#    7.714    7.857    0.000    0.000    0.000    0.000 
#    0.000    0.000    0.000    0.000    0.000    0.000 
#
# Total GULP energy -78264.062001 kJ/mol
# GULP energy per Si atom -5590.290143 kJ/mol
# Density = 2.588147 g / cm^3
# Si number density = 25.940510 Si / 1000 Ang^3
#
#
#
# Elastic Constant Matrix: (Units=GPa)
#
#
# Indices 1 2 3 4 5 6 
#
# 1 148.3707 53.6808 27.6065 -19.0878 -23.9880 8.8526
# 2 53.6808 162.4650 38.4937 4.9678 -4.2555 7.4459
# 3 27.6065 38.4937 102.3397 7.9345 -4.3422 -6.3967
# 4 -19.0878 4.9678 7.9345 37.3959 -5.5647 -7.7804
# 5 -23.9880 -4.2555 -4.3422 -5.5647 35.0488 8.1040
# 6 8.8526 7.4459 -6.3967 -7.7804 8.1040 53.6706
#
#
#
# Elastic Compliance Matrix: (Units=1/GPa)
#
#
# Indices 1 2 3 4 5 6 
#
# 1 0.010487 -0.002900 -0.002049 0.007007 0.008095 -0.001778
# 2 -0.002900 0.007678 -0.002036 -0.002489 -0.001477 -0.000967
# 3 -0.002049 -0.002036 0.011382 -0.003000 -0.001111 0.001710
# 4 0.007007 -0.002489 -0.003000 0.033078 0.008844 0.002292
# 5 0.008095 -0.001477 -0.001111 0.008844 0.036427 -0.005481
# 6 -0.001778 -0.000967 0.001710 0.002292 -0.005481 0.020423
#
#
# Mechanical properties :
#
#
# Convention : Reuss Voigt Hill
#
# Bulk Modulus (GPa) = 64.19761 72.52639 68.36200
# Shear Modulus (GPa) = 36.06575 44.78269 40.42422
#
# Velocity S-wave (km/s) = 3.73275 4.15946 3.95187
# Velocity P-wave (km/s) = 6.58632 7.14756 6.87267
#
# Compressibility (1/GPa) = 0.01557690
#
# Stress axis : x y z
#
# Youngs Moduli (GPa) = 95.35799 130.25025 87.85766
#
# Poissons Ratio (x) = 0.37776 0.18001
# Poissons Ratio (y) = 0.27656 0.17884
# Poissons Ratio (z) = 0.19538 0.26513
#
# Static dielectric constant tensor:
#      x y z
#    x 2.067620 0.009610 0.083580 
#    y 0.009610 1.999980 -0.008150 
#    z 0.083580 -0.008150 2.190160 
# 
# From -- ./inp_files/292354.got.cif
#   From: 2010.05.17/outbox.cif.g08.bks.cpg/sg2_147_cif.got.tgz:292354.got - 2010.06.03 11:33:40.
