data_PCOD9112573
_publ_section_title
;
Structure prediction by ZEFSAII (Michael W. Deem and Ramdas Pophale) SiO2 
 PCOD9112573
Probable space group: P 2
;
_chemical_formula_sum "Si O2"
_cell_formula_units_Z 12
_cell_length_a 9.476142
_cell_length_b 7.601871
_cell_length_c 16.546850
_cell_angle_alpha 90.000000
_cell_angle_beta 32.879598
_cell_angle_gamma 90.000000
_cell_volume 647.094311
_symmetry_space_group_name_H-M "P 2"
_symmetry_group_IT_number 3
_symmetry_cell_setting 'monoclinic'
loop_
_space_group_symop_operation_xyz
x,y,z
-x,y,-z
loop_
_atom_site_type_symbol
_atom_site_label
_atom_site_fract_x
_atom_site_fract_y
_atom_site_fract_z
Si Si1 0.766994 0.577080 0.550505
Si Si2 0.869258 0.093883 0.140029
Si Si3 0.719169 0.723752 0.125026
Si Si4 0.748760 0.889919 0.937803
Si Si5 0.615762 0.240980 0.529208
Si Si6 0.216381 0.860331 0.596080
O O1 0.504330 0.611845 0.726827
O O2 0.759895 0.396709 0.504503
O O3 0.800296 0.737686 0.472988
O O4 0.000000 0.574857 0.500000
O O5 0.630354 0.184677 0.298182
O O6 0.757126 0.907477 0.157769
O O7 0.100830 0.053086 0.091863
O O8 0.000000 0.184927 0.000000
O O9 0.673939 0.772364 0.052432
O O10 0.000000 0.635571 0.000000
O O11 0.982785 0.815716 0.769606
O O12 0.500000 0.923471 0.000000
O O13 0.500000 0.305654 0.500000
O O14 0.783840 0.066150 0.429449
O O15 0.500000 0.834662 0.500000
#
# Coordination Sequence:
#
# PCOD9112573 Si02
#       6
#     2   2   2   2   2   2
#     4  12  25  39  59  94 127 156 202 255 306 356
#     4   9  18  37  60  86 116 156 202 241 297 366
#     4   9  19  38  63  85 116 162 201 239 302 368
#     4  10  18  33  63  94 113 151 203 248 307 351
#     4  11  22  40  63  88 119 167 208 240 301 373
#     4  11  20  41  67  86 120 163 203 252 300 363
#
# _framework density 18.544436999999999
#
# number of rings (size 3 to 8) (size 9 to 14) (size 15 to 20)
#    0.000    2.000    5.000    2.500    0.000    1.333 
#    6.000    0.000    0.000    1.000    0.000    0.000 
#    0.000    0.000    0.000    0.000    0.000    0.000 
#
# Total GULP energy -66916.132982 kJ/mol
# GULP energy per Si atom -5576.344415 kJ/mol
# Density = 1.850223 g / cm^3
# Si number density = 18.544437 Si / 1000 Ang^3
#
#
#
# Elastic Constant Matrix: (Units=GPa)
#
#
# Indices 1 2 3 4 5 6 
#
# 1 163.1592 66.2438 44.6132 0.0000 5.8056 0.0000
# 2 66.2438 59.7091 7.9199 0.0000 6.9767 0.0000
# 3 44.6132 7.9199 96.6041 0.0000 15.6556 0.0000
# 4 0.0000 0.0000 0.0000 -22.5616 0.0000 47.8196
# 5 5.8056 6.9767 15.6556 0.0000 28.3064 0.0000
# 6 0.0000 0.0000 0.0000 47.8196 0.0000 -0.9808
#
#
#
# Elastic Compliance Matrix: (Units=1/GPa)
#
#
# Indices 1 2 3 4 5 6 
#
# 1 0.013508 -0.014700 -0.005681 0.000000 0.003994 0.000000
# 2 -0.014700 0.033297 0.005383 0.000000 -0.008169 0.000000
# 3 -0.005681 0.005383 0.013796 0.000000 -0.007792 0.000000
# 4 0.000000 0.000000 0.000000 0.000433 0.000000 0.021116
# 5 0.003994 -0.008169 -0.007792 0.000000 0.040832 0.000000
# 6 0.000000 0.000000 0.000000 0.021116 0.000000 0.009963
#
#
# Mechanical properties :
#
#
# Convention : Reuss Voigt Hill
#
# Bulk Modulus (GPa) = 32.67303 61.89180 47.28241
# Shear Modulus (GPa) = 32.88879 14.33247 23.61063
#
# Velocity S-wave (km/s) = 4.21588 2.78307 3.57205
# Velocity P-wave (km/s) = 6.43080 6.61624 6.52418
#
# Compressibility (1/GPa) = 0.03060629
#
# Stress axis : x y z
#
# Youngs Moduli (GPa) = 74.02769 30.03248 72.48281
#
# Poissons Ratio (x) = 0.44148 0.41174
# Poissons Ratio (y) = 1.08821 -0.39016
# Poissons Ratio (z) = 0.42052 -0.16166
#
# Static dielectric constant tensor:
#      x y z
#    x 1.617550 0.000000 0.018580 
#    y 0.000000 1.651000 0.000000 
#    z 0.018580 0.000000 1.689580 
# 
# From -- ./inp_files/13459.got.cif
#   From: 2010.05.17/outbox.cif.g08.bks.cpg/sg3_7_cif.got.tgz:13459.got - 2010.06.03 18:33:08.
