data_PCOD9112016
_publ_section_title
;
Structure prediction by ZEFSAII (Michael W. Deem and Ramdas Pophale) SiO2 
 PCOD9112016
Probable space group: P -1
;
_chemical_formula_sum "Si O2"
_cell_formula_units_Z 14
_cell_length_a 12.998307
_cell_length_b 9.054871
_cell_length_c 16.510702
_cell_angle_alpha 46.627494
_cell_angle_beta 150.226704
_cell_angle_gamma 122.511024
_cell_volume 692.128672
_symmetry_space_group_name_H-M "P -1"
_symmetry_group_IT_number 2
_symmetry_cell_setting 'triclinic'
loop_
_space_group_symop_operation_xyz
x,y,z
-x,-y,-z
loop_
_atom_site_type_symbol
_atom_site_label
_atom_site_fract_x
_atom_site_fract_y
_atom_site_fract_z
Si Si1 0.641272 0.913316 0.398038
Si Si2 0.127116 0.879457 0.790642
Si Si3 0.786322 0.152592 0.806854
Si Si4 0.316598 0.691198 0.824711
Si Si5 0.357020 0.504675 0.544049
Si Si6 0.191168 0.621148 0.092228
Si Si7 0.085716 0.347253 0.545352
O O1 0.432374 0.938567 0.301119
O O2 0.641812 0.699373 0.432384
O O3 0.873009 0.894489 0.602723
O O4 0.621742 0.102127 0.250584
O O5 0.249708 0.742319 0.853304
O O6 0.164718 0.114462 0.716507
O O7 0.191207 0.781340 0.958239
O O8 0.767991 0.308509 0.660815
O O9 0.809428 0.269540 0.862877
O O10 0.000000 0.000000 0.000000
O O11 0.101515 0.660886 0.643891
O O12 0.500000 0.500000 0.000000
O O13 0.593839 0.538195 0.704163
O O14 0.262453 0.449855 0.584006
O O15 0.000000 0.500000 0.000000
O O16 0.000000 0.500000 0.500000
#
# Coordination Sequence:
#
# PCOD9112016 Si02
#       7
#     2   2   2   2   2   2   2
#     4  10  20  44  67  91 126 181 213 259 333 391
#     4  11  22  45  67  97 135 171 220 270 330 393
#     4  11  26  43  67  96 127 174 222 273 324 392
#     4  11  24  40  69  98 132 175 216 271 328 393
#     4  11  22  44  68  89 134 176 213 264 333 390
#     4  11  25  42  67  95 127 174 220 268 324 391
#     4  11  25  41  67  99 133 172 218 271 327 389
#
# _framework density 20.227453000000001
#
# number of rings (size 3 to 8) (size 9 to 14) (size 15 to 20)
#    0.000    1.143    2.857    4.286    6.000    1.714 
#    2.571    1.429    0.000    0.000    0.000    0.000 
#    0.000    0.000    0.000    0.000    0.000    0.000 
#
# Total GULP energy -78225.855463 kJ/mol
# GULP energy per Si atom -5587.561104 kJ/mol
# Density = 2.018141 g / cm^3
# Si number density = 20.227453 Si / 1000 Ang^3
#
#
#
# Elastic Constant Matrix: (Units=GPa)
#
#
# Indices 1 2 3 4 5 6 
#
# 1 95.1906 33.3093 32.1714 -8.3795 16.7135 4.3794
# 2 33.3093 59.3133 32.1060 -4.9130 8.2680 12.1434
# 3 32.1714 32.1060 110.9358 -27.8540 8.2079 7.4157
# 4 -8.3795 -4.9130 -27.8540 29.8391 -1.0105 1.4318
# 5 16.7135 8.2680 8.2079 -1.0105 40.4616 0.6920
# 6 4.3794 12.1434 7.4157 1.4318 0.6920 26.4187
#
#
#
# Elastic Compliance Matrix: (Units=1/GPa)
#
#
# Indices 1 2 3 4 5 6 
#
# 1 0.014162 -0.006619 -0.001686 0.001115 -0.004148 0.001216
# 2 -0.006619 0.025228 -0.005255 -0.002227 -0.001259 -0.008870
# 3 -0.001686 -0.005255 0.014225 0.012006 -0.000783 -0.001928
# 4 0.001115 -0.002227 0.012006 0.044862 -0.001236 -0.004930
# 5 -0.004148 -0.001259 -0.000783 -0.001236 0.026799 0.000851
# 6 0.001216 -0.008870 -0.001928 -0.004930 0.000851 0.042514
#
#
# Mechanical properties :
#
#
# Convention : Reuss Voigt Hill
#
# Bulk Modulus (GPa) = 37.74170 51.17922 44.46046
# Shear Modulus (GPa) = 24.54101 30.53408 27.53755
#
# Velocity S-wave (km/s) = 3.48696 3.88949 3.69371
# Velocity P-wave (km/s) = 5.90855 6.74742 6.34187
#
# Compressibility (1/GPa) = 0.02649589
#
# Stress axis : x y z
#
# Youngs Moduli (GPa) = 70.61371 39.63825 70.29700
#
# Poissons Ratio (x) = 0.26236 0.11851
# Poissons Ratio (y) = 0.46738 0.36941
# Poissons Ratio (z) = 0.11904 0.20830
#
# Static dielectric constant tensor:
#      x y z
#    x 1.691310 0.020920 0.020490 
#    y 0.020920 1.696070 0.015200 
#    z 0.020490 0.015200 1.718790 
# 
# From -- ./inp_files/182795.got.cif
#   From: 2010.05.17/outbox.cif.g08.bks.cpg/sg2_92_cif.got.tgz:182795.got - 2010.06.03 11:33:40.
