data_PCOD9112775
_publ_section_title
;
Structure prediction by ZEFSAII (Michael W. Deem and Ramdas Pophale) SiO2 
 PCOD9112775
Probable space group: P 2
;
_chemical_formula_sum "Si O2"
_cell_formula_units_Z 16
_cell_length_a 7.564164
_cell_length_b 17.624865
_cell_length_c 7.952929
_cell_angle_alpha 90.000000
_cell_angle_beta 142.795907
_cell_angle_gamma 90.000000
_cell_volume 641.094746
_symmetry_space_group_name_H-M "P 2"
_symmetry_group_IT_number 3
_symmetry_cell_setting 'monoclinic'
loop_
_space_group_symop_operation_xyz
x,y,z
-x,y,-z
loop_
_atom_site_type_symbol
_atom_site_label
_atom_site_fract_x
_atom_site_fract_y
_atom_site_fract_z
Si Si1 0.156329 0.253590 0.435088
Si Si2 0.335132 0.504240 0.182784
Si Si3 0.641963 0.673133 0.920037
Si Si4 0.341534 0.158184 0.063194
Si Si5 0.936690 0.924955 0.257255
Si Si6 0.945213 0.422336 0.656370
Si Si7 0.859253 0.764437 0.582263
Si Si8 0.519583 0.999702 0.327027
O O1 0.482798 0.226328 0.715279
O O2 0.119466 0.336757 0.331119
O O3 0.000000 0.256540 0.500000
O O4 0.983737 0.187728 0.208131
O O5 0.391816 0.592575 0.191938
O O6 0.652976 0.471202 0.476283
O O7 0.000000 0.500596 0.000000
O O8 0.249426 0.453938 0.956731
O O9 0.473099 0.740820 0.696881
O O10 0.500000 0.667088 0.000000
O O11 0.974929 0.698455 0.192591
O O12 0.381875 0.081352 0.196952
O O13 0.500000 0.144908 0.000000
O O14 0.000000 0.905696 0.500000
O O15 0.066250 0.846337 0.282171
O O16 0.129537 0.001691 0.409874
O O17 0.639860 0.946307 0.933533
O O18 0.000000 0.421704 0.500000
O O19 0.000000 0.759693 0.500000
O O20 0.500000 0.967885 0.500000
#
# Coordination Sequence:
#
# PCOD9112775 Si02
#       8
#     2   2   2   2   2   2   2   2
#     4   9  19  35  61  91 117 149 208 272 316 368
#     4  12  25  40  60  93 134 170 208 264 329 395
#     4  10  19  36  60  88 119 159 207 261 319 385
#     4  10  19  36  60  88 119 159 207 261 319 385
#     4  11  22  41  66  92 122 168 220 269 322 388
#     4  11  22  41  66  92 122 168 220 269 322 388
#     4   9  19  35  61  91 117 149 208 272 316 368
#     4  12  25  40  60  93 134 170 208 264 329 395
#
# _framework density 24.957308000000001
#
# number of rings (size 3 to 8) (size 9 to 14) (size 15 to 20)
#    0.000    1.500    0.000    6.000    0.000    6.000 
#    0.000    5.000    0.000    0.000    0.000    0.000 
#    0.000    0.000    0.000    0.000    0.000    0.000 
#
# Total GULP energy -89222.515790 kJ/mol
# GULP energy per Si atom -5576.407237 kJ/mol
# Density = 2.490050 g / cm^3
# Si number density = 24.957308 Si / 1000 Ang^3
#
#
#
# Elastic Constant Matrix: (Units=GPa)
#
#
# Indices 1 2 3 4 5 6 
#
# 1 43.8433 -9.0726 9.1905 0.0000 8.0564 0.0000
# 2 -9.0726 119.7954 29.0227 0.0000 11.2336 0.0000
# 3 9.1905 29.0227 156.3800 0.0000 15.2803 0.0000
# 4 0.0000 0.0000 0.0000 56.0248 0.0000 19.6867
# 5 8.0564 11.2336 15.2803 0.0000 16.4649 0.0000
# 6 0.0000 0.0000 0.0000 19.6867 0.0000 6.2220
#
#
#
# Elastic Compliance Matrix: (Units=1/GPa)
#
#
# Indices 1 2 3 4 5 6 
#
# 1 0.026395 0.003560 -0.000784 0.000000 -0.014617 0.000000
# 2 0.003560 0.009596 -0.001298 0.000000 -0.007084 0.000000
# 3 -0.000784 -0.001298 0.007212 0.000000 -0.005424 0.000000
# 4 0.000000 0.000000 0.000000 -0.159621 0.000000 0.505048
# 5 -0.014617 -0.007084 -0.005424 0.000000 0.077754 0.000000
# 6 0.000000 0.000000 0.000000 0.505048 0.000000 -1.437275
#
#
# Mechanical properties :
#
#
# Convention : Reuss Voigt Hill
#
# Bulk Modulus (GPa) = 21.66438 42.03331 31.84885
# Shear Modulus (GPa) = -3.41645 35.13422 15.85889
#
# Velocity S-wave (km/s) = -1.17128 3.75610 2.52353
# Velocity P-wave (km/s) = 2.62111 5.97409 4.61302
#
# Compressibility (1/GPa) = 0.04615872
#
# Stress axis : x y z
#
# Youngs Moduli (GPa) = 37.88562 104.21125 138.66584
#
# Poissons Ratio (x) = -0.37094 0.10866
# Poissons Ratio (y) = -0.13486 0.17997
# Poissons Ratio (z) = 0.02969 0.13525
#
# Static dielectric constant tensor:
#      x y z
#    x 3.065410 0.000000 -0.328300 
#    y 0.000000 1.948020 0.000000 
#    z -0.328300 0.000000 1.862890 
# 
# From -- ./inp_files/6276.got.cif
#   From: 2010.05.17/outbox.cif.g08.bks.cpg/sg3_4_cif.got.tgz:6276.got - 2010.06.03 18:33:08.
