data_PCOD9112972
_publ_section_title
;
Structure prediction by ZEFSAII (Michael W. Deem and Ramdas Pophale) SiO2 
 PCOD9112972
Probable space group: P 2
;
_chemical_formula_sum "Si O2"
_cell_formula_units_Z 13
_cell_length_a 8.888023
_cell_length_b 8.181315
_cell_length_c 13.121399
_cell_angle_alpha 90.000000
_cell_angle_beta 39.348182
_cell_angle_gamma 90.000000
_cell_volume 604.949596
_symmetry_space_group_name_H-M "P 2"
_symmetry_group_IT_number 3
_symmetry_cell_setting 'monoclinic'
loop_
_space_group_symop_operation_xyz
x,y,z
-x,y,-z
loop_
_atom_site_type_symbol
_atom_site_label
_atom_site_fract_x
_atom_site_fract_y
_atom_site_fract_z
Si Si1 0.850992 0.023120 0.170396
Si Si2 0.594463 0.356910 0.269377
Si Si3 0.654865 0.485765 0.017715
Si Si4 0.238803 0.123973 0.123618
Si Si5 0.932209 0.318569 0.424310
Si Si6 0.500000 0.849101 0.500000
Si Si7 0.866233 0.580096 0.288292
O O1 0.773803 0.204018 0.172329
O O2 0.042315 0.033596 0.160902
O O3 0.613501 0.945743 0.344760
O O4 0.000000 0.943014 0.000000
O O5 0.560112 0.458427 0.182296
O O6 0.344619 0.278043 0.431986
O O7 0.693174 0.479030 0.303825
O O8 0.500000 0.539321 0.000000
O O9 0.716525 0.296567 0.957542
O O10 0.887273 0.600002 0.901257
O O11 0.110552 0.176762 0.295358
O O12 0.500000 0.048102 0.000000
O O13 0.948721 0.466158 0.337193
O O14 0.000000 0.372844 0.500000
O O15 0.722439 0.731281 0.407844
#
# Coordination Sequence:
#
# PCOD9112972 Si02
#       7
#     2   2   2   2   2   1   2
#     4  12  24  42  70  96 131 175 223 272 332 390
#     4  12  19  39  69 101 123 163 224 281 331 384
#     4  10  20  36  68 105 128 157 208 287 340 382
#     4  10  20  38  60  96 134 157 211 274 335 392
#     4  11  21  33  64  99 129 162 206 283 346 376
#     4  12  28  44  62  92 142 180 228 264 320 402
#     4  11  22  42  62  92 131 170 220 274 318 387
#
# _framework density 21.489394000000001
#
# number of rings (size 3 to 8) (size 9 to 14) (size 15 to 20)
#    0.000    0.923    6.154    4.154    0.000    1.231 
#    0.000    0.769    3.385    0.000    0.000    0.000 
#    0.000    0.000    0.000    0.000    0.000    0.000 
#
# Total GULP energy -72459.214246 kJ/mol
# GULP energy per Si atom -5573.785711 kJ/mol
# Density = 2.144048 g / cm^3
# Si number density = 21.489394 Si / 1000 Ang^3
#
#
#
# Elastic Constant Matrix: (Units=GPa)
#
#
# Indices 1 2 3 4 5 6 
#
# 1 102.9872 25.7822 40.2354 0.0000 3.2836 0.0000
# 2 25.7822 39.7377 36.1196 0.0000 -3.2822 0.0000
# 3 40.2354 36.1196 155.3004 0.0000 -8.8231 0.0000
# 4 0.0000 0.0000 0.0000 30.9465 0.0000 -11.6663
# 5 3.2836 -3.2822 -8.8231 0.0000 53.6926 0.0000
# 6 0.0000 0.0000 0.0000 -11.6663 0.0000 12.1789
#
#
#
# Elastic Compliance Matrix: (Units=1/GPa)
#
#
# Indices 1 2 3 4 5 6 
#
# 1 0.012015 -0.006353 -0.001715 0.000000 -0.001405 0.000000
# 2 -0.006353 0.035299 -0.006480 0.000000 0.001481 0.000000
# 3 -0.001715 -0.006480 0.008453 0.000000 0.001098 0.000000
# 4 0.000000 0.000000 0.000000 0.050578 0.000000 0.048450
# 5 -0.001405 0.001481 0.001098 0.000000 0.018981 0.000000
# 6 0.000000 0.000000 0.000000 0.048450 0.000000 0.128520
#
#
# Mechanical properties :
#
#
# Convention : Reuss Voigt Hill
#
# Bulk Modulus (GPa) = 37.49280 55.81110 46.65195
# Shear Modulus (GPa) = 17.13313 32.42281 24.77797
#
# Velocity S-wave (km/s) = 2.82668 3.88852 3.39932
# Velocity P-wave (km/s) = 5.30457 6.79622 6.09619
#
# Compressibility (1/GPa) = 0.02667179
#
# Stress axis : x y z
#
# Youngs Moduli (GPa) = 83.22803 28.32959 118.30186
#
# Poissons Ratio (x) = 0.17996 0.20292
# Poissons Ratio (y) = 0.52871 0.76657
# Poissons Ratio (z) = 0.14276 0.18357
#
# Static dielectric constant tensor:
#      x y z
#    x 1.774660 0.000000 -0.019550 
#    y 0.000000 1.800340 0.000000 
#    z -0.019550 0.000000 1.922240 
# 
# From -- ./inp_files/10664.got.cif
#   From: 2010.05.17/outbox.cif.g08.bks.cpg/sg3_6_cif.got.tgz:10664.got - 2010.06.03 18:33:08.
