data_PCOD9112237
_publ_section_title
;
Structure prediction by ZEFSAII (Michael W. Deem and Ramdas Pophale) SiO2 
 PCOD9112237
Probable space group: P -1
;
_chemical_formula_sum "Si O2"
_cell_formula_units_Z 14
_cell_length_a 8.786956
_cell_length_b 8.861869
_cell_length_c 14.725074
_cell_angle_alpha 104.437631
_cell_angle_beta 126.035161
_cell_angle_gamma 112.542473
_cell_volume 661.006881
_symmetry_space_group_name_H-M "P -1"
_symmetry_group_IT_number 2
_symmetry_cell_setting 'triclinic'
loop_
_space_group_symop_operation_xyz
x,y,z
-x,-y,-z
loop_
_atom_site_type_symbol
_atom_site_label
_atom_site_fract_x
_atom_site_fract_y
_atom_site_fract_z
Si Si1 0.223075 0.532672 0.035500
Si Si2 0.033625 0.623878 0.380419
Si Si3 0.202791 0.024922 0.415832
Si Si4 0.590865 0.221861 0.045374
Si Si5 0.239000 0.263346 0.897201
Si Si6 0.482828 0.646581 0.577963
Si Si7 0.390641 0.402617 0.673796
O O1 0.425468 0.568629 0.181278
O O2 0.355683 0.715601 0.033061
O O3 0.089387 0.313219 0.903452
O O4 0.000000 0.500000 0.000000
O O5 0.839616 0.424665 0.215138
O O6 0.848952 0.630817 0.377462
O O7 0.213885 0.590218 0.480233
O O8 0.212508 0.852576 0.427523
O O9 0.337405 0.138097 0.384178
O O10 0.292218 0.201768 0.547538
O O11 0.905444 0.878339 0.262443
O O12 0.344287 0.184970 0.982800
O O13 0.500000 0.000000 0.000000
O O14 0.500000 0.500000 0.000000
O O15 0.500000 0.500000 0.500000
O O16 0.539370 0.608119 0.691163
#
# Coordination Sequence:
#
# PCOD9112237 Si02
#       7
#     2   2   2   2   2   2   2
#     4  11  24  45  72 100 141 176 230 292 343 403
#     4  12  22  46  71 100 137 183 234 283 334 418
#     4  11  23  43  75  99 140 184 225 279 351 409
#     4  11  25  43  72  97 136 184 233 276 349 405
#     4  10  20  45  67  97 136 183 222 274 343 413
#     4  10  26  42  66 101 143 179 224 281 349 399
#     4  11  25  46  68 108 137 179 235 284 336 414
#
# _framework density 21.179808999999999
#
# number of rings (size 3 to 8) (size 9 to 14) (size 15 to 20)
#    0.000    1.143    4.286    2.143    8.000    1.143 
#    5.143    1.429    0.000    0.000    0.000    0.000 
#    0.000    0.000    0.000    0.000    0.000    0.000 
#
# Total GULP energy -77991.702246 kJ/mol
# GULP energy per Si atom -5570.835875 kJ/mol
# Density = 2.113160 g / cm^3
# Si number density = 21.179809 Si / 1000 Ang^3
#
#
#
# Elastic Constant Matrix: (Units=GPa)
#
#
# Indices 1 2 3 4 5 6 
#
# 1 104.9399 59.4693 22.7040 -7.4558 5.2133 -7.6634
# 2 59.4693 175.3701 50.2080 -16.9271 -10.8133 -9.0367
# 3 22.7040 50.2080 106.4686 -10.1972 -12.2462 -6.2346
# 4 -7.4558 -16.9271 -10.1972 30.0514 -8.4682 -4.7572
# 5 5.2133 -10.8133 -12.2462 -8.4682 26.0411 -5.7933
# 6 -7.6634 -9.0367 -6.2346 -4.7572 -5.7933 41.4047
#
#
#
# Elastic Compliance Matrix: (Units=1/GPa)
#
#
# Indices 1 2 3 4 5 6 
#
# 1 0.012423 -0.004248 -0.001339 -0.001180 -0.005196 0.000308
# 2 -0.004248 0.008646 -0.001894 0.005131 0.005708 0.002204
# 3 -0.001339 -0.001894 0.012106 0.005273 0.007516 0.002819
# 4 -0.001180 0.005131 0.005273 0.045390 0.021823 0.009964
# 5 -0.005196 0.005708 0.007516 0.021823 0.055028 0.011623
# 6 0.000308 0.002204 0.002819 0.009964 0.011623 0.027885
#
#
# Mechanical properties :
#
#
# Convention : Reuss Voigt Hill
#
# Bulk Modulus (GPa) = 54.90532 72.39346 63.64939
# Shear Modulus (GPa) = 27.39579 36.45929 31.92754
#
# Velocity S-wave (km/s) = 3.60041 4.15350 3.88680
# Velocity P-wave (km/s) = 6.57751 7.56681 7.08944
#
# Compressibility (1/GPa) = 0.01821317
#
# Stress axis : x y z
#
# Youngs Moduli (GPa) = 80.49668 115.66335 82.60492
#
# Poissons Ratio (x) = 0.49132 0.11057
# Poissons Ratio (y) = 0.34194 0.15648
# Poissons Ratio (z) = 0.10775 0.21910
#
# Static dielectric constant tensor:
#      x y z
#    x 1.991080 -0.066490 -0.024000 
#    y -0.066490 1.881540 0.023730 
#    z -0.024000 0.023730 1.814520 
# 
# From -- ./inp_files/493244.got.cif
#   From: 2010.05.17/outbox.cif.g08.bks.cpg/sg2_247_cif.got.tgz:493244.got - 2010.06.03 11:33:40.
