data_PCOD9112786
_publ_section_title
;
Structure prediction by ZEFSAII (Michael W. Deem and Ramdas Pophale) SiO2 
 PCOD9112786
Probable space group: P 2
;
_chemical_formula_sum "Si O2"
_cell_formula_units_Z 11
_cell_length_a 4.851881
_cell_length_b 15.383096
_cell_length_c 5.387612
_cell_angle_alpha 90.000000
_cell_angle_beta 89.715956
_cell_angle_gamma 90.000000
_cell_volume 402.109993
_symmetry_space_group_name_H-M "P 2"
_symmetry_group_IT_number 3
_symmetry_cell_setting 'monoclinic'
loop_
_space_group_symop_operation_xyz
x,y,z
-x,y,-z
loop_
_atom_site_type_symbol
_atom_site_label
_atom_site_fract_x
_atom_site_fract_y
_atom_site_fract_z
Si Si1 0.868486 0.097870 0.753563
Si Si2 0.821461 0.726683 0.751183
Si Si3 0.343465 0.925344 0.249287
Si Si4 0.500000 0.200221 0.500000
Si Si5 0.813846 0.353375 0.750708
Si Si6 0.814365 0.541947 0.751092
O O1 0.553585 0.123587 0.711560
O O2 0.000000 0.140326 0.500000
O O3 0.905767 0.994106 0.747509
O O4 0.000000 0.133713 0.000000
O O5 0.691230 0.821602 0.756940
O O6 0.657722 0.634873 0.749833
O O7 0.000000 0.726885 0.500000
O O8 0.000000 0.724445 0.000000
O O9 0.500000 0.942346 0.500000
O O10 0.500000 0.948499 0.000000
O O11 0.611614 0.274415 0.695894
O O12 0.668782 0.448464 0.757677
O O13 0.000000 0.353463 0.500000
O O14 0.000000 0.344133 0.000000
O O15 0.000000 0.542393 0.500000
O O16 0.000000 0.542037 0.000000
#
# Coordination Sequence:
#
# PCOD9112786 Si02
#       6
#     2   2   2   1   2   2
#     4  12  27  46  69  96 132 176 217 273 333 389
#     4  10  19  36  63  92 124 172 216 256 317 386
#     4  12  24  42  63  95 134 167 216 272 321 389
#     4  12  26  44  70  98 132 164 234 262 338 386
#     4  10  22  42  65  96 132 172 214 271 325 380
#     4   8  16  33  60  87 124 166 212 256 311 383
#
# _framework density 27.355701
#
# number of rings (size 3 to 8) (size 9 to 14) (size 15 to 20)
#    0.000    1.455    0.909    4.364    0.000    2.182 
#    1.636    0.000    0.000    0.000    0.000    0.000 
#    0.000    0.000    0.000    0.000    0.000    0.000 
#
# Total GULP energy -61307.434568 kJ/mol
# GULP energy per Si atom -5573.403143 kJ/mol
# Density = 2.729344 g / cm^3
# Si number density = 27.355701 Si / 1000 Ang^3
#
#
#
# Elastic Constant Matrix: (Units=GPa)
#
#
# Indices 1 2 3 4 5 6 
#
# 1 36.7206 6.2306 59.7580 0.0000 -14.1730 0.0000
# 2 6.2306 282.4090 42.6680 0.0000 18.4568 0.0000
# 3 59.7580 42.6680 304.2817 0.0000 15.5976 0.0000
# 4 0.0000 0.0000 0.0000 2.8877 0.0000 -29.2944
# 5 -14.1730 18.4568 15.5976 0.0000 67.6183 0.0000
# 6 0.0000 0.0000 0.0000 -29.2944 0.0000 -83.4968
#
#
#
# Elastic Compliance Matrix: (Units=1/GPa)
#
#
# Indices 1 2 3 4 5 6 
#
# 1 0.048725 -0.000366 -0.010167 0.000000 0.012658 0.000000
# 2 -0.000366 0.003673 -0.000392 0.000000 -0.000989 0.000000
# 3 -0.010167 -0.000392 0.005507 0.000000 -0.003294 0.000000
# 4 0.000000 0.000000 0.000000 0.075956 0.000000 -0.026649
# 5 0.012658 -0.000989 -0.003294 0.000000 0.018472 0.000000
# 6 0.000000 0.000000 0.000000 -0.026649 0.000000 -0.002627
#
#
# Mechanical properties :
#
#
# Convention : Reuss Voigt Hill
#
# Bulk Modulus (GPa) = 27.73570 93.41384 60.57477
# Shear Modulus (GPa) = 27.23679 31.71881 29.47780
#
# Velocity S-wave (km/s) = 3.15882 3.40883 3.28620
# Velocity P-wave (km/s) = 4.84408 7.05092 6.04899
#
# Compressibility (1/GPa) = 0.03605462
#
# Stress axis : x y z
#
# Youngs Moduli (GPa) = 20.52316 272.26019 181.58821
#
# Poissons Ratio (x) = 0.09971 1.84616
# Poissons Ratio (y) = 0.00752 0.07126
# Poissons Ratio (z) = 0.20865 0.10684
#
# Static dielectric constant tensor:
#      x y z
#    x 2.077620 0.000000 0.033840 
#    y 0.000000 2.165690 0.000000 
#    z 0.033840 0.000000 2.138290 
# 
# From -- ./inp_files/489.got.cif
#   From: 2010.05.17/outbox.cif.g08.bks.cpg/sg3_1_cif.got.tgz:489.got - 2010.06.03 18:33:08.
