data_PCOD9112135
_publ_section_title
;
Structure prediction by ZEFSAII (Michael W. Deem and Ramdas Pophale) SiO2 
 PCOD9112135
Probable space group: P -1
;
_chemical_formula_sum "Si O2"
_cell_formula_units_Z 16
_cell_length_a 11.887114
_cell_length_b 13.946276
_cell_length_c 7.899121
_cell_angle_alpha 132.389497
_cell_angle_beta 114.367988
_cell_angle_gamma 94.413514
_cell_volume 748.299747
_symmetry_space_group_name_H-M "P -1"
_symmetry_group_IT_number 2
_symmetry_cell_setting 'triclinic'
loop_
_space_group_symop_operation_xyz
x,y,z
-x,-y,-z
loop_
_atom_site_type_symbol
_atom_site_label
_atom_site_fract_x
_atom_site_fract_y
_atom_site_fract_z
Si Si1 0.166215 0.356533 0.806551
Si Si2 0.252850 0.148186 0.690684
Si Si3 0.465687 0.830352 0.262689
Si Si4 0.717749 0.680748 0.734179
Si Si5 0.688686 0.360436 0.374686
Si Si6 0.975863 0.207331 0.846280
Si Si7 0.451976 0.679088 0.426697
Si Si8 0.980641 0.486701 0.273623
O O1 0.191600 0.222215 0.610432
O O2 0.056340 0.278760 0.803444
O O3 0.099418 0.428288 0.731300
O O4 0.324568 0.500805 0.123953
O O5 0.394949 0.164518 0.721944
O O6 0.136332 0.971682 0.445296
O O7 0.288142 0.244310 0.001695
O O8 0.438969 0.757017 0.343859
O O9 0.500000 0.000000 0.500000
O O10 0.343959 0.731999 0.929310
O O11 0.664918 0.501816 0.498402
O O12 0.609001 0.698105 0.565729
O O13 0.891204 0.759154 0.905157
O O14 0.587572 0.267422 0.360108
O O15 0.857571 0.431108 0.609312
O O16 0.907293 0.307963 0.971177
O O17 0.000000 0.500000 0.500000
#
# Coordination Sequence:
#
# PCOD9112135 Si02
#       8
#     2   2   2   2   2   2   2   2
#     4  11  22  42  71 104 125 183 239 276 346 405
#     4  11  23  45  69 103 147 173 226 297 343 410
#     4  12  30  46  65 104 146 182 226 291 353 404
#     4  10  20  44  71 107 128 180 236 280 349 406
#     4  11  23  46  71  99 142 177 236 288 332 422
#     4  10  23  41  70 101 143 178 218 295 348 405
#     4  12  23  43  75  99 132 185 235 280 343 409
#     4  11  24  41  67 101 137 186 232 282 338 412
#
# _framework density 21.381805
#
# number of rings (size 3 to 8) (size 9 to 14) (size 15 to 20)
#    0.000    1.000    5.000    3.750    3.500    4.500 
#    4.500    1.250    0.000    0.000    0.000    0.000 
#    0.000    0.000    0.000    0.000    0.000    0.000 
#
# Total GULP energy -89379.296412 kJ/mol
# GULP energy per Si atom -5586.206026 kJ/mol
# Density = 2.133314 g / cm^3
# Si number density = 21.381805 Si / 1000 Ang^3
#
#
#
# Elastic Constant Matrix: (Units=GPa)
#
#
# Indices 1 2 3 4 5 6 
#
# 1 43.8607 11.9685 16.4584 11.4500 1.0452 -10.3243
# 2 11.9685 112.3019 59.4276 12.8525 5.7120 -11.6632
# 3 16.4584 59.4276 97.2959 11.9886 -5.9578 -7.0030
# 4 11.4500 12.8525 11.9886 29.2512 -9.6816 -3.2221
# 5 1.0452 5.7120 -5.9578 -9.6816 34.2482 0.5427
# 6 -10.3243 -11.6632 -7.0030 -3.2221 0.5427 37.3532
#
#
#
# Elastic Compliance Matrix: (Units=1/GPa)
#
#
# Indices 1 2 3 4 5 6 
#
# 1 0.028539 0.001347 -0.004123 -0.011004 -0.005029 0.006660
# 2 0.001347 0.014414 -0.008556 -0.004797 -0.005336 0.002932
# 3 -0.004123 -0.008556 0.016412 0.000025 0.004428 -0.000796
# 4 -0.011004 -0.004797 0.000025 0.045100 0.013903 -0.000846
# 5 -0.005029 -0.005336 0.004428 0.013903 0.034967 -0.001535
# 6 0.006660 0.002932 -0.000796 -0.000846 -0.001535 0.029328
#
#
# Mechanical properties :
#
#
# Convention : Reuss Voigt Hill
#
# Bulk Modulus (GPa) = 27.24752 47.68530 37.46641
# Shear Modulus (GPa) = 24.55096 31.21078 27.88087
#
# Velocity S-wave (km/s) = 3.39221 3.82473 3.61495
# Velocity P-wave (km/s) = 5.30224 6.46954 5.91476
#
# Compressibility (1/GPa) = 0.03670059
#
# Stress axis : x y z
#
# Youngs Moduli (GPa) = 35.03955 69.37827 60.92998
#
# Poissons Ratio (x) = -0.09346 0.25122
# Poissons Ratio (y) = -0.04720 0.52134
# Poissons Ratio (z) = 0.14447 0.59362
#
# Static dielectric constant tensor:
#      x y z
#    x 1.827960 -0.014750 0.002910 
#    y -0.014750 1.766190 -0.030990 
#    z 0.002910 -0.030990 1.801330 
# 
# From -- ./inp_files/271270.got.cif
#   From: 2010.05.17/outbox.cif.g08.bks.cpg/sg2_136_cif.got.tgz:271270.got - 2010.06.03 11:33:40.
