data_PCOD9112578
_publ_section_title
;
Structure prediction by ZEFSAII (Michael W. Deem and Ramdas Pophale) SiO2 
 PCOD9112578
Probable space group: P 2
;
_chemical_formula_sum "Si O2"
_cell_formula_units_Z 14
_cell_length_a 9.651813
_cell_length_b 10.034191
_cell_length_c 7.528339
_cell_angle_alpha 90.000000
_cell_angle_beta 49.248509
_cell_angle_gamma 90.000000
_cell_volume 552.332482
_symmetry_space_group_name_H-M "P 2"
_symmetry_group_IT_number 3
_symmetry_cell_setting 'monoclinic'
loop_
_space_group_symop_operation_xyz
x,y,z
-x,y,-z
loop_
_atom_site_type_symbol
_atom_site_label
_atom_site_fract_x
_atom_site_fract_y
_atom_site_fract_z
Si Si1 0.212258 0.703990 0.342086
Si Si2 0.172279 0.427125 0.935612
Si Si3 0.810935 0.884048 0.102199
Si Si4 0.569462 0.651903 0.212494
Si Si5 0.701340 0.161046 0.262854
Si Si6 0.721234 0.987135 0.792175
Si Si7 0.702715 0.263065 0.874168
O O1 0.353307 0.640222 0.363714
O O2 0.224866 0.862399 0.375828
O O3 0.000000 0.665756 0.500000
O O4 0.319085 0.672933 0.067742
O O5 0.810342 0.296452 0.205751
O O6 0.000000 0.501843 0.000000
O O7 0.349581 0.517237 0.776847
O O8 0.167805 0.374696 0.145953
O O9 0.644399 0.781739 0.251581
O O10 0.787838 0.020042 0.233180
O O11 0.817270 0.937398 0.893934
O O12 0.000000 0.818602 0.000000
O O13 0.500000 0.168389 0.500000
O O14 0.673557 0.173729 0.074410
O O15 0.500000 0.978315 0.000000
O O16 0.765059 0.140295 0.695944
O O17 0.500000 0.317563 0.000000
#
# Coordination Sequence:
#
# PCOD9112578 Si02
#       7
#     2   2   2   2   2   2   2
#     4  10  20  37  61  88 120 159 201 257 315 360
#     4  10  21  38  64  83 120 168 202 241 321 373
#     4  10  18  34  58  83 114 161 203 239 306 373
#     4  10  21  39  60  86 124 162 204 253 310 370
#     4   9  20  37  58  86 122 159 205 263 308 357
#     4   9  15  34  57  81 115 153 194 247 301 355
#     4   8  18  32  62  84 111 161 209 236 306 375
#
# _framework density 25.347051
#
# number of rings (size 3 to 8) (size 9 to 14) (size 15 to 20)
#    0.857    1.714    2.857    0.857    2.000    0.000 
#    7.714    0.714    0.000    0.000    0.000    0.000 
#    0.000    0.000    0.000    0.000    0.000    0.000 
#
# Total GULP energy -77988.027188 kJ/mol
# GULP energy per Si atom -5570.573371 kJ/mol
# Density = 2.528936 g / cm^3
# Si number density = 25.347051 Si / 1000 Ang^3
#
#
#
# Elastic Constant Matrix: (Units=GPa)
#
#
# Indices 1 2 3 4 5 6 
#
# 1 115.2917 29.2556 39.4805 0.0000 -54.6878 0.0000
# 2 29.2556 121.1990 20.4995 0.0000 -20.0543 0.0000
# 3 39.4805 20.4995 96.8537 0.0000 -42.7110 0.0000
# 4 0.0000 0.0000 0.0000 12.8002 0.0000 3.3208
# 5 -54.6878 -20.0543 -42.7110 0.0000 57.2046 0.0000
# 6 0.0000 0.0000 0.0000 3.3208 0.0000 -174.4942
#
#
#
# Elastic Compliance Matrix: (Units=1/GPa)
#
#
# Indices 1 2 3 4 5 6 
#
# 1 0.016112 -0.001445 0.000458 0.000000 0.015238 0.000000
# 2 -0.001445 0.008925 -0.000789 0.000000 0.001158 0.000000
# 3 0.000458 -0.000789 0.015470 0.000000 0.011712 0.000000
# 4 0.000000 0.000000 0.000000 0.077740 0.000000 0.001479
# 5 0.015238 0.001158 0.011712 0.000000 0.041199 0.000000
# 6 0.000000 0.000000 0.000000 0.001479 0.000000 -0.005703
#
#
# Mechanical properties :
#
#
# Convention : Reuss Voigt Hill
#
# Bulk Modulus (GPa) = 27.06106 56.86840 41.96473
# Shear Modulus (GPa) = 29.47886 -4.62395 12.42745
#
# Velocity S-wave (km/s) = 3.41399 -1.35212 2.21666
# Velocity P-wave (km/s) = 5.12248 4.47739 4.81076
#
# Compressibility (1/GPa) = 0.03695347
#
# Stress axis : x y z
#
# Youngs Moduli (GPa) = 62.06705 112.04700 64.64220
#
# Poissons Ratio (x) = 0.16193 -0.02961
# Poissons Ratio (y) = 0.08970 0.05102
# Poissons Ratio (z) = -0.02843 0.08843
#
# Static dielectric constant tensor:
#      x y z
#    x 2.147130 0.000000 0.115030 
#    y 0.000000 2.169210 0.000000 
#    z 0.115030 0.000000 2.045170 
# 
# From -- ./inp_files/10970.got.cif
#   From: 2010.05.17/outbox.cif.g08.bks.cpg/sg3_6_cif.got.tgz:10970.got - 2010.06.03 18:33:08.
