data_PCOD9112255
_publ_section_title
;
Structure prediction by ZEFSAII (Michael W. Deem and Ramdas Pophale) SiO2 
 PCOD9112255
Probable space group: P -1
;
_chemical_formula_sum "Si O2"
_cell_formula_units_Z 16
_cell_length_a 8.326951
_cell_length_b 9.237012
_cell_length_c 10.369987
_cell_angle_alpha 113.371213
_cell_angle_beta 96.455733
_cell_angle_gamma 99.737418
_cell_volume 707.279629
_symmetry_space_group_name_H-M "P -1"
_symmetry_group_IT_number 2
_symmetry_cell_setting 'triclinic'
loop_
_space_group_symop_operation_xyz
x,y,z
-x,-y,-z
loop_
_atom_site_type_symbol
_atom_site_label
_atom_site_fract_x
_atom_site_fract_y
_atom_site_fract_z
Si Si1 0.746473 0.259023 0.004389
Si Si2 0.603871 0.179287 0.474569
Si Si3 0.244058 0.399428 0.749855
Si Si4 0.815266 0.514661 0.511064
Si Si5 0.741479 0.834124 0.702679
Si Si6 0.809884 0.966544 0.023562
Si Si7 0.005780 0.161681 0.803718
Si Si8 0.526035 0.839606 0.265583
O O1 0.901319 0.252780 0.921445
O O2 0.581257 0.180847 0.880837
O O3 0.747531 0.439130 0.110066
O O4 0.762599 0.139706 0.083137
O O5 0.718574 0.347834 0.503880
O O6 0.421257 0.179673 0.402395
O O7 0.595807 0.166982 0.623884
O O8 0.644854 0.018574 0.359493
O O9 0.256411 0.451620 0.621712
O O10 0.387906 0.308205 0.761214
O O11 0.072438 0.269403 0.724164
O O12 0.804183 0.670072 0.649024
O O13 0.000000 0.500000 0.500000
O O14 0.883762 0.984209 0.713483
O O15 0.706519 0.872015 0.861844
O O16 0.829335 0.866898 0.116895
O O17 0.000000 0.000000 0.000000
#
# Coordination Sequence:
#
# PCOD9112255 Si02
#       8
#     2   2   2   2   2   2   2   2
#     4  10  21  44  67  98 131 176 219 268 330 389
#     4  11  24  48  69  92 133 176 222 266 332 399
#     4  12  27  41  64 102 140 164 224 273 326 385
#     4  12  30  42  67 101 132 170 216 282 330 392
#     4  10  20  45  70  94 127 177 224 258 332 392
#     4   8  18  38  70  93 126 170 219 262 317 390
#     4  10  23  42  72  98 133 176 217 276 320 391
#     4  11  24  44  70  98 129 177 222 270 329 389
#
# _framework density 22.621887999999998
#
# number of rings (size 3 to 8) (size 9 to 14) (size 15 to 20)
#    0.000    1.750    3.750    1.125    8.750    1.500 
#    2.250    1.250    0.000    0.000    0.000    0.000 
#    0.000    0.000    0.000    0.000    0.000    0.000 
#
# Total GULP energy -89461.429091 kJ/mol
# GULP energy per Si atom -5591.339318 kJ/mol
# Density = 2.257040 g / cm^3
# Si number density = 22.621888 Si / 1000 Ang^3
#
#
#
# Elastic Constant Matrix: (Units=GPa)
#
#
# Indices 1 2 3 4 5 6 
#
# 1 42.6874 28.1296 22.3545 23.6900 -1.0940 -23.4966
# 2 28.1296 136.1321 47.0120 44.3749 -12.5941 -9.9960
# 3 22.3545 47.0120 53.0129 29.9602 0.2140 2.1081
# 4 23.6900 44.3749 29.9602 45.4833 -7.0881 -2.5272
# 5 -1.0940 -12.5941 0.2140 -7.0881 26.7794 2.2117
# 6 -23.4966 -9.9960 2.1081 -2.5272 2.2117 53.0037
#
#
#
# Elastic Compliance Matrix: (Units=1/GPa)
#
#
# Indices 1 2 3 4 5 6 
#
# 1 0.053484 0.001401 -0.013677 -0.019547 -0.004183 0.023760
# 2 0.001401 0.012696 -0.007973 -0.007086 0.003982 0.002828
# 3 -0.013677 -0.007973 0.039205 -0.012563 -0.007168 -0.009426
# 4 -0.019547 -0.007086 -0.012563 0.048400 0.009407 -0.007587
# 5 -0.004183 0.003982 -0.007168 0.009407 0.041766 -0.002112
# 6 0.023760 0.002828 -0.009426 -0.007587 -0.002112 0.030034
#
#
# Mechanical properties :
#
#
# Convention : Reuss Voigt Hill
#
# Bulk Modulus (GPa) = 15.41145 47.42496 31.41821
# Shear Modulus (GPa) = 17.37848 34.00903 25.69375
#
# Velocity S-wave (km/s) = 2.77468 3.88154 3.37381
# Velocity P-wave (km/s) = 4.13431 6.41078 5.39401
#
# Compressibility (1/GPa) = 0.06488683
#
# Stress axis : x y z
#
# Youngs Moduli (GPa) = 18.69715 78.76597 25.50699
#
# Poissons Ratio (x) = -0.11033 0.34885
# Poissons Ratio (y) = -0.02619 0.20337
# Poissons Ratio (z) = 0.25571 0.62801
#
# Static dielectric constant tensor:
#      x y z
#    x 1.870300 0.000270 -0.004850 
#    y 0.000270 1.851120 -0.040220 
#    z -0.004850 -0.040220 1.883040 
# 
# From -- ./inp_files/377194.got.cif
#   From: 2010.05.17/outbox.cif.g08.bks.cpg/sg2_189_cif.got.tgz:377194.got - 2010.06.03 11:33:40.
