data_PCOD9112389
_publ_section_title
;
Structure prediction by ZEFSAII (Michael W. Deem and Ramdas Pophale) SiO2 
 PCOD9112389
Probable space group: P -1
;
_chemical_formula_sum "Si O2"
_cell_formula_units_Z 16
_cell_length_a 10.791050
_cell_length_b 11.380376
_cell_length_c 5.568185
_cell_angle_alpha 62.199741
_cell_angle_beta 101.232201
_cell_angle_gamma 101.651143
_cell_volume 588.411166
_symmetry_space_group_name_H-M "P -1"
_symmetry_group_IT_number 2
_symmetry_cell_setting 'triclinic'
loop_
_space_group_symop_operation_xyz
x,y,z
-x,-y,-z
loop_
_atom_site_type_symbol
_atom_site_label
_atom_site_fract_x
_atom_site_fract_y
_atom_site_fract_z
Si Si1 0.797487 0.048547 0.803674
Si Si2 0.432999 0.131456 0.131957
Si Si3 0.933962 0.869019 0.731450
Si Si4 0.749022 0.730841 0.411229
Si Si5 0.803645 0.321826 0.377697
Si Si6 0.701162 0.226242 0.931140
Si Si7 0.116618 0.391295 0.809443
Si Si8 0.603721 0.616533 0.845314
O O1 0.881487 0.932323 0.893844
O O2 0.856476 0.179289 0.551962
O O3 0.787128 0.108099 0.009323
O O4 0.649942 0.008659 0.692599
O O5 0.442759 0.241508 0.240348
O O6 0.329728 0.180408 0.865717
O O7 0.564046 0.146893 0.023351
O O8 0.812781 0.819971 0.565016
O O9 0.971869 0.723790 0.968381
O O10 0.000000 0.000000 0.500000
O O11 0.641700 0.617778 0.581949
O O12 0.859504 0.662343 0.393584
O O13 0.715358 0.308185 0.603348
O O14 0.741405 0.315168 0.095852
O O15 0.902111 0.455000 0.319127
O O16 0.262772 0.396674 0.959381
O O17 0.500000 0.500000 0.000000
#
# Coordination Sequence:
#
# PCOD9112389 Si02
#       8
#     2   2   2   2   2   2   2   2
#     4  10  23  42  60  97 130 172 220 274 324 394
#     4  11  21  37  57  97 130 178 218 265 315 394
#     4  11  24  45  70  94 123 165 223 288 344 387
#     4  10  22  38  65  90 134 166 225 275 324 390
#     4  10  25  40  66  93 139 174 222 261 323 390
#     4  10  25  38  65  95 140 185 217 253 328 391
#     4  10  22  41  59  96 124 173 217 275 327 393
#     4  10  21  31  57  87 137 170 221 257 319 384
#
# _framework density 27.191870999999999
#
# number of rings (size 3 to 8) (size 9 to 14) (size 15 to 20)
#    0.750    1.000    3.750    1.125   10.500    2.000 
#    0.000    0.625    0.000    1.500    0.000    0.000 
#    0.000    0.000    0.000    0.000    0.000    0.000 
#
# Total GULP energy -89370.695156 kJ/mol
# GULP energy per Si atom -5585.668447 kJ/mol
# Density = 2.712998 g / cm^3
# Si number density = 27.191871 Si / 1000 Ang^3
#
#
#
# Elastic Constant Matrix: (Units=GPa)
#
#
# Indices 1 2 3 4 5 6 
#
# 1 57.9926 46.7949 36.1772 -8.8491 -9.9133 7.4929
# 2 46.7949 189.5857 64.5084 -24.4428 -20.2149 8.7314
# 3 36.1772 64.5084 129.3714 -15.4912 -32.2848 4.5738
# 4 -8.8491 -24.4428 -15.4912 63.5684 8.9209 -7.0406
# 5 -9.9133 -20.2149 -32.2848 8.9209 22.6211 -9.8588
# 6 7.4929 8.7314 4.5738 -7.0406 -9.8588 47.5231
#
#
#
# Elastic Compliance Matrix: (Units=1/GPa)
#
#
# Indices 1 2 3 4 5 6 
#
# 1 0.023799 -0.004229 -0.004786 0.000432 -0.001559 -0.002774
# 2 -0.004229 0.007325 -0.001965 0.001571 0.001272 0.000007
# 3 -0.004786 -0.001965 0.014512 -0.000080 0.018429 0.003530
# 4 0.000432 0.001571 -0.000080 0.017179 -0.004770 0.001206
# 5 -0.001559 0.001272 0.018429 -0.004770 0.078901 0.013900
# 6 -0.002774 0.000007 0.003530 0.001206 0.013900 0.024201
#
#
# Mechanical properties :
#
#
# Convention : Reuss Voigt Hill
#
# Bulk Modulus (GPa) = 42.23340 74.65676 58.44508
# Shear Modulus (GPa) = 25.54053 42.04046 33.79050
#
# Velocity S-wave (km/s) = 3.06808 3.93627 3.52898
# Velocity P-wave (km/s) = 5.30247 6.94076 6.17617
#
# Compressibility (1/GPa) = 0.02367794
#
# Stress axis : x y z
#
# Youngs Moduli (GPa) = 42.01836 136.52362 68.90799
#
# Poissons Ratio (x) = 0.57730 0.32979
# Poissons Ratio (y) = 0.17768 0.13537
# Poissons Ratio (z) = 0.20110 0.26820
#
# Static dielectric constant tensor:
#      x y z
#    x 2.135360 0.017560 -0.007340 
#    y 0.017560 2.197160 -0.104220 
#    z -0.007340 -0.104220 2.274300 
# 
# From -- ./inp_files/94628.got.cif
#   From: 2010.05.17/outbox.cif.g08.bks.cpg/sg2_48_cif.got.tgz:94628.got - 2010.06.03 11:33:40.
