data_PCOD9112737
_publ_section_title
;
Structure prediction by ZEFSAII (Michael W. Deem and Ramdas Pophale) SiO2 
 PCOD9112737
Probable space group: P 2
;
_chemical_formula_sum "Si O2"
_cell_formula_units_Z 15
_cell_length_a 23.008686
_cell_length_b 5.061280
_cell_length_c 5.526872
_cell_angle_alpha 90.000000
_cell_angle_beta 119.524197
_cell_angle_gamma 90.000000
_cell_volume 560.047089
_symmetry_space_group_name_H-M "P 2"
_symmetry_group_IT_number 3
_symmetry_cell_setting 'monoclinic'
loop_
_space_group_symop_operation_xyz
x,y,z
-x,y,-z
loop_
_atom_site_type_symbol
_atom_site_label
_atom_site_fract_x
_atom_site_fract_y
_atom_site_fract_z
Si Si1 0.257053 0.252460 0.300751
Si Si2 0.933973 0.872802 0.465063
Si Si3 0.391710 0.303009 0.336121
Si Si4 0.000000 0.485165 0.000000
Si Si5 0.434219 0.823650 0.705722
Si Si6 0.197647 0.851702 0.566054
Si Si7 0.126972 0.483394 0.052706
Si Si8 0.328642 0.645939 0.817389
O O1 0.315714 0.208358 0.233106
O O2 0.187979 0.348381 0.042281
O O3 0.292174 0.470716 0.541487
O O4 0.230325 0.025262 0.421359
O O5 0.866150 0.991715 0.440783
O O6 0.000000 0.023886 0.500000
O O7 0.902507 0.707246 0.179862
O O8 0.966684 0.672584 0.728347
O O9 0.422259 0.532783 0.570428
O O10 0.431541 0.038924 0.486116
O O11 0.381202 0.461047 0.065723
O O12 0.062034 0.327206 0.013624
O O13 0.372286 0.864479 0.766258
O O14 0.500000 0.842593 0.000000
O O15 0.162177 0.607050 0.359723
O O16 0.265049 0.753766 0.841791
#
# Coordination Sequence:
#
# PCOD9112737 Si02
#       8
#     2   2   2   1   2   2   2   2
#     4  10  21  37  59  93 128 164 225 291 347 420
#     4   9  17  32  56  82 117 169 220 274 352 426
#     4  11  24  42  71 100 136 189 234 289 363 430
#     4   8  16  32  52  74 116 160 212 274 342 410
#     4  11  25  46  68 102 146 185 236 298 354 430
#     4  10  19  35  58  87 126 165 220 290 346 418
#     4   9  18  33  53  80 114 165 212 274 349 416
#     4  10  23  41  66  98 134 177 233 286 355 427
#
# _framework density 26.783460000000002
#
# number of rings (size 3 to 8) (size 9 to 14) (size 15 to 20)
#    0.000    2.133    1.333    1.200    1.867    1.600 
#    0.000    5.333    0.000   14.400    0.000    0.000 
#    0.000    0.000    0.000    0.000    0.000    0.000 
#
# Total GULP energy -83761.319452 kJ/mol
# GULP energy per Si atom -5584.087963 kJ/mol
# Density = 2.672250 g / cm^3
# Si number density = 26.783460 Si / 1000 Ang^3
#
#
#
# Elastic Constant Matrix: (Units=GPa)
#
#
# Indices 1 2 3 4 5 6 
#
# 1 130.2770 19.7430 24.2917 0.0000 31.3579 0.0000
# 2 19.7430 88.8903 35.2119 0.0000 16.4669 0.0000
# 3 24.2917 35.2119 118.1728 0.0000 26.5233 0.0000
# 4 0.0000 0.0000 0.0000 46.1338 0.0000 24.7123
# 5 31.3579 16.4669 26.5233 0.0000 35.1153 0.0000
# 6 0.0000 0.0000 0.0000 24.7123 0.0000 -35.9827
#
#
#
# Elastic Compliance Matrix: (Units=1/GPa)
#
#
# Indices 1 2 3 4 5 6 
#
# 1 0.009808 -0.000633 0.000086 0.000000 -0.008527 0.000000
# 2 -0.000633 0.013219 -0.003064 0.000000 -0.003320 0.000000
# 3 0.000086 -0.003064 0.010900 0.000000 -0.006873 0.000000
# 4 0.000000 0.000000 0.000000 0.015846 0.000000 0.010883
# 5 -0.008527 -0.003320 -0.006873 0.000000 0.042841 0.000000
# 6 0.000000 0.000000 0.000000 0.010883 0.000000 -0.020317
#
#
# Mechanical properties :
#
#
# Convention : Reuss Voigt Hill
#
# Bulk Modulus (GPa) = 37.44406 55.09257 46.26831
# Shear Modulus (GPa) = 56.54805 26.25951 41.40378
#
# Velocity S-wave (km/s) = 4.59988 3.13459 3.93602
# Velocity P-wave (km/s) = 6.49788 5.80648 6.16188
#
# Compressibility (1/GPa) = 0.02670651
#
# Stress axis : x y z
#
# Youngs Moduli (GPa) = 101.95467 75.64895 91.74282
#
# Poissons Ratio (x) = 0.04789 -0.00792
# Poissons Ratio (y) = 0.06454 0.28107
# Poissons Ratio (z) = -0.00880 0.23176
#
# Static dielectric constant tensor:
#      x y z
#    x 2.340800 0.000000 -0.015320 
#    y 0.000000 2.128580 0.000000 
#    z -0.015320 0.000000 2.083500 
# 
# From -- ./inp_files/3991.got.cif
#   From: 2010.05.17/outbox.cif.g08.bks.cpg/sg3_2_cif.got.tgz:3991.got - 2010.06.03 18:33:08.
