data_PCOD9112053
_publ_section_title
;
Structure prediction by ZEFSAII (Michael W. Deem and Ramdas Pophale) SiO2 
 PCOD9112053
Probable space group: P -1
;
_chemical_formula_sum "Si O2"
_cell_formula_units_Z 14
_cell_length_a 11.697705
_cell_length_b 16.515577
_cell_length_c 9.366829
_cell_angle_alpha 50.545162
_cell_angle_beta 104.463543
_cell_angle_gamma 144.961950
_cell_volume 635.474196
_symmetry_space_group_name_H-M "P -1"
_symmetry_group_IT_number 2
_symmetry_cell_setting 'triclinic'
loop_
_space_group_symop_operation_xyz
x,y,z
-x,-y,-z
loop_
_atom_site_type_symbol
_atom_site_label
_atom_site_fract_x
_atom_site_fract_y
_atom_site_fract_z
Si Si1 0.315089 0.620946 0.228727
Si Si2 0.997644 0.671964 0.279985
Si Si3 0.975005 0.087977 0.310173
Si Si4 0.146873 0.436787 0.076322
Si Si5 0.659140 0.121293 0.105879
Si Si6 0.870041 0.991175 0.055139
Si Si7 0.571870 0.250528 0.423823
O O1 0.104290 0.469032 0.455736
O O2 0.189680 0.470424 0.220069
O O3 0.400086 0.803661 0.004303
O O4 0.565060 0.756212 0.209428
O O5 0.766579 0.474123 0.320933
O O6 0.230596 0.826044 0.074735
O O7 0.034966 0.820071 0.175850
O O8 0.963384 0.058127 0.172082
O O9 0.704036 0.922199 0.448967
O O10 0.000000 0.000000 0.500000
O O11 0.162191 0.329003 0.143569
O O12 0.347975 0.671532 0.801297
O O13 0.883165 0.277026 0.116043
O O14 0.438670 0.872722 0.370739
O O15 0.000000 0.000000 0.000000
#
# Coordination Sequence:
#
# PCOD9112053 Si02
#       7
#     2   2   2   2   2   2   2
#     4  12  26  42  69 106 137 174 222 282 338 387
#     4  11  22  45  68  98 139 172 224 275 339 395
#     4  11  24  45  69  93 132 182 226 274 331 404
#     4  10  24  43  66 105 134 175 221 274 341 403
#     4  10  22  44  72  98 136 180 223 271 335 408
#     4  12  28  45  65 103 135 172 230 280 329 398
#     4  10  20  44  68  94 136 178 222 270 336 401
#
# _framework density 22.030791000000001
#
# number of rings (size 3 to 8) (size 9 to 14) (size 15 to 20)
#    0.000    1.143    5.714    0.857    4.000    8.571 
#    0.000    0.000    0.000    0.000    0.000    0.000 
#    0.000    0.000    0.000    0.000    0.000    0.000 
#
# Total GULP energy -78226.434193 kJ/mol
# GULP energy per Si atom -5587.602442 kJ/mol
# Density = 2.198065 g / cm^3
# Si number density = 22.030791 Si / 1000 Ang^3
#
#
#
# Elastic Constant Matrix: (Units=GPa)
#
#
# Indices 1 2 3 4 5 6 
#
# 1 101.1887 31.2831 18.5476 -2.1255 17.1260 -4.8810
# 2 31.2831 105.9315 26.9453 20.7025 4.3855 -20.4997
# 3 18.5476 26.9453 104.4599 4.4299 14.7066 -2.5342
# 4 -2.1255 20.7025 4.4299 36.1025 1.7968 -1.3370
# 5 17.1260 4.3855 14.7066 1.7968 33.2657 3.4520
# 6 -4.8810 -20.4997 -2.5342 -1.3370 3.4520 17.4673
#
#
#
# Elastic Compliance Matrix: (Units=1/GPa)
#
#
# Indices 1 2 3 4 5 6 
#
# 1 0.012216 -0.003838 -0.000501 0.003277 -0.005762 0.000226
# 2 -0.003838 0.016228 -0.002691 -0.008559 -0.000274 0.016982
# 3 -0.000501 -0.002691 0.010902 0.000349 -0.004135 -0.000873
# 4 0.003277 -0.008559 0.000349 0.032618 -0.001829 -0.006221
# 5 -0.005762 -0.000274 -0.004135 -0.001829 0.036006 -0.009787
# 6 0.000226 0.016982 -0.000873 -0.006221 -0.009787 0.078574
#
#
# Mechanical properties :
#
#
# Convention : Reuss Voigt Hill
#
# Bulk Modulus (GPa) = 39.54811 51.68136 45.61474
# Shear Modulus (GPa) = 23.91951 33.02072 28.47011
#
# Velocity S-wave (km/s) = 3.29862 3.87569 3.59874
# Velocity P-wave (km/s) = 5.70071 6.59830 6.16586
#
# Compressibility (1/GPa) = 0.02528566
#
# Stress axis : x y z
#
# Youngs Moduli (GPa) = 81.86046 61.62030 91.72252
#
# Poissons Ratio (x) = 0.23651 0.04598
# Poissons Ratio (y) = 0.31420 0.24684
# Poissons Ratio (z) = 0.04103 0.16583
#
# Static dielectric constant tensor:
#      x y z
#    x 1.796090 0.010120 0.008310 
#    y 0.010120 1.837370 0.003480 
#    z 0.008310 0.003480 1.883890 
# 
# From -- ./inp_files/317577.got.cif
#   From: 2010.05.17/outbox.cif.g08.bks.cpg/sg2_159_cif.got.tgz:317577.got - 2010.06.03 11:33:40.
