data_PCOD9112949
_publ_section_title
;
Structure prediction by ZEFSAII (Michael W. Deem and Ramdas Pophale) SiO2 
 PCOD9112949
Probable space group: P 2
;
_chemical_formula_sum "Si O2"
_cell_formula_units_Z 13
_cell_length_a 18.647525
_cell_length_b 5.097789
_cell_length_c 5.476932
_cell_angle_alpha 90.000000
_cell_angle_beta 69.594486
_cell_angle_gamma 90.000000
_cell_volume 487.972254
_symmetry_space_group_name_H-M "P 2"
_symmetry_group_IT_number 3
_symmetry_cell_setting 'monoclinic'
loop_
_space_group_symop_operation_xyz
x,y,z
-x,y,-z
loop_
_atom_site_type_symbol
_atom_site_label
_atom_site_fract_x
_atom_site_fract_y
_atom_site_fract_z
Si Si1 0.072401 0.694670 0.312856
Si Si2 0.376399 0.521603 0.702232
Si Si3 0.777996 0.470673 0.875744
Si Si4 0.847625 0.069787 0.406683
Si Si5 0.697245 0.864610 0.600295
Si Si6 0.424652 0.042274 0.928207
Si Si7 0.000000 0.079188 0.000000
O O1 0.143262 0.562403 0.095921
O O2 0.036083 0.904623 0.174105
O O3 0.000000 0.530694 0.500000
O O4 0.112024 0.830537 0.498500
O O5 0.363036 0.679103 0.467736
O O6 0.289704 0.422576 0.857336
O O7 0.411076 0.753433 0.831416
O O8 0.422304 0.260042 0.718088
O O9 0.809067 0.248537 0.659053
O O10 0.738468 0.692440 0.756767
O O11 0.770831 0.968702 0.358207
O O12 0.921062 0.206236 0.193337
O O13 0.646621 0.082529 0.798845
O O14 0.500000 0.058933 0.000000
#
# Coordination Sequence:
#
# PCOD9112949 Si02
#       7
#     2   2   2   2   2   2   1
#     4   9  20  36  54  83 127 172 222 293 356 414
#     4  11  24  42  73 102 137 192 239 288 369 439
#     4  10  21  39  62  91 132 176 232 298 357 426
#     4  10  20  38  59  91 133 176 230 299 358 420
#     4  10  23  42  68  99 136 185 236 294 358 442
#     4  11  25  46  69 106 149 184 234 304 363 432
#     4  10  20  36  60  88 128 176 234 290 360 438
#
# _framework density 26.640861999999998
#
# number of rings (size 3 to 8) (size 9 to 14) (size 15 to 20)
#    0.000    1.846    1.538    1.385    2.154    3.692 
#    0.000    9.231    0.000    0.000    0.000    0.000 
#    0.000    0.000    0.000    0.000    0.000    0.000 
#
# Total GULP energy -72589.239057 kJ/mol
# GULP energy per Si atom -5583.787620 kJ/mol
# Density = 2.658023 g / cm^3
# Si number density = 26.640862 Si / 1000 Ang^3
#
#
#
# Elastic Constant Matrix: (Units=GPa)
#
#
# Indices 1 2 3 4 5 6 
#
# 1 171.5984 47.6080 35.7393 0.0000 -2.4767 0.0000
# 2 47.6080 98.3895 10.8807 0.0000 6.0642 0.0000
# 3 35.7393 10.8807 52.5401 0.0000 -2.1103 0.0000
# 4 0.0000 0.0000 0.0000 -18.6784 0.0000 22.1620
# 5 -2.4767 6.0642 -2.1103 0.0000 48.1605 0.0000
# 6 0.0000 0.0000 0.0000 22.1620 0.0000 32.3897
#
#
#
# Elastic Compliance Matrix: (Units=1/GPa)
#
#
# Indices 1 2 3 4 5 6 
#
# 1 0.007682 -0.003254 -0.004527 0.000000 0.000606 0.000000
# 2 -0.003254 0.011876 -0.000313 0.000000 -0.001676 0.000000
# 3 -0.004527 -0.000313 0.022209 0.000000 0.000780 0.000000
# 4 0.000000 0.000000 0.000000 -0.029549 0.000000 0.020218
# 5 0.000606 -0.001676 0.000780 0.000000 0.021040 0.000000
# 6 0.000000 0.000000 0.000000 0.020218 0.000000 0.017040
#
#
# Mechanical properties :
#
#
# Convention : Reuss Voigt Hill
#
# Bulk Modulus (GPa) = 39.09633 56.77601 47.93617
# Shear Modulus (GPa) = 66.65448 27.59437 47.12442
#
# Velocity S-wave (km/s) = 5.00739 3.22186 4.21037
# Velocity P-wave (km/s) = 6.93824 5.93283 6.45514
#
# Compressibility (1/GPa) = 0.02557785
#
# Stress axis : x y z
#
# Youngs Moduli (GPa) = 130.17518 84.20273 45.02698
#
# Poissons Ratio (x) = 0.27398 0.20385
# Poissons Ratio (y) = 0.42356 0.01411
# Poissons Ratio (z) = 0.58934 0.02639
#
# Static dielectric constant tensor:
#      x y z
#    x 2.255700 0.000000 -0.140760 
#    y 0.000000 2.142540 0.000000 
#    z -0.140760 0.000000 2.226450 
# 
# From -- ./inp_files/3425.got.cif
#   From: 2010.05.17/outbox.cif.g08.bks.cpg/sg3_2_cif.got.tgz:3425.got - 2010.06.03 18:33:08.
