data_PCOD9112198
_publ_section_title
;
Structure prediction by ZEFSAII (Michael W. Deem and Ramdas Pophale) SiO2 
 PCOD9112198
Probable space group: P -1
;
_chemical_formula_sum "Si O2"
_cell_formula_units_Z 16
_cell_length_a 19.739401
_cell_length_b 15.354321
_cell_length_c 11.689945
_cell_angle_alpha 134.849983
_cell_angle_beta 146.122163
_cell_angle_gamma 19.873741
_cell_volume 615.754493
_symmetry_space_group_name_H-M "P -1"
_symmetry_group_IT_number 2
_symmetry_cell_setting 'triclinic'
loop_
_space_group_symop_operation_xyz
x,y,z
-x,-y,-z
loop_
_atom_site_type_symbol
_atom_site_label
_atom_site_fract_x
_atom_site_fract_y
_atom_site_fract_z
Si Si1 0.043447 0.118945 0.371815
Si Si2 0.616750 0.256086 0.714274
Si Si3 0.828302 0.679409 0.657911
Si Si4 0.069983 0.719740 0.020650
Si Si5 0.966623 0.976895 0.305300
Si Si6 0.416655 0.424167 0.010804
Si Si7 0.241776 0.372688 0.264673
Si Si8 0.324347 0.103516 0.745533
O O1 0.259884 0.024068 0.623823
O O2 0.932323 0.129206 0.320192
O O3 0.799858 0.412387 0.238263
O O4 0.188147 0.914331 0.281564
O O5 0.350077 0.416528 0.453709
O O6 0.560835 0.447237 0.843839
O O7 0.803853 0.019947 0.856290
O O8 0.838650 0.562599 0.656304
O O9 0.971372 0.678277 0.890419
O O10 0.044217 0.435136 0.639925
O O11 0.500000 0.000000 0.500000
O O12 0.304356 0.493276 0.042047
O O13 0.161955 0.721379 0.257012
O O14 0.713835 0.112108 0.097232
O O15 0.000000 0.000000 0.500000
O O16 0.507787 0.065146 0.293707
O O17 0.000000 0.500000 0.000000
O O18 0.500000 0.000000 0.000000
#
# Coordination Sequence:
#
# PCOD9112198 Si02
#       8
#     2   2   2   2   2   2   2   2
#     4  10  22  44  74  99 136 182 244 293 343 432
#     4  10  20  44  75  99 136 184 243 293 343 430
#     4  12  27  44  73 105 148 193 233 297 361 424
#     4  11  24  46  66 105 144 176 238 294 359 425
#     4  12  27  42  66 108 138 179 227 300 371 418
#     4  11  23  43  76  98 131 191 238 289 353 426
#     4  11  24  45  72 107 140 190 244 290 356 424
#     4  11  26  46  72 105 142 190 245 293 349 428
#
# _framework density 25.984380999999999
#
# number of rings (size 3 to 8) (size 9 to 14) (size 15 to 20)
#    0.000    1.000    5.000    1.125    3.500    5.000 
#    0.000    0.000    0.000    0.000    0.000    0.000 
#    0.000    0.000    0.000    0.000    0.000    0.000 
#
# Total GULP energy -89249.516067 kJ/mol
# GULP energy per Si atom -5578.094754 kJ/mol
# Density = 2.592524 g / cm^3
# Si number density = 25.984381 Si / 1000 Ang^3
#
#
#
# Elastic Constant Matrix: (Units=GPa)
#
#
# Indices 1 2 3 4 5 6 
#
# 1 133.5664 24.3506 34.5747 -1.5179 -1.6111 -43.4183
# 2 24.3506 89.2890 20.3301 5.0348 3.7921 -27.0475
# 3 34.5747 20.3301 130.9280 14.5426 16.8409 -11.8219
# 4 -1.5179 5.0348 14.5426 39.3309 -9.5775 0.9143
# 5 -1.6111 3.7921 16.8409 -9.5775 44.5013 -2.1297
# 6 -43.4183 -27.0475 -11.8219 0.9143 -2.1297 34.8812
#
#
#
# Elastic Compliance Matrix: (Units=1/GPa)
#
#
# Indices 1 2 3 4 5 6 
#
# 1 0.013675 0.002120 -0.002829 0.001512 0.002563 0.017823
# 2 0.002120 0.015321 -0.001420 -0.001779 -0.000401 0.014060
# 3 -0.002829 -0.001420 0.009573 -0.004566 -0.004660 -0.001543
# 4 0.001512 -0.001779 -0.004566 0.029428 0.008205 -0.001315
# 5 0.002563 -0.000401 -0.004660 0.008205 0.026256 0.002688
# 6 0.017823 0.014060 -0.001543 -0.001315 0.002688 0.061432
#
#
# Mechanical properties :
#
#
# Convention : Reuss Voigt Hill
#
# Bulk Modulus (GPa) = 29.14581 56.92158 43.03370
# Shear Modulus (GPa) = 29.17506 42.04456 35.60981
#
# Velocity S-wave (km/s) = 3.35444 4.02689 3.70595
# Velocity P-wave (km/s) = 5.12290 6.60112 5.90842
#
# Compressibility (1/GPa) = 0.03431025
#
# Stress axis : x y z
#
# Youngs Moduli (GPa) = 73.12871 65.26926 104.46520
#
# Poissons Ratio (x) = -0.13835 0.29549
# Poissons Ratio (y) = -0.15501 0.14835
# Poissons Ratio (z) = 0.20685 0.09269
#
# Static dielectric constant tensor:
#      x y z
#    x 1.967870 0.143950 -0.091250 
#    y 0.143950 2.054910 -0.090460 
#    z -0.091250 -0.090460 2.184070 
# 
# From -- ./inp_files/472432.got.cif
#   From: 2010.05.17/outbox.cif.g08.bks.cpg/sg2_237_cif.got.tgz:472432.got - 2010.06.03 11:33:40.
