data_PCOD9112125
_publ_section_title
;
Structure prediction by ZEFSAII (Michael W. Deem and Ramdas Pophale) SiO2 
 PCOD9112125
Probable space group: P -1
;
_chemical_formula_sum "Si O2"
_cell_formula_units_Z 15
_cell_length_a 14.430864
_cell_length_b 13.541554
_cell_length_c 8.623507
_cell_angle_alpha 97.981372
_cell_angle_beta 63.474103
_cell_angle_gamma 148.957674
_cell_volume 660.115809
_symmetry_space_group_name_H-M "P -1"
_symmetry_group_IT_number 2
_symmetry_cell_setting 'triclinic'
loop_
_space_group_symop_operation_xyz
x,y,z
-x,-y,-z
loop_
_atom_site_type_symbol
_atom_site_label
_atom_site_fract_x
_atom_site_fract_y
_atom_site_fract_z
Si Si1 0.633952 0.571397 0.561450
Si Si2 0.998751 0.731301 0.600282
Si Si3 0.545557 0.707160 0.107138
Si Si4 0.204286 0.898920 0.817957
Si Si5 0.291929 0.543953 0.730857
Si Si6 0.252670 0.128781 0.341169
Si Si7 0.000000 0.500000 0.500000
Si Si8 0.813571 0.333322 0.244374
O O1 0.500000 0.500000 0.500000
O O2 0.467032 0.398593 0.792383
O O3 0.723078 0.543449 0.422533
O O4 0.795044 0.802355 0.540776
O O5 0.721559 0.501857 0.786990
O O6 0.136408 0.866591 0.686914
O O7 0.080195 0.891046 0.464252
O O8 0.040369 0.656556 0.488091
O O9 0.640957 0.884581 0.168218
O O10 0.700651 0.824879 0.866088
O O11 0.315400 0.883887 0.733433
O O12 0.956012 0.677252 0.044782
O O13 0.330569 0.689782 0.673780
O O14 0.500334 0.691208 0.721611
O O15 0.063458 0.563175 0.656673
O O16 0.000000 0.500000 0.000000
#
# Coordination Sequence:
#
# PCOD9112125 Si02
#       8
#     2   2   2   2   2   2   1   2
#     4  10  23  44  68  98 134 178 233 283 342 407
#     4  11  25  46  68 103 140 177 233 283 341 417
#     4  12  25  44  71  99 138 179 230 282 348 412
#     4  10  22  43  67 101 139 176 224 284 345 410
#     4  10  20  44  70  97 137 182 225 285 346 404
#     4  11  25  45  68 100 137 179 233 286 338 413
#     4  10  22  40  68 104 138 184 234 282 344 422
#     4   9  20  37  67 101 138 180 229 283 347 415
#
# _framework density 22.723286000000002
#
# number of rings (size 3 to 8) (size 9 to 14) (size 15 to 20)
#    0.000    1.600    1.333    2.800    5.600    1.600 
#    2.400    6.667    0.000    0.000    0.000    0.000 
#    0.000    0.000    0.000    0.000    0.000    0.000 
#
# Total GULP energy -83661.255309 kJ/mol
# GULP energy per Si atom -5577.417021 kJ/mol
# Density = 2.267157 g / cm^3
# Si number density = 22.723286 Si / 1000 Ang^3
#
#
#
# Elastic Constant Matrix: (Units=GPa)
#
#
# Indices 1 2 3 4 5 6 
#
# 1 125.5760 42.0903 20.8094 8.1150 18.2143 -23.1398
# 2 42.0903 144.4658 38.7034 17.6070 4.9427 -16.7784
# 3 20.8094 38.7034 81.7761 9.0783 12.9038 -4.0495
# 4 8.1150 17.6070 9.0783 42.0762 3.2063 0.9094
# 5 18.2143 4.9427 12.9038 3.2063 37.9712 3.4473
# 6 -23.1398 -16.7784 -4.0495 0.9094 3.4473 41.1615
#
#
#
# Elastic Compliance Matrix: (Units=1/GPa)
#
#
# Indices 1 2 3 4 5 6 
#
# 1 0.010520 -0.002005 -0.000576 -0.000802 -0.005019 0.005478
# 2 -0.002005 0.008995 -0.003494 -0.002747 0.001013 0.002171
# 3 -0.000576 -0.003494 0.014843 -0.001311 -0.004211 0.000094
# 4 -0.000802 -0.002747 -0.001311 0.025459 -0.000763 -0.002198
# 5 -0.005019 0.001013 -0.004211 -0.000763 0.030594 -0.005368
# 6 0.005478 0.002171 0.000094 -0.002198 -0.005368 0.028767
#
#
# Mechanical properties :
#
#
# Convention : Reuss Voigt Hill
#
# Bulk Modulus (GPa) = 45.02860 61.66934 53.34897
# Shear Modulus (GPa) = 36.04088 40.92275 38.48181
#
# Velocity S-wave (km/s) = 3.98688 4.24832 4.11968
# Velocity P-wave (km/s) = 6.40724 7.15979 6.79394
#
# Compressibility (1/GPa) = 0.02220811
#
# Stress axis : x y z
#
# Youngs Moduli (GPa) = 95.05614 111.17627 67.36996
#
# Poissons Ratio (x) = 0.22292 0.03879
# Poissons Ratio (y) = 0.19060 0.23540
# Poissons Ratio (z) = 0.05473 0.38847
#
# Static dielectric constant tensor:
#      x y z
#    x 1.956280 0.078580 -0.085060 
#    y 0.078580 1.855930 -0.057010 
#    z -0.085060 -0.057010 1.905050 
# 
# From -- ./inp_files/315248.got.cif
#   From: 2010.05.17/outbox.cif.g08.bks.cpg/sg2_158_cif.got.tgz:315248.got - 2010.06.03 11:33:40.
