data_PCOD9112223
_publ_section_title
;
Structure prediction by ZEFSAII (Michael W. Deem and Ramdas Pophale) SiO2 
 PCOD9112223
Probable space group: P -1
;
_chemical_formula_sum "Si O2"
_cell_formula_units_Z 15
_cell_length_a 14.768105
_cell_length_b 5.256669
_cell_length_c 9.471644
_cell_angle_alpha 110.422292
_cell_angle_beta 123.788920
_cell_angle_gamma 79.964038
_cell_volume 572.502052
_symmetry_space_group_name_H-M "P -1"
_symmetry_group_IT_number 2
_symmetry_cell_setting 'triclinic'
loop_
_space_group_symop_operation_xyz
x,y,z
-x,-y,-z
loop_
_atom_site_type_symbol
_atom_site_label
_atom_site_fract_x
_atom_site_fract_y
_atom_site_fract_z
Si Si1 0.018650 0.983857 0.707090
Si Si2 0.677014 0.119438 0.677562
Si Si3 0.819094 0.622476 0.984267
Si Si4 0.500000 0.500000 0.000000
Si Si5 0.383153 0.989805 0.102739
Si Si6 0.834597 0.206959 0.413393
Si Si7 0.395437 0.941333 0.704405
Si Si8 0.872918 0.726302 0.736915
O O1 0.080511 0.277356 0.814062
O O2 0.910017 0.994344 0.521842
O O3 0.107007 0.781029 0.684042
O O4 0.977639 0.897101 0.808206
O O5 0.596021 0.019898 0.711312
O O6 0.628046 0.186584 0.495305
O O7 0.764682 0.899942 0.670722
O O8 0.748349 0.348320 0.866574
O O9 0.872675 0.624968 0.876135
O O10 0.728125 0.852025 0.972904
O O11 0.395859 0.689977 0.993490
O O12 0.578703 0.735359 0.198836
O O13 0.486476 0.167573 0.159042
O O14 0.709748 0.118325 0.304660
O O15 0.853497 0.481912 0.566418
#
# Coordination Sequence:
#
# PCOD9112223 Si02
#       8
#     2   2   2   1   2   2   2   2
#     4  11  25  42  66  95 130 173 213 272 315 378
#     4  11  22  41  68  96 129 170 211 266 318 378
#     4  11  24  41  66 100 130 167 219 257 324 383
#     4   8  22  40  68  92 124 168 206 262 320 374
#     4   9  23  42  65  97 127 169 207 266 320 380
#     4  11  24  44  66  96 127 174 217 262 324 378
#     4  10  20  45  64  93 131 164 214 264 314 384
#     4  11  22  44  63  98 127 175 214 265 320 373
#
# _framework density 26.200780000000002
#
# number of rings (size 3 to 8) (size 9 to 14) (size 15 to 20)
#    0.800    0.800    2.667    1.200    1.867    5.867 
#    4.800    1.333    0.000    0.000    0.000    0.000 
#    0.000    0.000    0.000    0.000    0.000    0.000 
#
# Total GULP energy -83616.883563 kJ/mol
# GULP energy per Si atom -5574.458904 kJ/mol
# Density = 2.614115 g / cm^3
# Si number density = 26.200780 Si / 1000 Ang^3
#
#
#
# Elastic Constant Matrix: (Units=GPa)
#
#
# Indices 1 2 3 4 5 6 
#
# 1 173.2589 23.2957 36.7130 -5.5397 7.3068 -2.5224
# 2 23.2957 40.1556 11.1723 15.3648 9.6899 -17.9582
# 3 36.7130 11.1723 96.0343 7.8932 9.8828 -1.9283
# 4 -5.5397 15.3648 7.8932 31.6008 6.0612 -5.2918
# 5 7.3068 9.6899 9.8828 6.0612 36.6571 7.9203
# 6 -2.5224 -17.9582 -1.9283 -5.2918 7.9203 35.0689
#
#
#
# Elastic Compliance Matrix: (Units=1/GPa)
#
#
# Indices 1 2 3 4 5 6 
#
# 1 0.007256 -0.006498 -0.002512 0.004513 0.000727 -0.002427
# 2 -0.006498 0.051140 0.000132 -0.018801 -0.014819 0.026237
# 3 -0.002512 0.000132 0.011855 -0.002900 -0.002389 0.000641
# 4 0.004513 -0.018801 -0.002900 0.042130 -0.001517 -0.002763
# 5 0.000727 -0.014819 -0.002389 -0.001517 0.035380 -0.015887
# 6 -0.002427 0.026237 0.000641 -0.002763 -0.015887 0.044983
#
#
# Mechanical properties :
#
#
# Convention : Reuss Voigt Hill
#
# Bulk Modulus (GPa) = 19.04995 50.20117 34.62556
# Shear Modulus (GPa) = 21.92992 36.54988 29.23990
#
# Velocity S-wave (km/s) = 2.89623 3.73901 3.34427
# Velocity P-wave (km/s) = 4.29776 6.15159 5.30626
#
# Compressibility (1/GPa) = 0.05249357
#
# Stress axis : x y z
#
# Youngs Moduli (GPa) = 137.81440 19.55425 84.35119
#
# Poissons Ratio (x) = 0.12707 0.21193
# Poissons Ratio (y) = 0.89555 -0.01113
# Poissons Ratio (z) = 0.34625 -0.00258
#
# Static dielectric constant tensor:
#      x y z
#    x 2.122930 0.116570 -0.027420 
#    y 0.116570 2.242610 -0.090670 
#    z -0.027420 -0.090670 2.108250 
# 
# From -- ./inp_files/440787.got.cif
#   From: 2010.05.17/outbox.cif.g08.bks.cpg/sg2_221_cif.got.tgz:440787.got - 2010.06.03 11:33:40.
