data_PCOD9112865
_publ_section_title
;
Structure prediction by ZEFSAII (Michael W. Deem and Ramdas Pophale) SiO2 
 PCOD9112865
Probable space group: P 2
;
_chemical_formula_sum "Si O2"
_cell_formula_units_Z 14
_cell_length_a 8.089278
_cell_length_b 16.799084
_cell_length_c 6.768828
_cell_angle_alpha 90.000000
_cell_angle_beta 140.837329
_cell_angle_gamma 90.000000
_cell_volume 580.896680
_symmetry_space_group_name_H-M "P 2"
_symmetry_group_IT_number 3
_symmetry_cell_setting 'monoclinic'
loop_
_space_group_symop_operation_xyz
x,y,z
-x,y,-z
loop_
_atom_site_type_symbol
_atom_site_label
_atom_site_fract_x
_atom_site_fract_y
_atom_site_fract_z
Si Si1 0.102774 0.268260 0.363618
Si Si2 0.396778 0.945914 0.677934
Si Si3 0.731500 0.433076 0.375398
Si Si4 0.113059 0.042382 0.903931
Si Si5 0.268444 0.604608 0.624195
Si Si6 0.731609 0.776110 0.375743
Si Si7 0.400639 0.200195 0.115684
O O1 0.236433 0.354050 0.465622
O O2 0.320202 0.201048 0.519069
O O3 0.000000 0.260923 0.500000
O O4 0.824014 0.255291 0.002696
O O5 0.315303 0.856414 0.545530
O O6 0.136520 0.000441 0.427758
O O7 0.500000 0.943874 0.000000
O O8 0.660102 0.979959 0.823513
O O9 0.709223 0.519092 0.461137
O O10 0.000000 0.436532 0.500000
O O11 0.500000 0.424962 0.000000
O O12 0.000000 0.076679 0.000000
O O13 0.268491 0.115134 0.949413
O O14 0.271860 0.690246 0.519750
O O15 0.000000 0.605591 0.500000
O O16 0.500000 0.604005 0.000000
O O17 0.000000 0.785419 0.500000
O O18 0.500000 0.772498 0.000000
O O19 0.500000 0.235024 0.000000
#
# Coordination Sequence:
#
# PCOD9112865 Si02
#       7
#     2   2   2   2   2   2   2
#     4   9  16  27  44  67  95 128 167 208 248 298
#     4  11  22  38  59  80 104 139 178 216 260 314
#     4   9  14  22  36  59  94 130 158 191 244 298
#     4  12  25  40  56  78 107 136 174 223 272 315
#     4   8  14  22  36  60  94 130 157 190 243 298
#     4   9  16  28  46  71  99 129 167 206 245 298
#     4  10  20  33  50  71  97 132 174 214 255 307
#
# _framework density 24.100670000000001
#
# number of rings (size 3 to 8) (size 9 to 14) (size 15 to 20)
#    0.000    2.286    0.000    6.000    0.000    2.286 
#    0.000    0.714    0.000    0.000    0.000    0.000 
#    0.000    6.857    0.000    0.286    0.000    0.000 
#
# Total GULP energy -78075.773971 kJ/mol
# GULP energy per Si atom -5576.840998 kJ/mol
# Density = 2.404582 g / cm^3
# Si number density = 24.100670 Si / 1000 Ang^3
#
#
#
# Elastic Constant Matrix: (Units=GPa)
#
#
# Indices 1 2 3 4 5 6 
#
# 1 48.3366 9.9305 28.4629 0.0000 22.8602 0.0000
# 2 9.9305 222.2836 59.4209 0.0000 22.5527 0.0000
# 3 28.4629 59.4209 178.2911 0.0000 43.7951 0.0000
# 4 0.0000 0.0000 0.0000 40.5996 0.0000 3.7995
# 5 22.8602 22.5527 43.7951 0.0000 40.7918 0.0000
# 6 0.0000 0.0000 0.0000 3.7995 0.0000 19.2064
#
#
#
# Elastic Compliance Matrix: (Units=1/GPa)
#
#
# Indices 1 2 3 4 5 6 
#
# 1 0.028298 0.000531 -0.000987 0.000000 -0.015092 0.000000
# 2 0.000531 0.005001 -0.001357 0.000000 -0.001605 0.000000
# 3 -0.000987 -0.001357 0.008011 0.000000 -0.007297 0.000000
# 4 0.000000 0.000000 0.000000 0.025095 0.000000 -0.004964
# 5 -0.015092 -0.001605 -0.007297 0.000000 0.041695 0.000000
# 6 0.000000 0.000000 0.000000 -0.004964 0.000000 0.053048
#
#
# Mechanical properties :
#
#
# Convention : Reuss Voigt Hill
#
# Bulk Modulus (GPa) = 26.53705 71.61555 49.07630
# Shear Modulus (GPa) = 28.19503 43.52604 35.86054
#
# Velocity S-wave (km/s) = 3.42407 4.25433 3.86158
# Velocity P-wave (km/s) = 5.16403 7.34248 6.34741
#
# Compressibility (1/GPa) = 0.03768316
#
# Stress axis : x y z
#
# Youngs Moduli (GPa) = 35.33799 199.97269 124.82446
#
# Poissons Ratio (x) = -0.10618 0.12325
# Poissons Ratio (y) = -0.01876 0.16939
# Poissons Ratio (z) = 0.03489 0.27138
#
# Static dielectric constant tensor:
#      x y z
#    x 2.013890 0.000000 -0.052970 
#    y 0.000000 2.015310 0.000000 
#    z -0.052970 0.000000 1.973200 
# 
# From -- ./inp_files/6232.got.cif
#   From: 2010.05.17/outbox.cif.g08.bks.cpg/sg3_4_cif.got.tgz:6232.got - 2010.06.03 18:33:08.
