data_PCOD9112896
_publ_section_title
;
Structure prediction by ZEFSAII (Michael W. Deem and Ramdas Pophale) SiO2 
 PCOD9112896
Probable space group: P 2
;
_chemical_formula_sum "Si O2"
_cell_formula_units_Z 12
_cell_length_a 15.854993
_cell_length_b 5.786952
_cell_length_c 5.999769
_cell_angle_alpha 90.000000
_cell_angle_beta 69.881157
_cell_angle_gamma 90.000000
_cell_volume 516.900977
_symmetry_space_group_name_H-M "P 2"
_symmetry_group_IT_number 3
_symmetry_cell_setting 'monoclinic'
loop_
_space_group_symop_operation_xyz
x,y,z
-x,y,-z
loop_
_atom_site_type_symbol
_atom_site_label
_atom_site_fract_x
_atom_site_fract_y
_atom_site_fract_z
Si Si1 0.332708 0.600080 0.412041
Si Si2 0.416844 0.278692 0.956232
Si Si3 0.084348 0.495590 0.043141
Si Si4 0.253770 0.234974 0.840004
Si Si5 0.836486 0.858510 0.385436
Si Si6 0.500000 0.607634 0.500000
Si Si7 0.000000 0.814209 0.500000
O O1 0.295460 0.428437 0.637710
O O2 0.247930 0.747944 0.408906
O O3 0.415985 0.733770 0.457006
O O4 0.371437 0.447915 0.177417
O O5 0.334590 0.143596 0.919709
O O6 0.460716 0.440197 0.726923
O O7 0.500000 0.150178 0.000000
O O8 0.168736 0.344949 0.044323
O O9 0.121188 0.665421 0.816132
O O10 0.047600 0.649856 0.276418
O O11 0.000000 0.367419 0.000000
O O12 0.209231 0.045737 0.726823
O O13 0.918566 0.949744 0.458927
#
# Coordination Sequence:
#
# PCOD9112896 Si02
#       7
#     2   2   2   2   2   1   1
#     4   9  18  35  56  80 109 146 186 227 276 329
#     4   9  17  33  58  82 110 149 186 225 276 330
#     4   9  20  37  56  80 111 145 184 231 277 327
#     4  10  20  35  56  81 111 146 185 230 278 328
#     4  10  21  36  55  82 113 145 185 232 277 328
#     4   8  16  32  56  80 110 144 180 228 274 322
#     4  10  20  38  58  80 114 150 188 232 278 332
#
# _framework density 23.215275999999999
#
# number of rings (size 3 to 8) (size 9 to 14) (size 15 to 20)
#    0.000    2.667    0.000    1.000    0.000    3.333 
#    0.000   13.333    0.000   18.000    0.000    0.000 
#    0.000    0.000    0.000    0.000    0.000    0.000 
#
# Total GULP energy -66975.337741 kJ/mol
# GULP energy per Si atom -5581.278145 kJ/mol
# Density = 2.316244 g / cm^3
# Si number density = 23.215276 Si / 1000 Ang^3
#
#
#
# Elastic Constant Matrix: (Units=GPa)
#
#
# Indices 1 2 3 4 5 6 
#
# 1 273.1348 42.3838 36.1291 0.0000 17.7784 0.0000
# 2 42.3838 16.0829 -6.2413 0.0000 -2.0122 0.0000
# 3 36.1291 -6.2413 78.5108 0.0000 -17.4634 0.0000
# 4 0.0000 0.0000 0.0000 21.0013 0.0000 9.2713
# 5 17.7784 -2.0122 -17.4634 0.0000 34.3553 0.0000
# 6 0.0000 0.0000 0.0000 9.2713 0.0000 -4.8525
#
#
#
# Elastic Compliance Matrix: (Units=1/GPa)
#
#
# Indices 1 2 3 4 5 6 
#
# 1 0.012156 -0.038477 -0.011898 0.000000 -0.014592 0.000000
# 2 -0.038477 0.187553 0.044523 0.000000 0.053528 0.000000
# 3 -0.011898 0.044523 0.026723 0.000000 0.022349 0.000000
# 4 0.000000 0.000000 0.000000 0.025830 0.000000 0.049351
# 5 -0.014592 0.053528 0.022349 0.000000 0.051154 0.000000
# 6 0.000000 0.000000 0.000000 0.049351 0.000000 -0.111789
#
#
# Mechanical properties :
#
#
# Convention : Reuss Voigt Hill
#
# Bulk Modulus (GPa) = 4.65709 56.91909 30.78809
# Shear Modulus (GPa) = 18.18794 29.79794 23.99294
#
# Velocity S-wave (km/s) = 2.80205 3.58655 3.21829
# Velocity P-wave (km/s) = 3.53257 6.45928 5.20583
#
# Compressibility (1/GPa) = 0.21472633
#
# Stress axis : x y z
#
# Youngs Moduli (GPa) = 82.26685 5.33182 37.42102
#
# Poissons Ratio (x) = 0.20515 0.44525
# Poissons Ratio (y) = 3.16539 -1.66608
# Poissons Ratio (z) = 0.97884 -0.23739
#
# Static dielectric constant tensor:
#      x y z
#    x 1.981710 0.000000 0.009440 
#    y 0.000000 1.864890 0.000000 
#    z 0.009440 0.000000 1.855960 
# 
# From -- ./inp_files/2819.got.cif
#   From: 2010.05.17/outbox.cif.g08.bks.cpg/sg3_2_cif.got.tgz:2819.got - 2010.06.03 18:33:08.
