data_PCOD9112111
_publ_section_title
;
Structure prediction by ZEFSAII (Michael W. Deem and Ramdas Pophale) SiO2 
 PCOD9112111
Probable space group: P -1
;
_chemical_formula_sum "Si O2"
_cell_formula_units_Z 15
_cell_length_a 7.715196
_cell_length_b 14.712688
_cell_length_c 19.810823
_cell_angle_alpha 21.506209
_cell_angle_beta 56.568559
_cell_angle_gamma 54.095327
_cell_volume 667.648906
_symmetry_space_group_name_H-M "P -1"
_symmetry_group_IT_number 2
_symmetry_cell_setting 'triclinic'
loop_
_space_group_symop_operation_xyz
x,y,z
-x,-y,-z
loop_
_atom_site_type_symbol
_atom_site_label
_atom_site_fract_x
_atom_site_fract_y
_atom_site_fract_z
Si Si1 0.766316 0.378330 0.704063
Si Si2 0.590485 0.647248 0.682394
Si Si3 0.171487 0.020369 0.522825
Si Si4 0.500000 0.000000 0.000000
Si Si5 0.909784 0.880444 0.286472
Si Si6 0.494151 0.275771 0.069827
Si Si7 0.252518 0.093877 0.131126
Si Si8 0.924954 0.642430 0.817046
O O1 0.725914 0.429568 0.756181
O O2 0.805791 0.643085 0.485677
O O3 0.970384 0.165009 0.780673
O O4 0.567439 0.277952 0.789679
O O5 0.366139 0.815773 0.585612
O O6 0.726654 0.851652 0.527931
O O7 0.528092 0.514457 0.854301
O O8 0.007846 0.857268 0.693008
O O9 0.077668 0.245466 0.335161
O O10 0.394349 0.072640 0.047865
O O11 0.719089 0.129894 0.153097
O O12 0.094896 0.903944 0.283819
O O13 0.408233 0.088455 0.165309
O O14 0.309141 0.359807 0.106227
O O15 0.091219 0.374348 0.974530
#
# Coordination Sequence:
#
# PCOD9112111 Si02
#       8
#     2   2   2   1   2   2   2   2
#     4  10  21  44  66  92 129 169 211 270 315 390
#     4  11  22  39  65  94 129 166 218 264 326 374
#     4  10  23  39  62  95 125 173 210 269 317 379
#     4  10  20  44  70  90 128 166 210 260 328 368
#     4  10  25  42  66  94 130 169 218 260 326 374
#     4  12  24  41  65  99 128 171 215 266 315 393
#     4  11  23  42  67  95 130 175 206 273 316 380
#     4  11  23  42  62  94 133 167 220 256 327 378
#
# _framework density 22.466899000000002
#
# number of rings (size 3 to 8) (size 9 to 14) (size 15 to 20)
#    0.000    1.333    2.667    2.000    1.867    4.800 
#    2.400    6.000    0.000    0.000    0.000    0.000 
#    0.000    0.000    0.000    0.000    0.000    0.000 
#
# Total GULP energy -83527.723152 kJ/mol
# GULP energy per Si atom -5568.514877 kJ/mol
# Density = 2.241576 g / cm^3
# Si number density = 22.466899 Si / 1000 Ang^3
#
#
#
# Elastic Constant Matrix: (Units=GPa)
#
#
# Indices 1 2 3 4 5 6 
#
# 1 66.5129 -2.9294 8.7032 -4.9666 -20.7252 1.8167
# 2 -2.9294 86.8975 -0.6633 -0.9269 -11.0936 6.5783
# 3 8.7032 -0.6633 72.7570 0.6617 -29.9553 8.0497
# 4 -4.9666 -0.9269 0.6617 22.2020 2.7566 -5.2884
# 5 -20.7252 -11.0936 -29.9553 2.7566 32.5493 -3.6461
# 6 1.8167 6.5783 8.0497 -5.2884 -3.6461 12.1549
#
#
#
# Elastic Compliance Matrix: (Units=1/GPa)
#
#
# Indices 1 2 3 4 5 6 
#
# 1 0.020560 0.003347 0.005629 0.001692 0.019026 -0.002169
# 2 0.003347 0.013699 0.005180 -0.002345 0.010742 -0.009143
# 3 0.005629 0.005180 0.026757 -0.006614 0.028786 -0.015607
# 4 0.001692 -0.002345 -0.006614 0.052647 -0.007343 0.026100
# 5 0.019026 0.010742 0.028786 -0.007343 0.072588 -0.009141
# 6 -0.002169 -0.009143 -0.015607 0.026100 -0.009141 0.106493
#
#
# Mechanical properties :
#
#
# Convention : Reuss Voigt Hill
#
# Bulk Modulus (GPa) = 11.19482 26.26537 18.73009
# Shear Modulus (GPa) = 16.99487 28.11836 22.55661
#
# Velocity S-wave (km/s) = 2.75333 3.54156 3.17202
# Velocity P-wave (km/s) = 3.88605 5.33288 4.66589
#
# Compressibility (1/GPa) = 0.08932705
#
# Stress axis : x y z
#
# Youngs Moduli (GPa) = 48.63911 73.00021 37.37376
#
# Poissons Ratio (x) = -0.24435 -0.21038
# Poissons Ratio (y) = -0.16280 -0.19359
# Poissons Ratio (z) = -0.27379 -0.37813
#
# Static dielectric constant tensor:
#      x y z
#    x 1.889970 0.031050 -0.043710 
#    y 0.031050 1.850500 0.013330 
#    z -0.043710 0.013330 1.766870 
# 
# From -- ./inp_files/169932.got.cif
#   From: 2010.05.17/outbox.cif.g08.bks.cpg/sg2_85_cif.got.tgz:169932.got - 2010.06.03 11:33:40.
