data_PCOD9112652
_publ_section_title
;
Structure prediction by ZEFSAII (Michael W. Deem and Ramdas Pophale) SiO2 
 PCOD9112652
Probable space group: P 2
;
_chemical_formula_sum "Si O2"
_cell_formula_units_Z 16
_cell_length_a 7.926593
_cell_length_b 19.758369
_cell_length_c 6.867829
_cell_angle_alpha 90.000000
_cell_angle_beta 40.853667
_cell_angle_gamma 90.000000
_cell_volume 703.591806
_symmetry_space_group_name_H-M "P 2"
_symmetry_group_IT_number 3
_symmetry_cell_setting 'monoclinic'
loop_
_space_group_symop_operation_xyz
x,y,z
-x,y,-z
loop_
_atom_site_type_symbol
_atom_site_label
_atom_site_fract_x
_atom_site_fract_y
_atom_site_fract_z
Si Si1 0.916977 0.764820 0.343151
Si Si2 0.720179 0.129099 0.142958
Si Si3 0.082848 0.917993 0.657434
Si Si4 0.221524 0.411122 0.146416
Si Si5 0.723848 0.274889 0.143642
Si Si6 0.579003 0.984053 0.148761
Si Si7 0.586918 0.694775 0.153347
Si Si8 0.220189 0.559810 0.142015
O O1 0.830028 0.841369 0.383755
O O2 0.683860 0.712318 0.509501
O O3 0.000000 0.759984 0.500000
O O4 0.188323 0.748702 0.004595
O O5 0.500000 0.129257 0.500000
O O6 0.688976 0.202418 0.066177
O O7 0.671530 0.061382 0.065397
O O8 0.000000 0.123915 0.000000
O O9 0.000000 0.921594 0.500000
O O10 0.313614 0.970647 0.493019
O O11 0.819169 0.937310 0.994773
O O12 0.162446 0.485246 0.106047
O O13 0.000000 0.400251 0.500000
O O14 0.500000 0.417329 0.000000
O O15 0.249867 0.344578 0.993429
O O16 0.500000 0.281377 0.500000
O O17 0.000000 0.266407 0.000000
O O18 0.500000 0.964336 0.000000
O O19 0.500000 0.698487 0.000000
O O20 0.729052 0.622148 0.047235
O O21 0.000000 0.574231 0.500000
O O22 0.500000 0.554569 0.000000
#
# Coordination Sequence:
#
# PCOD9112652 Si02
#       8
#     2   2   2   2   2   2   2   2
#     4   9  15  22  35  56  87 127 161 191 236 294
#     4  10  21  37  55  75 101 132 167 210 255 302
#     4   9  17  28  42  65  97 129 161 202 249 293
#     4  10  20  34  54  80 109 140 174 216 263 312
#     4  10  21  38  57  78 107 140 174 216 263 312
#     4  10  19  32  50  72  99 130 163 203 252 301
#     4   9  14  21  34  55  86 127 164 192 235 294
#     4   9  16  26  40  63  97 131 163 204 251 294
#
# _framework density 22.740459999999999
#
# number of rings (size 3 to 8) (size 9 to 14) (size 15 to 20)
#    0.000    2.500    0.000    4.125    0.000    3.500 
#    0.000    1.875    0.000    0.000    0.000    0.000 
#    0.000   20.000    0.000    0.000    0.000    0.000 
#
# Total GULP energy -89262.443580 kJ/mol
# GULP energy per Si atom -5578.902724 kJ/mol
# Density = 2.268870 g / cm^3
# Si number density = 22.740460 Si / 1000 Ang^3
#
#
#
# Elastic Constant Matrix: (Units=GPa)
#
#
# Indices 1 2 3 4 5 6 
#
# 1 41.2914 15.1851 27.1009 0.0000 -14.2829 0.0000
# 2 15.1851 157.9436 44.1924 0.0000 -25.6325 0.0000
# 3 27.1009 44.1924 166.0709 0.0000 -26.9129 0.0000
# 4 0.0000 0.0000 0.0000 37.5050 0.0000 0.3398
# 5 -14.2829 -25.6325 -26.9129 0.0000 30.0417 0.0000
# 6 0.0000 0.0000 0.0000 0.3398 0.0000 -6.2899
#
#
#
# Elastic Compliance Matrix: (Units=1/GPa)
#
#
# Indices 1 2 3 4 5 6 
#
# 1 0.030254 -0.000196 -0.003019 0.000000 0.011512 0.000000
# 2 -0.000196 0.007526 -0.001106 0.000000 0.005338 0.000000
# 3 -0.003019 -0.001106 0.007514 0.000000 0.004352 0.000000
# 4 0.000000 0.000000 0.000000 0.026650 0.000000 0.001440
# 5 0.011512 0.005338 0.004352 0.000000 0.047214 0.000000
# 6 0.000000 0.000000 0.000000 0.001440 0.000000 -0.158906
#
#
# Mechanical properties :
#
#
# Convention : Reuss Voigt Hill
#
# Bulk Modulus (GPa) = 27.28369 59.80696 43.54532
# Shear Modulus (GPa) = -264.68490 30.83986 -116.92252
#
# Velocity S-wave (km/s) = -10.80030 3.68661 -7.17828
# Velocity P-wave (km/s) = 11.97935 6.66921 7.03656
#
# Compressibility (1/GPa) = 0.03665193
#
# Stress axis : x y z
#
# Youngs Moduli (GPa) = 33.05362 132.87611 133.08806
#
# Poissons Ratio (x) = 0.02599 0.40185
# Poissons Ratio (y) = 0.00646 0.14716
# Poissons Ratio (z) = 0.09980 0.14693
#
# Static dielectric constant tensor:
#      x y z
#    x 1.902650 0.000000 0.064460 
#    y 0.000000 1.918750 0.000000 
#    z 0.064460 0.000000 1.837350 
# 
# From -- ./inp_files/6320.got.cif
#   From: 2010.05.17/outbox.cif.g08.bks.cpg/sg3_4_cif.got.tgz:6320.got - 2010.06.03 18:33:08.
