data_PCOD9112328
_publ_section_title
;
Structure prediction by ZEFSAII (Michael W. Deem and Ramdas Pophale) SiO2 
 PCOD9112328
Probable space group: P -1
;
_chemical_formula_sum "Si O2"
_cell_formula_units_Z 13
_cell_length_a 4.962609
_cell_length_b 9.797252
_cell_length_c 13.646714
_cell_angle_alpha 65.819635
_cell_angle_beta 67.697766
_cell_angle_gamma 96.163965
_cell_volume 532.166247
_symmetry_space_group_name_H-M "P -1"
_symmetry_group_IT_number 2
_symmetry_cell_setting 'triclinic'
loop_
_space_group_symop_operation_xyz
x,y,z
-x,-y,-z
loop_
_atom_site_type_symbol
_atom_site_label
_atom_site_fract_x
_atom_site_fract_y
_atom_site_fract_z
Si Si1 0.155209 0.974049 0.084551
Si Si2 0.182934 0.170593 0.216461
Si Si3 0.639624 0.574361 0.653057
Si Si4 0.197390 0.612288 0.856063
Si Si5 0.000000 0.500000 0.500000
Si Si6 0.302452 0.098999 0.542519
Si Si7 0.255316 0.292560 0.657677
O O1 0.972788 0.801308 0.201181
O O2 0.145157 0.094817 0.136374
O O3 0.500000 0.000000 0.000000
O O4 0.000000 0.000000 0.000000
O O5 0.535551 0.250218 0.169337
O O6 0.013940 0.305400 0.199761
O O7 0.027168 0.028853 0.354134
O O8 0.389275 0.525766 0.787134
O O9 0.656449 0.751617 0.576296
O O10 0.532503 0.439283 0.618900
O O11 0.983647 0.567608 0.601690
O O12 0.000000 0.500000 0.000000
O O13 0.061298 0.343938 0.585839
O O14 0.397071 0.174073 0.615646
O O15 0.500000 0.000000 0.500000
#
# Coordination Sequence:
#
# PCOD9112328 Si02
#       7
#     2   2   2   2   1   2   2
#     4  11  26  47  77 106 149 203 252 314 380 454
#     4  11  26  48  71 112 143 195 259 316 378 454
#     4  11  25  44  73 108 146 203 249 322 381 462
#     4  12  28  47  74 106 153 202 253 311 381 462
#     4  10  22  42  70 104 144 186 254 310 382 438
#     4  10  20  46  71 106 146 187 249 316 391 448
#     4  10  25  43  71 109 145 194 253 314 380 460
#
# _framework density 24.428457000000002
#
# number of rings (size 3 to 8) (size 9 to 14) (size 15 to 20)
#    0.000    1.231    1.538    3.231    8.615    1.846 
#   16.615    0.000    0.000    0.000    0.000    0.000 
#    0.000    0.000    0.000    0.000    0.000    0.000 
#
# Total GULP energy -72506.693782 kJ/mol
# GULP energy per Si atom -5577.437983 kJ/mol
# Density = 2.437286 g / cm^3
# Si number density = 24.428457 Si / 1000 Ang^3
#
#
#
# Elastic Constant Matrix: (Units=GPa)
#
#
# Indices 1 2 3 4 5 6 
#
# 1 88.1539 15.7381 27.5830 -10.0678 -9.2159 4.0509
# 2 15.7381 136.8542 46.2251 15.6733 -16.5096 -7.0959
# 3 27.5830 46.2251 203.2005 -6.0269 -27.9565 -0.1940
# 4 -10.0678 15.6733 -6.0269 54.8099 -0.2713 -15.3080
# 5 -9.2159 -16.5096 -27.9565 -0.2713 36.3355 2.0981
# 6 4.0509 -7.0959 -0.1940 -15.3080 2.0981 50.8711
#
#
#
# Elastic Compliance Matrix: (Units=1/GPa)
#
#
# Indices 1 2 3 4 5 6 
#
# 1 0.012371 -0.001124 -0.001104 0.002337 0.001825 -0.000518
# 2 -0.001124 0.008577 -0.001552 -0.002716 0.002377 0.000365
# 3 -0.001104 -0.001552 0.005946 0.000919 0.003595 0.000022
# 4 0.002337 -0.002716 0.000919 0.021176 -0.000112 0.005815
# 5 0.001825 0.002377 0.003595 -0.000112 0.031896 -0.001149
# 6 -0.000518 0.000365 0.000022 0.005815 -0.001149 0.021547
#
#
# Mechanical properties :
#
#
# Convention : Reuss Voigt Hill
#
# Bulk Modulus (GPa) = 51.71913 67.47789 59.59851
# Shear Modulus (GPa) = 43.28347 50.98078 47.13213
#
# Velocity S-wave (km/s) = 4.21390 4.57326 4.39725
# Velocity P-wave (km/s) = 6.70026 7.45446 7.08740
#
# Compressibility (1/GPa) = 0.01933521
#
# Stress axis : x y z
#
# Youngs Moduli (GPa) = 80.83194 116.58825 168.18013
#
# Poissons Ratio (x) = 0.13107 0.18561
# Poissons Ratio (y) = 0.09087 0.26098
# Poissons Ratio (z) = 0.08921 0.18092
#
# Static dielectric constant tensor:
#      x y z
#    x 5.485050 -0.588220 -2.581090 
#    y -0.588220 2.160760 0.492520 
#    z -2.581090 0.492520 3.904020 
# 
# From -- ./inp_files/59407.got.cif
#   From: 2010.05.17/outbox.cif.g08.bks.cpg/sg2_30_cif.got.tgz:59407.got - 2010.06.03 11:33:40.
