data_PCOD9112500
_publ_section_title
;
Structure prediction by ZEFSAII (Michael W. Deem and Ramdas Pophale) SiO2 
 PCOD9112500
Probable space group: P 2
;
_chemical_formula_sum "Si O2"
_cell_formula_units_Z 16
_cell_length_a 8.667297
_cell_length_b 11.578976
_cell_length_c 7.030562
_cell_angle_alpha 90.000000
_cell_angle_beta 99.484429
_cell_angle_gamma 90.000000
_cell_volume 695.931192
_symmetry_space_group_name_H-M "P 2"
_symmetry_group_IT_number 3
_symmetry_cell_setting 'monoclinic'
loop_
_space_group_symop_operation_xyz
x,y,z
-x,y,-z
loop_
_atom_site_type_symbol
_atom_site_label
_atom_site_fract_x
_atom_site_fract_y
_atom_site_fract_z
Si Si1 0.941947 0.103480 0.706111
Si Si2 0.958206 0.570178 0.262238
Si Si3 0.739641 0.927569 0.880813
Si Si4 0.333306 0.196869 0.532906
Si Si5 0.624696 0.952078 0.267949
Si Si6 0.106268 0.315206 0.716078
Si Si7 0.709534 0.661867 0.756611
Si Si8 0.644013 0.681386 0.308714
O O1 0.790107 0.186877 0.660972
O O2 0.000000 0.074547 0.500000
O O3 0.066723 0.194531 0.811681
O O4 0.878753 0.994433 0.805310
O O5 0.916123 0.438753 0.200326
O O6 0.795950 0.644644 0.215230
O O7 0.000000 0.575886 0.500000
O O8 0.118514 0.603949 0.185859
O O9 0.562005 0.967773 0.796809
O O10 0.743003 0.794777 0.819494
O O11 0.735137 0.948856 0.105003
O O12 0.500000 0.229613 0.500000
O O13 0.278078 0.289621 0.674385
O O14 0.331459 0.064303 0.605174
O O15 0.640316 0.820575 0.340884
O O16 0.000000 0.316839 0.500000
O O17 0.675672 0.636818 0.526926
O O18 0.529853 0.644251 0.798071
#
# Coordination Sequence:
#
# PCOD9112500 Si02
#       8
#     2   2   2   2   2   2   2   2
#     4   9  18  32  51  73 105 139 169 209 263 317
#     4   9  17  34  51  74 108 132 174 226 260 301
#     4  10  19  33  50  78 109 143 170 213 271 316
#     4  10  17  31  53  77 100 136 173 212 260 313
#     4  10  20  31  52  79 112 134 173 223 258 322
#     4   8  18  33  48  75 105 131 170 223 260 302
#     4   9  18  31  53  75 104 140 172 208 265 315
#     4   9  18  32  51  80 103 138 175 212 260 319
#
# _framework density 22.990780999999998
#
# number of rings (size 3 to 8) (size 9 to 14) (size 15 to 20)
#    0.000    3.000    1.250    0.750    1.750    3.500 
#    9.000    6.250    0.000    3.000    0.000    3.500 
#    0.000    0.000    0.000    0.000    0.000    0.000 
#
# Total GULP energy -89071.786240 kJ/mol
# GULP energy per Si atom -5566.986640 kJ/mol
# Density = 2.293845 g / cm^3
# Si number density = 22.990781 Si / 1000 Ang^3
#
#
#
# Elastic Constant Matrix: (Units=GPa)
#
#
# Indices 1 2 3 4 5 6 
#
# 1 210.5447 77.0893 40.1941 0.0000 -30.5737 0.0000
# 2 77.0893 97.7226 11.5791 0.0000 -16.4132 0.0000
# 3 40.1941 11.5791 53.0005 0.0000 -27.8151 0.0000
# 4 0.0000 0.0000 0.0000 5.6155 0.0000 -12.9070
# 5 -30.5737 -16.4132 -27.8151 0.0000 28.9135 0.0000
# 6 0.0000 0.0000 0.0000 -12.9070 0.0000 11.5944
#
#
#
# Elastic Compliance Matrix: (Units=1/GPa)
#
#
# Indices 1 2 3 4 5 6 
#
# 1 0.007650 -0.005359 -0.004003 0.000000 0.001196 0.000000
# 2 -0.005359 0.015153 0.004633 0.000000 0.007392 0.000000
# 3 -0.004003 0.004633 0.040495 0.000000 0.037354 0.000000
# 4 0.000000 0.000000 0.000000 -0.114250 0.000000 -0.127184
# 5 0.001196 0.007392 0.037354 0.000000 0.075982 0.000000
# 6 0.000000 0.000000 0.000000 -0.127184 0.000000 -0.055334
#
#
# Mechanical properties :
#
#
# Convention : Reuss Voigt Hill
#
# Bulk Modulus (GPa) = 18.57353 68.77699 43.67526
# Shear Modulus (GPa) = -1724.18955 24.71834 -849.73560
#
# Velocity S-wave (km/s) = -27.41489 3.28249 -19.24580
# Velocity P-wave (km/s) = 31.52785 6.65930 21.79059
#
# Compressibility (1/GPa) = 0.05384006
#
# Stress axis : x y z
#
# Youngs Moduli (GPa) = 130.72401 65.99162 24.69455
#
# Poissons Ratio (x) = 0.35368 0.09885
# Poissons Ratio (y) = 0.70060 -0.11442
# Poissons Ratio (z) = 0.52328 -0.30576
#
# Static dielectric constant tensor:
#      x y z
#    x 1.925300 0.000000 0.032940 
#    y 0.000000 1.832800 0.000000 
#    z 0.032940 0.000000 2.007480 
# 
# From -- ./inp_files/5818.got.cif
#   From: 2010.05.17/outbox.cif.g08.bks.cpg/sg3_3_cif.got.tgz:5818.got - 2010.06.03 18:33:08.
