data_PCOD9112946
_publ_section_title
;
Structure prediction by ZEFSAII (Michael W. Deem and Ramdas Pophale) SiO2 
 PCOD9112946
Probable space group: P 2
;
_chemical_formula_sum "Si O2"
_cell_formula_units_Z 14
_cell_length_a 8.699128
_cell_length_b 16.538111
_cell_length_c 8.697833
_cell_angle_alpha 90.000000
_cell_angle_beta 33.075777
_cell_angle_gamma 90.000000
_cell_volume 682.911839
_symmetry_space_group_name_H-M "P 2"
_symmetry_group_IT_number 3
_symmetry_cell_setting 'monoclinic'
loop_
_space_group_symop_operation_xyz
x,y,z
-x,y,-z
loop_
_atom_site_type_symbol
_atom_site_label
_atom_site_fract_x
_atom_site_fract_y
_atom_site_fract_z
Si Si1 0.446141 0.340910 0.226253
Si Si2 0.172786 0.010827 0.014084
Si Si3 0.189482 0.598453 0.690855
Si Si4 0.306099 0.186971 0.807300
Si Si5 0.775075 0.928917 0.552237
Si Si6 0.988662 0.425504 0.821918
Si Si7 0.192257 0.772682 0.688780
O O1 0.563279 0.261047 0.210697
O O2 0.162811 0.365870 0.559755
O O3 0.500000 0.324382 0.000000
O O4 0.659178 0.415249 0.071253
O O5 0.276602 0.102619 0.920453
O O6 0.440731 0.953352 0.836313
O O7 0.000000 0.991383 0.000000
O O8 0.924776 0.003773 0.344028
O O9 0.500000 0.588439 0.500000
O O10 0.096646 0.515200 0.692050
O O11 0.144758 0.685333 0.647536
O O12 0.000000 0.606107 0.000000
O O13 0.500000 0.169034 0.500000
O O14 0.000000 0.210460 0.000000
O O15 0.808695 0.849493 0.419620
O O16 0.000000 0.913707 0.500000
O O17 0.000000 0.412141 0.000000
O O18 0.500000 0.765721 0.500000
O O19 0.000000 0.784775 0.000000
#
# Coordination Sequence:
#
# PCOD9112946 Si02
#       7
#     2   2   2   2   2   2   2
#     4  12  25  39  58  89 125 157 192 242 308 365
#     4  11  23  42  64  86 114 155 204 249 294 353
#     4   9  18  33  58  89 111 143 198 251 288 333
#     4  11  23  41  64  87 112 150 202 248 291 351
#     4  12  24  38  59  90 124 157 194 241 304 365
#     4  11  21  39  64  86 115 158 205 247 291 354
#     4  10  20  36  60  85 114 152 197 244 291 347
#
# _framework density 20.500451000000002
#
# number of rings (size 3 to 8) (size 9 to 14) (size 15 to 20)
#    0.000    1.143    0.000    9.429    0.000    1.143 
#    0.000    1.429    0.000    0.000    0.000    0.000 
#    0.000    0.000    0.000    0.000    0.000    0.000 
#
# Total GULP energy -77947.466876 kJ/mol
# GULP energy per Si atom -5567.676205 kJ/mol
# Density = 2.045379 g / cm^3
# Si number density = 20.500451 Si / 1000 Ang^3
#
#
#
# Elastic Constant Matrix: (Units=GPa)
#
#
# Indices 1 2 3 4 5 6 
#
# 1 28.7810 11.3879 -8.8249 0.0000 -5.1472 0.0000
# 2 11.3879 116.6913 -1.0012 0.0000 3.1494 0.0000
# 3 -8.8249 -1.0012 102.2286 0.0000 -15.3532 0.0000
# 4 0.0000 0.0000 0.0000 30.1058 0.0000 -8.4556
# 5 -5.1472 3.1494 -15.3532 0.0000 31.6476 0.0000
# 6 0.0000 0.0000 0.0000 -8.4556 0.0000 -1.6716
#
#
#
# Elastic Compliance Matrix: (Units=1/GPa)
#
#
# Indices 1 2 3 4 5 6 
#
# 1 0.039430 -0.004053 0.004733 0.000000 0.009112 0.000000
# 2 -0.004053 0.009010 -0.000534 0.000000 -0.001815 0.000000
# 3 0.004733 -0.000534 0.011119 0.000000 0.006217 0.000000
# 4 0.000000 0.000000 0.000000 0.013722 0.000000 -0.069409
# 5 0.009112 -0.001815 0.006217 0.000000 0.036277 0.000000
# 6 0.000000 0.000000 0.000000 -0.069409 0.000000 -0.247127
#
#
# Mechanical properties :
#
#
# Convention : Reuss Voigt Hill
#
# Bulk Modulus (GPa) = 16.70891 27.86940 22.28916
# Shear Modulus (GPa) = -42.40493 28.42562 -6.98965
#
# Velocity S-wave (km/s) = -4.55300 3.72773 -1.84849
# Velocity P-wave (km/s) = 4.41265 5.67027 2.51798
#
# Compressibility (1/GPa) = 0.05984831
#
# Stress axis : x y z
#
# Youngs Moduli (GPa) = 25.36166 110.99295 89.93602
#
# Poissons Ratio (x) = 0.44988 -0.42563
# Poissons Ratio (y) = 0.10280 0.04805
# Poissons Ratio (z) = -0.12003 0.05930
#
# Static dielectric constant tensor:
#      x y z
#    x 1.808040 0.000000 0.015340 
#    y 0.000000 1.785670 0.000000 
#    z 0.015340 0.000000 1.744390 
# 
# From -- ./inp_files/6150.got.cif
#   From: 2010.05.17/outbox.cif.g08.bks.cpg/sg3_4_cif.got.tgz:6150.got - 2010.06.03 18:33:08.
