data_PCOD9112151
_publ_section_title
;
Structure prediction by ZEFSAII (Michael W. Deem and Ramdas Pophale) SiO2 
 PCOD9112151
Probable space group: P -1
;
_chemical_formula_sum "Si O2"
_cell_formula_units_Z 12
_cell_length_a 5.544196
_cell_length_b 10.851604
_cell_length_c 9.698771
_cell_angle_alpha 110.850419
_cell_angle_beta 78.753481
_cell_angle_gamma 117.216780
_cell_volume 484.559475
_symmetry_space_group_name_H-M "P -1"
_symmetry_group_IT_number 2
_symmetry_cell_setting 'triclinic'
loop_
_space_group_symop_operation_xyz
x,y,z
-x,-y,-z
loop_
_atom_site_type_symbol
_atom_site_label
_atom_site_fract_x
_atom_site_fract_y
_atom_site_fract_z
Si Si1 0.604148 0.318658 0.407951
Si Si2 0.720683 0.001923 0.586215
Si Si3 0.208153 0.756380 0.901005
Si Si4 0.270212 0.216390 0.022935
Si Si5 0.430157 0.492463 0.298169
Si Si6 0.928515 0.718249 0.182320
O O1 0.820941 0.334030 0.271233
O O2 0.414358 0.382620 0.379471
O O3 0.689513 0.401482 0.577020
O O4 0.437432 0.148058 0.376298
O O5 0.828981 0.147185 0.721994
O O6 0.500000 0.000000 0.500000
O O7 0.000000 0.000000 0.500000
O O8 0.520975 0.828092 0.939725
O O9 0.049643 0.857160 0.933154
O O10 0.067516 0.669175 0.022023
O O11 0.346566 0.383112 0.134315
O O12 0.264546 0.223709 0.860872
O O13 0.737779 0.603755 0.266686
#
# Coordination Sequence:
#
# PCOD9112151 Si02
#       6
#     2   2   2   2   2   2
#     4  10  23  44  69 105 139 178 232 283 339 400
#     4  12  28  49  71  98 137 184 233 280 344 409
#     4   9  22  40  67 100 138 175 223 277 338 399
#     4   9  21  40  66 103 134 179 219 276 338 405
#     4  10  20  44  72 104 142 178 226 284 339 406
#     4  10  23  44  71 100 137 185 223 278 341 411
#
# _framework density 24.764762999999999
#
# number of rings (size 3 to 8) (size 9 to 14) (size 15 to 20)
#    1.000    1.000    1.667    0.500    2.333    6.667 
#    6.000    3.333    0.000    0.000    0.000    0.000 
#    0.000    0.000    0.000    0.000    0.000    0.000 
#
# Total GULP energy -66814.554532 kJ/mol
# GULP energy per Si atom -5567.879544 kJ/mol
# Density = 2.470840 g / cm^3
# Si number density = 24.764763 Si / 1000 Ang^3
#
#
#
# Elastic Constant Matrix: (Units=GPa)
#
#
# Indices 1 2 3 4 5 6 
#
# 1 156.7724 23.4948 40.8725 5.0184 16.0142 -3.8291
# 2 23.4948 103.5783 63.7501 12.1556 17.6043 22.1217
# 3 40.8725 63.7501 138.8036 0.6603 1.2946 22.1806
# 4 5.0184 12.1556 0.6603 23.9855 8.7229 8.7633
# 5 16.0142 17.6043 1.2946 8.7229 58.6022 4.2207
# 6 -3.8291 22.1217 22.1806 8.7633 4.2207 22.2703
#
#
#
# Elastic Compliance Matrix: (Units=1/GPa)
#
#
# Indices 1 2 3 4 5 6 
#
# 1 0.007684 -0.000626 -0.002962 -0.002853 -0.001880 0.006373
# 2 -0.000626 0.016190 -0.005885 -0.003655 -0.003425 -0.008241
# 3 -0.002962 -0.005885 0.012275 0.006028 0.002105 -0.009660
# 4 -0.002853 -0.003655 0.006028 0.054177 -0.004641 -0.023302
# 5 -0.001880 -0.003425 0.002105 -0.004641 0.019313 -0.000852
# 6 0.006373 -0.008241 -0.009660 -0.023302 -0.000852 0.073136
#
#
# Mechanical properties :
#
#
# Convention : Reuss Voigt Hill
#
# Bulk Modulus (GPa) = 58.13509 72.82099 65.47804
# Shear Modulus (GPa) = 24.10161 39.04073 31.57117
#
# Velocity S-wave (km/s) = 3.12303 3.97478 3.57437
# Velocity P-wave (km/s) = 6.04403 7.10873 6.59789
#
# Compressibility (1/GPa) = 0.01720131
#
# Stress axis : x y z
#
# Youngs Moduli (GPa) = 130.14238 61.76745 81.46699
#
# Poissons Ratio (x) = 0.03869 0.24132
# Poissons Ratio (y) = 0.08152 0.47944
# Poissons Ratio (z) = 0.38550 0.36351
#
# Static dielectric constant tensor:
#      x y z
#    x 1.370640 -0.051880 -0.091920 
#    y -0.051880 1.922780 0.026230 
#    z -0.091920 0.026230 2.041110 
# 
# From -- ./inp_files/131107.got.cif
#   From: 2010.05.17/outbox.cif.g08.bks.cpg/sg2_66_cif.got.tgz:131107.got - 2010.06.03 11:33:40.
