data_PCOD9112816
_publ_section_title
;
Structure prediction by ZEFSAII (Michael W. Deem and Ramdas Pophale) SiO2 
 PCOD9112816
Probable space group: P 2
;
_chemical_formula_sum "Si O2"
_cell_formula_units_Z 14
_cell_length_a 8.094230
_cell_length_b 8.829139
_cell_length_c 10.983188
_cell_angle_alpha 90.000000
_cell_angle_beta 64.903238
_cell_angle_gamma 90.000000
_cell_volume 710.812832
_symmetry_space_group_name_H-M "P 2"
_symmetry_group_IT_number 3
_symmetry_cell_setting 'monoclinic'
loop_
_space_group_symop_operation_xyz
x,y,z
-x,y,-z
loop_
_atom_site_type_symbol
_atom_site_label
_atom_site_fract_x
_atom_site_fract_y
_atom_site_fract_z
Si Si1 0.245872 0.524290 0.556379
Si Si2 0.215840 0.813731 0.412829
Si Si3 0.097789 0.628502 0.227594
Si Si4 0.491744 0.395553 0.699646
Si Si5 0.855242 0.855454 0.144957
Si Si6 0.361048 0.611293 0.945770
Si Si7 0.529499 0.052918 0.346509
O O1 0.276821 0.697547 0.501040
O O2 0.358379 0.472661 0.639794
O O3 0.311747 0.424216 0.422923
O O4 0.035323 0.518530 0.657408
O O5 0.219987 0.715278 0.288080
O O6 0.000000 0.852294 0.500000
O O7 0.356822 0.950526 0.360899
O O8 0.972653 0.757139 0.203177
O O9 0.202267 0.550049 0.084323
O O10 0.454031 0.482957 0.835710
O O11 0.463476 0.217498 0.716358
O O12 0.727412 0.736868 0.112493
O O13 0.718692 0.969036 0.254963
O O14 0.000000 0.919593 0.000000
O O15 0.500000 0.680584 0.000000
O O16 0.500000 0.075784 0.500000
#
# Coordination Sequence:
#
# PCOD9112816 Si02
#       7
#     2   2   2   2   2   2   2
#     4  10  19  38  60  92 120 155 217 262 299 369
#     4  10  22  38  68  98 122 160 220 271 312 362
#     4  10  20  39  67  94 118 157 221 269 309 354
#     4  11  23  38  58  95 129 165 205 250 327 382
#     4  10  22  39  63  93 123 162 218 268 310 370
#     4  11  22  40  64  93 121 164 217 265 313 368
#     4  12  23  40  63  92 130 174 205 255 326 386
#
# _framework density 19.69576
#
# number of rings (size 3 to 8) (size 9 to 14) (size 15 to 20)
#    0.000    1.429    2.857    4.286    4.000    0.000 
#    2.571    7.143    0.000    0.000    0.000    0.000 
#    0.000    0.000    0.000    0.000    0.000    0.000 
#
# Total GULP energy -78137.296154 kJ/mol
# GULP energy per Si atom -5581.235440 kJ/mol
# Density = 1.965093 g / cm^3
# Si number density = 19.695760 Si / 1000 Ang^3
#
#
#
# Elastic Constant Matrix: (Units=GPa)
#
#
# Indices 1 2 3 4 5 6 
#
# 1 55.1030 28.1724 -1.7965 0.0000 8.2290 0.0000
# 2 28.1724 66.1747 24.3302 0.0000 -3.5649 0.0000
# 3 -1.7965 24.3302 124.1273 0.0000 -14.8764 0.0000
# 4 0.0000 0.0000 0.0000 16.1472 0.0000 2.9328
# 5 8.2290 -3.5649 -14.8764 0.0000 38.3532 0.0000
# 6 0.0000 0.0000 0.0000 2.9328 0.0000 8.5950
#
#
#
# Elastic Compliance Matrix: (Units=1/GPa)
#
#
# Indices 1 2 3 4 5 6 
#
# 1 0.025040 -0.011692 0.001972 0.000000 -0.005695 0.000000
# 2 -0.011692 0.021748 -0.004079 0.000000 0.002948 0.000000
# 3 0.001972 -0.004079 0.009217 0.000000 0.002773 0.000000
# 4 0.000000 0.000000 0.000000 0.066022 0.000000 -0.022529
# 5 -0.005695 0.002948 0.002773 0.000000 0.028645 0.000000
# 6 0.000000 0.000000 0.000000 -0.022529 0.000000 0.124035
#
#
# Mechanical properties :
#
#
# Convention : Reuss Voigt Hill
#
# Bulk Modulus (GPa) = 35.20337 38.53526 36.86932
# Shear Modulus (GPa) = 16.03733 25.59901 20.81817
#
# Velocity S-wave (km/s) = 2.85661 3.60908 3.25466
# Velocity P-wave (km/s) = 5.36588 6.08071 5.73444
#
# Compressibility (1/GPa) = 0.02840637
#
# Stress axis : x y z
#
# Youngs Moduli (GPa) = 39.93558 45.98224 108.50054
#
# Poissons Ratio (x) = 0.53763 -0.21393
# Poissons Ratio (y) = 0.46693 0.44253
# Poissons Ratio (z) = -0.07874 0.18754
#
# Static dielectric constant tensor:
#      x y z
#    x 1.754860 0.000000 -0.043820 
#    y 0.000000 1.642820 0.000000 
#    z -0.043820 0.000000 1.746020 
# 
# From -- ./inp_files/10489.got.cif
#   From: 2010.05.17/outbox.cif.g08.bks.cpg/sg3_6_cif.got.tgz:10489.got - 2010.06.03 18:33:08.
