data_PCOD9112350
_publ_section_title
;
Structure prediction by ZEFSAII (Michael W. Deem and Ramdas Pophale) SiO2 
 PCOD9112350
Probable space group: P -1
;
_chemical_formula_sum "Si O2"
_cell_formula_units_Z 16
_cell_length_a 10.481434
_cell_length_b 16.480420
_cell_length_c 14.312705
_cell_angle_alpha 27.269306
_cell_angle_beta 138.832956
_cell_angle_gamma 151.826852
_cell_volume 529.387085
_symmetry_space_group_name_H-M "P -1"
_symmetry_group_IT_number 2
_symmetry_cell_setting 'triclinic'
loop_
_space_group_symop_operation_xyz
x,y,z
-x,-y,-z
loop_
_atom_site_type_symbol
_atom_site_label
_atom_site_fract_x
_atom_site_fract_y
_atom_site_fract_z
Si Si1 0.374304 0.200879 0.173053
Si Si2 0.014500 0.935858 0.740346
Si Si3 0.685732 0.000135 0.381619
Si Si4 0.876945 0.320072 0.502386
Si Si5 0.771140 0.702731 0.184404
Si Si6 0.531571 0.701522 0.228854
Si Si7 0.621195 0.133525 0.828256
Si Si8 0.931556 0.467648 0.143434
O O1 0.220757 0.205798 0.164321
O O2 0.673116 0.305673 0.237900
O O3 0.179789 0.905093 0.350127
O O4 0.397482 0.352012 0.943761
O O5 0.909589 0.007011 0.533426
O O6 0.005007 0.724016 0.917187
O O7 0.284433 0.186539 0.689382
O O8 0.420062 0.809545 0.496130
O O9 0.571572 0.893106 0.324782
O O10 0.794307 0.270429 0.182742
O O11 0.943687 0.635229 0.355479
O O12 0.091053 0.585661 0.297185
O O13 0.594307 0.601593 0.285281
O O14 0.000000 0.000000 0.000000
O O15 0.213045 0.537132 0.239530
O O16 0.649477 0.955715 0.984912
O O17 0.500000 0.000000 0.000000
#
# Coordination Sequence:
#
# PCOD9112350 Si02
#       8
#     2   2   2   2   2   2   2   2
#     4  10  23  45  85 131 163 227 296 366 441 515
#     4  12  26  49  83 126 176 230 299 363 432 535
#     4  11  29  53  87 130 169 231 300 366 445 529
#     4  10  23  50  86 126 166 218 299 367 428 535
#     4  10  20  46  84 119 164 222 291 356 435 521
#     4  12  26  52  79 120 173 238 283 358 448 526
#     4  12  28  52  84 122 173 228 285 357 449 533
#     4  11  27  51  78 127 185 227 284 373 445 518
#
# _framework density 30.223635000000002
#
# number of rings (size 3 to 8) (size 9 to 14) (size 15 to 20)
#    0.000    1.000    2.500    4.125    1.750    9.500 
#    4.500    2.500    0.000    0.000    0.000    0.000 
#    0.000    0.125    0.000    0.000    0.000    0.000 
#
# Total GULP energy -89656.304699 kJ/mol
# GULP energy per Si atom -5603.519044 kJ/mol
# Density = 3.015484 g / cm^3
# Si number density = 30.223635 Si / 1000 Ang^3
#
#
#
# Elastic Constant Matrix: (Units=GPa)
#
#
# Indices 1 2 3 4 5 6 
#
# 1 219.6379 89.0706 66.1030 -3.5368 -7.8498 8.4272
# 2 89.0706 241.0598 71.9011 4.9284 5.0787 15.7585
# 3 66.1030 71.9011 179.2078 0.0815 14.9758 3.1077
# 4 -3.5368 4.9284 0.0815 67.1600 12.7699 1.3501
# 5 -7.8498 5.0787 14.9758 12.7699 64.1381 -4.7394
# 6 8.4272 15.7585 3.1077 1.3501 -4.7394 61.2314
#
#
#
# Elastic Compliance Matrix: (Units=1/GPa)
#
#
# Indices 1 2 3 4 5 6 
#
# 1 0.005749 -0.001681 -0.001538 0.000216 0.001138 -0.000197
# 2 -0.001681 0.005289 -0.001459 -0.000400 -0.000283 -0.001069
# 3 -0.001538 -0.001459 0.006877 0.000347 -0.001740 0.000096
# 4 0.000216 -0.000400 0.000347 0.015541 -0.003156 -0.000531
# 5 0.001138 -0.000283 -0.001740 -0.003156 0.016890 0.001381
# 6 -0.000197 -0.001069 0.000096 -0.000531 0.001381 0.016747
#
#
# Mechanical properties :
#
#
# Convention : Reuss Voigt Hill
#
# Bulk Modulus (GPa) = 116.85635 121.56166 119.20900
# Shear Modulus (GPa) = 63.04943 66.02794 64.53868
#
# Velocity S-wave (km/s) = 4.57234 4.67909 4.62602
# Velocity P-wave (km/s) = 8.16228 8.33666 8.24993
#
# Compressibility (1/GPa) = 0.00855752
#
# Stress axis : x y z
#
# Youngs Moduli (GPa) = 173.93407 189.07760 145.42046
#
# Poissons Ratio (x) = 0.31786 0.22366
# Poissons Ratio (y) = 0.29240 0.21224
# Poissons Ratio (z) = 0.26752 0.27596
#
# Static dielectric constant tensor:
#      x y z
#    x 2.408600 -0.077650 0.056260 
#    y -0.077650 2.471560 0.039950 
#    z 0.056260 0.039950 2.392440 
# 
# From -- ./inp_files/522191.got.cif
#   From: 2010.05.17/outbox.cif.g08.bks.cpg/sg2_262_cif.got.tgz:522191.got - 2010.06.03 11:33:40.
