data_PCOD9112691
_publ_section_title
;
Structure prediction by ZEFSAII (Michael W. Deem and Ramdas Pophale) SiO2 
 PCOD9112691
Probable space group: P 2
;
_chemical_formula_sum "Si O2"
_cell_formula_units_Z 13
_cell_length_a 10.481615
_cell_length_b 9.007881
_cell_length_c 10.828955
_cell_angle_alpha 90.000000
_cell_angle_beta 138.067174
_cell_angle_gamma 90.000000
_cell_volume 683.253917
_symmetry_space_group_name_H-M "P 2"
_symmetry_group_IT_number 3
_symmetry_cell_setting 'monoclinic'
loop_
_space_group_symop_operation_xyz
x,y,z
-x,y,-z
loop_
_atom_site_type_symbol
_atom_site_label
_atom_site_fract_x
_atom_site_fract_y
_atom_site_fract_z
Si Si1 0.000000 0.237840 0.000000
Si Si2 0.757112 0.979177 0.436672
Si Si3 0.142574 0.117833 0.757755
Si Si4 0.464139 0.438622 0.113534
Si Si5 0.621314 0.133625 0.829472
Si Si6 0.955920 0.427610 0.213012
Si Si7 0.815801 0.630427 0.455902
O O1 0.011618 0.340805 0.129251
O O2 0.194104 0.144919 0.124416
O O3 0.783470 0.055050 0.319276
O O4 0.553180 0.033252 0.337615
O O5 0.942054 0.037877 0.642050
O O6 0.771156 0.802843 0.440645
O O7 0.090546 0.293532 0.723262
O O8 0.293193 0.088314 0.974874
O O9 0.458129 0.299912 0.202364
O O10 0.630906 0.550570 0.267155
O O11 0.500000 0.382613 0.000000
O O12 0.249651 0.504100 0.958263
O O13 0.114180 0.539813 0.374031
O O14 0.000000 0.619017 0.500000
#
# Coordination Sequence:
#
# PCOD9112691 Si02
#       7
#     1   2   2   2   2   2   2
#     4   8  20  42  64  86 106 160 214 262 272 322
#     4  11  21  34  54  92 127 152 184 233 310 367
#     4   9  19  35  56  86 118 154 187 246 295 352
#     4  10  19  33  56  87 116 154 194 241 299 350
#     4  10  20  37  61  82 112 154 207 246 288 333
#     4  10  21  38  63  84 120 150 210 247 287 338
#     4  12  23  34  55  94 131 155 182 235 309 374
#
# _framework density 19.026600999999999
#
# number of rings (size 3 to 8) (size 9 to 14) (size 15 to 20)
#    0.000    2.154    3.077    3.231    2.154    2.462 
#    0.000   12.308    0.000   22.154    0.000    0.000 
#    0.000    0.000    0.000    0.000    0.000    0.000 
#
# Total GULP energy -72528.943586 kJ/mol
# GULP energy per Si atom -5579.149507 kJ/mol
# Density = 1.898330 g / cm^3
# Si number density = 19.026601 Si / 1000 Ang^3
#
#
#
# Elastic Constant Matrix: (Units=GPa)
#
#
# Indices 1 2 3 4 5 6 
#
# 1 88.9911 34.0562 27.9364 0.0000 26.6426 0.0000
# 2 34.0562 108.6666 56.7827 0.0000 23.3687 0.0000
# 3 27.9364 56.7827 76.0114 0.0000 33.1682 0.0000
# 4 0.0000 0.0000 0.0000 -8.5864 0.0000 1.3779
# 5 26.6426 23.3687 33.1682 0.0000 35.2207 0.0000
# 6 0.0000 0.0000 0.0000 1.3779 0.0000 15.9444
#
#
#
# Elastic Compliance Matrix: (Units=1/GPa)
#
#
# Indices 1 2 3 4 5 6 
#
# 1 0.015239 -0.003264 0.001566 0.000000 -0.010837 0.000000
# 2 -0.003264 0.015816 -0.012076 0.000000 0.003347 0.000000
# 3 0.001566 -0.012076 0.031613 0.000000 -0.022943 0.000000
# 4 0.000000 0.000000 0.000000 -0.114870 0.000000 0.009927
# 5 -0.010837 0.003347 -0.022943 0.000000 0.055975 0.000000
# 6 0.000000 0.000000 0.000000 0.009927 0.000000 0.061860
#
#
# Mechanical properties :
#
#
# Convention : Reuss Voigt Hill
#
# Bulk Modulus (GPa) = 28.47379 56.80216 42.63798
# Shear Modulus (GPa) = 47.67115 18.84200 33.25658
#
# Velocity S-wave (km/s) = 5.01093 3.15031 4.18532
# Velocity P-wave (km/s) = 6.96254 6.56898 6.76862
#
# Compressibility (1/GPa) = 0.03512002
#
# Stress axis : x y z
#
# Youngs Moduli (GPa) = 65.62189 63.22876 31.63292
#
# Poissons Ratio (x) = 0.20637 -0.04954
# Poissons Ratio (y) = 0.21418 0.38199
# Poissons Ratio (z) = -0.10277 0.76354
#
# Static dielectric constant tensor:
#      x y z
#    x 1.698130 0.000000 0.002280 
#    y 0.000000 1.644760 0.000000 
#    z 0.002280 0.000000 1.686210 
# 
# From -- ./inp_files/11607.got.cif
#   From: 2010.05.17/outbox.cif.g08.bks.cpg/sg3_6_cif.got.tgz:11607.got - 2010.06.03 18:33:08.
