data_PCOD9112584
_publ_section_title
;
Structure prediction by ZEFSAII (Michael W. Deem and Ramdas Pophale) SiO2 
 PCOD9112584
Probable space group: P 2
;
_chemical_formula_sum "Si O2"
_cell_formula_units_Z 15
_cell_length_a 17.059588
_cell_length_b 8.491230
_cell_length_c 5.025800
_cell_angle_alpha 90.000000
_cell_angle_beta 119.430226
_cell_angle_gamma 90.000000
_cell_volume 634.073964
_symmetry_space_group_name_H-M "P 2"
_symmetry_group_IT_number 3
_symmetry_cell_setting 'monoclinic'
loop_
_space_group_symop_operation_xyz
x,y,z
-x,y,-z
loop_
_atom_site_type_symbol
_atom_site_label
_atom_site_fract_x
_atom_site_fract_y
_atom_site_fract_z
Si Si1 0.566130 0.902200 0.361633
Si Si2 0.234324 0.214911 0.823214
Si Si3 0.897196 0.482142 0.441798
Si Si4 0.566750 0.554259 0.363317
Si Si5 0.939096 0.802158 0.656819
Si Si6 0.000000 0.294385 0.000000
Si Si7 0.147192 0.080472 0.151560
Si Si8 0.606133 0.230810 0.236001
O O1 0.500000 0.923278 0.500000
O O2 0.611877 0.728591 0.462718
O O3 0.621833 0.062225 0.406210
O O4 0.500000 0.891099 0.000000
O O5 0.180331 0.374162 0.810574
O O6 0.339433 0.234121 0.949540
O O7 0.201311 0.171963 0.470923
O O8 0.204489 0.080176 0.978969
O O9 0.876206 0.664508 0.436528
O O10 0.000000 0.473921 0.500000
O O11 0.921372 0.403283 0.762341
O O12 0.500000 0.533492 0.500000
O O13 0.625636 0.396365 0.418747
O O14 0.500000 0.562645 0.000000
O O15 0.885348 0.930772 0.735447
O O16 0.000000 0.852251 0.500000
O O17 0.000000 0.732151 0.000000
O O18 0.054941 0.171361 0.909946
O O19 0.500000 0.232392 0.000000
#
# Coordination Sequence:
#
# PCOD9112584 Si02
#       8
#     2   2   2   2   2   1   2   2
#     4   9  18  34  60  89 115 152 205 262 320 379
#     4  11  25  40  62  95 131 171 223 274 328 399
#     4  10  20  38  62  93 128 170 214 265 332 395
#     4   9  18  34  60  89 115 152 205 261 320 378
#     4  11  22  37  66  97 130 175 223 269 334 404
#     4  10  18  34  64  82 122 168 206 256 312 396
#     4  11  23  39  61  94 131 167 223 266 329 394
#     4  10  22  42  67  91 128 173 226 271 331 389
#
# _framework density 23.656547
#
# number of rings (size 3 to 8) (size 9 to 14) (size 15 to 20)
#    0.000    1.867    2.667    1.200    0.000    4.267 
#    2.400    0.000    0.000    0.000    0.000    0.000 
#    0.000    0.000    0.000    0.000    0.000    0.000 
#
# Total GULP energy -83537.351112 kJ/mol
# GULP energy per Si atom -5569.156741 kJ/mol
# Density = 2.360270 g / cm^3
# Si number density = 23.656547 Si / 1000 Ang^3
#
#
#
# Elastic Constant Matrix: (Units=GPa)
#
#
# Indices 1 2 3 4 5 6 
#
# 1 148.7113 70.1419 26.0655 0.0000 -30.7006 0.0000
# 2 70.1419 198.8659 -2.7383 0.0000 -18.8766 0.0000
# 3 26.0655 -2.7383 69.8682 0.0000 -28.5832 0.0000
# 4 0.0000 0.0000 0.0000 17.1840 0.0000 -11.9417
# 5 -30.7006 -18.8766 -28.5832 0.0000 41.0690 0.0000
# 6 0.0000 0.0000 0.0000 -11.9417 0.0000 10.4138
#
#
#
# Elastic Compliance Matrix: (Units=1/GPa)
#
#
# Indices 1 2 3 4 5 6 
#
# 1 0.009307 -0.002892 -0.001794 0.000000 0.004380 0.000000
# 2 -0.002892 0.006300 0.002273 0.000000 0.002316 0.000000
# 3 -0.001794 0.002273 0.020901 0.000000 0.014251 0.000000
# 4 0.000000 0.000000 0.000000 0.286522 0.000000 0.328561
# 5 0.004380 0.002316 0.014251 0.000000 0.038606 0.000000
# 6 0.000000 0.000000 0.000000 0.328561 0.000000 0.472795
#
#
# Mechanical properties :
#
#
# Convention : Reuss Voigt Hill
#
# Bulk Modulus (GPa) = 31.56259 67.15374 49.35816
# Shear Modulus (GPa) = 5.88363 35.33176 20.60770
#
# Velocity S-wave (km/s) = 1.57877 3.86881 2.95468
# Velocity P-wave (km/s) = 4.08587 6.95741 5.70525
#
# Compressibility (1/GPa) = 0.03168308
#
# Stress axis : x y z
#
# Youngs Moduli (GPa) = 107.44750 158.74191 47.84496
#
# Poissons Ratio (x) = 0.45901 0.08581
# Poissons Ratio (y) = 0.31069 -0.10876
# Poissons Ratio (z) = 0.19272 -0.36084
#
# Static dielectric constant tensor:
#      x y z
#    x 1.923410 0.000000 0.015150 
#    y 0.000000 2.005590 0.000000 
#    z 0.015150 0.000000 1.969350 
# 
# From -- ./inp_files/3200.got.cif
#   From: 2010.05.17/outbox.cif.g08.bks.cpg/sg3_2_cif.got.tgz:3200.got - 2010.06.03 18:33:08.
