data_PCOD9112208
_publ_section_title
;
Structure prediction by ZEFSAII (Michael W. Deem and Ramdas Pophale) SiO2 
 PCOD9112208
Probable space group: P -1
;
_chemical_formula_sum "Si O2"
_cell_formula_units_Z 16
_cell_length_a 17.527280
_cell_length_b 16.038871
_cell_length_c 6.254206
_cell_angle_alpha 76.663683
_cell_angle_beta 83.523368
_cell_angle_gamma 148.794424
_cell_volume 698.856957
_symmetry_space_group_name_H-M "P -1"
_symmetry_group_IT_number 2
_symmetry_cell_setting 'triclinic'
loop_
_space_group_symop_operation_xyz
x,y,z
-x,-y,-z
loop_
_atom_site_type_symbol
_atom_site_label
_atom_site_fract_x
_atom_site_fract_y
_atom_site_fract_z
Si Si1 0.486147 0.280627 0.522753
Si Si2 0.577927 0.558856 0.187886
Si Si3 0.140352 0.870631 0.593587
Si Si4 0.103803 0.349532 0.822621
Si Si5 0.811709 0.952900 0.916262
Si Si6 0.376477 0.835647 0.946834
Si Si7 0.100803 0.517344 0.538606
Si Si8 0.732727 0.180449 0.386215
O O1 0.563579 0.442035 0.273829
O O2 0.676245 0.423156 0.423717
O O3 0.325373 0.070005 0.564503
O O4 0.371295 0.195634 0.816471
O O5 0.500000 0.500000 0.500000
O O6 0.500000 0.500000 0.000000
O O7 0.765877 0.806823 0.980267
O O8 0.143991 0.773147 0.601721
O O9 0.162298 0.962833 0.349675
O O10 0.954560 0.703174 0.882702
O O11 0.009216 0.337211 0.751785
O O12 0.997167 0.158966 0.874551
O O13 0.268711 0.801406 0.875100
O O14 0.523659 0.947543 0.668910
O O15 0.238132 0.633073 0.231886
O O16 0.500000 0.000000 0.000000
O O17 0.208366 0.669074 0.617149
O O18 0.000000 0.500000 0.500000
#
# Coordination Sequence:
#
# PCOD9112208 Si02
#       8
#     2   2   2   2   2   2   2   2
#     4  10  24  42  68  98 134 174 224 279 341 410
#     4  10  20  44  76 105 139 187 231 277 355 430
#     4  11  23  41  64  93 134 169 221 284 339 396
#     4  11  26  41  62 101 134 170 230 282 334 407
#     4  10  23  44  69  93 137 178 216 272 348 410
#     4   9  21  37  57  83 113 162 219 266 325 394
#     4  11  23  40  59  86 130 172 216 273 340 399
#     4  10  22  38  60  86 118 169 217 273 328 392
#
# _framework density 22.894528999999999
#
# number of rings (size 3 to 8) (size 9 to 14) (size 15 to 20)
#    0.000    1.750    1.250    1.500    7.000    6.500 
#    0.000    0.625    0.000    0.000    0.000    0.000 
#    0.000    0.000    0.000    0.000    0.000    0.000 
#
# Total GULP energy -89134.776652 kJ/mol
# GULP energy per Si atom -5570.923541 kJ/mol
# Density = 2.284242 g / cm^3
# Si number density = 22.894529 Si / 1000 Ang^3
#
#
#
# Elastic Constant Matrix: (Units=GPa)
#
#
# Indices 1 2 3 4 5 6 
#
# 1 35.3416 4.7968 13.6881 1.2717 9.3512 2.8000
# 2 4.7968 77.7913 6.9598 -8.4619 -3.5893 -6.2079
# 3 13.6881 6.9598 130.6681 5.9739 21.0238 4.5567
# 4 1.2717 -8.4619 5.9739 30.2855 7.5063 9.1835
# 5 9.3512 -3.5893 21.0238 7.5063 39.3321 -9.8649
# 6 2.8000 -6.2079 4.5567 9.1835 -9.8649 34.3990
#
#
#
# Elastic Compliance Matrix: (Units=1/GPa)
#
#
# Indices 1 2 3 4 5 6 
#
# 1 0.032025 -0.002459 -0.001692 0.002320 -0.008879 -0.005992
# 2 -0.002459 0.013747 -0.001124 0.002629 0.002664 0.002892
# 3 -0.001692 -0.001124 0.008802 0.000115 -0.005111 -0.002728
# 4 0.002320 0.002629 0.000115 0.040751 -0.011648 -0.013949
# 5 -0.008879 0.002664 -0.005111 -0.011648 0.036619 0.015492
# 6 -0.005992 0.002892 -0.002728 -0.013949 0.015492 0.038608
#
#
# Mechanical properties :
#
#
# Convention : Reuss Voigt Hill
#
# Bulk Modulus (GPa) = 22.71514 32.74338 27.72926
# Shear Modulus (GPa) = 25.53916 35.36041 30.44978
#
# Velocity S-wave (km/s) = 3.34355 3.93427 3.65088
# Velocity P-wave (km/s) = 4.98488 5.91361 5.46899
#
# Compressibility (1/GPa) = 0.04402351
#
# Stress axis : x y z
#
# Youngs Moduli (GPa) = 31.22552 72.74450 113.60562
#
# Poissons Ratio (x) = 0.17887 0.19225
# Poissons Ratio (y) = 0.07678 0.12772
# Poissons Ratio (z) = 0.05284 0.08178
#
# Static dielectric constant tensor:
#      x y z
#    x 1.892610 0.036120 -0.041360 
#    y 0.036120 1.957040 0.050070 
#    z -0.041360 0.050070 1.891640 
# 
# From -- ./inp_files/119866.got.cif
#   From: 2010.05.17/outbox.cif.g08.bks.cpg/sg2_60_cif.got.tgz:119866.got - 2010.06.03 11:33:40.
