data_PCOD9112632
_publ_section_title
;
Structure prediction by ZEFSAII (Michael W. Deem and Ramdas Pophale) SiO2 
 PCOD9112632
Probable space group: P 2
;
_chemical_formula_sum "Si O2"
_cell_formula_units_Z 14
_cell_length_a 8.458573
_cell_length_b 8.675679
_cell_length_c 11.748918
_cell_angle_alpha 90.000000
_cell_angle_beta 138.378083
_cell_angle_gamma 90.000000
_cell_volume 572.671153
_symmetry_space_group_name_H-M "P 2"
_symmetry_group_IT_number 3
_symmetry_cell_setting 'monoclinic'
loop_
_space_group_symop_operation_xyz
x,y,z
-x,y,-z
loop_
_atom_site_type_symbol
_atom_site_label
_atom_site_fract_x
_atom_site_fract_y
_atom_site_fract_z
Si Si1 0.676908 0.915930 0.701817
Si Si2 0.379460 0.181888 0.635989
Si Si3 0.500000 0.414820 0.500000
Si Si4 0.745682 0.458565 0.304700
Si Si5 0.960654 0.457087 0.184727
Si Si6 0.953408 0.103970 0.243238
Si Si7 0.339295 0.677120 0.120468
Si Si8 0.500000 0.899077 0.000000
O O1 0.500000 0.885293 0.500000
O O2 0.735087 0.770037 0.808724
O O3 0.546140 0.034547 0.717675
O O4 0.902616 0.997253 0.767616
O O5 0.484942 0.301547 0.600098
O O6 0.359470 0.286559 0.737026
O O7 0.126112 0.133209 0.444833
O O8 0.759296 0.493521 0.645995
O O9 0.799105 0.505475 0.205386
O O10 0.579732 0.582133 0.275132
O O11 0.000000 0.452135 0.500000
O O12 0.930635 0.271411 0.171192
O O13 0.844460 0.547822 0.019645
O O14 0.718871 0.010979 0.150279
O O15 0.406967 0.792618 0.053611
#
# Coordination Sequence:
#
# PCOD9112632 Si02
#       8
#     2   2   1   2   2   2   2   1
#     4  10  23  52  76 113 159 203 270 320 397 465
#     4  10  20  44  79 113 137 200 277 326 377 460
#     4  10  18  44  80 114 146 196 260 340 378 456
#     4  12  24  43  75 117 153 205 266 320 394 465
#     4  11  23  49  78 115 158 197 272 322 392 471
#     4  10  23  45  79 109 152 206 267 327 373 471
#     4  12  29  50  73 114 171 206 254 327 403 476
#     4  12  28  48  70 110 166 210 254 316 410 462
#
# _framework density 24.446839000000001
#
# number of rings (size 3 to 8) (size 9 to 14) (size 15 to 20)
#    0.000    1.143    7.857    0.000    4.000    2.857 
#    6.429    0.000    0.000    0.000    0.000    0.000 
#    0.000    0.000    0.000    0.000    0.000    0.000 
#
# Total GULP energy -78431.134955 kJ/mol
# GULP energy per Si atom -5602.223925 kJ/mol
# Density = 2.439120 g / cm^3
# Si number density = 24.446839 Si / 1000 Ang^3
#
#
#
# Elastic Constant Matrix: (Units=GPa)
#
#
# Indices 1 2 3 4 5 6 
#
# 1 82.2904 30.9138 25.4678 0.0000 3.3293 0.0000
# 2 30.9138 103.2943 36.4879 0.0000 -0.6951 0.0000
# 3 25.4678 36.4879 47.2856 0.0000 17.9289 0.0000
# 4 0.0000 0.0000 0.0000 52.5510 0.0000 -13.4214
# 5 3.3293 -0.6951 17.9289 0.0000 38.7912 0.0000
# 6 0.0000 0.0000 0.0000 -13.4214 0.0000 26.7036
#
#
#
# Elastic Compliance Matrix: (Units=1/GPa)
#
#
# Indices 1 2 3 4 5 6 
#
# 1 0.015084 -0.001846 -0.007513 0.000000 0.002145 0.000000
# 2 -0.001846 0.014816 -0.012851 0.000000 0.006364 0.000000
# 3 -0.007513 -0.012851 0.042381 0.000000 -0.019174 0.000000
# 4 0.000000 0.000000 0.000000 0.021832 0.000000 0.010973
# 5 0.002145 0.006364 -0.019174 0.000000 0.034571 0.000000
# 6 0.000000 0.000000 0.000000 0.010973 0.000000 0.042963
#
#
# Mechanical properties :
#
#
# Convention : Reuss Voigt Hill
#
# Bulk Modulus (GPa) = 35.89298 46.51215 41.20256
# Shear Modulus (GPa) = 22.18731 32.94254 27.56493
#
# Velocity S-wave (km/s) = 3.01586 3.67484 3.36154
# Velocity P-wave (km/s) = 5.18085 6.08876 5.65306
#
# Compressibility (1/GPa) = 0.02786060
#
# Stress axis : x y z
#
# Youngs Moduli (GPa) = 66.29569 67.49448 23.59539
#
# Poissons Ratio (x) = 0.12460 0.17727
# Poissons Ratio (y) = 0.12238 0.30323
# Poissons Ratio (z) = 0.49807 0.86740
#
# Static dielectric constant tensor:
#      x y z
#    x 2.076050 0.000000 -0.081350 
#    y 0.000000 1.925020 0.000000 
#    z -0.081350 0.000000 1.989570 
# 
# From -- ./inp_files/10880.got.cif
#   From: 2010.05.17/outbox.cif.g08.bks.cpg/sg3_6_cif.got.tgz:10880.got - 2010.06.03 18:33:08.
