data_PCOD9112620
_publ_section_title
;
Structure prediction by ZEFSAII (Michael W. Deem and Ramdas Pophale) SiO2 
 PCOD9112620
Probable space group: P 2
;
_chemical_formula_sum "Si O2"
_cell_formula_units_Z 16
_cell_length_a 18.848110
_cell_length_b 9.166489
_cell_length_c 8.780498
_cell_angle_alpha 90.000000
_cell_angle_beta 148.416067
_cell_angle_gamma 90.000000
_cell_volume 794.532307
_symmetry_space_group_name_H-M "P 2"
_symmetry_group_IT_number 3
_symmetry_cell_setting 'monoclinic'
loop_
_space_group_symop_operation_xyz
x,y,z
-x,y,-z
loop_
_atom_site_type_symbol
_atom_site_label
_atom_site_fract_x
_atom_site_fract_y
_atom_site_fract_z
Si Si1 0.403323 0.978830 0.680135
Si Si2 0.126918 0.942597 0.331985
Si Si3 0.419850 0.192388 0.205259
Si Si4 0.866936 0.659872 0.164156
Si Si5 0.518220 0.738681 0.715390
Si Si6 0.773935 0.937444 0.159515
Si Si7 0.939284 0.606420 0.743581
Si Si8 0.696995 0.493253 0.089737
O O1 0.258250 0.005927 0.488234
O O2 0.398143 0.832285 0.567868
O O3 0.475052 0.105868 0.712026
O O4 0.500000 0.948955 0.000000
O O5 0.134940 0.977648 0.527823
O O6 0.121406 0.765170 0.323072
O O7 0.000000 0.992015 0.000000
O O8 0.500000 0.244906 0.500000
O O9 0.343237 0.325930 0.987825
O O10 0.304771 0.076767 0.046563
O O11 0.840720 0.828749 0.160266
O O12 0.750289 0.558357 0.023181
O O13 0.000000 0.615126 0.500000
O O14 0.923008 0.639137 0.099603
O O15 0.500000 0.734226 0.500000
O O16 0.651238 0.835670 0.996118
O O17 0.558256 0.584744 0.859988
O O18 0.818832 0.529178 0.429290
O O19 0.000000 0.524772 0.000000
#
# Coordination Sequence:
#
# PCOD9112620 Si02
#       8
#     2   2   2   2   2   2   2   2
#     4  11  20  40  64  88 129 167 207 272 328 362
#     4  11  21  35  64  98 128 160 208 266 319 380
#     4  11  24  40  62  86 126 172 217 264 311 378
#     4   9  17  36  65  88 124 160 201 261 323 365
#     4  10  19  34  61  88 115 160 219 270 316 374
#     4  10  18  38  60  90 122 162 211 265 315 370
#     4  10  20  37  65  97 130 161 203 265 329 386
#     4  10  20  40  60  89 127 165 218 265 307 376
#
# _framework density 20.137633999999998
#
# number of rings (size 3 to 8) (size 9 to 14) (size 15 to 20)
#    0.000    1.750    6.250    1.875    0.000    6.000 
#    0.000    5.625    0.000    0.000    0.000    0.000 
#    0.000    0.000    0.000    0.000    0.000    0.000 
#
# Total GULP energy -89123.284505 kJ/mol
# GULP energy per Si atom -5570.205282 kJ/mol
# Density = 2.009180 g / cm^3
# Si number density = 20.137634 Si / 1000 Ang^3
#
#
#
# Elastic Constant Matrix: (Units=GPa)
#
#
# Indices 1 2 3 4 5 6 
#
# 1 91.7303 29.5445 40.3863 0.0000 -2.7614 0.0000
# 2 29.5445 72.1078 10.1639 0.0000 9.3791 0.0000
# 3 40.3863 10.1639 118.5449 0.0000 -9.7529 0.0000
# 4 0.0000 0.0000 0.0000 22.0180 0.0000 1.9194
# 5 -2.7614 9.3791 -9.7529 0.0000 28.8312 0.0000
# 6 0.0000 0.0000 0.0000 1.9194 0.0000 12.3740
#
#
#
# Elastic Compliance Matrix: (Units=1/GPa)
#
#
# Indices 1 2 3 4 5 6 
#
# 1 0.014697 -0.005633 -0.004379 0.000000 0.001759 0.000000
# 2 -0.005633 0.016971 -0.000036 0.000000 -0.006072 0.000000
# 3 -0.004379 -0.000036 0.010180 0.000000 0.003036 0.000000
# 4 0.000000 0.000000 0.000000 0.046040 0.000000 -0.007141
# 5 0.001759 -0.006072 0.003036 0.000000 0.037855 0.000000
# 6 0.000000 0.000000 0.000000 -0.007141 0.000000 0.081923
#
#
# Mechanical properties :
#
#
# Convention : Reuss Voigt Hill
#
# Bulk Modulus (GPa) = 45.97222 49.17471 47.57347
# Shear Modulus (GPa) = 21.27542 26.13054 23.70298
#
# Velocity S-wave (km/s) = 3.25391 3.60613 3.43454
# Velocity P-wave (km/s) = 6.08242 6.46616 6.27722
#
# Compressibility (1/GPa) = 0.02175227
#
# Stress axis : x y z
#
# Youngs Moduli (GPa) = 68.04160 58.92398 98.22796
#
# Poissons Ratio (x) = 0.33193 0.43017
# Poissons Ratio (y) = 0.38329 0.00349
# Poissons Ratio (z) = 0.29798 0.00209
#
# Static dielectric constant tensor:
#      x y z
#    x 1.825920 0.000000 0.001990 
#    y 0.000000 1.715360 0.000000 
#    z 0.001990 0.000000 1.763110 
# 
# From -- ./inp_files/9487.got.cif
#   From: 2010.05.17/outbox.cif.g08.bks.cpg/sg3_5_cif.got.tgz:9487.got - 2010.06.03 18:33:08.
