data_PCOD9112525
_publ_section_title
;
Structure prediction by ZEFSAII (Michael W. Deem and Ramdas Pophale) SiO2 
 PCOD9112525
Probable space group: P 2
;
_chemical_formula_sum "Si O2"
_cell_formula_units_Z 16
_cell_length_a 6.462685
_cell_length_b 19.398078
_cell_length_c 5.361401
_cell_angle_alpha 90.000000
_cell_angle_beta 80.989823
_cell_angle_gamma 90.000000
_cell_volume 663.831234
_symmetry_space_group_name_H-M "P 2"
_symmetry_group_IT_number 3
_symmetry_cell_setting 'monoclinic'
loop_
_space_group_symop_operation_xyz
x,y,z
-x,y,-z
loop_
_atom_site_type_symbol
_atom_site_label
_atom_site_fract_x
_atom_site_fract_y
_atom_site_fract_z
Si Si1 0.748395 0.556950 0.099369
Si Si2 0.641022 0.762038 0.724276
Si Si3 0.856905 0.414208 0.273594
Si Si4 0.208914 0.206153 0.208085
Si Si5 0.357352 0.910770 0.277154
Si Si6 0.356175 0.061337 0.276696
Si Si7 0.235910 0.614083 0.409549
Si Si8 0.265732 0.263557 0.691163
O O1 0.728033 0.483774 0.243092
O O2 0.679892 0.612251 0.322046
O O3 0.671077 0.566596 0.829353
O O4 0.000000 0.565764 0.000000
O O5 0.500000 0.761949 0.500000
O O6 0.756205 0.836570 0.706575
O O7 0.771580 0.691961 0.689430
O O8 0.500000 0.758834 0.000000
O O9 0.718596 0.345461 0.292531
O O10 0.000000 0.416915 0.500000
O O11 0.000000 0.408307 0.000000
O O12 0.201292 0.125685 0.276077
O O13 0.335121 0.242411 0.403749
O O14 0.986677 0.244673 0.258576
O O15 0.311750 0.218185 0.923002
O O16 0.500000 0.910596 0.500000
O O17 0.249668 0.985655 0.302648
O O18 0.500000 0.910888 0.000000
O O19 0.500000 0.069326 0.500000
O O20 0.500000 0.062820 0.000000
O O21 0.000000 0.588495 0.500000
#
# Coordination Sequence:
#
# PCOD9112525 Si02
#       8
#     2   2   2   2   2   2   2   2
#     4   9  18  28  46  72 102 127 157 201 257 305
#     4  10  19  33  55  79 100 136 177 215 251 303
#     4  11  16  28  46  71 102 120 163 207 248 290
#     4  10  18  30  46  70 100 125 156 204 258 291
#     4   8  16  30  49  73  95 120 169 214 240 278
#     4  10  19  32  50  73  97 131 169 209 247 294
#     4  10  19  33  48  76 110 132 161 215 262 302
#     4  10  18  30  46  73  99 125 156 205 255 292
#
# _framework density 24.102512999999998
#
# number of rings (size 3 to 8) (size 9 to 14) (size 15 to 20)
#    0.000    2.250    2.500    3.375    0.000    0.000 
#    0.000    0.000    2.750    0.000    6.500   17.500 
#    0.000    0.000    0.000    0.000    0.000    0.000 
#
# Total GULP energy -89239.628293 kJ/mol
# GULP energy per Si atom -5577.476768 kJ/mol
# Density = 2.404765 g / cm^3
# Si number density = 24.102513 Si / 1000 Ang^3
#
#
#
# Elastic Constant Matrix: (Units=GPa)
#
#
# Indices 1 2 3 4 5 6 
#
# 1 19.6205 -17.6791 17.7039 0.0000 13.3991 0.0000
# 2 -17.6791 209.5868 35.6286 0.0000 -3.6208 0.0000
# 3 17.7039 35.6286 212.6977 0.0000 10.2471 0.0000
# 4 0.0000 0.0000 0.0000 35.6091 0.0000 -1.2637
# 5 13.3991 -3.6208 10.2471 0.0000 44.9794 0.0000
# 6 0.0000 0.0000 0.0000 -1.2637 0.0000 -42.8289
#
#
#
# Elastic Compliance Matrix: (Units=1/GPa)
#
#
# Indices 1 2 3 4 5 6 
#
# 1 0.078102 0.007364 -0.006716 0.000000 -0.021143 0.000000
# 2 0.007364 0.005621 -0.001487 0.000000 -0.001403 0.000000
# 3 -0.006716 -0.001487 0.005479 0.000000 0.000633 0.000000
# 4 0.000000 0.000000 0.000000 0.028053 0.000000 -0.000828
# 5 -0.021143 -0.001403 0.000633 0.000000 0.028274 0.000000
# 6 0.000000 0.000000 0.000000 -0.000828 0.000000 -0.023324
#
#
# Mechanical properties :
#
#
# Convention : Reuss Voigt Hill
#
# Bulk Modulus (GPa) = 11.42525 57.02352 34.22439
# Shear Modulus (GPa) = 32.66761 34.63534 33.65148
#
# Velocity S-wave (km/s) = 3.68552 3.79489 3.74060
# Velocity P-wave (km/s) = 4.78135 6.55070 5.73468
#
# Compressibility (1/GPa) = 0.08752545
#
# Stress axis : x y z
#
# Youngs Moduli (GPa) = 12.80378 177.90271 182.51181
#
# Poissons Ratio (x) = -1.31016 1.22571
# Poissons Ratio (y) = -0.09429 0.27139
# Poissons Ratio (z) = 0.08599 0.26454
#
# Static dielectric constant tensor:
#      x y z
#    x 2.318600 0.000000 -0.011200 
#    y 0.000000 1.932660 0.000000 
#    z -0.011200 0.000000 1.952160 
# 
# From -- ./inp_files/1685.got.cif
#   From: 2010.05.17/outbox.cif.g08.bks.cpg/sg3_1_cif.got.tgz:1685.got - 2010.06.03 18:33:08.
