data_PCOD9112197
_publ_section_title
;
Structure prediction by ZEFSAII (Michael W. Deem and Ramdas Pophale) SiO2 
 PCOD9112197
Probable space group: P -1
;
_chemical_formula_sum "Si O2"
_cell_formula_units_Z 16
_cell_length_a 9.942617
_cell_length_b 13.886641
_cell_length_c 12.001293
_cell_angle_alpha 149.710289
_cell_angle_beta 68.610343
_cell_angle_gamma 99.703428
_cell_volume 739.424376
_symmetry_space_group_name_H-M "P -1"
_symmetry_group_IT_number 2
_symmetry_cell_setting 'triclinic'
loop_
_space_group_symop_operation_xyz
x,y,z
-x,-y,-z
loop_
_atom_site_type_symbol
_atom_site_label
_atom_site_fract_x
_atom_site_fract_y
_atom_site_fract_z
Si Si1 0.912174 0.715838 0.928733
Si Si2 0.161197 0.827934 0.529107
Si Si3 0.432265 0.272995 0.998913
Si Si4 0.896275 0.229149 0.265847
Si Si5 0.497877 0.224408 0.688956
Si Si6 0.554573 0.394692 0.494519
Si Si7 0.358209 0.179938 0.470744
Si Si8 0.011638 0.390734 0.768872
O O1 0.022005 0.660509 0.733007
O O2 0.970628 0.560287 0.855272
O O3 0.738654 0.741252 0.970247
O O4 0.911144 0.933782 0.193122
O O5 0.123979 0.723789 0.549091
O O6 0.339981 0.790625 0.425902
O O7 0.100082 0.740115 0.353281
O O8 0.465503 0.337573 0.928881
O O9 0.552398 0.056296 0.776363
O O10 0.446158 0.433810 0.244498
O O11 0.728429 0.254655 0.297162
O O12 0.000000 0.000000 0.000000
O O13 0.374166 0.283893 0.688581
O O14 0.500000 0.000000 0.500000
O O15 0.500000 0.500000 0.500000
O O16 0.447563 0.269488 0.443765
O O17 0.182454 0.240169 0.554311
O O18 0.000000 0.500000 0.000000
#
# Coordination Sequence:
#
# PCOD9112197 Si02
#       8
#     2   2   2   2   2   2   2   2
#     4  11  23  46  72 101 137 181 236 284 342 410
#     4  11  23  46  74  98 135 184 231 281 344 409
#     4  11  25  43  74 101 130 188 235 279 339 414
#     4  10  22  44  73  99 132 181 235 281 336 407
#     4  10  20  44  75  99 129 180 235 280 336 413
#     4  12  26  43  67 103 139 183 229 277 348 409
#     4  11  24  46  65 101 143 174 226 290 341 401
#     4  12  29  41  64 109 145 180 225 282 352 410
#
# _framework density 21.638453999999999
#
# number of rings (size 3 to 8) (size 9 to 14) (size 15 to 20)
#    0.000    1.000    3.750    3.000    3.500    7.500 
#    0.000    0.000    0.000    0.000    0.000    0.000 
#    0.000    0.000    0.000    0.000    0.000    0.000 
#
# Total GULP energy -89517.330989 kJ/mol
# GULP energy per Si atom -5594.833187 kJ/mol
# Density = 2.158920 g / cm^3
# Si number density = 21.638454 Si / 1000 Ang^3
#
#
#
# Elastic Constant Matrix: (Units=GPa)
#
#
# Indices 1 2 3 4 5 6 
#
# 1 90.6383 11.2590 29.8522 6.6292 -12.4563 -8.8000
# 2 11.2590 100.1706 27.9136 -6.2122 -5.5045 -5.6064
# 3 29.8522 27.9136 82.0285 3.0865 5.3851 -0.3883
# 4 6.6292 -6.2122 3.0865 40.0448 -5.8881 -7.8184
# 5 -12.4563 -5.5045 5.3851 -5.8881 39.0088 -0.6140
# 6 -8.8000 -5.6064 -0.3883 -7.8184 -0.6140 34.4226
#
#
#
# Elastic Compliance Matrix: (Units=1/GPa)
#
#
# Indices 1 2 3 4 5 6 
#
# 1 0.013893 0.000447 -0.005525 -0.000331 0.005268 0.003581
# 2 0.000447 0.011664 -0.004424 0.003031 0.002899 0.002704
# 3 -0.005525 -0.004424 0.016107 -0.002245 -0.004991 -0.002550
# 4 -0.000331 0.003031 -0.002245 0.027715 0.004922 0.006766
# 5 0.005268 0.002899 -0.004991 0.004922 0.029212 0.003402
# 6 0.003581 0.002704 -0.002550 0.006766 0.003402 0.031975
#
#
# Mechanical properties :
#
#
# Convention : Reuss Voigt Hill
#
# Bulk Modulus (GPa) = 44.12685 45.65410 44.89048
# Shear Modulus (GPa) = 31.82254 36.28272 34.05263
#
# Velocity S-wave (km/s) = 3.83906 4.09928 3.97130
# Velocity P-wave (km/s) = 6.33153 6.59923 6.46677
#
# Compressibility (1/GPa) = 0.02266194
#
# Stress axis : x y z
#
# Youngs Moduli (GPa) = 71.97992 85.73404 62.08572
#
# Poissons Ratio (x) = -0.03836 0.34300
# Poissons Ratio (y) = -0.03220 0.27464
# Poissons Ratio (z) = 0.39766 0.37925
#
# Static dielectric constant tensor:
#      x y z
#    x 1.737420 0.015140 0.013580 
#    y 0.015140 1.795430 -0.005870 
#    z 0.013580 -0.005870 1.841080 
# 
# From -- ./inp_files/399950.got.cif
#   From: 2010.05.17/outbox.cif.g08.bks.cpg/sg2_200_cif.got.tgz:399950.got - 2010.06.03 11:33:40.
