data_PCOD9112188
_publ_section_title
;
Structure prediction by ZEFSAII (Michael W. Deem and Ramdas Pophale) SiO2 
 PCOD9112188
Probable space group: P -1
;
_chemical_formula_sum "Si O2"
_cell_formula_units_Z 14
_cell_length_a 15.593076
_cell_length_b 5.365417
_cell_length_c 10.678957
_cell_angle_alpha 67.191451
_cell_angle_beta 139.116036
_cell_angle_gamma 112.475907
_cell_volume 533.128501
_symmetry_space_group_name_H-M "P -1"
_symmetry_group_IT_number 2
_symmetry_cell_setting 'triclinic'
loop_
_space_group_symop_operation_xyz
x,y,z
-x,-y,-z
loop_
_atom_site_type_symbol
_atom_site_label
_atom_site_fract_x
_atom_site_fract_y
_atom_site_fract_z
Si Si1 0.021304 0.455336 0.385017
Si Si2 0.202171 0.218263 0.977923
Si Si3 0.767056 0.059736 0.468960
Si Si4 0.507955 0.176546 0.843485
Si Si5 0.786534 0.025727 0.197465
Si Si6 0.993516 0.811013 0.907902
Si Si7 0.468333 0.308736 0.381492
O O1 0.940811 0.157482 0.326641
O O2 0.000000 0.500000 0.500000
O O3 0.165631 0.627981 0.486554
O O4 0.919463 0.621868 0.171554
O O5 0.312727 0.264619 0.192589
O O6 0.133451 0.908904 0.975645
O O7 0.242927 0.241738 0.871325
O O8 0.774218 0.997580 0.339377
O O9 0.610561 0.992822 0.336332
O O10 0.862660 0.869259 0.677334
O O11 0.482840 0.489542 0.724465
O O12 0.665335 0.183439 0.989714
O O13 0.500000 0.000000 0.000000
O O14 0.000000 0.500000 0.000000
O O15 0.000000 0.000000 0.000000
O O16 0.500000 0.500000 0.500000
O O17 0.500000 0.000000 0.500000
#
# Coordination Sequence:
#
# PCOD9112188 Si02
#       7
#     2   2   2   2   2   2   2
#     4   9  19  38  68 100 139 184 240 305 377 445
#     4  11  25  44  74 102 145 192 258 310 377 461
#     4   9  22  42  71 108 146 195 245 321 379 453
#     4  10  22  46  78 109 152 195 258 323 390 449
#     4  10  20  44  74 108 140 191 253 316 387 448
#     4  11  28  47  70 104 151 200 250 306 376 451
#     4  12  28  47  76 110 150 205 254 310 381 466
#
# _framework density 26.260086000000001
#
# number of rings (size 3 to 8) (size 9 to 14) (size 15 to 20)
#    0.000    1.714    1.429    0.857    8.000    5.143 
#    2.571    6.429    0.000    0.000    0.000    0.000 
#    0.000    0.000    0.000    0.000    0.000    0.000 
#
# Total GULP energy -77969.261246 kJ/mol
# GULP energy per Si atom -5569.232946 kJ/mol
# Density = 2.620032 g / cm^3
# Si number density = 26.260086 Si / 1000 Ang^3
#
#
#
# Elastic Constant Matrix: (Units=GPa)
#
#
# Indices 1 2 3 4 5 6 
#
# 1 50.5947 43.1163 49.9172 3.8759 -7.1084 -1.2415
# 2 43.1163 149.8627 110.9609 -7.8016 9.7689 7.8969
# 3 49.9172 110.9609 259.0324 15.0111 21.9143 2.6178
# 4 3.8759 -7.8016 15.0111 69.1223 1.1103 -5.3650
# 5 -7.1084 9.7689 21.9143 1.1103 47.6695 17.7391
# 6 -1.2415 7.8969 2.6178 -5.3650 17.7391 41.7239
#
#
#
# Elastic Compliance Matrix: (Units=1/GPa)
#
#
# Indices 1 2 3 4 5 6 
#
# 1 0.030105 -0.006603 -0.003525 -0.001894 0.007980 -0.001269
# 2 -0.006603 0.011602 -0.003721 0.002404 -0.001211 -0.001335
# 3 -0.003525 -0.003721 0.006477 -0.001471 -0.003217 0.001372
# 4 -0.001894 0.002404 -0.001471 0.015345 -0.001229 0.002077
# 5 0.007980 -0.001211 -0.003217 -0.001229 0.028194 -0.011476
# 6 -0.001269 -0.001335 0.001372 0.002077 -0.011476 0.029242
#
#
# Mechanical properties :
#
#
# Convention : Reuss Voigt Hill
#
# Bulk Modulus (GPa) = 48.81395 96.38651 72.60023
# Shear Modulus (GPa) = 32.15588 48.73617 40.44602
#
# Velocity S-wave (km/s) = 3.50310 4.31269 3.92881
# Velocity P-wave (km/s) = 5.91535 7.84751 6.94891
#
# Compressibility (1/GPa) = 0.02048595
#
# Stress axis : x y z
#
# Youngs Moduli (GPa) = 33.21673 86.19342 154.38621
#
# Poissons Ratio (x) = 0.56914 0.54428
# Poissons Ratio (y) = 0.21933 0.57443
# Poissons Ratio (z) = 0.11710 0.32070
#
# Static dielectric constant tensor:
#      x y z
#    x 2.742160 0.207160 -0.333350 
#    y 0.207160 2.296540 -0.130350 
#    z -0.333350 -0.130350 2.152610 
# 
# From -- ./inp_files/468320.got.cif
#   From: 2010.05.17/outbox.cif.g08.bks.cpg/sg2_235_cif.got.tgz:468320.got - 2010.06.03 11:33:40.
