data_PCOD9112931
_publ_section_title
;
Structure prediction by ZEFSAII (Michael W. Deem and Ramdas Pophale) SiO2 
 PCOD9112931
Probable space group: P 2
;
_chemical_formula_sum "Si O2"
_cell_formula_units_Z 12
_cell_length_a 16.154575
_cell_length_b 7.683895
_cell_length_c 8.863467
_cell_angle_alpha 90.000000
_cell_angle_beta 145.759511
_cell_angle_gamma 90.000000
_cell_volume 619.059769
_symmetry_space_group_name_H-M "P 2"
_symmetry_group_IT_number 3
_symmetry_cell_setting 'monoclinic'
loop_
_space_group_symop_operation_xyz
x,y,z
-x,y,-z
loop_
_atom_site_type_symbol
_atom_site_label
_atom_site_fract_x
_atom_site_fract_y
_atom_site_fract_z
Si Si1 0.674154 0.080050 0.936345
Si Si2 0.930904 0.877410 0.232130
Si Si3 0.133743 0.191294 0.488080
Si Si4 0.589160 0.194056 0.283678
Si Si5 0.971887 0.526638 0.134947
Si Si6 0.354495 0.397277 0.338787
O O1 0.784936 0.161509 0.229402
O O2 0.757288 0.912132 0.995655
O O3 0.518895 0.060777 0.790498
O O4 0.653204 0.221416 0.773752
O O5 0.986489 0.724479 0.209556
O O6 0.000000 0.840690 0.500000
O O7 0.997024 0.060713 0.275948
O O8 0.252846 0.137080 0.540690
O O9 0.076402 0.386747 0.376098
O O10 0.618429 0.345821 0.447192
O O11 0.500000 0.251311 0.000000
O O12 0.802173 0.484421 0.914304
O O13 0.000000 0.506101 0.000000
O O14 0.500000 0.495143 0.500000
#
# Coordination Sequence:
#
# PCOD9112931 Si02
#       6
#     2   2   2   2   2   2
#     4   9  19  37  63  87 117 158 200 241 300 355
#     4  10  23  38  59  91 121 158 203 243 298 361
#     4  10  20  39  62  89 119 160 193 252 305 352
#     4   9  18  35  63  87 116 157 201 241 302 358
#     4  12  24  37  60  90 125 158 201 247 307 356
#     4  10  20  36  58  88 114 156 201 242 298 356
#
# _framework density 19.384236000000001
#
# number of rings (size 3 to 8) (size 9 to 14) (size 15 to 20)
#    0.000    2.000    3.333    0.000    2.333    2.000 
#    0.000    4.167    0.000    3.000    0.000    0.000 
#    0.000    0.000    0.000    0.000    0.000    0.000 
#
# Total GULP energy -66876.505119 kJ/mol
# GULP energy per Si atom -5573.042093 kJ/mol
# Density = 1.934012 g / cm^3
# Si number density = 19.384236 Si / 1000 Ang^3
#
#
#
# Elastic Constant Matrix: (Units=GPa)
#
#
# Indices 1 2 3 4 5 6 
#
# 1 97.4905 15.5564 24.0766 0.0000 15.7233 0.0000
# 2 15.5564 58.1904 6.9939 0.0000 1.1492 0.0000
# 3 24.0766 6.9939 40.1465 0.0000 16.5442 0.0000
# 4 0.0000 0.0000 0.0000 10.3583 0.0000 1.5047
# 5 15.7233 1.1492 16.5442 0.0000 40.3509 0.0000
# 6 0.0000 0.0000 0.0000 1.5047 0.0000 20.2013
#
#
#
# Elastic Compliance Matrix: (Units=1/GPa)
#
#
# Indices 1 2 3 4 5 6 
#
# 1 0.012554 -0.002574 -0.006131 0.000000 -0.002305 0.000000
# 2 -0.002574 0.018108 -0.002180 0.000000 0.001381 0.000000
# 3 -0.006131 -0.002180 0.033639 0.000000 -0.011341 0.000000
# 4 0.000000 0.000000 0.000000 0.097597 0.000000 -0.007269
# 5 -0.002305 0.001381 -0.011341 0.000000 0.030291 0.000000
# 6 0.000000 0.000000 0.000000 -0.007269 0.000000 0.050043
#
#
# Mechanical properties :
#
#
# Convention : Reuss Voigt Hill
#
# Bulk Modulus (GPa) = 23.51195 32.12012 27.81604
# Shear Modulus (GPa) = 17.97412 24.12882 21.05147
#
# Velocity S-wave (km/s) = 3.04839 3.53195 3.29904
# Velocity P-wave (km/s) = 4.95439 5.76534 5.37518
#
# Compressibility (1/GPa) = 0.04253157
#
# Stress axis : x y z
#
# Youngs Moduli (GPa) = 79.65683 55.22485 29.72756
#
# Poissons Ratio (x) = 0.14213 0.18225
# Poissons Ratio (y) = 0.20502 0.06481
# Poissons Ratio (z) = 0.48834 0.12040
#
# Static dielectric constant tensor:
#      x y z
#    x 1.724530 0.000000 0.034640 
#    y 0.000000 1.651490 0.000000 
#    z 0.034640 0.000000 1.709590 
# 
# From -- ./inp_files/5147.got.cif
#   From: 2010.05.17/outbox.cif.g08.bks.cpg/sg3_3_cif.got.tgz:5147.got - 2010.06.03 18:33:08.
