data_PCOD9112685
_publ_section_title
;
Structure prediction by ZEFSAII (Michael W. Deem and Ramdas Pophale) SiO2 
 PCOD9112685
Probable space group: P 2
;
_chemical_formula_sum "Si O2"
_cell_formula_units_Z 16
_cell_length_a 7.958306
_cell_length_b 18.456632
_cell_length_c 8.785682
_cell_angle_alpha 90.000000
_cell_angle_beta 34.785848
_cell_angle_gamma 90.000000
_cell_volume 736.228087
_symmetry_space_group_name_H-M "P 2"
_symmetry_group_IT_number 3
_symmetry_cell_setting 'monoclinic'
loop_
_space_group_symop_operation_xyz
x,y,z
-x,y,-z
loop_
_atom_site_type_symbol
_atom_site_label
_atom_site_fract_x
_atom_site_fract_y
_atom_site_fract_z
Si Si1 0.833524 0.897430 0.962891
Si Si2 0.325381 0.816555 0.467937
Si Si3 0.151527 0.149862 0.554926
Si Si4 0.160799 0.541229 0.217330
Si Si5 0.799877 0.380335 0.874914
Si Si6 0.839363 0.669166 0.280500
Si Si7 0.354646 0.061636 0.941155
Si Si8 0.592233 0.308455 0.598310
O O1 0.065321 0.874645 0.663277
O O2 0.562298 0.841191 0.168263
O O3 0.000000 0.889161 0.000000
O O4 0.743135 0.980425 0.018083
O O5 0.500000 0.820716 0.500000
O O6 0.185035 0.737073 0.585046
O O7 0.398287 0.088287 0.358017
O O8 0.311752 0.224880 0.470699
O O9 0.000000 0.158278 0.500000
O O10 0.906551 0.120579 0.853027
O O11 0.151858 0.465417 0.132021
O O12 0.000000 0.530614 0.500000
O O13 0.010087 0.604118 0.232911
O O14 0.500000 0.559083 0.000000
O O15 0.107725 0.350858 0.581216
O O16 0.500000 0.378457 0.000000
O O17 0.691528 0.328027 0.090139
O O18 0.500000 0.648494 0.500000
O O19 0.000000 0.689149 0.000000
O O20 0.500000 0.061685 0.000000
O O21 0.500000 0.331761 0.500000
#
# Coordination Sequence:
#
# PCOD9112685 Si02
#       8
#     2   2   2   2   2   2   2   2
#     4  10  19  33  55  79 108 149 192 239 295 355
#     4   9  18  34  55  81 113 150 194 239 294 360
#     4  10  21  38  58  80 113 159 196 234 300 377
#     4  11  24  43  64  92 127 163 206 259 311 370
#     4  11  23  43  65  86 121 170 205 237 305 387
#     4  11  22  39  65  93 123 165 211 259 309 370
#     4  10  21  36  55  81 113 149 197 246 292 355
#     4  12  25  40  63  96 125 151 201 267 306 348
#
# _framework density 21.732396000000001
#
# number of rings (size 3 to 8) (size 9 to 14) (size 15 to 20)
#    0.000    1.500    0.000    7.125    0.000    3.500 
#    0.000    1.875    0.000    0.000    0.000    0.000 
#    0.000    0.000    0.000    0.000    0.000    0.000 
#
# Total GULP energy -89371.739914 kJ/mol
# GULP energy per Si atom -5585.733745 kJ/mol
# Density = 2.168293 g / cm^3
# Si number density = 21.732396 Si / 1000 Ang^3
#
#
#
# Elastic Constant Matrix: (Units=GPa)
#
#
# Indices 1 2 3 4 5 6 
#
# 1 31.3489 30.9719 22.1907 0.0000 -17.3404 0.0000
# 2 30.9719 117.9301 12.6563 0.0000 -20.2694 0.0000
# 3 22.1907 12.6563 100.5953 0.0000 -25.5284 0.0000
# 4 0.0000 0.0000 0.0000 41.2040 0.0000 -13.9369
# 5 -17.3404 -20.2694 -25.5284 0.0000 26.0824 0.0000
# 6 0.0000 0.0000 0.0000 -13.9369 0.0000 35.3918
#
#
#
# Elastic Compliance Matrix: (Units=1/GPa)
#
#
# Indices 1 2 3 4 5 6 
#
# 1 0.061459 -0.010895 -0.005277 0.000000 0.027229 0.000000
# 2 -0.010895 0.011784 0.001871 0.000000 0.003746 0.000000
# 3 -0.005277 0.001871 0.013768 0.000000 0.011421 0.000000
# 4 0.000000 0.000000 0.000000 0.027999 0.000000 0.011026
# 5 0.027229 0.003746 0.011421 0.000000 0.070533 0.000000
# 6 0.000000 0.000000 0.000000 0.011026 0.000000 0.032597
#
#
# Mechanical properties :
#
#
# Convention : Reuss Voigt Hill
#
# Bulk Modulus (GPa) = 17.12016 42.39023 29.75520
# Shear Modulus (GPa) = 18.78213 32.80599 25.79406
#
# Velocity S-wave (km/s) = 2.94299 3.88950 3.44887
# Velocity P-wave (km/s) = 4.40943 6.30229 5.43884
#
# Compressibility (1/GPa) = 0.05841066
#
# Stress axis : x y z
#
# Youngs Moduli (GPa) = 16.27089 84.86146 72.63265
#
# Poissons Ratio (x) = 0.92454 0.38328
# Poissons Ratio (y) = 0.17727 -0.13592
# Poissons Ratio (z) = 0.08586 -0.15881
#
# Static dielectric constant tensor:
#      x y z
#    x 1.797550 0.000000 -0.037380 
#    y 0.000000 1.771790 0.000000 
#    z -0.037380 0.000000 1.646280 
# 
# From -- ./inp_files/6223.got.cif
#   From: 2010.05.17/outbox.cif.g08.bks.cpg/sg3_4_cif.got.tgz:6223.got - 2010.06.03 18:33:08.
