data_PCOD9112742
_publ_section_title
;
Structure prediction by ZEFSAII (Michael W. Deem and Ramdas Pophale) SiO2 
 PCOD9112742
Probable space group: P 2
;
_chemical_formula_sum "Si O2"
_cell_formula_units_Z 12
_cell_length_a 13.593008
_cell_length_b 4.810345
_cell_length_c 8.569461
_cell_angle_alpha 90.000000
_cell_angle_beta 92.722157
_cell_angle_gamma 90.000000
_cell_volume 559.699556
_symmetry_space_group_name_H-M "P 2"
_symmetry_group_IT_number 3
_symmetry_cell_setting 'monoclinic'
loop_
_space_group_symop_operation_xyz
x,y,z
-x,y,-z
loop_
_atom_site_type_symbol
_atom_site_label
_atom_site_fract_x
_atom_site_fract_y
_atom_site_fract_z
Si Si1 0.310630 0.918520 0.129443
Si Si2 0.633935 0.650396 0.323233
Si Si3 0.552350 0.413391 0.847833
Si Si4 0.259877 0.155552 0.801421
Si Si5 0.114681 0.080590 0.519323
Si Si6 0.779003 0.581090 0.605225
O O1 0.390238 0.685698 0.088412
O O2 0.240708 0.737831 0.235478
O O3 0.373050 0.176267 0.207263
O O4 0.256818 0.052895 0.977351
O O5 0.526428 0.531577 0.281083
O O6 0.705419 0.470135 0.216465
O O7 0.677624 0.601819 0.498565
O O8 0.655848 0.968055 0.278491
O O9 0.500000 0.294099 0.000000
O O10 0.161101 0.126378 0.693787
O O11 0.178165 0.272903 0.405378
O O12 0.000000 0.138910 0.500000
O O13 0.140292 0.765175 0.479165
#
# Coordination Sequence:
#
# PCOD9112742 Si02
#       6
#     2   2   2   2   2   2
#     4  12  22  36  58  89 123 160 194 262 296 338
#     4  10  20  36  54  82 117 163 201 236 280 358
#     4  12  21  34  59  85 121 165 218 233 277 360
#     4  10  19  35  59  84 115 153 199 239 302 352
#     4  10  21  41  66  85 111 157 201 245 304 392
#     4  10  23  39  58  88 124 149 194 255 317 346
#
# _framework density 21.440072000000001
#
# number of rings (size 3 to 8) (size 9 to 14) (size 15 to 20)
#    0.000    1.333    3.333    3.000    0.000    0.667 
#    0.000    2.500    0.000    2.000    0.000    0.000 
#    0.000    0.000    0.000    0.000    0.000    0.000 
#
# Total GULP energy -67042.075611 kJ/mol
# GULP energy per Si atom -5586.839634 kJ/mol
# Density = 2.139127 g / cm^3
# Si number density = 21.440072 Si / 1000 Ang^3
#
#
#
# Elastic Constant Matrix: (Units=GPa)
#
#
# Indices 1 2 3 4 5 6 
#
# 1 110.3492 8.0646 36.8740 0.0000 18.8508 0.0000
# 2 8.0646 86.2699 1.9044 0.0000 6.3062 0.0000
# 3 36.8740 1.9044 75.6323 0.0000 11.6870 0.0000
# 4 0.0000 0.0000 0.0000 36.0064 0.0000 -2.9614
# 5 18.8508 6.3062 11.6870 0.0000 20.6975 0.0000
# 6 0.0000 0.0000 0.0000 -2.9614 0.0000 25.1092
#
#
#
# Elastic Compliance Matrix: (Units=1/GPa)
#
#
# Indices 1 2 3 4 5 6 
#
# 1 0.012032 -0.000421 -0.004582 0.000000 -0.008243 0.000000
# 2 -0.000421 0.011876 0.000445 0.000000 -0.003486 0.000000
# 3 -0.004582 0.000445 0.016237 0.000000 -0.005131 0.000000
# 4 0.000000 0.000000 0.000000 0.028045 0.000000 0.003308
# 5 -0.008243 -0.003486 -0.005131 0.000000 0.059782 0.000000
# 6 0.000000 0.000000 0.000000 0.003308 0.000000 0.040216
#
#
# Mechanical properties :
#
#
# Convention : Reuss Voigt Hill
#
# Bulk Modulus (GPa) = 32.22738 40.65971 36.44354
# Shear Modulus (GPa) = 26.64569 31.38984 29.01777
#
# Velocity S-wave (km/s) = 3.52916 3.83047 3.68290
# Velocity P-wave (km/s) = 5.62767 6.21039 5.92619
#
# Compressibility (1/GPa) = 0.03102952
#
# Stress axis : x y z
#
# Youngs Moduli (GPa) = 83.11089 84.20409 61.58637
#
# Poissons Ratio (x) = 0.03546 0.28218
# Poissons Ratio (y) = 0.03500 -0.02740
# Poissons Ratio (z) = 0.38080 -0.03747
#
# Static dielectric constant tensor:
#      x y z
#    x 1.763800 0.000000 -0.013910 
#    y 0.000000 1.761550 0.000000 
#    z -0.013910 0.000000 1.848960 
# 
# From -- ./inp_files/6608.got.cif
#   From: 2010.05.17/outbox.cif.g08.bks.cpg/sg3_4_cif.got.tgz:6608.got - 2010.06.03 18:33:08.
