data_PCOD9112303
_publ_section_title
;
Structure prediction by ZEFSAII (Michael W. Deem and Ramdas Pophale) SiO2 
 PCOD9112303
Probable space group: P -1
;
_chemical_formula_sum "Si O2"
_cell_formula_units_Z 13
_cell_length_a 8.773853
_cell_length_b 12.160879
_cell_length_c 5.077173
_cell_angle_alpha 95.399789
_cell_angle_beta 76.582796
_cell_angle_gamma 78.251704
_cell_volume 510.184443
_symmetry_space_group_name_H-M "P -1"
_symmetry_group_IT_number 2
_symmetry_cell_setting 'triclinic'
loop_
_space_group_symop_operation_xyz
x,y,z
-x,-y,-z
loop_
_atom_site_type_symbol
_atom_site_label
_atom_site_fract_x
_atom_site_fract_y
_atom_site_fract_z
Si Si1 0.672072 0.330691 0.473401
Si Si2 0.000000 0.000000 0.500000
Si Si3 0.365957 0.468515 0.854310
Si Si4 0.316029 0.909618 0.579910
Si Si5 0.972928 0.267819 0.679942
Si Si6 0.387828 0.091806 0.882895
Si Si7 0.151502 0.320337 0.136676
O O1 0.482237 0.366515 0.622088
O O2 0.699889 0.429731 0.297402
O O3 0.709895 0.205004 0.305768
O O4 0.785535 0.314754 0.683250
O O5 0.806625 0.053170 0.600058
O O6 0.022672 0.134093 0.553940
O O7 0.226800 0.424168 0.044139
O O8 0.500000 0.500000 0.000000
O O9 0.497112 0.888491 0.398300
O O10 0.266748 0.018586 0.809767
O O11 0.033132 0.290687 0.951186
O O12 0.065605 0.332505 0.453027
O O13 0.300105 0.209607 0.066673
O O14 0.500000 0.000000 0.000000
#
# Coordination Sequence:
#
# PCOD9112303 Si02
#       7
#     2   1   2   2   2   2   2
#     4  10  25  47  69 101 138 193 237 301 355 424
#     4  10  20  46  66 106 148 180 232 278 366 426
#     4  11  27  46  74 101 141 191 248 301 352 426
#     4  10  21  41  66  95 138 179 235 281 361 420
#     4  11  27  47  74 107 148 191 233 298 360 428
#     4  11  23  37  66 100 137 185 229 291 351 424
#     4  12  27  48  73 107 147 188 243 294 358 426
#
# _framework density 25.480979000000001
#
# number of rings (size 3 to 8) (size 9 to 14) (size 15 to 20)
#    0.000    1.231    3.077    0.923   10.769    1.846 
#    8.308    0.000    0.000    0.000    0.000    0.000 
#    0.000    0.000    0.000    0.000    0.000    0.000 
#
# Total GULP energy -72472.839574 kJ/mol
# GULP energy per Si atom -5574.833813 kJ/mol
# Density = 2.542298 g / cm^3
# Si number density = 25.480979 Si / 1000 Ang^3
#
#
#
# Elastic Constant Matrix: (Units=GPa)
#
#
# Indices 1 2 3 4 5 6 
#
# 1 70.0113 42.8339 3.3202 -14.1904 -1.8676 -10.6042
# 2 42.8339 147.9293 12.3111 -17.9027 2.3752 -4.7579
# 3 3.3202 12.3111 45.3338 -11.9293 6.7287 -7.0102
# 4 -14.1904 -17.9027 -11.9293 25.9503 -9.3803 0.9575
# 5 -1.8676 2.3752 6.7287 -9.3803 27.9213 -4.4025
# 6 -10.6042 -4.7579 -7.0102 0.9575 -4.4025 49.8047
#
#
#
# Elastic Compliance Matrix: (Units=1/GPa)
#
#
# Indices 1 2 3 4 5 6 
#
# 1 0.019986 -0.004648 0.002485 0.010657 0.005413 0.004435
# 2 -0.004648 0.008541 -0.001324 0.002816 0.000165 -0.000400
# 3 0.002485 -0.001324 0.026133 0.011790 -0.001471 0.003724
# 4 0.010657 0.002816 0.011790 0.058008 0.017855 0.004661
# 5 0.005413 0.000165 -0.001471 0.017855 0.043216 0.004438
# 6 0.004435 -0.000400 0.003724 0.004661 0.004438 0.021811
#
#
# Mechanical properties :
#
#
# Convention : Reuss Voigt Hill
#
# Bulk Modulus (GPa) = 20.97076 42.24498 31.60787
# Shear Modulus (GPa) = 24.92968 34.38921 29.65944
#
# Velocity S-wave (km/s) = 3.13128 3.67768 3.41542
# Velocity P-wave (km/s) = 4.61747 5.88632 5.29008
#
# Compressibility (1/GPa) = 0.04768544
#
# Stress axis : x y z
#
# Youngs Moduli (GPa) = 50.03590 117.07577 38.26610
#
# Poissons Ratio (x) = 0.54420 -0.09511
# Poissons Ratio (y) = 0.23258 0.05068
# Poissons Ratio (z) = -0.12436 0.15505
#
# Static dielectric constant tensor:
#      x y z
#    x 2.040300 0.055040 0.051880 
#    y 0.055040 1.977230 0.034890 
#    z 0.051880 0.034890 2.079230 
# 
# From -- ./inp_files/19347.got.cif
#   From: 2010.05.17/outbox.cif.g08.bks.cpg/sg2_10_cif.got.tgz:19347.got - 2010.06.03 11:33:40.
