data_PCOD9112160
_publ_section_title
;
Structure prediction by ZEFSAII (Michael W. Deem and Ramdas Pophale) SiO2 
 PCOD9112160
Probable space group: P -1
;
_chemical_formula_sum "Si O2"
_cell_formula_units_Z 12
_cell_length_a 7.232352
_cell_length_b 6.487615
_cell_length_c 10.685980
_cell_angle_alpha 112.773666
_cell_angle_beta 113.421287
_cell_angle_gamma 88.436228
_cell_volume 419.440919
_symmetry_space_group_name_H-M "P -1"
_symmetry_group_IT_number 2
_symmetry_cell_setting 'triclinic'
loop_
_space_group_symop_operation_xyz
x,y,z
-x,-y,-z
loop_
_atom_site_type_symbol
_atom_site_label
_atom_site_fract_x
_atom_site_fract_y
_atom_site_fract_z
Si Si1 0.322711 0.673933 0.523412
Si Si2 0.635447 0.353608 0.179908
Si Si3 0.205084 0.832472 0.158811
Si Si4 0.000000 0.000000 0.500000
Si Si5 0.754805 0.625716 0.067741
Si Si6 0.948840 0.779852 0.715978
Si Si7 0.500000 0.000000 0.500000
O O1 0.374405 0.648577 0.674782
O O2 0.149739 0.480925 0.381895
O O3 0.228206 0.909380 0.524772
O O4 0.523793 0.744854 0.513625
O O5 0.421713 0.282077 0.035525
O O6 0.818388 0.209794 0.174840
O O7 0.716878 0.603868 0.201466
O O8 0.259220 0.636340 0.039211
O O9 0.165072 0.086874 0.180166
O O10 0.372706 0.865804 0.318193
O O11 0.981110 0.737233 0.129391
O O12 0.031088 0.122337 0.397999
#
# Coordination Sequence:
#
# PCOD9112160 Si02
#       7
#     2   2   2   1   2   2   1
#     4  11  25  45  76 117 151 202 260 322 382 460
#     4  10  23  48  79 106 149 208 259 307 383 466
#     4  11  26  48  74 112 158 202 249 323 386 450
#     4  10  20  44  72 110 158 192 246 326 386 452
#     4  10  25  52  77 109 162 206 255 311 385 477
#     4  11  24  43  82 118 149 197 262 323 388 450
#     4  12  26  50  72 110 152 200 248 328 382 440
#
# _framework density 28.60951
#
# number of rings (size 3 to 8) (size 9 to 14) (size 15 to 20)
#    0.000    1.333    1.667    3.000    4.667    3.333 
#   18.000    0.000    0.000    0.000    0.000    0.000 
#    0.000    0.000    0.000    0.000    0.000    0.000 
#
# Total GULP energy -66810.395000 kJ/mol
# GULP energy per Si atom -5567.532917 kJ/mol
# Density = 2.854439 g / cm^3
# Si number density = 28.609510 Si / 1000 Ang^3
#
#
#
# Elastic Constant Matrix: (Units=GPa)
#
#
# Indices 1 2 3 4 5 6 
#
# 1 109.5254 36.0852 43.2084 -5.8120 29.9544 -19.2172
# 2 36.0852 115.4887 91.9207 -23.7920 17.7711 1.8545
# 3 43.2084 91.9207 147.0820 -9.3268 25.4165 -9.6548
# 4 -5.8120 -23.7920 -9.3268 58.5504 -9.7062 5.2478
# 5 29.9544 17.7711 25.4165 -9.7062 42.4638 -6.5494
# 6 -19.2172 1.8545 -9.6548 5.2478 -6.5494 56.3131
#
#
#
# Elastic Compliance Matrix: (Units=1/GPa)
#
#
# Indices 1 2 3 4 5 6 
#
# 1 0.012849 -0.002726 -0.000664 -0.001475 -0.007300 0.003649
# 2 -0.002726 0.020224 -0.011944 0.006660 0.001499 -0.004090
# 3 -0.000664 -0.011944 0.015095 -0.003402 -0.003943 0.002613
# 4 -0.001475 0.006660 -0.003402 0.020076 0.004469 -0.002657
# 5 -0.007300 0.001499 -0.003943 0.004469 0.031457 0.000026
# 6 0.003649 -0.004090 0.002613 -0.002657 0.000026 0.019836
#
#
# Mechanical properties :
#
#
# Convention : Reuss Voigt Hill
#
# Bulk Modulus (GPa) = 57.13623 79.39164 68.26394
# Shear Modulus (GPa) = 32.04361 44.85758 38.45059
#
# Velocity S-wave (km/s) = 3.35032 3.96400 3.67001
# Velocity P-wave (km/s) = 5.91444 6.98294 6.47078
#
# Compressibility (1/GPa) = 0.01750203
#
# Stress axis : x y z
#
# Youngs Moduli (GPa) = 77.82958 49.44684 66.24511
#
# Poissons Ratio (x) = 0.13477 0.04397
# Poissons Ratio (y) = 0.21213 0.79121
# Poissons Ratio (z) = 0.05166 0.59058
#
# Static dielectric constant tensor:
#      x y z
#    x 1.695200 -0.194790 -0.075170 
#    y -0.194790 2.412690 0.132260 
#    z -0.075170 0.132260 2.256260 
# 
# From -- ./inp_files/372254.got.cif
#   From: 2010.05.17/outbox.cif.g08.bks.cpg/sg2_187_cif.got.tgz:372254.got - 2010.06.03 11:33:40.
