data_PCOD9112422
_publ_section_title
;
Structure prediction by ZEFSAII (Michael W. Deem and Ramdas Pophale) SiO2 
 PCOD9112422
Probable space group: P -1
;
_chemical_formula_sum "Si O2"
_cell_formula_units_Z 16
_cell_length_a 7.714532
_cell_length_b 9.147859
_cell_length_c 15.972684
_cell_angle_alpha 148.429060
_cell_angle_beta 92.559337
_cell_angle_gamma 94.036057
_cell_volume 576.761249
_symmetry_space_group_name_H-M "P -1"
_symmetry_group_IT_number 2
_symmetry_cell_setting 'triclinic'
loop_
_space_group_symop_operation_xyz
x,y,z
-x,-y,-z
loop_
_atom_site_type_symbol
_atom_site_label
_atom_site_fract_x
_atom_site_fract_y
_atom_site_fract_z
Si Si1 0.741385 0.299985 0.128239
Si Si2 0.104344 0.118720 0.265220
Si Si3 0.466766 0.923591 0.826013
Si Si4 0.324242 0.876943 0.275790
Si Si5 0.121487 0.508168 0.291225
Si Si6 0.490124 0.361869 0.624827
Si Si7 0.040007 0.009732 0.635149
Si Si8 0.242916 0.274789 0.905958
O O1 0.671519 0.093304 0.105377
O O2 0.951505 0.362714 0.163911
O O3 0.665431 0.579433 0.289751
O O4 0.640793 0.135394 0.967832
O O5 0.118923 0.316005 0.281945
O O6 0.015755 0.209630 0.393526
O O7 0.283974 0.048878 0.274840
O O8 0.952648 0.829887 0.107673
O O9 0.484265 0.596387 0.666228
O O10 0.364901 0.046195 0.810904
O O11 0.465962 0.062911 0.431049
O O12 0.336705 0.569234 0.092773
O O13 0.137401 0.866975 0.315708
O O14 0.321139 0.546248 0.281649
O O15 0.090234 0.815030 0.470144
O O16 0.191147 0.257514 0.798547
#
# Coordination Sequence:
#
# PCOD9112422 Si02
#       8
#     2   2   2   2   2   2   2   2
#     4   9  18  38  53  79 106 129 179 228 258 307
#     4   8  17  28  51  78 106 138 172 206 256 309
#     4   9  18  36  57  72 106 134 180 222 261 303
#     4   9  18  33  50  77 115 133 180 208 255 319
#     4  12  18  31  59  81 107 138 171 220 269 296
#     4  10  21  32  54  84 102 139 177 216 259 321
#     4   8  17  30  53  77 108 139 169 213 258 311
#     4   9  17  32  58  75 102 151 169 212 263 312
#
# _framework density 27.741116000000002
#
# number of rings (size 3 to 8) (size 9 to 14) (size 15 to 20)
#    2.250    0.250    2.500    1.875    1.750    1.000 
#    0.000    1.250    2.750    0.750    0.000    0.000 
#    0.000    0.000    0.000    0.000    0.000    0.000 
#
# Total GULP energy -89457.238862 kJ/mol
# GULP energy per Si atom -5591.077429 kJ/mol
# Density = 2.767798 g / cm^3
# Si number density = 27.741116 Si / 1000 Ang^3
#
#
#
# Elastic Constant Matrix: (Units=GPa)
#
#
# Indices 1 2 3 4 5 6 
#
# 1 92.5713 38.1371 38.4546 -12.9930 15.6741 -19.8014
# 2 38.1371 94.5172 19.0104 0.7142 10.0419 1.4472
# 3 38.4546 19.0104 123.9346 -3.5052 6.5490 -6.8926
# 4 -12.9930 0.7142 -3.5052 43.4031 -7.7135 6.1876
# 5 15.6741 10.0419 6.5490 -7.7135 49.3237 -9.4945
# 6 -19.8014 1.4472 -6.8926 6.1876 -9.4945 48.0108
#
#
#
# Elastic Compliance Matrix: (Units=1/GPa)
#
#
# Indices 1 2 3 4 5 6 
#
# 1 0.016925 -0.005969 -0.003807 0.003687 -0.001974 0.005748
# 2 -0.005969 0.013287 -0.000319 -0.001896 -0.001638 -0.002988
# 3 -0.003807 -0.000319 0.009281 -0.000367 -0.000052 -0.000191
# 4 0.003687 -0.001896 -0.000367 0.024823 0.002935 -0.001094
# 5 -0.001974 -0.001638 -0.000052 0.002935 0.022329 0.003265
# 6 0.005748 -0.002988 -0.000191 -0.001094 0.003265 0.024049
#
#
# Mechanical properties :
#
#
# Convention : Reuss Voigt Hill
#
# Bulk Modulus (GPa) = 51.81222 55.80301 53.80761
# Shear Modulus (GPa) = 36.41175 42.50893 39.46034
#
# Velocity S-wave (km/s) = 3.62685 3.91876 3.77563
# Velocity P-wave (km/s) = 6.02132 6.37455 6.20045
#
# Compressibility (1/GPa) = 0.01930047
#
# Stress axis : x y z
#
# Youngs Moduli (GPa) = 59.08544 75.26205 107.74894
#
# Poissons Ratio (x) = 0.44926 0.41025
# Poissons Ratio (y) = 0.35270 0.03439
# Poissons Ratio (z) = 0.22497 0.02402
#
# Static dielectric constant tensor:
#      x y z
#    x 2.238290 0.097130 0.033340 
#    y 0.097130 2.237740 0.056680 
#    z 0.033340 0.056680 2.073190 
# 
# From -- ./inp_files/617226.got.cif
#   From: 2010.05.17/outbox.cif.g08.bks.cpg/sg2_309_cif.got.tgz:617226.got - 2010.06.03 11:33:40.
