data_PCOD9112073
_publ_section_title
;
Structure prediction by ZEFSAII (Michael W. Deem and Ramdas Pophale) SiO2 
 PCOD9112073
Probable space group: P -1
;
_chemical_formula_sum "Si O2"
_cell_formula_units_Z 12
_cell_length_a 7.419550
_cell_length_b 9.503390
_cell_length_c 9.871709
_cell_angle_alpha 110.110668
_cell_angle_beta 52.156656
_cell_angle_gamma 85.428617
_cell_volume 474.862169
_symmetry_space_group_name_H-M "P -1"
_symmetry_group_IT_number 2
_symmetry_cell_setting 'triclinic'
loop_
_space_group_symop_operation_xyz
x,y,z
-x,-y,-z
loop_
_atom_site_type_symbol
_atom_site_label
_atom_site_fract_x
_atom_site_fract_y
_atom_site_fract_z
Si Si1 0.016150 0.714109 0.467357
Si Si2 0.544188 0.631683 0.116967
Si Si3 0.410356 0.189836 0.105302
Si Si4 0.078500 0.498264 0.779067
Si Si5 0.874924 0.180563 0.047731
Si Si6 0.745826 0.851437 0.379796
O O1 0.298057 0.697693 0.342470
O O2 0.861354 0.747362 0.685018
O O3 0.005191 0.554436 0.344674
O O4 0.135461 0.146280 0.527076
O O5 0.500000 0.500000 0.000000
O O6 0.560987 0.762026 0.045420
O O7 0.828080 0.536739 0.996983
O O8 0.597644 0.226111 0.133383
O O9 0.500000 0.000000 0.000000
O O10 0.134106 0.660076 0.812228
O O11 0.289325 0.320499 0.657228
O O12 0.048196 0.165206 0.832431
O O13 0.000000 0.000000 0.000000
O O14 0.500000 0.000000 0.500000
#
# Coordination Sequence:
#
# PCOD9112073 Si02
#       6
#     2   2   2   2   2   2
#     4   9  22  43  71  99 135 182 240 272 355 416
#     4  10  20  44  68  99 135 179 227 287 345 408
#     4  12  25  43  68  99 144 184 232 288 344 416
#     4   9  22  42  73 100 138 182 228 289 344 411
#     4  12  23  42  68 104 143 177 232 291 345 406
#     4  10  21  43  67 102 138 181 230 281 348 415
#
# _framework density 25.270491
#
# number of rings (size 3 to 8) (size 9 to 14) (size 15 to 20)
#    1.000    0.667    1.667    2.500    0.000    4.000 
#    3.000    0.000    0.000    0.000    0.000    0.000 
#    0.000    0.000    0.000    0.000    0.000    0.000 
#
# Total GULP energy -67022.692170 kJ/mol
# GULP energy per Si atom -5585.224347 kJ/mol
# Density = 2.521297 g / cm^3
# Si number density = 25.270491 Si / 1000 Ang^3
#
#
#
# Elastic Constant Matrix: (Units=GPa)
#
#
# Indices 1 2 3 4 5 6 
#
# 1 143.5387 47.2496 42.9574 6.1266 -42.1438 1.4078
# 2 47.2496 170.5364 61.2491 11.7587 -24.7960 -17.8563
# 3 42.9574 61.2491 151.7833 -15.2288 -33.8538 2.9979
# 4 6.1266 11.7587 -15.2288 37.6580 -2.5278 -4.7598
# 5 -42.1438 -24.7960 -33.8538 -2.5278 38.3689 9.4105
# 6 1.4078 -17.8563 2.9979 -4.7598 9.4105 46.5206
#
#
#
# Elastic Compliance Matrix: (Units=1/GPa)
#
#
# Indices 1 2 3 4 5 6 
#
# 1 0.011076 -0.001713 0.000241 -0.000805 0.012085 -0.003535
# 2 -0.001713 0.007960 -0.003230 -0.003158 -0.000556 0.003105
# 3 0.000241 -0.003230 0.010276 0.005299 0.008343 -0.003055
# 4 -0.000805 -0.003158 0.005299 0.030158 0.003530 0.000842
# 5 0.012085 -0.000556 0.008343 0.003530 0.049197 -0.010708
# 6 -0.003535 0.003105 -0.003055 0.000842 -0.010708 0.025244
#
#
# Mechanical properties :
#
#
# Convention : Reuss Voigt Hill
#
# Bulk Modulus (GPa) = 50.22730 85.41897 67.82313
# Shear Modulus (GPa) = 33.34431 45.46964 39.40698
#
# Velocity S-wave (km/s) = 3.63643 4.24644 3.95322
# Velocity P-wave (km/s) = 6.12785 7.61040 6.90901
#
# Compressibility (1/GPa) = 0.01990949
#
# Stress axis : x y z
#
# Youngs Moduli (GPa) = 90.28732 125.62287 97.31278
#
# Poissons Ratio (x) = 0.21515 -0.02345
# Poissons Ratio (y) = 0.15463 0.31429
# Poissons Ratio (z) = -0.02176 0.40572
#
# Static dielectric constant tensor:
#      x y z
#    x 4.270460 -0.161770 -0.420710 
#    y -0.161770 2.005090 0.055300 
#    z -0.420710 0.055300 2.062000 
# 
# From -- ./inp_files/377014.got.cif
#   From: 2010.05.17/outbox.cif.g08.bks.cpg/sg2_189_cif.got.tgz:377014.got - 2010.06.03 11:33:40.
