data_PCOD9112776
_publ_section_title
;
Structure prediction by ZEFSAII (Michael W. Deem and Ramdas Pophale) SiO2 
 PCOD9112776
Probable space group: P 2
;
_chemical_formula_sum "Si O2"
_cell_formula_units_Z 16
_cell_length_a 9.691415
_cell_length_b 17.796229
_cell_length_c 8.272658
_cell_angle_alpha 90.000000
_cell_angle_beta 31.376480
_cell_angle_gamma 90.000000
_cell_volume 742.871671
_symmetry_space_group_name_H-M "P 2"
_symmetry_group_IT_number 3
_symmetry_cell_setting 'monoclinic'
loop_
_space_group_symop_operation_xyz
x,y,z
-x,y,-z
loop_
_atom_site_type_symbol
_atom_site_label
_atom_site_fract_x
_atom_site_fract_y
_atom_site_fract_z
Si Si1 0.489726 0.563860 0.706235
Si Si2 0.088813 0.826405 0.098531
Si Si3 0.097999 0.323728 0.083052
Si Si4 0.975632 0.158880 0.332185
Si Si5 0.525291 0.072899 0.282021
Si Si6 0.587610 0.906142 0.727858
Si Si7 0.010353 0.656754 0.793608
Si Si8 0.598430 0.397907 0.720673
O O1 0.500000 0.555399 0.500000
O O2 0.562445 0.484672 0.710131
O O3 0.701596 0.627571 0.540714
O O4 0.204185 0.594829 0.041924
O O5 0.058646 0.740830 0.189411
O O6 0.885336 0.878953 0.398974
O O7 0.385780 0.855870 0.823847
O O8 0.000000 0.829356 0.000000
O O9 0.057071 0.237012 0.168901
O O10 0.898454 0.371766 0.394201
O O11 0.398280 0.349723 0.809312
O O12 0.000000 0.337547 0.000000
O O13 0.000000 0.166008 0.500000
O O14 0.680298 0.134282 0.580485
O O15 0.180071 0.096041 0.064805
O O16 0.500000 0.070707 0.500000
O O17 0.448603 0.992307 0.287188
O O18 0.500000 0.896932 0.000000
O O19 0.000000 0.658552 0.000000
O O20 0.500000 0.384569 0.000000
#
# Coordination Sequence:
#
# PCOD9112776 Si02
#       8
#     2   2   2   2   2   2   2   2
#     4  10  19  36  60  88 119 160 206 252 303 368
#     4  11  22  41  66  93 122 163 212 259 306 369
#     4  12  25  44  67  93 124 167 213 254 301 370
#     4  12  25  44  67  96 130 164 201 256 317 368
#     4  12  25  44  67  94 125 166 213 256 301 368
#     4  12  25  42  62  92 129 166 204 256 317 370
#     4   9  19  35  60  88 118 156 206 255 302 361
#     4  12  25  42  63  94 129 164 205 260 317 366
#
# _framework density 21.538042000000001
#
# number of rings (size 3 to 8) (size 9 to 14) (size 15 to 20)
#    0.000    0.750    0.000    9.000    0.000    3.000 
#    0.000    3.750    0.000    0.000    0.000    0.000 
#    0.000    0.000    0.000    0.000    0.000    0.000 
#
# Total GULP energy -89625.736845 kJ/mol
# GULP energy per Si atom -5601.608553 kJ/mol
# Density = 2.148902 g / cm^3
# Si number density = 21.538042 Si / 1000 Ang^3
#
#
#
# Elastic Constant Matrix: (Units=GPa)
#
#
# Indices 1 2 3 4 5 6 
#
# 1 55.9758 -11.3162 -2.4751 0.0000 5.4816 0.0000
# 2 -11.3162 86.8515 -23.2942 0.0000 -4.5117 0.0000
# 3 -2.4751 -23.2942 53.5418 0.0000 -2.4145 0.0000
# 4 0.0000 0.0000 0.0000 39.8296 0.0000 -19.1684
# 5 5.4816 -4.5117 -2.4145 0.0000 35.3567 0.0000
# 6 0.0000 0.0000 0.0000 -19.1684 0.0000 30.5062
#
#
#
# Elastic Compliance Matrix: (Units=1/GPa)
#
#
# Indices 1 2 3 4 5 6 
#
# 1 0.018767 0.002857 0.002002 0.000000 -0.002408 0.000000
# 2 0.002857 0.013621 0.006135 0.000000 0.001714 0.000000
# 3 0.002002 0.006135 0.021526 0.000000 0.001943 0.000000
# 4 0.000000 0.000000 0.000000 0.035990 0.000000 0.022614
# 5 -0.002408 0.001714 0.001943 0.000000 0.029008 0.000000
# 6 0.000000 0.000000 0.000000 0.022614 0.000000 0.046990
#
#
# Mechanical properties :
#
#
# Convention : Reuss Voigt Hill
#
# Bulk Modulus (GPa) = 13.17480 13.57756 13.37618
# Shear Modulus (GPa) = 29.54838 36.70216 33.12527
#
# Velocity S-wave (km/s) = 3.70796 4.13251 3.92597
# Velocity P-wave (km/s) = 4.94593 5.39331 5.17446
#
# Compressibility (1/GPa) = 0.07590245
#
# Stress axis : x y z
#
# Youngs Moduli (GPa) = 53.28555 73.41750 46.45462
#
# Poissons Ratio (x) = -0.20976 -0.09300
# Poissons Ratio (y) = -0.15224 -0.28501
# Poissons Ratio (z) = -0.10668 -0.45044
#
# Static dielectric constant tensor:
#      x y z
#    x 1.775650 0.000000 0.007320 
#    y 0.000000 1.735200 0.000000 
#    z 0.007320 0.000000 1.719280 
# 
# From -- ./inp_files/6210.got.cif
#   From: 2010.05.17/outbox.cif.g08.bks.cpg/sg3_4_cif.got.tgz:6210.got - 2010.06.03 18:33:08.
