data_PCOD9112671
_publ_section_title
;
Structure prediction by ZEFSAII (Michael W. Deem and Ramdas Pophale) SiO2 
 PCOD9112671
Probable space group: P 2
;
_chemical_formula_sum "Si O2"
_cell_formula_units_Z 10
_cell_length_a 8.656499
_cell_length_b 5.267672
_cell_length_c 14.428868
_cell_angle_alpha 90.000000
_cell_angle_beta 45.008820
_cell_angle_gamma 90.000000
_cell_volume 465.312924
_symmetry_space_group_name_H-M "P 2"
_symmetry_group_IT_number 3
_symmetry_cell_setting 'monoclinic'
loop_
_space_group_symop_operation_xyz
x,y,z
-x,y,-z
loop_
_atom_site_type_symbol
_atom_site_label
_atom_site_fract_x
_atom_site_fract_y
_atom_site_fract_z
Si Si1 0.010232 0.210220 0.169418
Si Si2 0.569993 0.641628 0.577305
Si Si3 0.768911 0.861943 0.143182
Si Si4 0.703259 0.714193 0.979674
Si Si5 0.719908 0.148697 0.467957
O O1 0.152859 0.455114 0.082686
O O2 0.896676 0.232562 0.317320
O O3 0.153270 0.953232 0.115376
O O4 0.833621 0.130418 0.163882
O O5 0.500000 0.606113 0.500000
O O6 0.351328 0.707733 0.725906
O O7 0.676409 0.374628 0.557879
O O8 0.737303 0.876757 0.509521
O O9 0.622803 0.816963 0.114459
O O10 0.000000 0.776031 0.000000
O O11 0.500000 0.668927 0.000000
O O12 0.500000 0.108671 0.500000
#
# Coordination Sequence:
#
# PCOD9112671 Si02
#       5
#     2   2   2   2   2
#     4  11  22  42  66  98 128 176 231 274 321 396
#     4  10  19  33  55  90 132 157 201 274 338 361
#     4  10  23  37  64 100 124 166 227 276 315 383
#     4  11  26  44  66  94 144 181 214 270 345 398
#     4  10  19  32  60  90 130 158 204 276 337 365
#
# _framework density 21.490915000000001
#
# number of rings (size 3 to 8) (size 9 to 14) (size 15 to 20)
#    0.000    1.600    4.000    1.800    8.400   10.400 
#    0.000    0.000    0.000    7.200    0.000    0.000 
#    0.000    0.000    0.000    0.000    0.000    0.000 
#
# Total GULP energy -55687.396257 kJ/mol
# GULP energy per Si atom -5568.739626 kJ/mol
# Density = 2.144200 g / cm^3
# Si number density = 21.490915 Si / 1000 Ang^3
#
#
#
# Elastic Constant Matrix: (Units=GPa)
#
#
# Indices 1 2 3 4 5 6 
#
# 1 67.5272 27.4078 16.5329 0.0000 5.5073 0.0000
# 2 27.4078 171.1946 13.6212 0.0000 -12.6089 0.0000
# 3 16.5329 13.6212 109.4824 0.0000 15.3333 0.0000
# 4 0.0000 0.0000 0.0000 32.6945 0.0000 -7.9223
# 5 5.5073 -12.6089 15.3333 0.0000 8.1438 0.0000
# 6 0.0000 0.0000 0.0000 -7.9223 0.0000 11.4146
#
#
#
# Elastic Compliance Matrix: (Units=1/GPa)
#
#
# Indices 1 2 3 4 5 6 
#
# 1 0.018120 -0.004461 0.000682 0.000000 -0.020445 0.000000
# 2 -0.004461 0.008541 -0.003617 0.000000 0.023052 0.000000
# 3 0.000682 -0.003617 0.014029 0.000000 -0.032477 0.000000
# 4 0.000000 0.000000 0.000000 0.036770 0.000000 0.025520
# 5 -0.020445 0.023052 -0.032477 0.000000 0.233456 0.000000
# 6 0.000000 0.000000 0.000000 0.025520 0.000000 0.105319
#
#
# Mechanical properties :
#
#
# Convention : Reuss Voigt Hill
#
# Bulk Modulus (GPa) = 38.61347 51.48089 45.04718
# Shear Modulus (GPa) = 11.37241 29.82674 20.59958
#
# Velocity S-wave (km/s) = 2.30287 3.72946 3.09936
# Velocity P-wave (km/s) = 5.00773 6.52318 5.81503
#
# Compressibility (1/GPa) = 0.02589770
#
# Stress axis : x y z
#
# Youngs Moduli (GPa) = 55.18791 117.08035 71.27889
#
# Poissons Ratio (x) = 0.52230 -0.04862
# Poissons Ratio (y) = 0.24619 0.25785
# Poissons Ratio (z) = -0.03764 0.42353
#
# Static dielectric constant tensor:
#      x y z
#    x 1.917840 0.000000 0.000500 
#    y 0.000000 1.900900 0.000000 
#    z 0.000500 0.000000 1.813990 
# 
# From -- ./inp_files/7988.got.cif
#   From: 2010.05.17/outbox.cif.g08.bks.cpg/sg3_4_cif.got.tgz:7988.got - 2010.06.03 18:33:08.
