data_PCOD9112787
_publ_section_title
;
Structure prediction by ZEFSAII (Michael W. Deem and Ramdas Pophale) SiO2 
 PCOD9112787
Probable space group: P 2
;
_chemical_formula_sum "Si O2"
_cell_formula_units_Z 15
_cell_length_a 17.554314
_cell_length_b 6.097123
_cell_length_c 5.732846
_cell_angle_alpha 90.000000
_cell_angle_beta 83.353109
_cell_angle_gamma 90.000000
_cell_volume 609.466826
_symmetry_space_group_name_H-M "P 2"
_symmetry_group_IT_number 3
_symmetry_cell_setting 'monoclinic'
loop_
_space_group_symop_operation_xyz
x,y,z
-x,y,-z
loop_
_atom_site_type_symbol
_atom_site_label
_atom_site_fract_x
_atom_site_fract_y
_atom_site_fract_z
Si Si1 0.142400 0.740550 0.205136
Si Si2 0.237900 0.124074 0.686758
Si Si3 0.104785 0.756402 0.722846
Si Si4 0.500000 0.094327 0.500000
Si Si5 0.643062 0.169521 0.728923
Si Si6 0.974445 0.104865 0.755121
Si Si7 0.619541 0.879349 0.140002
Si Si8 0.284927 0.507788 0.960644
O O1 0.121205 0.644558 0.467477
O O2 0.111289 0.996448 0.221804
O O3 0.104897 0.648462 0.978529
O O4 0.230562 0.674681 0.124947
O O5 0.273957 0.142102 0.419598
O O6 0.310754 0.028875 0.795696
O O7 0.230911 0.359747 0.813234
O O8 0.169516 0.950608 0.718313
O O9 0.025798 0.884660 0.728920
O O10 0.571030 0.223387 0.589552
O O11 0.542390 0.947917 0.291691
O O12 0.618559 0.945899 0.869417
O O13 0.661008 0.365886 0.894458
O O14 0.000000 0.219320 0.500000
O O15 0.000000 0.202202 0.000000
O O16 0.652417 0.645840 0.201615
#
# Coordination Sequence:
#
# PCOD9112787 Si02
#       8
#     2   2   2   1   2   2   2   2
#     4  10  20  35  64  95 128 173 224 266 322 386
#     4  10  22  37  61  94 125 163 213 270 324 388
#     4  10  19  36  63  92 128 175 222 267 325 384
#     4  10  22  44  66  84 126 166 206 268 334 394
#     4  10  23  41  63  91 128 164 213 271 326 398
#     4   8  16  31  55  92 118 170 223 259 315 383
#     4  10  21  43  63  88 120 164 210 259 330 393
#     4  11  23  38  64  99 126 164 219 270 330 389
#
# _framework density 24.611675000000002
#
# number of rings (size 3 to 8) (size 9 to 14) (size 15 to 20)
#    0.000    2.133    1.333    1.200    3.733    2.133 
#    0.000   16.000    0.000    7.200    0.000    0.000 
#    0.000    0.000    0.000    0.000    0.000    0.000 
#
# Total GULP energy -83530.446308 kJ/mol
# GULP energy per Si atom -5568.696421 kJ/mol
# Density = 2.455566 g / cm^3
# Si number density = 24.611675 Si / 1000 Ang^3
#
#
#
# Elastic Constant Matrix: (Units=GPa)
#
#
# Indices 1 2 3 4 5 6 
#
# 1 129.6782 36.9974 23.1063 0.0000 -1.1808 0.0000
# 2 36.9974 52.1137 20.1023 0.0000 -11.6182 0.0000
# 3 23.1063 20.1023 154.8926 0.0000 -5.5407 0.0000
# 4 0.0000 0.0000 0.0000 2.4403 0.0000 -1.9032
# 5 -1.1808 -11.6182 -5.5407 0.0000 44.5184 0.0000
# 6 0.0000 0.0000 0.0000 -1.9032 0.0000 22.1311
#
#
#
# Elastic Compliance Matrix: (Units=1/GPa)
#
#
# Indices 1 2 3 4 5 6 
#
# 1 0.009836 -0.007123 -0.000603 0.000000 -0.001673 0.000000
# 2 -0.007123 0.026515 -0.002147 0.000000 0.006464 0.000000
# 3 -0.000603 -0.002147 0.006834 0.000000 0.000274 0.000000
# 4 0.000000 0.000000 0.000000 0.439246 0.000000 0.037773
# 5 -0.001673 0.006464 0.000274 0.000000 0.024139 0.000000
# 6 0.000000 0.000000 0.000000 0.037773 0.000000 0.048434
#
#
# Mechanical properties :
#
#
# Convention : Reuss Voigt Hill
#
# Bulk Modulus (GPa) = 42.66414 55.23292 48.94853
# Shear Modulus (GPa) = 8.58275 30.91651 19.74963
#
# Velocity S-wave (km/s) = 1.86945 3.54810 2.83583
# Velocity P-wave (km/s) = 4.69386 6.26704 5.53661
#
# Compressibility (1/GPa) = 0.02343889
#
# Stress axis : x y z
#
# Youngs Moduli (GPa) = 101.66894 37.71409 146.31680
#
# Poissons Ratio (x) = 0.26865 0.08818
# Poissons Ratio (y) = 0.72423 0.31419
# Poissons Ratio (z) = 0.06127 0.08099
#
# Static dielectric constant tensor:
#      x y z
#    x 1.919140 0.000000 0.013930 
#    y 0.000000 2.033980 0.000000 
#    z 0.013930 0.000000 2.194710 
# 
# From -- ./inp_files/3882.got.cif
#   From: 2010.05.17/outbox.cif.g08.bks.cpg/sg3_2_cif.got.tgz:3882.got - 2010.06.03 18:33:08.
