data_PCOD9112518
_publ_section_title
;
Structure prediction by ZEFSAII (Michael W. Deem and Ramdas Pophale) SiO2 
 PCOD9112518
Probable space group: P 2
;
_chemical_formula_sum "Si O2"
_cell_formula_units_Z 15
_cell_length_a 13.456332
_cell_length_b 5.262281
_cell_length_c 10.425927
_cell_angle_alpha 90.000000
_cell_angle_beta 120.281484
_cell_angle_gamma 90.000000
_cell_volume 637.539647
_symmetry_space_group_name_H-M "P 2"
_symmetry_group_IT_number 3
_symmetry_cell_setting 'monoclinic'
loop_
_space_group_symop_operation_xyz
x,y,z
-x,y,-z
loop_
_atom_site_type_symbol
_atom_site_label
_atom_site_fract_x
_atom_site_fract_y
_atom_site_fract_z
Si Si1 0.527341 0.708350 0.736578
Si Si2 0.283413 0.553701 0.558945
Si Si3 0.983094 0.069553 0.274661
Si Si4 0.322626 0.049719 0.030174
Si Si5 0.500000 0.801259 0.000000
Si Si6 0.236161 0.552493 0.085139
Si Si7 0.192213 0.055078 0.617613
Si Si8 0.922526 0.563295 0.781690
O O1 0.409642 0.637980 0.593551
O O2 0.641338 0.574846 0.758828
O O3 0.573414 0.996701 0.795329
O O4 0.505219 0.636683 0.873887
O O5 0.274274 0.285712 0.626972
O O6 0.188932 0.552349 0.384988
O O7 0.245723 0.779480 0.629761
O O8 0.085350 0.072398 0.447569
O O9 0.000049 0.323007 0.203796
O O10 0.866646 0.074351 0.281881
O O11 0.011297 0.821957 0.208812
O O12 0.259779 0.309652 0.013494
O O13 0.389685 0.985875 0.943376
O O14 0.240138 0.812928 0.008478
O O15 0.130655 0.544739 0.112010
#
# Coordination Sequence:
#
# PCOD9112518 Si02
#       8
#     2   2   2   2   1   2   2   2
#     4   8  19  31  47  66  97 121 153 193 232 273
#     4  10  19  28  46  65  95 123 156 188 235 269
#     4   9  17  30  46  60  89 120 160 194 233 260
#     4   8  17  30  46  64  90 121 152 195 222 270
#     4   6  16  32  48  68  88 128 150 194 244 266
#     4   9  18  29  44  64  95 120 159 184 220 272
#     4   9  18  30  43  66  86 120 157 198 230 274
#     4  10  18  29  45  66  90 129 157 189 220 276
#
# _framework density 23.527949
#
# number of rings (size 3 to 8) (size 9 to 14) (size 15 to 20)
#    1.600    1.333    0.000    1.600    1.867    5.867 
#    0.000    0.000    2.933    0.000    0.000    0.000 
#    0.000   43.733    0.000    0.000    0.000    0.000 
#
# Total GULP energy -83654.329544 kJ/mol
# GULP energy per Si atom -5576.955303 kJ/mol
# Density = 2.347440 g / cm^3
# Si number density = 23.527949 Si / 1000 Ang^3
#
#
#
# Elastic Constant Matrix: (Units=GPa)
#
#
# Indices 1 2 3 4 5 6 
#
# 1 182.8344 97.1526 59.4376 0.0000 4.8371 0.0000
# 2 97.1526 291.7203 88.5844 0.0000 11.0129 0.0000
# 3 59.4376 88.5844 96.7182 0.0000 4.6187 0.0000
# 4 0.0000 0.0000 0.0000 -400.0679 0.0000 -246.4748
# 5 4.8371 11.0129 4.6187 0.0000 55.7091 0.0000
# 6 0.0000 0.0000 0.0000 -246.4748 0.0000 -138.5631
#
#
#
# Elastic Compliance Matrix: (Units=1/GPa)
#
#
# Indices 1 2 3 4 5 6 
#
# 1 0.007266 -0.001471 -0.003114 0.000000 -0.000082 0.000000
# 2 -0.001471 0.005065 -0.003708 0.000000 -0.000566 0.000000
# 3 -0.003114 -0.003708 0.015663 0.000000 -0.000295 0.000000
# 4 0.000000 0.000000 0.000000 0.026069 0.000000 -0.046372
# 5 -0.000082 -0.000566 -0.000295 0.000000 0.018094 0.000000
# 6 0.000000 0.000000 0.000000 -0.046372 0.000000 0.075269
#
#
# Mechanical properties :
#
#
# Convention : Reuss Voigt Hill
#
# Bulk Modulus (GPa) = 87.65717 117.95801 102.80759
# Shear Modulus (GPa) = 29.79472 -74.84448 -22.52488
#
# Velocity S-wave (km/s) = 3.56245 -5.64623 -3.09749
# Velocity P-wave (km/s) = 7.36606 2.78164 5.56760
#
# Compressibility (1/GPa) = 0.01140808
#
# Stress axis : x y z
#
# Youngs Moduli (GPa) = 137.63667 197.42281 63.84340
#
# Poissons Ratio (x) = 0.29042 0.19879
# Poissons Ratio (y) = 0.20247 0.23675
# Poissons Ratio (z) = 0.42856 0.73209
#
# Static dielectric constant tensor:
#      x y z
#    x 1.966760 0.000000 0.166270 
#    y 0.000000 1.724070 0.000000 
#    z 0.166270 0.000000 2.042340 
# 
# From -- ./inp_files/11226.got.cif
#   From: 2010.05.17/outbox.cif.g08.bks.cpg/sg3_6_cif.got.tgz:11226.got - 2010.06.03 18:33:08.
