data_PCOD9112917
_publ_section_title
;
Structure prediction by ZEFSAII (Michael W. Deem and Ramdas Pophale) SiO2 
 PCOD9112917
Probable space group: P 2
;
_chemical_formula_sum "Si O2"
_cell_formula_units_Z 16
_cell_length_a 8.332004
_cell_length_b 10.840210
_cell_length_c 9.313749
_cell_angle_alpha 90.000000
_cell_angle_beta 122.869361
_cell_angle_gamma 90.000000
_cell_volume 706.552691
_symmetry_space_group_name_H-M "P 2"
_symmetry_group_IT_number 3
_symmetry_cell_setting 'monoclinic'
loop_
_space_group_symop_operation_xyz
x,y,z
-x,y,-z
loop_
_atom_site_type_symbol
_atom_site_label
_atom_site_fract_x
_atom_site_fract_y
_atom_site_fract_z
Si Si1 0.013268 0.030840 0.334694
Si Si2 0.767744 0.419729 0.067982
Si Si3 0.191123 0.680719 0.020798
Si Si4 0.711378 0.818929 0.650086
Si Si5 0.781305 0.657189 0.426772
Si Si6 0.713769 0.858244 0.158393
Si Si7 0.100952 0.312283 0.391754
Si Si8 0.429447 0.404633 0.727346
O O1 0.072095 0.170237 0.336402
O O2 0.000000 0.010290 0.500000
O O3 0.155706 0.935595 0.325509
O O4 0.796078 0.995156 0.189409
O O5 0.667574 0.372936 0.165725
O O6 0.988391 0.391211 0.215606
O O7 0.727464 0.565674 0.027778
O O8 0.651720 0.374135 0.869683
O O9 0.292669 0.762396 0.192095
O O10 0.151150 0.781422 0.882026
O O11 0.000000 0.630695 0.000000
O O12 0.500000 0.855910 0.500000
O O13 0.767802 0.700275 0.582561
O O14 0.737321 0.781555 0.315899
O O15 0.630738 0.548727 0.323236
O O16 0.000000 0.617164 0.500000
O O17 0.500000 0.848995 0.000000
O O18 0.319973 0.342152 0.540591
O O19 0.000000 0.330676 0.500000
#
# Coordination Sequence:
#
# PCOD9112917 Si02
#       8
#     2   2   2   2   2   2   2   2
#     4  11  22  44  64  90 125 170 220 261 304 376
#     4  10  20  39  60  95 127 161 206 269 322 380
#     4  12  24  38  61  96 135 163 202 265 336 390
#     4  12  24  39  62  94 130 169 208 259 328 388
#     4  12  20  38  65  92 125 168 209 265 327 383
#     4  12  22  39  64  95 124 166 215 262 320 384
#     4   9  21  39  66  92 123 166 220 272 312 360
#     4  10  20  35  66  97 121 158 217 266 319 376
#
# _framework density 22.645161000000002
#
# number of rings (size 3 to 8) (size 9 to 14) (size 15 to 20)
#    0.000    1.000    5.000    3.375    1.750    0.000 
#    6.750    0.000    5.500    0.000    0.000    0.000 
#    0.000    0.000    0.000    0.000    0.000    0.000 
#
# Total GULP energy -89179.821332 kJ/mol
# GULP energy per Si atom -5573.738833 kJ/mol
# Density = 2.259362 g / cm^3
# Si number density = 22.645161 Si / 1000 Ang^3
#
#
#
# Elastic Constant Matrix: (Units=GPa)
#
#
# Indices 1 2 3 4 5 6 
#
# 1 47.5048 15.0637 29.6199 0.0000 3.4181 0.0000
# 2 15.0637 114.0892 52.1864 0.0000 22.4636 0.0000
# 3 29.6199 52.1864 139.6116 0.0000 40.8873 0.0000
# 4 0.0000 0.0000 0.0000 18.8043 0.0000 1.6899
# 5 3.4181 22.4636 40.8873 0.0000 36.5176 0.0000
# 6 0.0000 0.0000 0.0000 1.6899 0.0000 4.7067
#
#
#
# Elastic Compliance Matrix: (Units=1/GPa)
#
#
# Indices 1 2 3 4 5 6 
#
# 1 0.025148 -0.001504 -0.006480 0.000000 0.005826 0.000000
# 2 -0.001504 0.010903 -0.002728 0.000000 -0.003512 0.000000
# 3 -0.006480 -0.002728 0.013224 0.000000 -0.012522 0.000000
# 4 0.000000 0.000000 0.000000 0.054952 0.000000 -0.019731
# 5 0.005826 -0.003512 -0.012522 0.000000 0.043020 0.000000
# 6 0.000000 0.000000 0.000000 -0.019731 0.000000 0.219549
#
#
# Mechanical properties :
#
#
# Convention : Reuss Voigt Hill
#
# Bulk Modulus (GPa) = 35.90270 54.99397 45.44834
# Shear Modulus (GPa) = 12.57851 25.62809 19.10330
#
# Velocity S-wave (km/s) = 2.35938 3.36776 2.90762
# Velocity P-wave (km/s) = 4.82816 6.28174 5.60229
#
# Compressibility (1/GPa) = 0.02785306
#
# Stress axis : x y z
#
# Youngs Moduli (GPa) = 39.76421 91.71894 75.61726
#
# Poissons Ratio (x) = 0.13792 0.48997
# Poissons Ratio (y) = 0.05979 0.20628
# Poissons Ratio (z) = 0.25766 0.25021
#
# Static dielectric constant tensor:
#      x y z
#    x 2.004070 0.000000 0.042280 
#    y 0.000000 1.806040 0.000000 
#    z 0.042280 0.000000 1.916330 
# 
# From -- ./inp_files/6019.got.cif
#   From: 2010.05.17/outbox.cif.g08.bks.cpg/sg3_4_cif.got.tgz:6019.got - 2010.06.03 18:33:08.
