data_PCOD9112533
_publ_section_title
;
Structure prediction by ZEFSAII (Michael W. Deem and Ramdas Pophale) SiO2 
 PCOD9112533
Probable space group: P 2
;
_chemical_formula_sum "Si O2"
_cell_formula_units_Z 15
_cell_length_a 8.313188
_cell_length_b 8.532908
_cell_length_c 19.843782
_cell_angle_alpha 90.000000
_cell_angle_beta 151.068798
_cell_angle_gamma 90.000000
_cell_volume 680.954718
_symmetry_space_group_name_H-M "P 2"
_symmetry_group_IT_number 3
_symmetry_cell_setting 'monoclinic'
loop_
_space_group_symop_operation_xyz
x,y,z
-x,y,-z
loop_
_atom_site_type_symbol
_atom_site_label
_atom_site_fract_x
_atom_site_fract_y
_atom_site_fract_z
Si Si1 0.689469 0.963330 0.676479
Si Si2 0.206823 0.962265 0.138944
Si Si3 0.042494 0.057127 0.590553
Si Si4 0.909325 0.315867 0.037936
Si Si5 0.742754 0.339977 0.701311
Si Si6 0.834395 0.342669 0.268937
Si Si7 0.500000 0.758397 0.500000
Si Si8 0.118040 0.552820 0.471021
O O1 0.836114 0.899158 0.800526
O O2 0.769359 0.866052 0.639191
O O3 0.752937 0.150213 0.697595
O O4 0.287904 0.954909 0.528952
O O5 0.604366 0.969595 0.273854
O O6 0.084824 0.144315 0.099016
O O7 0.000000 0.894415 0.000000
O O8 0.043013 0.186701 0.648527
O O9 0.000000 0.130268 0.500000
O O10 0.043785 0.388587 0.155576
O O11 0.513666 0.303721 0.893319
O O12 0.000000 0.394708 0.000000
O O13 0.381611 0.411992 0.580085
O O14 0.905257 0.397065 0.691666
O O15 0.812684 0.474570 0.318540
O O16 0.316266 0.658168 0.490139
O O17 0.000000 0.617807 0.500000
#
# Coordination Sequence:
#
# PCOD9112533 Si02
#       8
#     2   2   2   2   2   2   1   2
#     4  10  22  36  66  90 137 170 215 286 330 393
#     4   9  17  33  56  99 138 165 212 271 336 407
#     4  10  18  30  58  97 131 164 210 262 336 391
#     4  10  19  32  55  93 136 166 202 264 338 400
#     4  11  22  38  62 103 124 166 218 278 341 386
#     4  12  19  34  58  96 132 164 204 274 326 394
#     4  12  26  48  60 100 136 180 236 270 332 406
#     4  12  26  43  69  93 133 174 223 277 333 394
#
# _framework density 22.027895999999998
#
# number of rings (size 3 to 8) (size 9 to 14) (size 15 to 20)
#    0.000    1.333    5.333    2.400    1.867    1.600 
#    0.000    0.000    0.000    5.600    0.000    0.000 
#    0.000    0.000    0.000    0.000    0.000    0.000 
#
# Total GULP energy -83676.698412 kJ/mol
# GULP energy per Si atom -5578.446561 kJ/mol
# Density = 2.197776 g / cm^3
# Si number density = 22.027896 Si / 1000 Ang^3
#
#
#
# Elastic Constant Matrix: (Units=GPa)
#
#
# Indices 1 2 3 4 5 6 
#
# 1 128.4337 21.0577 30.3915 0.0000 -34.6858 0.0000
# 2 21.0577 37.5515 2.2874 0.0000 -17.7124 0.0000
# 3 30.3915 2.2874 129.7927 0.0000 -28.5587 0.0000
# 4 0.0000 0.0000 0.0000 4.9742 0.0000 -5.8468
# 5 -34.6858 -17.7124 -28.5587 0.0000 51.2417 0.0000
# 6 0.0000 0.0000 0.0000 -5.8468 0.0000 18.2665
#
#
#
# Elastic Compliance Matrix: (Units=1/GPa)
#
#
# Indices 1 2 3 4 5 6 
#
# 1 0.009923 -0.003146 -0.001173 0.000000 0.004976 0.000000
# 2 -0.003146 0.033335 0.002526 0.000000 0.010801 0.000000
# 3 -0.001173 0.002526 0.009064 0.000000 0.005130 0.000000
# 4 0.000000 0.000000 0.000000 0.322299 0.000000 0.103163
# 5 0.004976 0.010801 0.005130 0.000000 0.029476 0.000000
# 6 0.000000 0.000000 0.000000 0.103163 0.000000 0.087766
#
#
# Mechanical properties :
#
#
# Convention : Reuss Voigt Hill
#
# Bulk Modulus (GPa) = 20.51942 44.80568 32.66255
# Shear Modulus (GPa) = 9.77142 31.03256 20.40199
#
# Velocity S-wave (km/s) = 2.10845 3.75745 3.04664
# Velocity P-wave (km/s) = 3.90677 6.26172 5.21881
#
# Compressibility (1/GPa) = 0.04873432
#
# Stress axis : x y z
#
# Youngs Moduli (GPa) = 100.77185 29.99841 110.33074
#
# Poissons Ratio (x) = 0.09438 0.12946
# Poissons Ratio (y) = 0.31706 -0.27867
# Poissons Ratio (z) = 0.11824 -0.07577
#
# Static dielectric constant tensor:
#      x y z
#    x 1.894100 0.000000 -0.023110 
#    y 0.000000 1.879830 0.000000 
#    z -0.023110 0.000000 1.811630 
# 
# From -- ./inp_files/15796.got.cif
#   From: 2010.05.17/outbox.cif.g08.bks.cpg/sg3_8_cif.got.tgz:15796.got - 2010.06.03 18:33:08.
