data_PCOD9112506
_publ_section_title
;
Structure prediction by ZEFSAII (Michael W. Deem and Ramdas Pophale) SiO2 
 PCOD9112506
Probable space group: P 2
;
_chemical_formula_sum "Si O2"
_cell_formula_units_Z 12
_cell_length_a 7.377904
_cell_length_b 9.630200
_cell_length_c 8.148731
_cell_angle_alpha 90.000000
_cell_angle_beta 118.554101
_cell_angle_gamma 90.000000
_cell_volume 508.550268
_symmetry_space_group_name_H-M "P 2"
_symmetry_group_IT_number 3
_symmetry_cell_setting 'monoclinic'
loop_
_space_group_symop_operation_xyz
x,y,z
-x,y,-z
loop_
_atom_site_type_symbol
_atom_site_label
_atom_site_fract_x
_atom_site_fract_y
_atom_site_fract_z
Si Si1 0.975955 0.245770 0.800437
Si Si2 0.214007 0.476129 0.487020
Si Si3 0.151402 0.781136 0.406437
Si Si4 0.450555 0.980908 0.716544
Si Si5 0.387251 0.280410 0.778022
Si Si6 0.844531 0.945604 0.094588
O O1 0.806565 0.347348 0.648303
O O2 0.154413 0.265236 0.741323
O O3 0.545448 0.148197 0.301023
O O4 0.000000 0.294540 0.000000
O O5 0.392766 0.425621 0.687323
O O6 0.000000 0.489551 0.500000
O O7 0.244306 0.628146 0.427405
O O8 0.995409 0.817979 0.192339
O O9 0.000000 0.783515 0.500000
O O10 0.326918 0.895369 0.525251
O O11 0.304877 0.961551 0.813250
O O12 0.679144 0.937799 0.875139
O O13 0.001476 0.079189 0.830312
O O14 0.500000 0.276010 0.000000
#
# Coordination Sequence:
#
# PCOD9112506 Si02
#       6
#     2   2   2   2   2   2
#     4  10  19  34  55  80 105 140 181 218 269 320
#     4   9  19  33  50  78 109 140 175 216 267 322
#     4   9  17  30  49  78 109 136 173 222 267 313
#     4   9  15  29  51  79 102 131 177 222 262 303
#     4  10  17  34  55  81 106 133 180 228 263 308
#     4   9  16  30  50  76 103 135 174 219 264 309
#
# _framework density 23.596485999999999
#
# number of rings (size 3 to 8) (size 9 to 14) (size 15 to 20)
#    0.000    2.667    3.333    1.000    0.000    4.000 
#   12.000    1.667    0.000    0.000    4.333    0.000 
#    0.000    0.000    0.000    0.000    0.000    0.000 
#
# Total GULP energy -66819.465794 kJ/mol
# GULP energy per Si atom -5568.288816 kJ/mol
# Density = 2.354278 g / cm^3
# Si number density = 23.596486 Si / 1000 Ang^3
#
#
#
# Elastic Constant Matrix: (Units=GPa)
#
#
# Indices 1 2 3 4 5 6 
#
# 1 85.3472 14.0834 15.0955 0.0000 -1.9263 0.0000
# 2 14.0834 153.3035 88.8916 0.0000 47.6630 0.0000
# 3 15.0955 88.8916 133.5177 0.0000 29.5287 0.0000
# 4 0.0000 0.0000 0.0000 26.9308 0.0000 8.8081
# 5 -1.9263 47.6630 29.5287 0.0000 23.3977 0.0000
# 6 0.0000 0.0000 0.0000 8.8081 0.0000 5.4859
#
#
#
# Elastic Compliance Matrix: (Units=1/GPa)
#
#
# Indices 1 2 3 4 5 6 
#
# 1 0.012727 -0.003414 -0.001298 0.000000 0.009640 0.000000
# 2 -0.003414 0.021911 -0.005921 0.000000 -0.037444 0.000000
# 3 -0.001298 -0.005921 0.012394 0.000000 -0.003687 0.000000
# 4 0.000000 0.000000 0.000000 0.078195 0.000000 -0.125549
# 5 0.009640 -0.037444 -0.003687 0.000000 0.124462 0.000000
# 6 0.000000 0.000000 0.000000 -0.125549 0.000000 0.383865
#
#
# Mechanical properties :
#
#
# Convention : Reuss Voigt Hill
#
# Bulk Modulus (GPa) = 38.80935 67.58993 53.19964
# Shear Modulus (GPa) = 7.53684 28.10275 17.81979
#
# Velocity S-wave (km/s) = 1.78913 3.45479 2.75105
# Velocity P-wave (km/s) = 4.55530 6.67985 5.71713
#
# Compressibility (1/GPa) = 0.02576698
#
# Stress axis : x y z
#
# Youngs Moduli (GPa) = 78.57102 45.63889 80.68605
#
# Poissons Ratio (x) = 0.15579 0.10476
# Poissons Ratio (y) = 0.26820 0.47772
# Poissons Ratio (z) = 0.10201 0.27022
#
# Static dielectric constant tensor:
#      x y z
#    x 1.966310 0.000000 -0.019550 
#    y 0.000000 1.894920 0.000000 
#    z -0.019550 0.000000 1.926960 
# 
# From -- ./inp_files/7548.got.cif
#   From: 2010.05.17/outbox.cif.g08.bks.cpg/sg3_4_cif.got.tgz:7548.got - 2010.06.03 18:33:08.
