data_PCOD9112257
_publ_section_title
;
Structure prediction by ZEFSAII (Michael W. Deem and Ramdas Pophale) SiO2 
 PCOD9112257
Probable space group: P -1
;
_chemical_formula_sum "Si O2"
_cell_formula_units_Z 14
_cell_length_a 20.159401
_cell_length_b 11.104328
_cell_length_c 6.613515
_cell_angle_alpha 59.950984
_cell_angle_beta 107.364352
_cell_angle_gamma 149.408710
_cell_volume 621.920418
_symmetry_space_group_name_H-M "P -1"
_symmetry_group_IT_number 2
_symmetry_cell_setting 'triclinic'
loop_
_space_group_symop_operation_xyz
x,y,z
-x,-y,-z
loop_
_atom_site_type_symbol
_atom_site_label
_atom_site_fract_x
_atom_site_fract_y
_atom_site_fract_z
Si Si1 0.543409 0.916093 0.146146
Si Si2 0.940253 0.039230 0.997309
Si Si3 0.841692 0.496178 0.850422
Si Si4 0.481304 0.398108 0.854888
Si Si5 0.983868 0.350653 0.451220
Si Si6 0.730995 0.881969 0.395457
Si Si7 0.273437 0.413361 0.515743
O O1 0.511928 0.754901 0.067768
O O2 0.438493 0.694128 0.416575
O O3 0.500000 0.000000 0.000000
O O4 0.706241 0.199414 0.083465
O O5 0.038775 0.265306 0.078820
O O6 0.792931 0.744250 0.201336
O O7 0.937639 0.143579 0.726071
O O8 0.000000 0.000000 0.000000
O O9 0.790227 0.552791 0.652637
O O10 0.895501 0.493336 0.717374
O O11 0.603340 0.676843 0.600696
O O12 0.331746 0.183320 0.819469
O O13 0.500000 0.500000 0.000000
O O14 0.000000 0.500000 0.500000
O O15 0.862972 0.188280 0.328637
O O16 0.770120 0.787216 0.502335
#
# Coordination Sequence:
#
# PCOD9112257 Si02
#       7
#     2   2   2   2   2   2   2
#     4   9  22  43  71  99 141 182 224 300 365 405
#     4  12  24  42  74 100 135 193 236 287 356 422
#     4  11  23  45  69 102 148 178 236 309 343 422
#     4  10  23  42  70  97 134 183 235 287 354 427
#     4  12  28  42  68 107 146 189 239 286 362 424
#     4  10  23  43  65  97 138 177 233 293 341 424
#     4  10  20  45  70  98 136 183 237 292 347 417
#
# _framework density 22.510919999999999
#
# number of rings (size 3 to 8) (size 9 to 14) (size 15 to 20)
#    0.000    1.429    2.857    1.286    6.000    0.571 
#    0.000    0.714    0.000    0.000    0.000    0.000 
#    0.000    0.000    0.000    0.000    0.000    0.000 
#
# Total GULP energy -78169.249817 kJ/mol
# GULP energy per Si atom -5583.517844 kJ/mol
# Density = 2.245968 g / cm^3
# Si number density = 22.510920 Si / 1000 Ang^3
#
#
#
# Elastic Constant Matrix: (Units=GPa)
#
#
# Indices 1 2 3 4 5 6 
#
# 1 165.7579 66.0173 45.0886 7.6293 -15.1453 -6.5935
# 2 66.0173 122.4809 44.9281 -3.7188 -20.9921 1.1598
# 3 45.0886 44.9281 103.3091 -15.3212 -22.3793 10.5125
# 4 7.6293 -3.7188 -15.3212 38.6697 6.6575 -8.6413
# 5 -15.1453 -20.9921 -22.3793 6.6575 40.0255 -3.5667
# 6 -6.5935 1.1598 10.5125 -8.6413 -3.5667 35.0111
#
#
#
# Elastic Compliance Matrix: (Units=1/GPa)
#
#
# Indices 1 2 3 4 5 6 
#
# 1 0.008415 -0.003605 -0.002596 -0.002697 0.000457 0.001864
# 2 -0.003605 0.011685 -0.002805 0.000211 0.003175 0.000152
# 3 -0.002596 -0.002805 0.013927 0.004327 0.004340 -0.003067
# 4 -0.002697 0.000211 0.004327 0.029811 -0.002982 0.005240
# 5 0.000457 0.003175 0.004340 -0.002982 0.029832 0.000981
# 6 0.001864 0.000152 -0.003067 0.005240 0.000981 0.031223
#
#
# Mechanical properties :
#
#
# Convention : Reuss Voigt Hill
#
# Bulk Modulus (GPa) = 62.43785 78.17957 70.30871
# Shear Modulus (GPa) = 33.72856 38.44217 36.08537
#
# Velocity S-wave (km/s) = 3.87501 4.13693 4.00811
# Velocity P-wave (km/s) = 6.91505 7.59104 7.26092
#
# Compressibility (1/GPa) = 0.01601593
#
# Stress axis : x y z
#
# Youngs Moduli (GPa) = 118.84069 85.57629 71.80521
#
# Poissons Ratio (x) = 0.30847 0.18638
# Poissons Ratio (y) = 0.42837 0.20142
# Poissons Ratio (z) = 0.30847 0.24005
#
# Static dielectric constant tensor:
#      x y z
#    x 2.046610 -0.067410 0.271070 
#    y -0.067410 1.879400 -0.144600 
#    z 0.271070 -0.144600 2.215890 
# 
# From -- ./inp_files/118551.got.cif
#   From: 2010.05.17/outbox.cif.g08.bks.cpg/sg2_60_cif.got.tgz:118551.got - 2010.06.03 11:33:40.
