data_PCOD9112550
_publ_section_title
;
Structure prediction by ZEFSAII (Michael W. Deem and Ramdas Pophale) SiO2 
 PCOD9112550
Probable space group: P 2
;
_chemical_formula_sum "Si O2"
_cell_formula_units_Z 15
_cell_length_a 5.092547
_cell_length_b 11.071463
_cell_length_c 15.015019
_cell_angle_alpha 90.000000
_cell_angle_beta 75.505604
_cell_angle_gamma 90.000000
_cell_volume 819.631271
_symmetry_space_group_name_H-M "P 2"
_symmetry_group_IT_number 3
_symmetry_cell_setting 'monoclinic'
loop_
_space_group_symop_operation_xyz
x,y,z
-x,y,-z
loop_
_atom_site_type_symbol
_atom_site_label
_atom_site_fract_x
_atom_site_fract_y
_atom_site_fract_z
Si Si1 0.465937 0.904510 0.601617
Si Si2 0.041106 0.736381 0.394755
Si Si3 0.676485 0.909612 0.856565
Si Si4 0.500000 0.083522 0.000000
Si Si5 0.787217 0.024815 0.222342
Si Si6 0.314655 0.636868 0.195719
Si Si7 0.887157 0.520139 0.108887
Si Si8 0.206846 0.238655 0.900783
O O1 0.500000 0.951644 0.500000
O O2 0.742553 0.843126 0.609293
O O3 0.240026 0.796582 0.615117
O O4 0.384232 0.010080 0.674590
O O5 0.179810 0.655743 0.305060
O O6 0.000000 0.685087 0.500000
O O7 0.392646 0.951708 0.836272
O O8 0.933076 0.957814 0.781257
O O9 0.694135 0.766274 0.854094
O O10 0.713113 0.983616 0.945813
O O11 0.528207 0.176426 0.079327
O O12 0.845226 0.157786 0.180925
O O13 0.627208 0.595694 0.164164
O O14 0.132805 0.543843 0.155422
O O15 0.797326 0.380075 0.114248
O O16 0.000000 0.550696 0.000000
O O17 0.000000 0.213449 0.000000
#
# Coordination Sequence:
#
# PCOD9112550 Si02
#       8
#     2   2   2   1   2   2   2   2
#     4  10  18  32  55  87 118 145 176 226 293 350
#     4  10  20  35  58  84 115 150 186 229 288 355
#     4  11  22  33  56  83 114 141 180 226 295 328
#     4  10  22  36  58  80 112 148 190 240 274 336
#     4  11  19  36  56  84 110 146 179 239 267 339
#     4  12  22  41  57  85 122 147 189 240 288 344
#     4  11  27  39  58  79 115 164 196 233 275 338
#     4  10  22  39  58  77 110 152 207 224 273 326
#
# _framework density 18.300912
#
# number of rings (size 3 to 8) (size 9 to 14) (size 15 to 20)
#    0.000    1.333    4.000    2.000    5.600    0.000 
#    0.000    0.000    0.000    1.600    0.000    0.000 
#    0.000    0.000    0.000    0.000    0.000    0.000 
#
# Total GULP energy -83532.098164 kJ/mol
# GULP energy per Si atom -5568.806544 kJ/mol
# Density = 1.825926 g / cm^3
# Si number density = 18.300912 Si / 1000 Ang^3
#
#
#
# Elastic Constant Matrix: (Units=GPa)
#
#
# Indices 1 2 3 4 5 6 
#
# 1 63.1862 -2.8029 -2.0816 0.0000 -4.2806 0.0000
# 2 -2.8029 70.3897 30.4209 0.0000 -1.8978 0.0000
# 3 -2.0816 30.4209 107.6424 0.0000 -6.0210 0.0000
# 4 0.0000 0.0000 0.0000 18.5722 0.0000 -1.3246
# 5 -4.2806 -1.8978 -6.0210 0.0000 26.7935 0.0000
# 6 0.0000 0.0000 0.0000 -1.3246 0.0000 18.5898
#
#
#
# Elastic Compliance Matrix: (Units=1/GPa)
#
#
# Indices 1 2 3 4 5 6 
#
# 1 0.016043 0.000583 0.000295 0.000000 0.002671 0.000000
# 2 0.000583 0.016205 -0.004556 0.000000 0.000217 0.000000
# 3 0.000295 -0.004556 0.010702 0.000000 0.002129 0.000000
# 4 0.000000 0.000000 0.000000 0.054119 0.000000 0.003856
# 5 0.002671 0.000217 0.002129 0.000000 0.038243 0.000000
# 6 0.000000 0.000000 0.000000 0.003856 0.000000 0.054068
#
#
# Mechanical properties :
#
#
# Convention : Reuss Voigt Hill
#
# Bulk Modulus (GPa) = 28.09466 32.47678 30.28572
# Shear Modulus (GPa) = 23.96925 27.16989 25.56957
#
# Velocity S-wave (km/s) = 3.62294 3.85726 3.74193
# Velocity P-wave (km/s) = 5.73461 6.13371 5.93752
#
# Compressibility (1/GPa) = 0.03559395
#
# Stress axis : x y z
#
# Youngs Moduli (GPa) = 62.33345 61.71013 93.43648
#
# Poissons Ratio (x) = -0.03600 -0.02754
# Poissons Ratio (y) = -0.03637 0.42572
# Poissons Ratio (z) = -0.01837 0.28116
#
# Static dielectric constant tensor:
#      x y z
#    x 1.756290 0.000000 0.017950 
#    y 0.000000 1.586320 0.000000 
#    z 0.017950 0.000000 1.729710 
# 
# From -- ./inp_files/3211.got.cif
#   From: 2010.05.17/outbox.cif.g08.bks.cpg/sg3_2_cif.got.tgz:3211.got - 2010.06.03 18:33:08.
