data_PCOD9112751
_publ_section_title
;
Structure prediction by ZEFSAII (Michael W. Deem and Ramdas Pophale) SiO2 
 PCOD9112751
Probable space group: P 2
;
_chemical_formula_sum "Si O2"
_cell_formula_units_Z 16
_cell_length_a 22.142480
_cell_length_b 8.476309
_cell_length_c 5.298247
_cell_angle_alpha 90.000000
_cell_angle_beta 54.135338
_cell_angle_gamma 90.000000
_cell_volume 805.872540
_symmetry_space_group_name_H-M "P 2"
_symmetry_group_IT_number 3
_symmetry_cell_setting 'monoclinic'
loop_
_space_group_symop_operation_xyz
x,y,z
-x,y,-z
loop_
_atom_site_type_symbol
_atom_site_label
_atom_site_fract_x
_atom_site_fract_y
_atom_site_fract_z
Si Si1 0.208578 0.299990 0.802742
Si Si2 0.965386 0.349366 0.834825
Si Si3 0.748426 0.937339 0.391910
Si Si4 0.585401 0.033042 0.810186
Si Si5 0.275020 0.440665 0.139441
Si Si6 0.029937 0.708311 0.676754
Si Si7 0.796793 0.766079 0.769784
Si Si8 0.583625 0.245326 0.314019
O O1 0.254334 0.393351 0.475502
O O2 0.230573 0.118293 0.714881
O O3 0.122622 0.334733 0.955419
O O4 0.225022 0.353397 0.048492
O O5 0.000000 0.276253 0.500000
O O6 0.991570 0.533904 0.770633
O O7 0.000000 0.276785 0.000000
O O8 0.781038 0.889038 0.583691
O O9 0.658117 0.922961 0.611623
O O10 0.783013 0.835534 0.080613
O O11 0.592691 0.157010 0.559767
O O12 0.500000 0.969005 0.000000
O O13 0.592576 0.120637 0.062405
O O14 0.259733 0.623492 0.139383
O O15 0.356941 0.381023 0.873527
O O16 0.118894 0.700717 0.457437
O O17 0.000000 0.790325 0.500000
O O18 0.000000 0.790120 0.000000
O O19 0.500000 0.307187 0.500000
#
# Coordination Sequence:
#
# PCOD9112751 Si02
#       8
#     2   2   2   2   2   2   2   2
#     4  12  23  40  70  90 123 161 220 271 307 368
#     4  10  20  36  59  88 112 149 209 264 303 362
#     4  12  24  43  60 100 132 166 208 267 322 375
#     4  10  20  39  65  92 125 171 212 253 309 380
#     4  12  21  40  63  96 120 170 212 260 313 376
#     4  10  19  38  59  82 114 161 212 248 301 384
#     4  12  26  39  64  94 135 168 206 263 330 386
#     4  10  19  35  62  96 123 158 213 268 307 359
#
# _framework density 19.854258999999999
#
# number of rings (size 3 to 8) (size 9 to 14) (size 15 to 20)
#    0.000    1.000    2.500    6.750    0.000    0.000 
#    0.000    5.000    0.000    0.000    0.000    0.000 
#    0.000    0.000    0.000    0.000    0.000    0.000 
#
# Total GULP energy -89367.768637 kJ/mol
# GULP energy per Si atom -5585.485540 kJ/mol
# Density = 1.980907 g / cm^3
# Si number density = 19.854259 Si / 1000 Ang^3
#
#
#
# Elastic Constant Matrix: (Units=GPa)
#
#
# Indices 1 2 3 4 5 6 
#
# 1 92.7729 -5.0936 36.6913 0.0000 -17.2343 0.0000
# 2 -5.0936 27.1002 -5.6183 0.0000 -3.8735 0.0000
# 3 36.6913 -5.6183 116.6392 0.0000 -4.2226 0.0000
# 4 0.0000 0.0000 0.0000 -646.5952 0.0000 -16.5257
# 5 -17.2343 -3.8735 -4.2226 0.0000 53.7352 0.0000
# 6 0.0000 0.0000 0.0000 -16.5257 0.0000 24.4183
#
#
#
# Elastic Compliance Matrix: (Units=1/GPa)
#
#
# Indices 1 2 3 4 5 6 
#
# 1 0.013204 0.002259 -0.003897 0.000000 0.004092 0.000000
# 2 0.002259 0.038095 0.001254 0.000000 0.003569 0.000000
# 3 -0.003897 0.001254 0.009846 0.000000 -0.000386 0.000000
# 4 0.000000 0.000000 0.000000 -0.001520 0.000000 -0.001029
# 5 0.004092 0.003569 -0.000386 0.000000 0.020149 0.000000
# 6 0.000000 0.000000 0.000000 -0.001029 0.000000 0.040257
#
#
# Mechanical properties :
#
#
# Convention : Reuss Voigt Hill
#
# Bulk Modulus (GPa) = 16.56294 32.05234 24.30764
# Shear Modulus (GPa) = 35.48014 -99.65282 -32.08634
#
# Velocity S-wave (km/s) = 4.23191 -7.09233 -4.02443
# Velocity P-wave (km/s) = 5.67795 7.13367 3.05370
#
# Compressibility (1/GPa) = 0.06037576
#
# Stress axis : x y z
#
# Youngs Moduli (GPa) = 75.73316 26.25042 101.56748
#
# Poissons Ratio (x) = -0.05929 0.39578
# Poissons Ratio (y) = -0.17106 -0.12733
# Poissons Ratio (z) = 0.29511 -0.03291
#
# Static dielectric constant tensor:
#      x y z
#    x 2.144270 0.000000 -0.361360 
#    y 0.000000 1.653880 0.000000 
#    z -0.361360 0.000000 2.056800 
# 
# From -- ./inp_files/4005.got.cif
#   From: 2010.05.17/outbox.cif.g08.bks.cpg/sg3_3_cif.got.tgz:4005.got - 2010.06.03 18:33:08.
