data_PCOD9112170
_publ_section_title
;
Structure prediction by ZEFSAII (Michael W. Deem and Ramdas Pophale) SiO2 
 PCOD9112170
Probable space group: P -1
;
_chemical_formula_sum "Si O2"
_cell_formula_units_Z 14
_cell_length_a 12.273529
_cell_length_b 14.463606
_cell_length_c 7.910828
_cell_angle_alpha 96.020088
_cell_angle_beta 83.815613
_cell_angle_gamma 25.433116
_cell_volume 528.112932
_symmetry_space_group_name_H-M "P -1"
_symmetry_group_IT_number 2
_symmetry_cell_setting 'triclinic'
loop_
_space_group_symop_operation_xyz
x,y,z
-x,-y,-z
loop_
_atom_site_type_symbol
_atom_site_label
_atom_site_fract_x
_atom_site_fract_y
_atom_site_fract_z
Si Si1 0.776948 0.042661 0.358105
Si Si2 0.705192 0.466256 0.988194
Si Si3 0.143469 0.212964 0.068831
Si Si4 0.276312 0.227353 0.710569
Si Si5 0.927547 0.030590 0.824431
Si Si6 0.663913 0.668846 0.773601
Si Si7 0.754730 0.969902 0.696925
O O1 0.475640 0.247663 0.366864
O O2 0.856026 0.926149 0.490533
O O3 0.030935 0.807774 0.148149
O O4 0.827416 0.113665 0.359569
O O5 0.676432 0.564200 0.860691
O O6 0.830308 0.418108 0.121468
O O7 0.386321 0.681608 0.114678
O O8 0.200477 0.235651 0.903447
O O9 0.427150 0.924164 0.941329
O O10 0.148432 0.204702 0.271093
O O11 0.424048 0.205292 0.747185
O O12 0.975982 0.469926 0.706678
O O13 0.500000 0.000000 0.500000
O O14 0.871340 0.965162 0.788742
O O15 0.000000 0.000000 0.000000
#
# Coordination Sequence:
#
# PCOD9112170 Si02
#       7
#     2   2   2   2   2   2   2
#     4  11  24  42  71 101 140 180 233 280 340 406
#     4  10  20  44  72  98 133 183 234 276 341 406
#     4  10  22  43  68 100 137 178 225 282 343 408
#     4  11  25  45  74 101 139 180 230 283 344 409
#     4  12  23  46  74  97 138 186 230 284 342 400
#     4  10  20  44  72  98 134 183 227 280 345 399
#     4  12  25  45  66 108 142 176 230 283 342 410
#
# _framework density 26.509485000000002
#
# number of rings (size 3 to 8) (size 9 to 14) (size 15 to 20)
#    0.000    1.143    2.857    4.714    0.000    2.857 
#    7.714    1.429    0.000    0.000    0.000    0.000 
#    0.000    0.000    0.000    0.000    0.000    0.000 
#
# Total GULP energy -78086.700395 kJ/mol
# GULP energy per Si atom -5577.621457 kJ/mol
# Density = 2.644915 g / cm^3
# Si number density = 26.509485 Si / 1000 Ang^3
#
#
#
# Elastic Constant Matrix: (Units=GPa)
#
#
# Indices 1 2 3 4 5 6 
#
# 1 117.6258 60.2811 40.8479 -1.8200 -5.6882 -30.3707
# 2 60.2811 153.6830 54.6030 -9.1472 3.1571 -31.8560
# 3 40.8479 54.6030 79.8046 -31.1489 -13.4136 -8.0238
# 4 -1.8200 -9.1472 -31.1489 52.7064 3.8922 -5.4351
# 5 -5.6882 3.1571 -13.4136 3.8922 30.9248 -0.9132
# 6 -30.3707 -31.8560 -8.0238 -5.4351 -0.9132 65.2008
#
#
#
# Elastic Compliance Matrix: (Units=1/GPa)
#
#
# Indices 1 2 3 4 5 6 
#
# 1 0.012581 -0.002415 -0.005397 -0.002834 0.000688 0.003790
# 2 -0.002415 0.010588 -0.007160 -0.001855 -0.004310 0.002952
# 3 -0.005397 -0.007160 0.027018 0.013677 0.009694 -0.001411
# 4 -0.002834 -0.001855 0.013677 0.026643 0.002298 0.001710
# 5 0.000688 -0.004310 0.009694 0.002298 0.036822 0.000115
# 6 0.003790 0.002952 -0.001411 0.001710 0.000115 0.018515
#
#
# Mechanical properties :
#
#
# Convention : Reuss Voigt Hill
#
# Bulk Modulus (GPa) = 49.39836 73.61971 61.50903
# Shear Modulus (GPa) = 29.61057 42.79183 36.20120
#
# Velocity S-wave (km/s) = 3.34575 4.02208 3.69940
# Velocity P-wave (km/s) = 5.79656 7.02858 6.44209
#
# Compressibility (1/GPa) = 0.02024359
#
# Stress axis : x y z
#
# Youngs Moduli (GPa) = 79.48384 94.44608 37.01269
#
# Poissons Ratio (x) = 0.22805 0.19976
# Poissons Ratio (y) = 0.19192 0.26501
# Poissons Ratio (z) = 0.42898 0.67623
#
# Static dielectric constant tensor:
#      x y z
#    x 2.249680 0.091960 0.069440 
#    y 0.091960 2.058470 0.010730 
#    z 0.069440 0.010730 2.186880 
# 
# From -- ./inp_files/317684.got.cif
#   From: 2010.05.17/outbox.cif.g08.bks.cpg/sg2_159_cif.got.tgz:317684.got - 2010.06.03 11:33:40.
