data_PCOD9112187
_publ_section_title
;
Structure prediction by ZEFSAII (Michael W. Deem and Ramdas Pophale) SiO2 
 PCOD9112187
Probable space group: P -1
;
_chemical_formula_sum "Si O2"
_cell_formula_units_Z 13
_cell_length_a 9.158467
_cell_length_b 12.137906
_cell_length_c 9.325504
_cell_angle_alpha 123.410539
_cell_angle_beta 44.489535
_cell_angle_gamma 91.601256
_cell_volume 474.001594
_symmetry_space_group_name_H-M "P -1"
_symmetry_group_IT_number 2
_symmetry_cell_setting 'triclinic'
loop_
_space_group_symop_operation_xyz
x,y,z
-x,-y,-z
loop_
_atom_site_type_symbol
_atom_site_label
_atom_site_fract_x
_atom_site_fract_y
_atom_site_fract_z
Si Si1 0.436951 0.885975 0.392950
Si Si2 0.763695 0.274374 0.927509
Si Si3 0.264915 0.453666 0.705973
Si Si4 0.694257 0.004311 0.765902
Si Si5 0.213426 0.772662 0.629516
Si Si6 0.008720 0.414526 0.284922
Si Si7 0.500000 0.500000 0.000000
O O1 0.400076 0.925443 0.278808
O O2 0.187402 0.930067 0.694476
O O3 0.500000 0.000000 0.500000
O O4 0.700471 0.685304 0.065171
O O5 0.755946 0.125223 0.870227
O O6 0.549321 0.406982 0.057242
O O7 0.754578 0.381025 0.139002
O O8 0.042007 0.183175 0.583593
O O9 0.537767 0.307349 0.490546
O O10 0.216466 0.444477 0.565887
O O11 0.000000 0.500000 0.000000
O O12 0.500000 0.000000 0.000000
O O13 0.022583 0.730920 0.784286
O O14 0.289917 0.678409 0.353485
O O15 0.000000 0.500000 0.500000
#
# Coordination Sequence:
#
# PCOD9112187 Si02
#       7
#     2   2   2   2   2   2   1
#     4  12  27  48  71 106 152 204 252 309 388 458
#     4  10  24  46  73 102 158 193 253 313 389 443
#     4  11  24  46  74 110 150 198 243 321 389 443
#     4  11  26  45  73 108 148 206 252 311 379 465
#     4  11  24  45  73 106 153 194 251 321 380 442
#     4  12  28  45  78 115 145 195 259 315 380 461
#     4  10  20  44  74 106 144 200 244 320 378 440
#
# _framework density 27.426068000000001
#
# number of rings (size 3 to 8) (size 9 to 14) (size 15 to 20)
#    0.000    0.923    3.077    2.308    6.462    1.846 
#    0.000    0.769    0.000    0.000    0.000    0.000 
#    0.000    0.000    0.000    0.000    0.000    0.000 
#
# Total GULP energy -72517.584646 kJ/mol
# GULP energy per Si atom -5578.275742 kJ/mol
# Density = 2.736364 g / cm^3
# Si number density = 27.426068 Si / 1000 Ang^3
#
#
#
# Elastic Constant Matrix: (Units=GPa)
#
#
# Indices 1 2 3 4 5 6 
#
# 1 149.9526 50.1147 34.9542 -9.0192 13.6754 -40.4702
# 2 50.1147 133.8002 25.0752 -43.2946 -0.9364 -1.9632
# 3 34.9542 25.0752 72.8487 -22.4786 -1.5955 3.0143
# 4 -9.0192 -43.2946 -22.4786 62.8766 8.9241 1.9687
# 5 13.6754 -0.9364 -1.5955 8.9241 47.4285 -9.2840
# 6 -40.4702 -1.9632 3.0143 1.9687 -9.2840 38.7031
#
#
#
# Elastic Compliance Matrix: (Units=1/GPa)
#
#
# Indices 1 2 3 4 5 6 
#
# 1 0.013683 -0.005036 -0.006779 -0.004303 -0.000594 0.014657
# 2 -0.005036 0.011654 0.001068 0.007970 -0.000831 -0.005363
# 3 -0.006779 0.001068 0.019116 0.006941 -0.000446 -0.008983
# 4 -0.004303 0.007970 0.006941 0.024074 -0.004245 -0.006879
# 5 -0.000594 -0.000831 -0.000446 -0.004245 0.023023 0.005110
# 6 0.014657 -0.005363 -0.008983 -0.006879 0.005110 0.043167
#
#
# Mechanical properties :
#
#
# Convention : Reuss Voigt Hill
#
# Bulk Modulus (GPa) = 43.55626 64.09885 53.82755
# Shear Modulus (GPa) = 30.51276 46.23213 38.37245
#
# Velocity S-wave (km/s) = 3.33910 4.11018 3.74454
# Velocity P-wave (km/s) = 5.54815 6.77842 6.19391
#
# Compressibility (1/GPa) = 0.02295881
#
# Stress axis : x y z
#
# Youngs Moduli (GPa) = 73.08287 85.80492 52.31162
#
# Poissons Ratio (x) = 0.43211 0.35463
# Poissons Ratio (y) = 0.36804 -0.05586
# Poissons Ratio (z) = 0.49545 -0.09162
#
# Static dielectric constant tensor:
#      x y z
#    x 2.179540 0.058670 -0.062020 
#    y 0.058670 2.305620 0.011230 
#    z -0.062020 0.011230 2.234700 
# 
# From -- ./inp_files/182153.got.cif
#   From: 2010.05.17/outbox.cif.g08.bks.cpg/sg2_92_cif.got.tgz:182153.got - 2010.06.03 11:33:40.
