data_PCOD9112870
_publ_section_title
;
Structure prediction by ZEFSAII (Michael W. Deem and Ramdas Pophale) SiO2 
 PCOD9112870
Probable space group: P 2
;
_chemical_formula_sum "Si O2"
_cell_formula_units_Z 12
_cell_length_a 15.839653
_cell_length_b 7.222970
_cell_length_c 15.484719
_cell_angle_alpha 90.000000
_cell_angle_beta 160.327375
_cell_angle_gamma 90.000000
_cell_volume 596.399799
_symmetry_space_group_name_H-M "P 2"
_symmetry_group_IT_number 3
_symmetry_cell_setting 'monoclinic'
loop_
_space_group_symop_operation_xyz
x,y,z
-x,y,-z
loop_
_atom_site_type_symbol
_atom_site_label
_atom_site_fract_x
_atom_site_fract_y
_atom_site_fract_z
Si Si1 0.452468 0.673720 0.052196
Si Si2 0.256559 0.103183 0.235549
Si Si3 0.922457 0.669997 0.625557
Si Si4 0.913610 0.224762 0.615168
Si Si5 0.552697 0.225017 0.953559
Si Si6 0.039513 0.949029 0.186896
O O1 0.676941 0.725770 0.333690
O O2 0.451443 0.449314 0.048827
O O3 0.500000 0.736393 0.000000
O O4 0.176964 0.725002 0.820399
O O5 0.500000 0.208418 0.500000
O O6 0.781179 0.951248 0.724290
O O7 0.000000 0.218362 0.000000
O O8 0.226941 0.004342 0.114822
O O9 0.915717 0.447212 0.627996
O O10 0.940229 0.769805 0.734904
O O11 0.676180 0.170731 0.328355
O O12 0.896141 0.118941 0.688370
O O13 0.175612 0.171748 0.821278
O O14 0.500000 0.161931 0.000000
#
# Coordination Sequence:
#
# PCOD9112870 Si02
#       6
#     2   2   2   2   2   2
#     4   9  18  33  51  75 109 144 175 211 255 298
#     4   8  20  36  56  76 102 138 160 204 276 318
#     4  10  20  33  55  79 103 139 177 213 252 300
#     4  10  20  33  55  79 103 139 177 213 252 300
#     4   9  18  33  51  75 109 144 175 211 255 298
#     4   9  22  36  59  76 108 130 173 214 262 311
#
# _framework density 20.120729999999998
#
# number of rings (size 3 to 8) (size 9 to 14) (size 15 to 20)
#    1.000    1.667    0.000    1.000    4.667    4.000 
#    0.000    8.333    0.000    2.000    0.000    0.000 
#    0.000    0.000    0.000    0.000    0.000    0.000 
#
# Total GULP energy -66805.439960 kJ/mol
# GULP energy per Si atom -5567.119997 kJ/mol
# Density = 2.007493 g / cm^3
# Si number density = 20.120730 Si / 1000 Ang^3
#
#
#
# Elastic Constant Matrix: (Units=GPa)
#
#
# Indices 1 2 3 4 5 6 
#
# 1 87.9375 17.1363 17.4559 0.0000 -28.0144 0.0000
# 2 17.1363 81.9516 9.4545 0.0000 -8.6962 0.0000
# 3 17.4559 9.4545 147.5249 0.0000 -15.8311 0.0000
# 4 0.0000 0.0000 0.0000 -6.8532 0.0000 -4.6820
# 5 -28.0144 -8.6962 -15.8311 0.0000 35.1313 0.0000
# 6 0.0000 0.0000 0.0000 -4.6820 0.0000 6.3067
#
#
#
# Elastic Compliance Matrix: (Units=1/GPa)
#
#
# Indices 1 2 3 4 5 6 
#
# 1 0.015583 -0.001960 -0.000459 0.000000 0.011734 0.000000
# 2 -0.001960 0.012812 -0.000438 0.000000 0.001411 0.000000
# 3 -0.000459 -0.000438 0.007156 0.000000 0.002750 0.000000
# 4 0.000000 0.000000 0.000000 -0.096814 0.000000 -0.071874
# 5 0.011734 0.001411 0.002750 0.000000 0.039410 0.000000
# 6 0.000000 0.000000 0.000000 -0.071874 0.000000 0.105204
#
#
# Mechanical properties :
#
#
# Convention : Reuss Voigt Hill
#
# Bulk Modulus (GPa) = 33.51513 45.05637 39.28575
# Shear Modulus (GPa) = 50.49904 25.14145 37.82024
#
# Velocity S-wave (km/s) = 5.01523 3.53870 4.34021
# Velocity P-wave (km/s) = 7.08730 6.25605 6.68461
#
# Compressibility (1/GPa) = 0.02983727
#
# Stress axis : x y z
#
# Youngs Moduli (GPa) = 64.17259 78.04892 139.74243
#
# Poissons Ratio (x) = 0.15300 0.06415
# Poissons Ratio (y) = 0.12580 0.06117
# Poissons Ratio (z) = 0.02946 0.03416
#
# Static dielectric constant tensor:
#      x y z
#    x 1.700450 0.000000 0.040960 
#    y 0.000000 1.701810 0.000000 
#    z 0.040960 0.000000 1.796680 
# 
# From -- ./inp_files/14009.got.cif
#   From: 2010.05.17/outbox.cif.g08.bks.cpg/sg3_8_cif.got.tgz:14009.got - 2010.06.03 18:33:08.
