data_PCOD9112260
_publ_section_title
;
Structure prediction by ZEFSAII (Michael W. Deem and Ramdas Pophale) SiO2 
 PCOD9112260
Probable space group: P -1
;
_chemical_formula_sum "Si O2"
_cell_formula_units_Z 16
_cell_length_a 11.633970
_cell_length_b 14.974927
_cell_length_c 7.905618
_cell_angle_alpha 43.406546
_cell_angle_beta 67.976486
_cell_angle_gamma 87.523324
_cell_volume 818.613574
_symmetry_space_group_name_H-M "P -1"
_symmetry_group_IT_number 2
_symmetry_cell_setting 'triclinic'
loop_
_space_group_symop_operation_xyz
x,y,z
-x,-y,-z
loop_
_atom_site_type_symbol
_atom_site_label
_atom_site_fract_x
_atom_site_fract_y
_atom_site_fract_z
Si Si1 0.831836 0.334056 0.146075
Si Si2 0.154571 0.939133 0.055405
Si Si3 0.619942 0.144179 0.781253
Si Si4 0.033902 0.229651 0.316705
Si Si5 0.498991 0.623290 0.452538
Si Si6 0.963463 0.199252 0.029974
Si Si7 0.239338 0.260822 0.656094
Si Si8 0.277672 0.429548 0.074951
O O1 0.706106 0.215615 0.468067
O O2 0.957741 0.338503 0.183923
O O3 0.870157 0.285117 0.013062
O O4 0.807565 0.476191 0.957481
O O5 0.276093 0.889323 0.106699
O O6 0.033946 0.860150 0.359340
O O7 0.109156 0.906641 0.931661
O O8 0.196038 0.100580 0.849807
O O9 0.565503 0.261786 0.720919
O O10 0.500000 0.000000 0.000000
O O11 0.187813 0.313773 0.151512
O O12 0.995452 0.150288 0.266080
O O13 0.500000 0.500000 0.500000
O O14 0.648838 0.706427 0.309834
O O15 0.410082 0.536901 0.774868
O O16 0.108627 0.286635 0.757074
O O17 0.298869 0.352479 0.333803
#
# Coordination Sequence:
#
# PCOD9112260 Si02
#       8
#     2   2   2   2   2   2   2   2
#     4   8  21  38  64  94 125 169 220 260 331 382
#     4  11  22  43  65  97 129 172 219 273 329 378
#     4  10  20  45  71  86 132 176 216 277 321 384
#     4   9  20  40  63  93 129 165 212 272 319 381
#     4  11  25  44  66  97 129 179 225 261 333 397
#     4  10  22  39  63 103 124 165 222 267 325 392
#     4  12  24  40  63  95 139 170 216 273 331 390
#     4  11  21  41  65  90 139 173 209 275 333 387
#
# _framework density 19.545241999999998
#
# number of rings (size 3 to 8) (size 9 to 14) (size 15 to 20)
#    0.750    1.000    2.500    1.875    0.000    2.000 
#    4.500    0.625    0.000    0.000    0.000    0.000 
#    0.000    0.000    0.000    0.000    0.000    0.000 
#
# Total GULP energy -89153.352092 kJ/mol
# GULP energy per Si atom -5572.084506 kJ/mol
# Density = 1.950076 g / cm^3
# Si number density = 19.545242 Si / 1000 Ang^3
#
#
#
# Elastic Constant Matrix: (Units=GPa)
#
#
# Indices 1 2 3 4 5 6 
#
# 1 85.6144 38.8297 18.5987 -5.4111 -9.7016 3.1884
# 2 38.8297 124.3354 32.4266 0.5074 0.9846 9.9967
# 3 18.5987 32.4266 42.9864 -15.2897 7.1475 -12.1881
# 4 -5.4111 0.5074 -15.2897 16.8827 -1.1463 -4.9927
# 5 -9.7016 0.9846 7.1475 -1.1463 31.2211 -4.7914
# 6 3.1884 9.9967 -12.1881 -4.9927 -4.7914 23.8723
#
#
#
# Elastic Compliance Matrix: (Units=1/GPa)
#
#
# Indices 1 2 3 4 5 6 
#
# 1 0.015208 -0.000917 -0.012166 -0.008189 0.005954 -0.008376
# 2 -0.000917 0.046807 -0.113188 -0.135014 0.003098 -0.104882
# 3 -0.012166 -0.113188 0.347936 0.404383 -0.017801 0.307663
# 4 -0.008189 -0.135014 0.404383 0.536403 -0.013849 0.373495
# 5 0.005954 0.003098 -0.017801 -0.013849 0.036307 -0.006790
# 6 -0.008376 -0.104882 0.307663 0.373495 -0.006790 0.320757
#
#
# Mechanical properties :
#
#
# Convention : Reuss Voigt Hill
#
# Bulk Modulus (GPa) = 6.35283 48.07179 27.21231
# Shear Modulus (GPa) = 3.10862 25.26731 14.18797
#
# Velocity S-wave (km/s) = 1.26251 3.59940 2.69718
# Velocity P-wave (km/s) = 2.32005 6.47478 4.86340
#
# Compressibility (1/GPa) = 0.15741013
#
# Stress axis : x y z
#
# Youngs Moduli (GPa) = 65.75462 21.36415 2.87409
#
# Poissons Ratio (x) = 0.01959 0.03497
# Poissons Ratio (y) = 0.06028 0.32531
# Poissons Ratio (z) = 0.79997 2.41816
#
# Static dielectric constant tensor:
#      x y z
#    x 1.689580 -0.012560 -0.006540 
#    y -0.012560 1.716110 0.000430 
#    z -0.006540 0.000430 1.667910 
# 
# From -- ./inp_files/271513.got.cif
#   From: 2010.05.17/outbox.cif.g08.bks.cpg/sg2_136_cif.got.tgz:271513.got - 2010.06.03 11:33:40.
