data_PCOD9112942
_publ_section_title
;
Structure prediction by ZEFSAII (Michael W. Deem and Ramdas Pophale) SiO2 
 PCOD9112942
Probable space group: P 2
;
_chemical_formula_sum "Si O2"
_cell_formula_units_Z 12
_cell_length_a 9.071850
_cell_length_b 3.817360
_cell_length_c 16.569850
_cell_angle_alpha 90.000000
_cell_angle_beta 139.758207
_cell_angle_gamma 90.000000
_cell_volume 370.697726
_symmetry_space_group_name_H-M "P 2"
_symmetry_group_IT_number 3
_symmetry_cell_setting 'monoclinic'
loop_
_space_group_symop_operation_xyz
x,y,z
-x,y,-z
loop_
_atom_site_type_symbol
_atom_site_label
_atom_site_fract_x
_atom_site_fract_y
_atom_site_fract_z
Si Si1 0.711150 0.599010 0.544022
Si Si2 0.984538 0.620963 0.805267
Si Si3 0.787610 0.158383 0.957059
Si Si4 0.445450 0.589750 0.284347
Si Si5 0.639127 0.096343 0.131584
Si Si6 0.868496 0.558156 0.369689
O O1 0.500000 0.792472 0.500000
O O2 0.848023 0.423535 0.675624
O O3 0.577586 0.407657 0.415214
O O4 0.925301 0.770479 0.587031
O O5 0.765633 0.786427 0.760546
O O6 0.173974 0.855956 0.837178
O O7 0.100756 0.387497 0.923747
O O8 0.669513 0.364895 0.834290
O O9 0.582087 0.943646 0.913185
O O10 0.000000 0.976797 0.000000
O O11 0.660657 0.757528 0.327052
O O12 0.755915 0.331894 0.250068
O O13 0.500000 0.282455 0.000000
O O14 0.000000 0.379366 0.500000
#
# Coordination Sequence:
#
# PCOD9112942 Si02
#       6
#     2   2   2   2   2   2
#     4   9  17  33  60  88 116 158 208 253 305 369
#     4  10  20  36  59  91 125 160 207 262 313 365
#     4   9  19  40  66  88 120 166 210 254 310 376
#     4   8  17  35  63  88 113 158 210 252 303 369
#     4  11  23  37  58  93 127 161 208 264 313 366
#     4   9  18  37  62  88 119 163 209 253 308 373
#
# _framework density 32.371392
#
# number of rings (size 3 to 8) (size 9 to 14) (size 15 to 20)
#    0.000    2.667    0.000    1.000    0.000    3.333 
#    0.000   10.833    0.000    0.000    0.000    3.500 
#    0.000    0.000    0.000    0.000    0.000    0.000 
#
# Total GULP energy -66873.912565 kJ/mol
# GULP energy per Si atom -5572.826047 kJ/mol
# Density = 3.229771 g / cm^3
# Si number density = 32.371392 Si / 1000 Ang^3
#
#
#
# Elastic Constant Matrix: (Units=GPa)
#
#
# Indices 1 2 3 4 5 6 
#
# 1 468.2834 96.3436 70.4069 0.0000 79.4050 0.0000
# 2 96.3436 81.5996 106.0040 0.0000 -2.3149 0.0000
# 3 70.4069 106.0040 409.7610 0.0000 -75.6264 0.0000
# 4 0.0000 0.0000 0.0000 76.3753 0.0000 -13.2799
# 5 79.4050 -2.3149 -75.6264 0.0000 99.1226 0.0000
# 6 0.0000 0.0000 0.0000 -13.2799 0.0000 81.3295
#
#
#
# Elastic Compliance Matrix: (Units=1/GPa)
#
#
# Indices 1 2 3 4 5 6 
#
# 1 0.003493 -0.004095 -0.000087 0.000000 -0.002960 0.000000
# 2 -0.004095 0.024531 -0.005740 0.000000 -0.000526 0.000000
# 3 -0.000087 -0.005740 0.004572 0.000000 0.003424 0.000000
# 4 0.000000 0.000000 0.000000 0.013476 0.000000 0.002200
# 5 -0.002960 -0.000526 0.003424 0.000000 0.015060 0.000000
# 6 0.000000 0.000000 0.000000 0.002200 0.000000 0.012655
#
#
# Mechanical properties :
#
#
# Convention : Reuss Voigt Hill
#
# Bulk Modulus (GPa) = 78.41348 167.23921 122.82635
# Shear Modulus (GPa) = 51.08234 97.15812 74.12023
#
# Velocity S-wave (km/s) = 3.97673 5.48441 4.79025
# Velocity P-wave (km/s) = 6.73509 9.58539 8.28376
#
# Compressibility (1/GPa) = 0.01275291
#
# Stress axis : x y z
#
# Youngs Moduli (GPa) = 286.28618 40.76509 218.71205
#
# Poissons Ratio (x) = 0.16692 0.01908
# Poissons Ratio (y) = 1.17228 1.25530
# Poissons Ratio (z) = 0.02498 0.23397
#
# Static dielectric constant tensor:
#      x y z
#    x 2.415100 0.000000 -0.021530 
#    y 0.000000 2.725310 0.000000 
#    z -0.021530 0.000000 2.402280 
# 
# From -- ./inp_files/8427.got.cif
#   From: 2010.05.17/outbox.cif.g08.bks.cpg/sg3_5_cif.got.tgz:8427.got - 2010.06.03 18:33:08.
