data_PCOD9112271
_publ_section_title
;
Structure prediction by ZEFSAII (Michael W. Deem and Ramdas Pophale) SiO2 
 PCOD9112271
Probable space group: P -1
;
_chemical_formula_sum "Si O2"
_cell_formula_units_Z 10
_cell_length_a 10.752491
_cell_length_b 5.178090
_cell_length_c 7.961579
_cell_angle_alpha 62.308658
_cell_angle_beta 95.835508
_cell_angle_gamma 110.852476
_cell_volume 365.708868
_symmetry_space_group_name_H-M "P -1"
_symmetry_group_IT_number 2
_symmetry_cell_setting 'triclinic'
loop_
_space_group_symop_operation_xyz
x,y,z
-x,-y,-z
loop_
_atom_site_type_symbol
_atom_site_label
_atom_site_fract_x
_atom_site_fract_y
_atom_site_fract_z
Si Si1 0.874239 0.885910 0.141406
Si Si2 0.527038 0.206120 0.671248
Si Si3 0.199298 0.711359 0.466257
Si Si4 0.096092 0.273495 0.264396
Si Si5 0.683534 0.227482 0.018948
O O1 0.834890 0.545763 0.316217
O O2 0.744264 0.964172 0.050287
O O3 0.944064 0.124362 0.232662
O O4 0.000000 0.000000 0.000000
O O5 0.500000 0.500000 0.500000
O O6 0.643339 0.154403 0.594141
O O7 0.397287 0.904651 0.783165
O O8 0.588357 0.282034 0.845262
O O9 0.128505 0.515030 0.349185
O O10 0.146003 0.990926 0.398348
O O11 0.188771 0.459629 0.066589
#
# Coordination Sequence:
#
# PCOD9112271 Si02
#       5
#     2   2   2   2   2
#     4  12  24  44  72 109 149 186 239 302 354 428
#     4  10  20  45  73 100 145 186 239 296 354 424
#     4  11  25  47  74 106 142 196 238 290 364 425
#     4  11  25  46  72 106 148 187 237 293 360 434
#     4  10  23  41  72 107 140 186 244 290 358 424
#
# _framework density 27.344158
#
# number of rings (size 3 to 8) (size 9 to 14) (size 15 to 20)
#    0.000    1.200    2.000    4.200    0.000    4.000 
#    0.000    6.000    0.000    0.000    0.000    0.000 
#    0.000    0.000    0.000    0.000    0.000    0.000 
#
# Total GULP energy -56114.070565 kJ/mol
# GULP energy per Si atom -5611.407056 kJ/mol
# Density = 2.728192 g / cm^3
# Si number density = 27.344158 Si / 1000 Ang^3
#
#
#
# Elastic Constant Matrix: (Units=GPa)
#
#
# Indices 1 2 3 4 5 6 
#
# 1 122.0171 27.9951 76.9827 -6.1949 0.3234 4.9655
# 2 27.9951 98.6356 48.1781 -15.1159 -3.8921 -2.7265
# 3 76.9827 48.1781 248.4048 -35.8134 -16.5906 4.3714
# 4 -6.1949 -15.1159 -35.8134 46.9902 -3.0521 -13.2533
# 5 0.3234 -3.8921 -16.5906 -3.0521 69.9108 -15.4833
# 6 4.9655 -2.7265 4.3714 -13.2533 -15.4833 36.9206
#
#
#
# Elastic Compliance Matrix: (Units=1/GPa)
#
#
# Indices 1 2 3 4 5 6 
#
# 1 0.010789 -0.001960 -0.003425 -0.002750 -0.001735 -0.002905
# 2 -0.001960 0.011957 -0.001154 0.003672 0.001254 0.003127
# 3 -0.003425 -0.001154 0.006066 0.004542 0.002067 0.002154
# 4 -0.002750 0.003672 0.004542 0.029589 0.005470 0.013019
# 5 -0.001735 0.001254 0.002067 0.005470 0.017157 0.009240
# 6 -0.002905 0.003127 0.002154 0.013019 0.009240 0.036000
#
#
# Mechanical properties :
#
#
# Convention : Reuss Voigt Hill
#
# Bulk Modulus (GPa) = 63.55054 86.15215 74.85134
# Shear Modulus (GPa) = 38.49734 51.82443 45.16089
#
# Velocity S-wave (km/s) = 3.75625 4.35819 4.06836
# Velocity P-wave (km/s) = 6.48876 7.54321 7.03577
#
# Compressibility (1/GPa) = 0.01573551
#
# Stress axis : x y z
#
# Youngs Moduli (GPa) = 92.68527 83.63552 164.85851
#
# Poissons Ratio (x) = 0.16389 0.56462
# Poissons Ratio (y) = 0.18163 0.19017
# Poissons Ratio (z) = 0.31744 0.09648
#
# Static dielectric constant tensor:
#      x y z
#    x 2.123610 0.061890 -0.021090 
#    y 0.061890 2.221430 0.126400 
#    z -0.021090 0.126400 2.148060 
# 
# From -- ./inp_files/58100.got.cif
#   From: 2010.05.17/outbox.cif.g08.bks.cpg/sg2_30_cif.got.tgz:58100.got - 2010.06.03 11:33:40.
