data_PCOD9112239
_publ_section_title
;
Structure prediction by ZEFSAII (Michael W. Deem and Ramdas Pophale) SiO2 
 PCOD9112239
Probable space group: P -1
;
_chemical_formula_sum "Si O2"
_cell_formula_units_Z 14
_cell_length_a 14.414040
_cell_length_b 5.417650
_cell_length_c 14.252775
_cell_angle_alpha 71.831950
_cell_angle_beta 30.458799
_cell_angle_gamma 63.946389
_cell_volume 501.388177
_symmetry_space_group_name_H-M "P -1"
_symmetry_group_IT_number 2
_symmetry_cell_setting 'triclinic'
loop_
_space_group_symop_operation_xyz
x,y,z
-x,-y,-z
loop_
_atom_site_type_symbol
_atom_site_label
_atom_site_fract_x
_atom_site_fract_y
_atom_site_fract_z
Si Si1 0.932556 0.953239 0.837401
Si Si2 0.940933 0.333596 0.948505
Si Si3 0.495106 0.530762 0.357242
Si Si4 0.833051 0.299912 0.517052
Si Si5 0.449787 0.786958 0.954107
Si Si6 0.785212 0.835360 0.731479
Si Si7 0.647436 0.772796 0.333589
O O1 0.920167 0.646987 0.900113
O O2 0.060613 0.909058 0.636513
O O3 0.008849 0.103652 0.834667
O O4 0.713943 0.173501 0.984193
O O5 0.129190 0.250348 0.863288
O O6 0.727092 0.342430 0.169380
O O7 0.373759 0.530861 0.369977
O O8 0.538254 0.799203 0.326259
O O9 0.360077 0.486009 0.565166
O O10 0.011076 0.391475 0.387289
O O11 0.803600 0.124368 0.650407
O O12 0.669569 0.776036 0.751311
O O13 0.500000 0.500000 0.000000
O O14 0.346881 0.071203 0.071049
O O15 0.500000 0.000000 0.500000
#
# Coordination Sequence:
#
# PCOD9112239 Si02
#       7
#     2   2   2   2   2   2   2
#     4  11  26  45  72 105 147 190 240 296 357 429
#     4  12  27  49  75 107 144 190 239 297 360 432
#     4  11  25  44  75 103 145 188 242 292 366 423
#     4  10  20  45  68 100 138 192 234 300 351 426
#     4  10  22  38  65  99 141 187 238 297 347 426
#     4   9  21  40  66  96 142 178 245 285 362 412
#     4  11  26  47  73 108 145 187 239 302 358 435
#
# _framework density 27.922477000000001
#
# number of rings (size 3 to 8) (size 9 to 14) (size 15 to 20)
#    0.000    1.429    1.429    2.143   12.000    0.571 
#    5.143    2.143    0.000    0.000    0.000    0.000 
#    0.000    0.000    0.000    0.000    0.000    0.000 
#
# Total GULP energy -78087.171348 kJ/mol
# GULP energy per Si atom -5577.655096 kJ/mol
# Density = 2.785892 g / cm^3
# Si number density = 27.922477 Si / 1000 Ang^3
#
#
#
# Elastic Constant Matrix: (Units=GPa)
#
#
# Indices 1 2 3 4 5 6 
#
# 1 142.0468 14.3666 33.8918 2.9923 -55.1993 -6.9776
# 2 14.3666 104.7739 14.6940 16.6290 -8.0545 -8.4926
# 3 33.8918 14.6940 161.3845 24.2588 -28.3398 4.7412
# 4 2.9923 16.6290 24.2588 32.7048 3.7417 1.9332
# 5 -55.1993 -8.0545 -28.3398 3.7417 69.3031 8.0228
# 6 -6.9776 -8.4926 4.7412 1.9332 8.0228 25.0992
#
#
#
# Elastic Compliance Matrix: (Units=1/GPa)
#
#
# Indices 1 2 3 4 5 6 
#
# 1 0.010377 -0.000508 -0.000555 -0.001216 0.008004 0.000353
# 2 -0.000508 0.010896 0.000008 -0.005806 0.000744 0.003753
# 3 -0.000555 0.000008 0.007879 -0.006050 0.003368 -0.002251
# 4 -0.001216 -0.005806 -0.006050 0.038943 -0.005959 -0.002255
# 5 0.008004 0.000744 0.003368 -0.005959 0.023181 -0.005110
# 6 0.000353 0.003753 -0.002251 -0.002255 -0.005110 0.043442
#
#
# Mechanical properties :
#
#
# Convention : Reuss Voigt Hill
#
# Bulk Modulus (GPa) = 36.98045 59.34557 48.16301
# Shear Modulus (GPa) = 34.28342 48.43827 41.36085
#
# Velocity S-wave (km/s) = 3.50781 4.16954 3.85291
# Velocity P-wave (km/s) = 5.44785 6.66933 6.08929
#
# Compressibility (1/GPa) = 0.02704131
#
# Stress axis : x y z
#
# Youngs Moduli (GPa) = 96.36645 91.77750 126.91674
#
# Poissons Ratio (x) = 0.04664 0.07044
# Poissons Ratio (y) = 0.04897 -0.00099
# Poissons Ratio (z) = 0.05349 -0.00071
#
# Static dielectric constant tensor:
#      x y z
#    x 2.447620 -0.026990 -0.026400 
#    y -0.026990 2.558250 -0.165110 
#    z -0.026400 -0.165110 2.336070 
# 
# From -- ./inp_files/36076.got.cif
#   From: 2010.05.17/outbox.cif.g08.bks.cpg/sg2_19_cif.got.tgz:36076.got - 2010.06.03 11:33:40.
