data_PCOD9112245
_publ_section_title
;
Structure prediction by ZEFSAII (Michael W. Deem and Ramdas Pophale) SiO2 
 PCOD9112245
Probable space group: P -1
;
_chemical_formula_sum "Si O2"
_cell_formula_units_Z 10
_cell_length_a 6.914793
_cell_length_b 8.940191
_cell_length_c 15.180399
_cell_angle_alpha 142.110770
_cell_angle_beta 129.145347
_cell_angle_gamma 70.184480
_cell_volume 421.259498
_symmetry_space_group_name_H-M "P -1"
_symmetry_group_IT_number 2
_symmetry_cell_setting 'triclinic'
loop_
_space_group_symop_operation_xyz
x,y,z
-x,-y,-z
loop_
_atom_site_type_symbol
_atom_site_label
_atom_site_fract_x
_atom_site_fract_y
_atom_site_fract_z
Si Si1 0.542991 0.185505 0.516891
Si Si2 0.563254 0.979855 0.235764
Si Si3 0.280522 0.791804 0.898296
Si Si4 0.122415 0.287238 0.709539
Si Si5 0.754392 0.545278 0.531232
O O1 0.344622 0.347653 0.533434
O O2 0.855611 0.352818 0.683931
O O3 0.500000 0.000000 0.500000
O O4 0.482467 0.019937 0.331210
O O5 0.710377 0.768067 0.187295
O O6 0.765023 0.257945 0.391710
O O7 0.326261 0.908192 0.064661
O O8 0.289617 0.504865 0.791123
O O9 0.007549 0.732285 0.739826
O O10 0.500000 0.000000 0.000000
O O11 0.000000 0.000000 0.500000
O O12 0.500000 0.500000 0.500000
#
# Coordination Sequence:
#
# PCOD9112245 Si02
#       5
#     2   2   2   2   2
#     4  10  22  41  70  93 131 180 219 265 340 393
#     4  10  23  42  71  92 136 174 222 274 330 387
#     4  12  25  40  69 106 131 171 231 273 328 399
#     4  10  20  45  68  94 135 177 217 274 329 395
#     4  10  21  45  66  94 138 176 217 279 334 389
#
# _framework density 23.738334999999999
#
# number of rings (size 3 to 8) (size 9 to 14) (size 15 to 20)
#    0.000    1.600    6.000    0.600    2.800    7.200 
#    0.000    1.000    0.000    0.000    0.000    0.000 
#    0.000    0.000    0.000    0.000    0.000    0.000 
#
# Total GULP energy -55776.020347 kJ/mol
# GULP energy per Si atom -5577.602035 kJ/mol
# Density = 2.368431 g / cm^3
# Si number density = 23.738335 Si / 1000 Ang^3
#
#
#
# Elastic Constant Matrix: (Units=GPa)
#
#
# Indices 1 2 3 4 5 6 
#
# 1 63.0128 48.7690 41.7951 -8.6281 11.2329 12.3328
# 2 48.7690 241.3459 77.5848 -2.0043 20.9643 8.6611
# 3 41.7951 77.5848 163.1243 -7.9140 26.5084 8.8365
# 4 -8.6281 -2.0043 -7.9140 46.2693 5.1953 2.5580
# 5 11.2329 20.9643 26.5084 5.1953 33.4735 -11.1108
# 6 12.3328 8.6611 8.8365 2.5580 -11.1108 39.1505
#
#
#
# Elastic Compliance Matrix: (Units=1/GPa)
#
#
# Indices 1 2 3 4 5 6 
#
# 1 0.023701 -0.002889 -0.002725 0.005174 -0.007687 -0.008732
# 2 -0.002889 0.005351 -0.001644 -0.000459 -0.001067 -0.000175
# 3 -0.002725 -0.001644 0.008853 0.001781 -0.006225 -0.002659
# 4 0.005174 -0.000459 0.001781 0.024154 -0.008581 -0.005944
# 5 -0.007687 -0.001067 -0.006225 -0.008581 0.045174 0.017443
# 6 -0.008732 -0.000175 -0.002659 -0.005944 0.017443 0.034271
#
#
# Mechanical properties :
#
#
# Convention : Reuss Voigt Hill
#
# Bulk Modulus (GPa) = 42.75774 89.30897 66.03335
# Shear Modulus (GPa) = 30.52191 43.73426 37.12808
#
# Velocity S-wave (km/s) = 3.58965 4.29691 3.95911
# Velocity P-wave (km/s) = 5.93565 7.89442 6.98405
#
# Compressibility (1/GPa) = 0.02338758
#
# Stress axis : x y z
#
# Youngs Moduli (GPa) = 42.19175 186.88337 112.96112
#
# Poissons Ratio (x) = 0.53994 0.30785
# Poissons Ratio (y) = 0.12190 0.18573
# Poissons Ratio (z) = 0.11498 0.30727
#
# Static dielectric constant tensor:
#      x y z
#    x 2.080160 -0.090080 -0.030280 
#    y -0.090080 2.048230 0.032960 
#    z -0.030280 0.032960 1.936440 
# 
# From -- ./inp_files/183671.got.cif
#   From: 2010.05.17/outbox.cif.g08.bks.cpg/sg2_92_cif.got.tgz:183671.got - 2010.06.03 11:33:40.
