data_PCOD9112284
_publ_section_title
;
Structure prediction by ZEFSAII (Michael W. Deem and Ramdas Pophale) SiO2 
 PCOD9112284
Probable space group: P -1
;
_chemical_formula_sum "Si O2"
_cell_formula_units_Z 14
_cell_length_a 7.300407
_cell_length_b 10.878606
_cell_length_c 9.050743
_cell_angle_alpha 65.041149
_cell_angle_beta 74.809779
_cell_angle_gamma 113.538950
_cell_volume 511.039252
_symmetry_space_group_name_H-M "P -1"
_symmetry_group_IT_number 2
_symmetry_cell_setting 'triclinic'
loop_
_space_group_symop_operation_xyz
x,y,z
-x,-y,-z
loop_
_atom_site_type_symbol
_atom_site_label
_atom_site_fract_x
_atom_site_fract_y
_atom_site_fract_z
Si Si1 0.864233 0.431493 0.276430
Si Si2 0.532216 0.515314 0.755598
Si Si3 0.761027 0.197767 0.905996
Si Si4 0.267006 0.219921 0.202601
Si Si5 0.376057 0.859963 0.722832
Si Si6 0.050142 0.079596 0.785934
Si Si7 0.558672 0.280029 0.672841
O O1 0.671619 0.465763 0.257680
O O2 0.845168 0.310865 0.214824
O O3 0.767278 0.324296 0.500280
O O4 0.098065 0.608678 0.171389
O O5 0.744028 0.682406 0.705837
O O6 0.609185 0.448974 0.643191
O O7 0.403251 0.362940 0.977469
O O8 0.549892 0.171137 0.867057
O O9 0.699655 0.105710 0.123933
O O10 0.919812 0.169281 0.783836
O O11 0.434479 0.170900 0.249437
O O12 0.048913 0.057080 0.253361
O O13 0.500000 0.000000 0.500000
O O14 0.327834 0.203036 0.663415
O O15 0.000000 0.000000 0.000000
#
# Coordination Sequence:
#
# PCOD9112284 Si02
#       7
#     2   2   2   2   2   2   2
#     4  11  25  47  76 112 151 205 256 312 380 453
#     4  10  20  45  75 103 152 196 256 303 375 450
#     4  12  26  48  80 107 156 208 250 311 389 452
#     4  10  22  44  74 108 150 201 247 310 382 449
#     4  11  26  46  73 114 156 197 256 322 379 453
#     4  12  25  44  76 114 148 199 253 307 388 443
#     4  12  25  47  80 112 153 194 257 316 369 461
#
# _framework density 27.395157000000001
#
# number of rings (size 3 to 8) (size 9 to 14) (size 15 to 20)
#    0.000    0.857    4.286    1.286    4.000    1.143 
#    2.571    2.857    3.143    0.000    0.000    0.000 
#    0.000    0.000    0.000    0.000    0.000    0.000 
#
# Total GULP energy -78571.158717 kJ/mol
# GULP energy per Si atom -5612.225623 kJ/mol
# Density = 2.733280 g / cm^3
# Si number density = 27.395157 Si / 1000 Ang^3
#
#
#
# Elastic Constant Matrix: (Units=GPa)
#
#
# Indices 1 2 3 4 5 6 
#
# 1 120.5746 65.7730 31.0990 5.7530 19.6996 24.5580
# 2 65.7730 244.3401 24.8428 43.3172 -1.8321 44.7040
# 3 31.0990 24.8428 125.4426 -3.6996 12.0367 2.6351
# 4 5.7530 43.3172 -3.6996 44.4263 -4.6682 9.1020
# 5 19.6996 -1.8321 12.0367 -4.6682 45.4921 -4.1053
# 6 24.5580 44.7040 2.6351 9.1020 -4.1053 53.9261
#
#
#
# Elastic Compliance Matrix: (Units=1/GPa)
#
#
# Indices 1 2 3 4 5 6 
#
# 1 0.011615 -0.002484 -0.001812 0.001009 -0.004879 -0.003684
# 2 -0.002484 0.006350 -0.000799 -0.005213 0.000723 -0.003159
# 3 -0.001812 -0.000799 0.008736 0.001453 -0.001345 0.000713
# 4 0.001009 -0.005213 0.001453 0.027930 0.001763 -0.000789
# 5 -0.004879 0.000723 -0.001345 0.001763 0.024958 0.003291
# 6 -0.003684 -0.003159 0.000713 -0.000789 0.003291 0.023189
#
#
# Mechanical properties :
#
#
# Convention : Reuss Voigt Hill
#
# Bulk Modulus (GPa) = 60.56182 81.53187 71.04685
# Shear Modulus (GPa) = 42.20426 53.34509 47.77467
#
# Velocity S-wave (km/s) = 3.92927 4.41755 4.18054
# Velocity P-wave (km/s) = 6.53761 7.47300 7.02090
#
# Compressibility (1/GPa) = 0.01651205
#
# Stress axis : x y z
#
# Youngs Moduli (GPa) = 86.09313 157.47860 114.46605
#
# Poissons Ratio (x) = 0.39116 0.20746
# Poissons Ratio (y) = 0.21385 0.09140
# Poissons Ratio (z) = 0.15603 0.12575
#
# Static dielectric constant tensor:
#      x y z
#    x 2.079060 0.012910 -0.002740 
#    y 0.012910 2.164070 -0.042720 
#    z -0.002740 -0.042720 2.125060 
# 
# From -- ./inp_files/157480.got.cif
#   From: 2010.05.17/outbox.cif.g08.bks.cpg/sg2_79_cif.got.tgz:157480.got - 2010.06.03 11:33:40.
