data_PCOD9112503
_publ_section_title
;
Structure prediction by ZEFSAII (Michael W. Deem and Ramdas Pophale) SiO2 
 PCOD9112503
Probable space group: P 2
;
_chemical_formula_sum "Si O2"
_cell_formula_units_Z 15
_cell_length_a 10.476373
_cell_length_b 8.560417
_cell_length_c 9.660853
_cell_angle_alpha 90.000000
_cell_angle_beta 78.602961
_cell_angle_gamma 90.000000
_cell_volume 849.321473
_symmetry_space_group_name_H-M "P 2"
_symmetry_group_IT_number 3
_symmetry_cell_setting 'monoclinic'
loop_
_space_group_symop_operation_xyz
x,y,z
-x,y,-z
loop_
_atom_site_type_symbol
_atom_site_label
_atom_site_fract_x
_atom_site_fract_y
_atom_site_fract_z
Si Si1 0.918480 0.062650 0.285234
Si Si2 0.141667 0.789244 0.487491
Si Si3 0.790960 0.978270 0.789757
Si Si4 0.500000 0.843406 0.500000
Si Si5 0.322484 0.273869 0.637930
Si Si6 0.413515 0.123639 0.349701
Si Si7 0.309355 0.634130 0.686554
Si Si8 0.146005 0.819380 0.939391
O O1 0.822928 0.209433 0.309294
O O2 0.883895 0.949989 0.421589
O O3 0.879586 0.962024 0.159922
O O4 0.074507 0.078641 0.248029
O O5 0.192684 0.840267 0.327182
O O6 0.227263 0.679920 0.566568
O O7 0.000000 0.713766 0.500000
O O8 0.669504 0.085023 0.768226
O O9 0.789373 0.892898 0.937896
O O10 0.437470 0.736800 0.631037
O O11 0.405619 0.964493 0.442849
O O12 0.354136 0.251970 0.467331
O O13 0.433963 0.170508 0.692709
O O14 0.335098 0.451395 0.681632
O O15 0.233684 0.696586 0.837074
O O16 0.000000 0.755357 0.000000
#
# Coordination Sequence:
#
# PCOD9112503 Si02
#       8
#     2   2   2   1   2   2   2   2
#     4   9  17  34  55  80 108 148 189 227 283 337
#     4   9  16  31  55  81 105 140 193 246 270 315
#     4  10  17  32  61  84 107 133 200 251 268 315
#     4  10  18  34  60  80 104 148 204 242 266 332
#     4  10  20  33  54  82 117 150 184 230 296 352
#     4  10  18  33  56  86 105 144 199 243 277 320
#     4  11  20  36  56  84 117 156 185 226 299 354
#     4   9  19  35  60  83 110 151 192 236 284 340
#
# _framework density 17.661156999999999
#
# number of rings (size 3 to 8) (size 9 to 14) (size 15 to 20)
#    0.000    2.400    2.667    4.000    0.000    0.000 
#    2.400    4.667    2.933    1.600    0.000    0.000 
#    0.000    0.000    0.000    0.000    0.000    0.000 
#
# Total GULP energy -83513.325243 kJ/mol
# GULP energy per Si atom -5567.555016 kJ/mol
# Density = 1.762096 g / cm^3
# Si number density = 17.661157 Si / 1000 Ang^3
#
#
#
# Elastic Constant Matrix: (Units=GPa)
#
#
# Indices 1 2 3 4 5 6 
#
# 1 84.0834 33.5607 31.5113 0.0000 10.7450 0.0000
# 2 33.5607 74.7751 24.8722 0.0000 -5.8496 0.0000
# 3 31.5113 24.8722 101.5503 0.0000 10.3557 0.0000
# 4 0.0000 0.0000 0.0000 13.0609 0.0000 -5.0242
# 5 10.7450 -5.8496 10.3557 0.0000 34.6587 0.0000
# 6 0.0000 0.0000 0.0000 -5.0242 0.0000 12.4010
#
#
#
# Elastic Compliance Matrix: (Units=1/GPa)
#
#
# Indices 1 2 3 4 5 6 
#
# 1 0.016373 -0.006816 -0.002863 0.000000 -0.005371 0.000000
# 2 -0.006816 0.017855 -0.002868 0.000000 0.005984 0.000000
# 3 -0.002863 -0.002868 0.011755 0.000000 -0.003109 0.000000
# 4 0.000000 0.000000 0.000000 0.090700 0.000000 0.036747
# 5 -0.005371 0.005984 -0.003109 0.000000 0.032457 0.000000
# 6 0.000000 0.000000 0.000000 0.036747 0.000000 0.095527
#
#
# Mechanical properties :
#
#
# Convention : Reuss Voigt Hill
#
# Bulk Modulus (GPa) = 47.87551 48.92190 48.39870
# Shear Modulus (GPa) = 16.85061 23.38843 20.11952
#
# Velocity S-wave (km/s) = 3.09221 3.64302 3.37886
# Velocity P-wave (km/s) = 6.31789 6.74210 6.53344
#
# Compressibility (1/GPa) = 0.02088751
#
# Stress axis : x y z
#
# Youngs Moduli (GPa) = 61.07607 56.00717 85.06756
#
# Poissons Ratio (x) = 0.38176 0.24358
# Poissons Ratio (y) = 0.41631 0.24399
# Poissons Ratio (z) = 0.17489 0.16064
#
# Static dielectric constant tensor:
#      x y z
#    x 1.701360 0.000000 -0.014130 
#    y 0.000000 1.571380 0.000000 
#    z -0.014130 0.000000 1.622560 
# 
# From -- ./inp_files/7001.got.cif
#   From: 2010.05.17/outbox.cif.g08.bks.cpg/sg3_4_cif.got.tgz:7001.got - 2010.06.03 18:33:08.
