data_PCOD9112247
_publ_section_title
;
Structure prediction by ZEFSAII (Michael W. Deem and Ramdas Pophale) SiO2 
 PCOD9112247
Probable space group: P -1
;
_chemical_formula_sum "Si O2"
_cell_formula_units_Z 16
_cell_length_a 23.670310
_cell_length_b 6.615921
_cell_length_c 10.742409
_cell_angle_alpha 65.900589
_cell_angle_beta 148.422100
_cell_angle_gamma 128.318957
_cell_volume 661.063904
_symmetry_space_group_name_H-M "P -1"
_symmetry_group_IT_number 2
_symmetry_cell_setting 'triclinic'
loop_
_space_group_symop_operation_xyz
x,y,z
-x,-y,-z
loop_
_atom_site_type_symbol
_atom_site_label
_atom_site_fract_x
_atom_site_fract_y
_atom_site_fract_z
Si Si1 0.688647 0.488573 0.815960
Si Si2 0.220466 0.283669 0.341670
Si Si3 0.002160 0.762946 0.932471
Si Si4 0.566561 0.766604 0.256552
Si Si5 0.306652 0.707792 0.735051
Si Si6 0.253509 0.877823 0.849745
Si Si7 0.070025 0.084645 0.476270
Si Si8 0.423318 0.289116 0.283220
O O1 0.743432 0.567318 0.759722
O O2 0.530855 0.258611 0.558922
O O3 0.682793 0.709586 0.829934
O O4 0.767668 0.388500 0.060078
O O5 0.145535 0.349950 0.277324
O O6 0.351329 0.330561 0.630267
O O7 0.109363 0.971969 0.179425
O O8 0.024058 0.927391 0.805481
O O9 0.000000 0.500000 0.000000
O O10 0.516374 0.596600 0.330908
O O11 0.668763 0.087918 0.380592
O O12 0.434692 0.704620 0.966891
O O13 0.308575 0.872376 0.819285
O O14 0.185301 0.404902 0.607408
O O15 0.134975 0.919263 0.609424
O O16 0.355268 0.107149 0.080370
O O17 0.000000 0.000000 0.500000
#
# Coordination Sequence:
#
# PCOD9112247 Si02
#       8
#     2   2   2   2   2   2   2   2
#     4  10  22  40  67  98 142 178 226 282 348 415
#     4  10  24  45  70  98 133 183 232 291 344 404
#     4  11  26  48  70  97 137 183 245 285 340 417
#     4  10  20  45  68  99 141 175 218 292 349 413
#     4  11  24  44  67 103 139 180 224 285 357 415
#     4  12  23  42  66 101 137 181 234 279 352 412
#     4  12  29  47  70 101 142 186 237 290 345 419
#     4  10  21  41  64 104 140 176 222 285 344 421
#
# _framework density 24.203409000000001
#
# number of rings (size 3 to 8) (size 9 to 14) (size 15 to 20)
#    0.000    1.250    2.500    1.875    5.250    2.000 
#   13.500    0.000    0.000    0.000    0.000    0.000 
#    0.000    0.000    0.000    0.000    0.000    0.000 
#
# Total GULP energy -89275.929082 kJ/mol
# GULP energy per Si atom -5579.745568 kJ/mol
# Density = 2.414832 g / cm^3
# Si number density = 24.203409 Si / 1000 Ang^3
#
#
#
# Elastic Constant Matrix: (Units=GPa)
#
#
# Indices 1 2 3 4 5 6 
#
# 1 128.6379 37.7857 33.5108 -10.2514 25.8110 -6.2435
# 2 37.7857 76.2283 22.5214 -15.8724 7.3863 -8.8792
# 3 33.5108 22.5214 91.6420 -17.6382 22.2938 -19.2061
# 4 -10.2514 -15.8724 -17.6382 49.7273 -5.6253 -0.8489
# 5 25.8110 7.3863 22.2938 -5.6253 35.8152 5.1207
# 6 -6.2435 -8.8792 -19.2061 -0.8489 5.1207 36.2607
#
#
#
# Elastic Compliance Matrix: (Units=1/GPa)
#
#
# Indices 1 2 3 4 5 6 
#
# 1 0.010602 -0.004244 -0.001144 -0.000263 -0.006246 0.001056
# 2 -0.004244 0.016721 -0.001407 0.004093 0.000756 0.002608
# 3 -0.001144 -0.001407 0.017150 0.004404 -0.010313 0.010102
# 4 -0.000263 0.004093 0.004404 0.022951 -0.000345 0.003876
# 5 -0.006246 0.000756 -0.010313 -0.000345 0.040356 -0.012060
# 6 0.001056 0.002608 0.010102 0.003876 -0.012060 0.035543
#
#
# Mechanical properties :
#
#
# Convention : Reuss Voigt Hill
#
# Bulk Modulus (GPa) = 32.38032 53.79378 43.08705
# Shear Modulus (GPa) = 29.90338 37.87330 33.88834
#
# Velocity S-wave (km/s) = 3.51879 3.96004 3.74591
# Velocity P-wave (km/s) = 5.46961 6.57139 6.04565
#
# Compressibility (1/GPa) = 0.03088296
#
# Stress axis : x y z
#
# Youngs Moduli (GPa) = 94.32410 59.80657 58.31036
#
# Poissons Ratio (x) = 0.25381 0.06669
# Poissons Ratio (y) = 0.40030 0.08204
# Poissons Ratio (z) = 0.10788 0.08414
#
# Static dielectric constant tensor:
#      x y z
#    x 1.945880 0.008970 -0.043430 
#    y 0.008970 2.002170 -0.031420 
#    z -0.043430 -0.031420 2.119210 
# 
# From -- ./inp_files/473399.got.cif
#   From: 2010.05.17/outbox.cif.g08.bks.cpg/sg2_237_cif.got.tgz:473399.got - 2010.06.03 11:33:40.
