data_PCOD9112210
_publ_section_title
;
Structure prediction by ZEFSAII (Michael W. Deem and Ramdas Pophale) SiO2 
 PCOD9112210
Probable space group: P -1
;
_chemical_formula_sum "Si O2"
_cell_formula_units_Z 13
_cell_length_a 14.956293
_cell_length_b 10.948555
_cell_length_c 14.766097
_cell_angle_alpha 43.078751
_cell_angle_beta 18.530873
_cell_angle_gamma 39.874923
_cell_volume 492.625602
_symmetry_space_group_name_H-M "P -1"
_symmetry_group_IT_number 2
_symmetry_cell_setting 'triclinic'
loop_
_space_group_symop_operation_xyz
x,y,z
-x,-y,-z
loop_
_atom_site_type_symbol
_atom_site_label
_atom_site_fract_x
_atom_site_fract_y
_atom_site_fract_z
Si Si1 0.044309 0.516220 0.052610
Si Si2 0.000000 0.500000 0.500000
Si Si3 0.301791 0.102057 0.752895
Si Si4 0.389156 0.611467 0.335119
Si Si5 0.187730 0.064741 0.500319
Si Si6 0.489911 0.284787 0.297567
Si Si7 0.320869 0.958016 0.107328
O O1 0.827698 0.457061 0.359202
O O2 0.972429 0.737874 0.023471
O O3 0.000000 0.500000 0.000000
O O4 0.368227 0.364778 0.843220
O O5 0.990605 0.280164 0.603885
O O6 0.251476 0.399636 0.390235
O O7 0.595473 0.050656 0.563560
O O8 0.263791 0.898873 0.882922
O O9 0.353093 0.192169 0.559403
O O10 0.583623 0.446281 0.169147
O O11 0.227172 0.791151 0.334237
O O12 0.987545 0.952979 0.704062
O O13 0.424242 0.095892 0.184436
O O14 0.500000 0.000000 0.000000
#
# Coordination Sequence:
#
# PCOD9112210 Si02
#       7
#     2   1   2   2   2   2   2
#     4  11  25  45  74 102 147 189 237 292 361 435
#     4  10  20  44  76 106 142 186 236 302 362 442
#     4   9  22  43  71 109 142 186 233 302 358 431
#     4  11  24  46  73 104 139 190 243 298 354 426
#     4  11  25  46  74 106 144 191 244 297 369 422
#     4   9  19  43  73 105 143 181 237 295 365 426
#     4  12  27  48  72 103 147 195 248 300 355 429
#
# _framework density 26.389209000000001
#
# number of rings (size 3 to 8) (size 9 to 14) (size 15 to 20)
#    0.000    1.538    1.538    1.846    4.308    3.692 
#    0.000    0.000    0.000    0.000    0.000    0.000 
#    0.000    0.000    0.000    0.000    0.000    0.000 
#
# Total GULP energy -72379.286396 kJ/mol
# GULP energy per Si atom -5567.637415 kJ/mol
# Density = 2.632915 g / cm^3
# Si number density = 26.389209 Si / 1000 Ang^3
#
#
#
# Elastic Constant Matrix: (Units=GPa)
#
#
# Indices 1 2 3 4 5 6 
#
# 1 143.4849 38.0027 14.4997 9.5535 -18.7153 -33.9035
# 2 38.0027 101.7366 -1.4263 13.2105 18.6962 -31.6956
# 3 14.4997 -1.4263 93.2453 -7.9402 0.9861 -15.8195
# 4 9.5535 13.2105 -7.9402 29.9058 -7.6888 -0.3751
# 5 -18.7153 18.6962 0.9861 -7.6888 43.2163 5.6814
# 6 -33.9035 -31.6956 -15.8195 -0.3751 5.6814 57.2285
#
#
#
# Elastic Compliance Matrix: (Units=1/GPa)
#
#
# Indices 1 2 3 4 5 6 
#
# 1 0.009384 -0.003581 -0.001133 -0.000340 0.005218 0.002742
# 2 -0.003581 0.017394 0.001726 -0.009031 -0.011920 0.009113
# 3 -0.001133 0.001726 0.011775 0.002368 -0.001573 0.003711
# 4 -0.000340 -0.009031 0.002368 0.041114 0.011736 -0.005445
# 5 0.005218 -0.011920 -0.001573 0.011736 0.033627 -0.007207
# 6 0.002742 0.009113 0.003711 -0.005445 -0.007207 0.025851
#
#
# Mechanical properties :
#
#
# Convention : Reuss Voigt Hill
#
# Bulk Modulus (GPa) = 30.69781 48.95768 39.82775
# Shear Modulus (GPa) = 32.05534 45.22950 38.64242
#
# Velocity S-wave (km/s) = 3.48906 4.14447 3.83080
# Velocity P-wave (km/s) = 5.28103 6.44163 5.88999
#
# Compressibility (1/GPa) = 0.03257561
#
# Stress axis : x y z
#
# Youngs Moduli (GPa) = 106.56900 57.49205 84.92645
#
# Poissons Ratio (x) = 0.20590 0.09621
# Poissons Ratio (y) = 0.38167 -0.14659
# Poissons Ratio (z) = 0.12073 -0.09923
#
# Static dielectric constant tensor:
#      x y z
#    x 2.101530 0.153010 -0.060110 
#    y 0.153010 2.126400 -0.014640 
#    z -0.060110 -0.014640 1.998610 
# 
# From -- ./inp_files/531600.got.cif
#   From: 2010.05.17/outbox.cif.g08.bks.cpg/sg2_266_cif.got.tgz:531600.got - 2010.06.03 11:33:40.
