data_PCOD9112678
_publ_section_title
;
Structure prediction by ZEFSAII (Michael W. Deem and Ramdas Pophale) SiO2 
 PCOD9112678
Probable space group: P 2
;
_chemical_formula_sum "Si O2"
_cell_formula_units_Z 16
_cell_length_a 9.286860
_cell_length_b 12.653041
_cell_length_c 8.923819
_cell_angle_alpha 90.000000
_cell_angle_beta 125.700100
_cell_angle_gamma 90.000000
_cell_volume 851.558960
_symmetry_space_group_name_H-M "P 2"
_symmetry_group_IT_number 3
_symmetry_cell_setting 'monoclinic'
loop_
_space_group_symop_operation_xyz
x,y,z
-x,y,-z
loop_
_atom_site_type_symbol
_atom_site_label
_atom_site_fract_x
_atom_site_fract_y
_atom_site_fract_z
Si Si1 0.858294 0.957390 0.046312
Si Si2 0.151997 0.719247 0.971632
Si Si3 0.202617 0.342358 0.686659
Si Si4 0.183707 0.580528 0.701691
Si Si5 0.959350 0.152830 0.297596
Si Si6 0.474312 0.967047 0.662502
Si Si7 0.456715 0.756100 0.796479
Si Si8 0.654222 0.195119 0.472898
O O1 0.880445 0.836934 0.114920
O O2 0.664637 0.970224 0.857859
O O3 0.887855 0.045509 0.187619
O O4 0.000000 0.972544 0.000000
O O5 0.151644 0.631329 0.844446
O O6 0.351832 0.727578 0.158474
O O7 0.000000 0.700404 0.000000
O O8 0.254343 0.460719 0.759067
O O9 0.325423 0.288958 0.634764
O O10 0.000000 0.352533 0.500000
O O11 0.175691 0.251617 0.795610
O O12 0.323918 0.658357 0.707903
O O13 0.000000 0.581192 0.500000
O O14 0.148461 0.182308 0.338459
O O15 0.000000 0.139491 0.500000
O O16 0.500000 0.951995 0.500000
O O17 0.383916 0.863599 0.679025
O O18 0.383459 0.080902 0.625882
O O19 0.500000 0.773816 0.000000
O O20 0.500000 0.212315 0.500000
#
# Coordination Sequence:
#
# PCOD9112678 Si02
#       8
#     2   2   2   2   2   2   2   2
#     4  10  19  33  53  80 112 142 174 214 266 324
#     4   9  20  37  54  75 109 144 172 216 271 320
#     4   8  18  36  53  74 105 139 176 220 264 310
#     4  10  20  36  57  78 103 139 184 226 265 313
#     4   9  19  35  55  77 108 143 177 217 263 316
#     4  10  20  33  51  80 114 140 171 219 269 319
#     4   9  20  36  53  77 111 143 176 220 268 318
#     4   9  17  32  54  77 105 138 172 216 266 314
#
# _framework density 18.789071
#
# number of rings (size 3 to 8) (size 9 to 14) (size 15 to 20)
#    0.000    3.000    0.000    1.500    0.000   10.500 
#    0.000    9.375    0.000    0.000    0.000    0.000 
#    0.000    0.000    0.000    0.000    0.000    0.000 
#
# Total GULP energy -89155.893422 kJ/mol
# GULP energy per Si atom -5572.243339 kJ/mol
# Density = 1.874631 g / cm^3
# Si number density = 18.789071 Si / 1000 Ang^3
#
#
#
# Elastic Constant Matrix: (Units=GPa)
#
#
# Indices 1 2 3 4 5 6 
#
# 1 124.3186 68.2547 9.5259 0.0000 4.6812 0.0000
# 2 68.2547 208.1117 47.3238 0.0000 -12.9481 0.0000
# 3 9.5259 47.3238 35.5915 0.0000 -3.8070 0.0000
# 4 0.0000 0.0000 0.0000 -5.9763 0.0000 25.4754
# 5 4.6812 -12.9481 -3.8070 0.0000 10.6555 0.0000
# 6 0.0000 0.0000 0.0000 25.4754 0.0000 -2.8096
#
#
#
# Elastic Compliance Matrix: (Units=1/GPa)
#
#
# Indices 1 2 3 4 5 6 
#
# 1 0.010782 -0.004648 0.002271 0.000000 -0.009574 0.000000
# 2 -0.004648 0.009192 -0.009945 0.000000 0.009659 0.000000
# 3 0.002271 -0.009945 0.040875 0.000000 0.001522 0.000000
# 4 0.000000 0.000000 0.000000 0.004444 0.000000 0.040296
# 5 -0.009574 0.009659 0.001522 0.000000 0.110335 0.000000
# 6 0.000000 0.000000 0.000000 0.040296 0.000000 0.009453
#
#
# Mechanical properties :
#
#
# Convention : Reuss Voigt Hill
#
# Bulk Modulus (GPa) = 27.62114 68.69228 48.15671
# Shear Modulus (GPa) = 22.54342 16.56842 19.55592
#
# Velocity S-wave (km/s) = 3.46759 2.97275 3.22966
# Velocity P-wave (km/s) = 5.54660 6.95860 6.29233
#
# Compressibility (1/GPa) = 0.03620416
#
# Stress axis : x y z
#
# Youngs Moduli (GPa) = 92.74315 108.79047 24.46506
#
# Poissons Ratio (x) = 0.50570 -0.05555
# Poissons Ratio (y) = 0.43110 0.24330
# Poissons Ratio (z) = -0.21059 1.08189
#
# Static dielectric constant tensor:
#      x y z
#    x 1.705260 0.000000 0.019360 
#    y 0.000000 1.680480 0.000000 
#    z 0.019360 0.000000 1.651350 
# 
# From -- ./inp_files/6050.got.cif
#   From: 2010.05.17/outbox.cif.g08.bks.cpg/sg3_4_cif.got.tgz:6050.got - 2010.06.03 18:33:08.
