data_PCOD9112129
_publ_section_title
;
Structure prediction by ZEFSAII (Michael W. Deem and Ramdas Pophale) SiO2 
 PCOD9112129
Probable space group: P -1
;
_chemical_formula_sum "Si O2"
_cell_formula_units_Z 15
_cell_length_a 14.518899
_cell_length_b 8.571605
_cell_length_c 13.991327
_cell_angle_alpha 59.575192
_cell_angle_beta 30.890589
_cell_angle_gamma 77.598937
_cell_volume 669.103118
_symmetry_space_group_name_H-M "P -1"
_symmetry_group_IT_number 2
_symmetry_cell_setting 'triclinic'
loop_
_space_group_symop_operation_xyz
x,y,z
-x,-y,-z
loop_
_atom_site_type_symbol
_atom_site_label
_atom_site_fract_x
_atom_site_fract_y
_atom_site_fract_z
Si Si1 0.506995 0.220677 0.529762
Si Si2 0.664206 0.727979 0.745998
Si Si3 0.344518 0.143793 0.899671
Si Si4 0.111456 0.361700 0.129581
Si Si5 0.706980 0.125459 0.680721
Si Si6 0.512799 0.788051 0.662248
Si Si7 0.000000 0.500000 0.000000
Si Si8 0.091069 0.746572 0.345919
O O1 0.386103 0.227505 0.728419
O O2 0.411625 0.220047 0.510672
O O3 0.744489 0.400209 0.259054
O O4 0.510583 0.003751 0.603000
O O5 0.633490 0.761762 0.651123
O O6 0.895122 0.771344 0.538989
O O7 0.634252 0.894189 0.781294
O O8 0.500000 0.500000 0.000000
O O9 0.562940 0.201787 0.735100
O O10 0.232039 0.239576 0.032858
O O11 0.199295 0.892017 0.112234
O O12 0.942510 0.257946 0.393526
O O13 0.985483 0.362958 0.148953
O O14 0.280841 0.595286 0.934524
O O15 0.731050 0.154738 0.763098
O O16 0.000000 0.500000 0.500000
#
# Coordination Sequence:
#
# PCOD9112129 Si02
#       8
#     2   2   2   2   2   2   1   2
#     4  10  22  45  72 102 142 189 233 302 351 426
#     4  12  24  44  75 100 144 193 234 295 366 425
#     4  12  25  45  73 106 142 184 246 293 353 429
#     4  11  24  42  74 103 138 189 237 283 366 424
#     4  12  25  49  70 100 147 188 231 304 358 426
#     4  10  23  42  73 102 141 187 237 286 368 424
#     4  10  20  44  70  98 138 186 230 282 356 420
#     4  12  29  45  70 109 142 187 248 294 359 434
#
# _framework density 22.418068999999999
#
# number of rings (size 3 to 8) (size 9 to 14) (size 15 to 20)
#    0.000    0.800    4.000    2.400    5.600    2.133 
#    0.000    0.667    0.000    0.000    0.000    0.000 
#    0.000    0.000    0.000    0.000    0.000    0.000 
#
# Total GULP energy -83685.678486 kJ/mol
# GULP energy per Si atom -5579.045232 kJ/mol
# Density = 2.236704 g / cm^3
# Si number density = 22.418069 Si / 1000 Ang^3
#
#
#
# Elastic Constant Matrix: (Units=GPa)
#
#
# Indices 1 2 3 4 5 6 
#
# 1 145.0969 38.4086 24.7862 5.0419 -0.0662 -4.9604
# 2 38.4086 36.8785 11.6341 10.8492 -5.5086 -3.9640
# 3 24.7862 11.6341 104.5768 -0.5051 21.2451 11.1137
# 4 5.0419 10.8492 -0.5051 37.5593 -5.2128 1.1834
# 5 -0.0662 -5.5086 21.2451 -5.2128 41.1335 4.5606
# 6 -4.9604 -3.9640 11.1137 1.1834 4.5606 19.0558
#
#
#
# Elastic Compliance Matrix: (Units=1/GPa)
#
#
# Indices 1 2 3 4 5 6 
#
# 1 0.009791 -0.010253 -0.001154 0.001498 -0.000700 0.001163
# 2 -0.010253 0.044292 -0.004674 -0.010916 0.006002 0.008512
# 3 -0.001154 -0.004674 0.012351 0.001049 -0.006088 -0.007084
# 4 0.001498 -0.010916 0.001049 0.030073 0.002356 -0.004924
# 5 -0.000700 0.006002 -0.006088 0.002356 0.028826 -0.002428
# 6 0.001163 0.008512 -0.007084 -0.004924 -0.002428 0.059569
#
#
# Mechanical properties :
#
#
# Convention : Reuss Voigt Hill
#
# Bulk Modulus (GPa) = 29.17917 48.46776 38.82346
# Shear Modulus (GPa) = 21.88309 33.66459 27.77384
#
# Velocity S-wave (km/s) = 3.12771 3.87935 3.52363
# Velocity P-wave (km/s) = 5.10760 6.46008 5.82324
#
# Compressibility (1/GPa) = 0.03427103
#
# Stress axis : x y z
#
# Youngs Moduli (GPa) = 102.13933 22.57754 80.96772
#
# Poissons Ratio (x) = 0.23149 0.09343
# Poissons Ratio (y) = 1.04724 0.37844
# Poissons Ratio (z) = 0.11786 0.10553
#
# Static dielectric constant tensor:
#      x y z
#    x 1.862650 0.009000 0.046960 
#    y 0.009000 1.843760 -0.011860 
#    z 0.046960 -0.011860 1.824240 
# 
# From -- ./inp_files/504655.got.cif
#   From: 2010.05.17/outbox.cif.g08.bks.cpg/sg2_253_cif.got.tgz:504655.got - 2010.06.03 11:33:40.
