data_PCOD9112349
_publ_section_title
;
Structure prediction by ZEFSAII (Michael W. Deem and Ramdas Pophale) SiO2 
 PCOD9112349
Probable space group: P -1
;
_chemical_formula_sum "Si O2"
_cell_formula_units_Z 14
_cell_length_a 6.934043
_cell_length_b 9.455916
_cell_length_c 14.467622
_cell_angle_alpha 52.634637
_cell_angle_beta 127.324746
_cell_angle_gamma 133.941286
_cell_volume 513.662380
_symmetry_space_group_name_H-M "P -1"
_symmetry_group_IT_number 2
_symmetry_cell_setting 'triclinic'
loop_
_space_group_symop_operation_xyz
x,y,z
-x,-y,-z
loop_
_atom_site_type_symbol
_atom_site_label
_atom_site_fract_x
_atom_site_fract_y
_atom_site_fract_z
Si Si1 0.162844 0.070969 0.631593
Si Si2 0.742467 0.233155 0.408265
Si Si3 0.575820 0.086719 0.091634
Si Si4 0.250096 0.070564 0.180706
Si Si5 0.404844 0.294541 0.437988
Si Si6 0.321885 0.486399 0.044860
Si Si7 0.226355 0.371997 0.717522
O O1 0.404400 0.217059 0.570854
O O2 0.408737 0.469146 0.637068
O O3 0.979486 0.141690 0.755118
O O4 0.956301 0.161808 0.527664
O O5 0.543310 0.156320 0.290064
O O6 0.535267 0.194989 0.448713
O O7 0.905917 0.484034 0.355210
O O8 0.316973 0.045524 0.103220
O O9 0.700208 0.960085 0.226924
O O10 0.768529 0.340750 0.055161
O O11 0.500000 0.000000 0.000000
O O12 0.067795 0.171914 0.367654
O O13 0.148025 0.236594 0.100318
O O14 0.531912 0.568725 0.160122
O O15 0.500000 0.500000 0.000000
#
# Coordination Sequence:
#
# PCOD9112349 Si02
#       7
#     2   2   2   2   2   2   2
#     4  11  21  45  79 108 168 200 250 336 385 471
#     4   9  21  43  80 116 151 201 249 320 411 459
#     4  11  26  46  73 117 159 209 266 318 388 464
#     4  10  20  46  84 112 155 202 264 329 388 466
#     4   9  21  41  77 120 146 202 262 314 410 466
#     4   9  21  45  76 108 147 210 270 306 383 464
#     4   9  21  43  75 120 149 194 268 322 389 473
#
# _framework density 27.25526
#
# number of rings (size 3 to 8) (size 9 to 14) (size 15 to 20)
#    0.857    1.429    0.000    2.143    0.000    3.429 
#    5.143    4.286    3.143    3.429    0.000    0.000 
#    0.000    0.000    0.000    0.000    0.000    0.000 
#
# Total GULP energy -78222.658785 kJ/mol
# GULP energy per Si atom -5587.332770 kJ/mol
# Density = 2.719323 g / cm^3
# Si number density = 27.255260 Si / 1000 Ang^3
#
#
#
# Elastic Constant Matrix: (Units=GPa)
#
#
# Indices 1 2 3 4 5 6 
#
# 1 148.0233 83.3117 64.7413 -10.4092 -33.3707 17.0728
# 2 83.3117 175.9975 85.7821 -24.4856 -26.9544 4.5794
# 3 64.7413 85.7821 199.2662 -6.5840 -28.9184 -3.0260
# 4 -10.4092 -24.4856 -6.5840 77.1107 -3.9446 -15.2636
# 5 -33.3707 -26.9544 -28.9184 -3.9446 49.6993 -10.9311
# 6 17.0728 4.5794 -3.0260 -15.2636 -10.9311 60.3572
#
#
#
# Elastic Compliance Matrix: (Units=1/GPa)
#
#
# Indices 1 2 3 4 5 6 
#
# 1 0.010510 -0.003717 -0.001295 -0.000090 0.003822 -0.002086
# 2 -0.003717 0.009173 -0.002420 0.002509 0.001522 0.001144
# 3 -0.001295 -0.002420 0.006797 -0.000009 0.002050 0.001260
# 4 -0.000090 0.002509 -0.000009 0.014752 0.003385 0.004178
# 5 0.003822 0.001522 0.002050 0.003385 0.025955 0.004463
# 6 -0.002086 0.001144 0.001260 0.004178 0.004463 0.018999
#
#
# Mechanical properties :
#
#
# Convention : Reuss Voigt Hill
#
# Bulk Modulus (GPa) = 86.08146 110.10635 98.09390
# Shear Modulus (GPa) = 47.65381 56.73024 52.19202
#
# Velocity S-wave (km/s) = 4.18595 4.56723 4.38074
# Velocity P-wave (km/s) = 7.41721 8.26430 7.85219
#
# Compressibility (1/GPa) = 0.01161690
#
# Stress axis : x y z
#
# Youngs Moduli (GPa) = 95.14953 109.01104 147.11957
#
# Poissons Ratio (x) = 0.40518 0.19045
# Poissons Ratio (y) = 0.35366 0.35607
# Poissons Ratio (z) = 0.12317 0.26384
#
# Static dielectric constant tensor:
#      x y z
#    x 2.158940 -0.011470 -0.058350 
#    y -0.011470 2.400010 -0.047440 
#    z -0.058350 -0.047440 2.099500 
# 
# From -- ./inp_files/490822.got.cif
#   From: 2010.05.17/outbox.cif.g08.bks.cpg/sg2_246_cif.got.tgz:490822.got - 2010.06.03 11:33:40.
