data_PCOD9112813
_publ_section_title
;
Structure prediction by ZEFSAII (Michael W. Deem and Ramdas Pophale) SiO2 
 PCOD9112813
Probable space group: P 2
;
_chemical_formula_sum "Si O2"
_cell_formula_units_Z 16
_cell_length_a 9.004105
_cell_length_b 10.996815
_cell_length_c 9.309844
_cell_angle_alpha 90.000000
_cell_angle_beta 128.575829
_cell_angle_gamma 90.000000
_cell_volume 720.669971
_symmetry_space_group_name_H-M "P 2"
_symmetry_group_IT_number 3
_symmetry_cell_setting 'monoclinic'
loop_
_space_group_symop_operation_xyz
x,y,z
-x,y,-z
loop_
_atom_site_type_symbol
_atom_site_label
_atom_site_fract_x
_atom_site_fract_y
_atom_site_fract_z
Si Si1 0.288017 0.070310 0.318798
Si Si2 0.338457 0.090444 0.015190
Si Si3 0.986352 0.953425 0.321787
Si Si4 0.856390 0.343689 0.719965
Si Si5 0.542318 0.615428 0.871820
Si Si6 0.717310 0.365254 0.958564
Si Si7 0.303274 0.579410 0.469722
Si Si8 0.947851 0.727398 0.121003
O O1 0.500000 0.082122 0.500000
O O2 0.190658 0.200573 0.298501
O O3 0.181709 0.971497 0.352063
O O4 0.300243 0.041406 0.155230
O O5 0.500000 0.047037 0.000000
O O6 0.368801 0.232771 0.066156
O O7 0.148524 0.060894 0.814296
O O8 0.904293 0.827342 0.213982
O O9 0.000000 0.955737 0.500000
O O10 0.783289 0.383547 0.833572
O O11 0.747782 0.435779 0.549006
O O12 0.080757 0.366513 0.837246
O O13 0.570279 0.470581 0.900415
O O14 0.369395 0.638098 0.659488
O O15 0.500000 0.670351 0.000000
O O16 0.756065 0.656183 0.965105
O O17 0.500000 0.589282 0.500000
O O18 0.121536 0.644430 0.286345
O O19 0.000000 0.787290 0.000000
#
# Coordination Sequence:
#
# PCOD9112813 Si02
#       8
#     2   2   2   2   2   2   2   2
#     4  11  23  43  71 105 139 186 231 282 350 425
#     4  11  23  44  71 102 143 182 231 287 347 420
#     4  12  28  49  70  99 137 181 237 298 353 412
#     4  10  19  37  71 102 139 181 228 279 342 420
#     4  12  27  44  69 107 147 183 228 288 354 418
#     4  10  19  39  67 102 144 183 219 280 351 415
#     4  12  23  43  74 106 138 186 236 281 345 423
#     4  12  26  49  75  99 135 187 240 294 347 416
#
# _framework density 22.201561999999999
#
# number of rings (size 3 to 8) (size 9 to 14) (size 15 to 20)
#    0.000    0.750    5.000    2.625    3.500    1.000 
#    4.500    0.000    0.000    0.000    0.000    0.000 
#    0.000    0.000    0.000    0.000    0.000    0.000 
#
# Total GULP energy -89285.297780 kJ/mol
# GULP energy per Si atom -5580.331111 kJ/mol
# Density = 2.215103 g / cm^3
# Si number density = 22.201562 Si / 1000 Ang^3
#
#
#
# Elastic Constant Matrix: (Units=GPa)
#
#
# Indices 1 2 3 4 5 6 
#
# 1 83.4219 3.3450 44.2933 0.0000 -11.6354 0.0000
# 2 3.3450 50.7604 17.5609 0.0000 -8.1974 0.0000
# 3 44.2933 17.5609 146.0766 0.0000 -17.2388 0.0000
# 4 0.0000 0.0000 0.0000 21.6688 0.0000 6.2981
# 5 -11.6354 -8.1974 -17.2388 0.0000 41.7721 0.0000
# 6 0.0000 0.0000 0.0000 6.2981 0.0000 -18.5196
#
#
#
# Elastic Compliance Matrix: (Units=1/GPa)
#
#
# Indices 1 2 3 4 5 6 
#
# 1 0.014541 0.000904 -0.004225 0.000000 0.002484 0.000000
# 2 0.000904 0.021018 -0.002401 0.000000 0.003386 0.000000
# 3 -0.004225 -0.002401 0.008642 0.000000 0.001918 0.000000
# 4 0.000000 0.000000 0.000000 0.041998 0.000000 0.014282
# 5 0.002484 0.003386 0.001918 0.000000 0.026087 0.000000
# 6 0.000000 0.000000 0.000000 0.014282 0.000000 -0.049140
#
#
# Mechanical properties :
#
#
# Convention : Reuss Voigt Hill
#
# Bulk Modulus (GPa) = 30.52729 45.62858 38.07794
# Shear Modulus (GPa) = 58.47355 23.32157 40.89756
#
# Velocity S-wave (km/s) = 5.13758 3.24458 4.29663
# Velocity P-wave (km/s) = 6.99807 5.88498 6.46552
#
# Compressibility (1/GPa) = 0.03275757
#
# Stress axis : x y z
#
# Youngs Moduli (GPa) = 68.77333 47.57754 115.71699
#
# Poissons Ratio (x) = -0.04303 0.48885
# Poissons Ratio (y) = -0.06220 0.27789
# Poissons Ratio (z) = 0.29053 0.11426
#
# Static dielectric constant tensor:
#      x y z
#    x 1.868860 0.000000 -0.015790 
#    y 0.000000 1.849140 0.000000 
#    z -0.015790 0.000000 1.844320 
# 
# From -- ./inp_files/6073.got.cif
#   From: 2010.05.17/outbox.cif.g08.bks.cpg/sg3_4_cif.got.tgz:6073.got - 2010.06.03 18:33:08.
