data_PCOD9112385
_publ_section_title
;
Structure prediction by ZEFSAII (Michael W. Deem and Ramdas Pophale) SiO2 
 PCOD9112385
Probable space group: P -1
;
_chemical_formula_sum "Si O2"
_cell_formula_units_Z 12
_cell_length_a 5.174494
_cell_length_b 9.981634
_cell_length_c 12.617997
_cell_angle_alpha 54.104339
_cell_angle_beta 113.094530
_cell_angle_gamma 103.299300
_cell_volume 485.637635
_symmetry_space_group_name_H-M "P -1"
_symmetry_group_IT_number 2
_symmetry_cell_setting 'triclinic'
loop_
_space_group_symop_operation_xyz
x,y,z
-x,-y,-z
loop_
_atom_site_type_symbol
_atom_site_label
_atom_site_fract_x
_atom_site_fract_y
_atom_site_fract_z
Si Si1 0.260886 0.944976 0.685791
Si Si2 0.500203 0.505996 0.626409
Si Si3 0.563530 0.879605 0.973373
Si Si4 0.243578 0.612655 0.943316
Si Si5 0.273933 0.859870 0.423890
Si Si6 0.005850 0.300756 0.756644
O O1 0.173740 0.752951 0.777788
O O2 0.486605 0.000064 0.610637
O O3 0.460523 0.968906 0.810091
O O4 0.995236 0.066741 0.591825
O O5 0.500000 0.500000 0.500000
O O6 0.422561 0.690902 0.564537
O O7 0.260879 0.390759 0.693047
O O8 0.810081 0.433179 0.723379
O O9 0.872291 0.814204 0.077386
O O10 0.365160 0.719973 0.009829
O O11 0.500000 0.000000 0.000000
O O12 0.500000 0.500000 0.000000
O O13 0.000000 0.500000 0.000000
O O14 0.147517 0.801984 0.314530
#
# Coordination Sequence:
#
# PCOD9112385 Si02
#       6
#     2   2   2   2   2   2
#     4  10  22  33  59  82 115 147 191 234 294 336
#     4  10  21  31  51  74 117 162 189 227 290 348
#     4  10  23  37  61  92 123 149 192 245 301 345
#     4  10  22  41  57  85 121 158 193 228 293 365
#     4  11  18  35  51  83 115 152 194 236 283 344
#     4  11  20  34  50  81 118 155 187 236 292 345
#
# _framework density 24.709783999999999
#
# number of rings (size 3 to 8) (size 9 to 14) (size 15 to 20)
#    1.000    0.667    1.667    6.000    0.000    3.333 
#    0.000    0.000    0.000    0.000    0.000   23.333 
#    0.000    0.000    0.000    0.000    0.000    0.000 
#
# Total GULP energy -67002.840025 kJ/mol
# GULP energy per Si atom -5583.570002 kJ/mol
# Density = 2.465354 g / cm^3
# Si number density = 24.709784 Si / 1000 Ang^3
#
#
#
# Elastic Constant Matrix: (Units=GPa)
#
#
# Indices 1 2 3 4 5 6 
#
# 1 204.5733 45.0292 68.7431 -28.9299 5.5175 3.9195
# 2 45.0292 97.3521 26.8335 -19.9083 -11.5119 1.8805
# 3 68.7431 26.8335 74.6501 -7.2763 30.6340 -8.4464
# 4 -28.9299 -19.9083 -7.2763 43.1106 -3.3894 -2.6115
# 5 5.5175 -11.5119 30.6340 -3.3894 57.6555 -14.0187
# 6 3.9195 1.8805 -8.4464 -2.6115 -14.0187 33.5685
#
#
#
# Elastic Compliance Matrix: (Units=1/GPa)
#
#
# Indices 1 2 3 4 5 6 
#
# 1 0.008526 0.000000 -0.009221 0.004403 0.004028 -0.001291
# 2 0.000000 0.014466 -0.007584 0.006042 0.007487 0.000878
# 3 -0.009221 -0.007584 0.031308 -0.005648 -0.017169 0.001770
# 4 0.004403 0.006042 -0.005648 0.028616 0.006074 0.002489
# 5 0.004028 0.007487 -0.017169 0.006074 0.029808 0.007711
# 6 -0.001291 0.000878 0.001770 0.002489 0.007711 0.033751
#
#
# Mechanical properties :
#
#
# Convention : Reuss Voigt Hill
#
# Bulk Modulus (GPa) = 48.33177 73.08744 60.70961
# Shear Modulus (GPa) = 26.74054 42.59822 34.66938
#
# Velocity S-wave (km/s) = 3.29323 4.15654 3.74981
# Velocity P-wave (km/s) = 5.83632 7.25798 6.58563
#
# Compressibility (1/GPa) = 0.02069032
#
# Stress axis : x y z
#
# Youngs Moduli (GPa) = 117.29478 69.12556 31.94030
#
# Poissons Ratio (x) = 0.00000 0.29452
# Poissons Ratio (y) = 0.00000 0.24224
# Poissons Ratio (z) = 1.08156 0.52426
#
# Static dielectric constant tensor:
#      x y z
#    x 1.899760 0.019020 0.003900 
#    y 0.019020 1.967400 0.047470 
#    z 0.003900 0.047470 2.527120 
# 
# From -- ./inp_files/549076.got.cif
#   From: 2010.05.17/outbox.cif.g08.bks.cpg/sg2_275_cif.got.tgz:549076.got - 2010.06.03 11:33:40.
