data_PCOD9112375
_publ_section_title
;
Structure prediction by ZEFSAII (Michael W. Deem and Ramdas Pophale) SiO2 
 PCOD9112375
Probable space group: P -1
;
_chemical_formula_sum "Si O2"
_cell_formula_units_Z 16
_cell_length_a 15.175198
_cell_length_b 14.080582
_cell_length_c 5.701540
_cell_angle_alpha 93.352761
_cell_angle_beta 105.553915
_cell_angle_gamma 137.340201
_cell_volume 731.794336
_symmetry_space_group_name_H-M "P -1"
_symmetry_group_IT_number 2
_symmetry_cell_setting 'triclinic'
loop_
_space_group_symop_operation_xyz
x,y,z
-x,-y,-z
loop_
_atom_site_type_symbol
_atom_site_label
_atom_site_fract_x
_atom_site_fract_y
_atom_site_fract_z
Si Si1 0.348110 0.831911 0.436328
Si Si2 0.969696 0.591075 0.513565
Si Si3 0.510864 0.182430 0.115936
Si Si4 0.378562 0.368698 0.203815
Si Si5 0.567303 0.411179 0.955146
Si Si6 0.768114 0.089548 0.425442
Si Si7 0.670869 0.852421 0.624924
Si Si8 0.123034 0.517435 0.067013
O O1 0.380523 0.807492 0.702816
O O2 0.237391 0.828597 0.382506
O O3 0.279172 0.697904 0.198528
O O4 0.500000 0.000000 0.500000
O O5 0.885982 0.539316 0.692043
O O6 0.000000 0.500000 0.500000
O O7 0.112309 0.775365 0.651423
O O8 0.904279 0.560092 0.203867
O O9 0.405420 0.139242 0.240374
O O10 0.605174 0.347164 0.112608
O O11 0.392584 0.047138 0.827615
O O12 0.500000 0.500000 0.500000
O O13 0.323306 0.422551 0.055951
O O14 0.278849 0.205306 0.224390
O O15 0.465279 0.384611 0.062853
O O16 0.461640 0.287691 0.657317
O O17 0.782808 0.002966 0.565265
O O18 0.000000 0.500000 0.000000
#
# Coordination Sequence:
#
# PCOD9112375 Si02
#       8
#     2   2   2   2   2   2   2   2
#     4  12  23  34  53  75 103 144 181 226 272 316
#     4  10  21  36  58  69  97 141 187 229 269 315
#     4  10  21  30  45  72 106 132 175 216 270 317
#     4   8  13  25  47  63  94 133 167 197 256 316
#     4   8  15  28  42  66  96 137 161 205 255 322
#     4  11  21  33  50  72 104 141 180 224 270 312
#     4   9  17  29  42  72 100 132 165 214 259 320
#     4  10  22  40  55  73  97 138 192 228 271 317
#
# _framework density 21.864066000000001
#
# number of rings (size 3 to 8) (size 9 to 14) (size 15 to 20)
#    0.000    2.250    3.750    0.375    5.250    1.000 
#    0.000    0.000    0.000    0.000    0.000    0.000 
#    0.000    2.000    0.000    3.500    0.000    0.000 
#
# Total GULP energy -89128.572302 kJ/mol
# GULP energy per Si atom -5570.535769 kJ/mol
# Density = 2.181430 g / cm^3
# Si number density = 21.864066 Si / 1000 Ang^3
#
#
#
# Elastic Constant Matrix: (Units=GPa)
#
#
# Indices 1 2 3 4 5 6 
#
# 1 27.2932 32.3763 11.7721 -1.1558 -10.4318 -6.5743
# 2 32.3763 172.0593 22.0295 -19.3065 23.9546 -32.4398
# 3 11.7721 22.0295 82.9359 -8.3542 -13.9816 -2.2606
# 4 -1.1558 -19.3065 -8.3542 34.7107 -3.5918 9.8942
# 5 -10.4318 23.9546 -13.9816 -3.5918 28.0124 -4.6271
# 6 -6.5743 -32.4398 -2.2606 9.8942 -4.6271 36.1315
#
#
#
# Elastic Compliance Matrix: (Units=1/GPa)
#
#
# Indices 1 2 3 4 5 6 
#
# 1 0.083749 -0.023521 0.002776 -0.004866 0.052450 0.002344
# 2 -0.023521 0.015257 -0.004087 0.002815 -0.022576 0.005501
# 3 0.002776 -0.004087 0.015083 0.003146 0.012209 -0.001518
# 4 -0.004866 0.002815 0.003146 0.033054 0.000406 -0.007160
# 5 0.052450 -0.022576 0.012209 0.000406 0.080726 0.000265
# 6 0.002344 0.005501 -0.001518 -0.007160 0.000265 0.034942
#
#
# Mechanical properties :
#
#
# Convention : Reuss Voigt Hill
#
# Bulk Modulus (GPa) = 15.52162 46.07158 30.79660
# Shear Modulus (GPa) = 14.97238 34.17828 24.57533
#
# Velocity S-wave (km/s) = 2.61970 3.95804 3.35626
# Velocity P-wave (km/s) = 4.03299 6.48118 5.39772
#
# Compressibility (1/GPa) = 0.06442625
#
# Stress axis : x y z
#
# Youngs Moduli (GPa) = 11.94047 65.54271 66.30137
#
# Poissons Ratio (x) = 1.54162 -0.18406
# Poissons Ratio (y) = 0.28085 0.27094
# Poissons Ratio (z) = -0.03315 0.26784
#
# Static dielectric constant tensor:
#      x y z
#    x 1.789140 0.059380 -0.006840 
#    y 0.059380 1.743260 -0.062190 
#    z -0.006840 -0.062190 1.856130 
# 
# From -- ./inp_files/54925.got.cif
#   From: 2010.05.17/outbox.cif.g08.bks.cpg/sg2_28_cif.got.tgz:54925.got - 2010.06.03 11:33:40.
