data_PCOD9112384
_publ_section_title
;
Structure prediction by ZEFSAII (Michael W. Deem and Ramdas Pophale) SiO2 
 PCOD9112384
Probable space group: P -1
;
_chemical_formula_sum "Si O2"
_cell_formula_units_Z 14
_cell_length_a 14.602083
_cell_length_b 5.677259
_cell_length_c 9.586777
_cell_angle_alpha 94.880446
_cell_angle_beta 120.782459
_cell_angle_gamma 65.915235
_cell_volume 615.524699
_symmetry_space_group_name_H-M "P -1"
_symmetry_group_IT_number 2
_symmetry_cell_setting 'triclinic'
loop_
_space_group_symop_operation_xyz
x,y,z
-x,-y,-z
loop_
_atom_site_type_symbol
_atom_site_label
_atom_site_fract_x
_atom_site_fract_y
_atom_site_fract_z
Si Si1 0.706899 0.233700 0.232265
Si Si2 0.084646 0.714812 0.494297
Si Si3 0.520448 0.071684 0.172889
Si Si4 0.288705 0.510110 0.041597
Si Si5 0.624997 0.845217 0.510676
Si Si6 0.644271 0.342591 0.624588
Si Si7 0.119775 0.343398 0.768023
O O1 0.790988 0.272416 0.414705
O O2 0.590103 0.250277 0.215142
O O3 0.685003 0.418000 0.090018
O O4 0.780274 0.944334 0.206805
O O5 0.105126 0.508763 0.623863
O O6 0.007115 0.662930 0.311540
O O7 0.000000 0.000000 0.500000
O O8 0.595798 0.841838 0.324092
O O9 0.393204 0.231545 0.146776
O O10 0.500000 0.000000 0.000000
O O11 0.168443 0.476319 0.929454
O O12 0.307142 0.692623 0.180666
O O13 0.685690 0.555255 0.603873
O O14 0.500000 0.000000 0.500000
O O15 0.682374 0.051338 0.580425
O O16 0.500000 0.500000 0.500000
#
# Coordination Sequence:
#
# PCOD9112384 Si02
#       7
#     2   2   2   2   2   2   2
#     4  10  21  31  50  82 114 145 181 232 296 333
#     4   8  16  33  51  71 109 143 180 225 285 346
#     4  12  23  34  54  83 121 151 187 236 287 342
#     4  11  21  33  53  82 114 152 189 236 280 340
#     4  10  22  40  55  74 109 163 201 232 272 336
#     4  10  21  36  58  72 110 157 205 232 269 334
#     4   9  17  32  51  78 108 140 183 233 284 333
#
# _framework density 22.744823
#
# number of rings (size 3 to 8) (size 9 to 14) (size 15 to 20)
#    0.000    2.000    4.286    0.429    6.000    1.143 
#    0.000    0.000    0.000    0.000    0.000    2.000 
#    0.000    0.000    0.000    0.000    0.000    0.000 
#
# Total GULP energy -78067.247568 kJ/mol
# GULP energy per Si atom -5576.231969 kJ/mol
# Density = 2.269305 g / cm^3
# Si number density = 22.744823 Si / 1000 Ang^3
#
#
#
# Elastic Constant Matrix: (Units=GPa)
#
#
# Indices 1 2 3 4 5 6 
#
# 1 40.5488 13.4833 49.1343 15.7859 19.6225 18.1004
# 2 13.4833 96.6042 16.4544 -6.9011 3.9557 11.4928
# 3 49.1343 16.4544 134.6922 24.7313 21.6194 12.7278
# 4 15.7859 -6.9011 24.7313 37.5428 10.8121 5.7132
# 5 19.6225 3.9557 21.6194 10.8121 44.0560 9.3084
# 6 18.1004 11.4928 12.7278 5.7132 9.3084 31.7926
#
#
#
# Elastic Compliance Matrix: (Units=1/GPa)
#
#
# Indices 1 2 3 4 5 6 
#
# 1 0.071002 -0.003803 -0.018892 -0.010156 -0.014127 -0.025524
# 2 -0.003803 0.011617 -0.000668 0.004454 0.000456 -0.002701
# 3 -0.018892 -0.000668 0.014207 -0.002661 0.000994 0.005497
# 4 -0.010156 0.004454 -0.002661 0.034348 -0.002987 -0.000061
# 5 -0.014127 0.000456 0.000994 -0.002987 0.029314 -0.000566
# 6 -0.025524 -0.002701 0.005497 -0.000061 -0.000566 0.044938
#
#
# Mechanical properties :
#
#
# Convention : Reuss Voigt Hill
#
# Bulk Modulus (GPa) = 19.95963 47.77658 33.86811
# Shear Modulus (GPa) = 18.59767 35.52982 27.06375
#
# Velocity S-wave (km/s) = 2.86259 3.95664 3.45321
# Velocity P-wave (km/s) = 4.44077 6.47490 5.55179
#
# Compressibility (1/GPa) = 0.05010112
#
# Stress axis : x y z
#
# Youngs Moduli (GPa) = 14.08414 86.08202 70.38743
#
# Poissons Ratio (x) = 0.32733 1.32976
# Poissons Ratio (y) = 0.05356 0.04700
# Poissons Ratio (z) = 0.26608 0.05748
#
# Static dielectric constant tensor:
#      x y z
#    x 1.857380 0.025020 -0.001840 
#    y 0.025020 1.938060 0.037520 
#    z -0.001840 0.037520 1.880900 
# 
# From -- ./inp_files/44199.got.cif
#   From: 2010.05.17/outbox.cif.g08.bks.cpg/sg2_23_cif.got.tgz:44199.got - 2010.06.03 11:33:40.
