data_PCOD9112280
_publ_section_title
;
Structure prediction by ZEFSAII (Michael W. Deem and Ramdas Pophale) SiO2 
 PCOD9112280
Probable space group: P -1
;
_chemical_formula_sum "Si O2"
_cell_formula_units_Z 16
_cell_length_a 9.489564
_cell_length_b 8.714151
_cell_length_c 12.714966
_cell_angle_alpha 34.783311
_cell_angle_beta 100.238944
_cell_angle_gamma 106.576200
_cell_volume 571.810327
_symmetry_space_group_name_H-M "P -1"
_symmetry_group_IT_number 2
_symmetry_cell_setting 'triclinic'
loop_
_space_group_symop_operation_xyz
x,y,z
-x,-y,-z
loop_
_atom_site_type_symbol
_atom_site_label
_atom_site_fract_x
_atom_site_fract_y
_atom_site_fract_z
Si Si1 0.895046 0.982030 0.594192
Si Si2 0.613624 0.807654 0.724972
Si Si3 0.539736 0.707892 0.138753
Si Si4 0.464727 0.215686 0.572062
Si Si5 0.972267 0.691906 0.215854
Si Si6 0.720351 0.043630 0.815968
Si Si7 0.836300 0.821221 0.321578
Si Si8 0.927606 0.424166 0.919733
O O1 0.734773 0.038882 0.543516
O O2 0.832224 0.645751 0.774982
O O3 0.010402 0.112847 0.627739
O O4 0.000000 0.000000 0.500000
O O5 0.546635 0.499121 0.847480
O O6 0.479217 0.949075 0.655629
O O7 0.710745 0.844395 0.825712
O O8 0.522792 0.490561 0.354249
O O9 0.694723 0.786927 0.398499
O O10 0.692752 0.839865 0.026147
O O11 0.500000 0.000000 0.000000
O O12 0.586349 0.186461 0.692445
O O13 0.133722 0.716570 0.277590
O O14 0.967356 0.529872 0.195953
O O15 0.858641 0.629903 0.332950
O O16 0.000000 0.000000 0.000000
O O17 0.838865 0.109958 0.098175
O O18 0.000000 0.500000 0.000000
#
# Coordination Sequence:
#
# PCOD9112280 Si02
#       8
#     2   2   2   2   2   2   2   2
#     4  11  22  41  73 110 149 207 273 333 408 492
#     4  10  24  49  75 113 161 214 279 338 416 496
#     4  12  27  47  79 117 161 216 277 343 420 495
#     4  10  25  49  81 115 160 216 277 340 417 492
#     4  10  21  46  76 114 152 208 267 337 411 486
#     4  10  25  47  79 109 161 210 277 334 411 496
#     4  10  20  45  74 111 152 199 274 335 402 493
#     4   9  22  40  73 108 153 201 259 329 413 491
#
# _framework density 27.981304999999999
#
# number of rings (size 3 to 8) (size 9 to 14) (size 15 to 20)
#    0.750    1.000    1.250    1.500    3.500    1.500 
#    9.000    1.875    2.750    0.000    0.000    0.000 
#    0.000    0.000    0.000    0.000    0.000    0.000 
#
# Total GULP energy -89201.082058 kJ/mol
# GULP energy per Si atom -5575.067629 kJ/mol
# Density = 2.791762 g / cm^3
# Si number density = 27.981305 Si / 1000 Ang^3
#
#
#
# Elastic Constant Matrix: (Units=GPa)
#
#
# Indices 1 2 3 4 5 6 
#
# 1 184.1411 54.4836 34.4379 19.7876 -35.5063 -6.8205
# 2 54.4836 206.3876 44.5430 -1.0620 -8.5361 -20.5871
# 3 34.4379 44.5430 113.7731 11.8750 -30.8361 1.8138
# 4 19.7876 -1.0620 11.8750 66.5106 -0.5737 -6.0091
# 5 -35.5063 -8.5361 -30.8361 -0.5737 47.8249 10.4036
# 6 -6.8205 -20.5871 1.8138 -6.0091 10.4036 31.3199
#
#
#
# Elastic Compliance Matrix: (Units=1/GPa)
#
#
# Indices 1 2 3 4 5 6 
#
# 1 0.007218 -0.001984 0.000423 -0.002396 0.005708 -0.002112
# 2 -0.001984 0.006461 -0.003153 0.001723 -0.003528 0.005500
# 3 0.000423 -0.003153 0.012856 -0.002970 0.009401 -0.006417
# 4 -0.002396 0.001723 -0.002970 0.016761 -0.004371 0.005450
# 5 0.005708 -0.003528 0.009401 -0.004371 0.033481 -0.013580
# 6 -0.002112 0.005500 -0.006417 0.005450 -0.013580 0.041012
#
#
# Mechanical properties :
#
#
# Convention : Reuss Voigt Hill
#
# Bulk Modulus (GPa) = 58.45350 85.69232 72.07291
# Shear Modulus (GPa) = 37.61678 53.85356 45.73517
#
# Velocity S-wave (km/s) = 3.67052 4.39182 4.04727
# Velocity P-wave (km/s) = 6.23692 7.51057 6.90318
#
# Compressibility (1/GPa) = 0.01710762
#
# Stress axis : x y z
#
# Youngs Moduli (GPa) = 138.53325 154.77645 77.78476
#
# Poissons Ratio (x) = 0.30704 -0.03287
# Poissons Ratio (y) = 0.27481 0.24524
# Poissons Ratio (z) = -0.05855 0.48798
#
# Static dielectric constant tensor:
#      x y z
#    x 2.405120 -0.123030 -0.102340 
#    y -0.123030 2.555630 0.022470 
#    z -0.102340 0.022470 2.393960 
# 
# From -- ./inp_files/416329.got.cif
#   From: 2010.05.17/outbox.cif.g08.bks.cpg/sg2_209_cif.got.tgz:416329.got - 2010.06.03 11:33:40.
