data_PCOD9112619
_publ_section_title
;
Structure prediction by ZEFSAII (Michael W. Deem and Ramdas Pophale) SiO2 
 PCOD9112619
Probable space group: P 2
;
_chemical_formula_sum "Si O2"
_cell_formula_units_Z 12
_cell_length_a 12.030964
_cell_length_b 8.123271
_cell_length_c 11.424442
_cell_angle_alpha 90.000000
_cell_angle_beta 146.124582
_cell_angle_gamma 90.000000
_cell_volume 622.335711
_symmetry_space_group_name_H-M "P 2"
_symmetry_group_IT_number 3
_symmetry_cell_setting 'monoclinic'
loop_
_space_group_symop_operation_xyz
x,y,z
-x,y,-z
loop_
_atom_site_type_symbol
_atom_site_label
_atom_site_fract_x
_atom_site_fract_y
_atom_site_fract_z
Si Si1 0.500000 0.112360 0.000000
Si Si2 0.812834 0.903788 0.419446
Si Si3 0.717140 0.089266 0.563039
Si Si4 0.352782 0.607730 0.579100
Si Si5 0.500000 0.814479 0.500000
Si Si6 0.398592 0.290462 0.142210
Si Si7 0.036229 0.405709 0.161303
O O1 0.599694 0.220514 0.986562
O O2 0.340777 0.001031 0.795333
O O3 0.713864 0.739096 0.383368
O O4 0.000000 0.871432 0.500000
O O5 0.842008 0.017335 0.561626
O O6 0.508258 0.157459 0.324088
O O7 0.823395 0.243666 0.715394
O O8 0.675338 0.941769 0.617093
O O9 0.498704 0.695850 0.611921
O O10 0.462633 0.450927 0.728021
O O11 0.155484 0.539819 0.341039
O O12 0.177039 0.344661 0.980422
O O13 0.000000 0.471012 0.000000
#
# Coordination Sequence:
#
# PCOD9112619 Si02
#       7
#     1   2   2   2   1   2   2
#     4  10  22  38  62  82 106 154 192 226 280 330
#     4  10  21  39  58  83 115 144 186 235 279 331
#     4   9  20  37  59  82 109 148 188 233 277 319
#     4  10  23  37  56  84 117 149 179 232 288 323
#     4  10  18  38  56  76 116 148 176 224 282 330
#     4  10  21  39  58  83 113 145 191 233 271 334
#     4  11  21  36  59  84 110 149 191 226 275 337
#
# _framework density 19.282195999999999
#
# number of rings (size 3 to 8) (size 9 to 14) (size 15 to 20)
#    0.000    2.000    0.000    3.000    0.000    6.000 
#    0.000   20.000    0.000    0.000    0.000    0.000 
#    0.000    0.000    0.000    0.000    0.000    0.000 
#
# Total GULP energy -66951.951073 kJ/mol
# GULP energy per Si atom -5579.329256 kJ/mol
# Density = 1.923831 g / cm^3
# Si number density = 19.282196 Si / 1000 Ang^3
#
#
#
# Elastic Constant Matrix: (Units=GPa)
#
#
# Indices 1 2 3 4 5 6 
#
# 1 147.3359 48.6079 47.3685 0.0000 4.5496 0.0000
# 2 48.6079 100.4796 24.7358 0.0000 -11.3309 0.0000
# 3 47.3685 24.7358 73.1917 0.0000 -4.7459 0.0000
# 4 0.0000 0.0000 0.0000 12.7599 0.0000 -5.5513
# 5 4.5496 -11.3309 -4.7459 0.0000 19.2924 0.0000
# 6 0.0000 0.0000 0.0000 -5.5513 0.0000 14.4644
#
#
#
# Elastic Compliance Matrix: (Units=1/GPa)
#
#
# Indices 1 2 3 4 5 6 
#
# 1 0.010170 -0.004261 -0.005548 0.000000 -0.006266 0.000000
# 2 -0.004261 0.013261 -0.001173 0.000000 0.008505 0.000000
# 3 -0.005548 -0.001173 0.017977 0.000000 0.005042 0.000000
# 4 0.000000 0.000000 0.000000 0.094079 0.000000 0.036106
# 5 -0.006266 0.008505 0.005042 0.000000 0.059547 0.000000
# 6 0.000000 0.000000 0.000000 0.036106 0.000000 0.082992
#
#
# Mechanical properties :
#
#
# Convention : Reuss Voigt Hill
#
# Bulk Modulus (GPa) = 51.42817 62.49237 56.96027
# Shear Modulus (GPa) = 16.31476 22.65635 19.48555
#
# Velocity S-wave (km/s) = 2.91194 3.43153 3.18236
# Velocity P-wave (km/s) = 6.16726 6.94120 6.56564
#
# Compressibility (1/GPa) = 0.01944460
#
# Stress axis : x y z
#
# Youngs Moduli (GPa) = 98.32777 75.40813 55.62716
#
# Poissons Ratio (x) = 0.32128 0.30864
# Poissons Ratio (y) = 0.41893 0.06525
# Poissons Ratio (z) = 0.54555 0.08845
#
# Static dielectric constant tensor:
#      x y z
#    x 1.733090 0.000000 0.039810 
#    y 0.000000 1.667770 0.000000 
#    z 0.039810 0.000000 1.689930 
# 
# From -- ./inp_files/2112.got.cif
#   From: 2010.05.17/outbox.cif.g08.bks.cpg/sg3_2_cif.got.tgz:2112.got - 2010.06.03 18:33:08.
