data_PCOD9112310
_publ_section_title
;
Structure prediction by ZEFSAII (Michael W. Deem and Ramdas Pophale) SiO2 
 PCOD9112310
Probable space group: P -1
;
_chemical_formula_sum "Si O2"
_cell_formula_units_Z 14
_cell_length_a 7.699204
_cell_length_b 8.201677
_cell_length_c 10.903127
_cell_angle_alpha 77.265554
_cell_angle_beta 78.929656
_cell_angle_gamma 59.904674
_cell_volume 578.311989
_symmetry_space_group_name_H-M "P -1"
_symmetry_group_IT_number 2
_symmetry_cell_setting 'triclinic'
loop_
_space_group_symop_operation_xyz
x,y,z
-x,-y,-z
loop_
_atom_site_type_symbol
_atom_site_label
_atom_site_fract_x
_atom_site_fract_y
_atom_site_fract_z
Si Si1 0.012052 0.339539 0.114548
Si Si2 0.310186 0.499188 0.318252
Si Si3 0.687041 0.050723 0.850226
Si Si4 0.719441 0.325599 0.966934
Si Si5 0.686263 0.800231 0.477176
Si Si6 0.042770 0.879799 0.391264
Si Si7 0.341942 0.416464 0.713234
O O1 0.884152 0.447543 0.233462
O O2 0.874029 0.273588 0.065563
O O3 0.242450 0.171818 0.119157
O O4 0.000000 0.500000 0.000000
O O5 0.228112 0.597807 0.180223
O O6 0.266533 0.328413 0.385562
O O7 0.539888 0.461782 0.301768
O O8 0.209812 0.660147 0.410012
O O9 0.711137 0.136153 0.960439
O O10 0.472182 0.218745 0.805789
O O11 0.859845 0.041947 0.734730
O O12 0.500000 0.500000 0.000000
O O13 0.849181 0.855224 0.393374
O O14 0.646152 0.674391 0.404955
O O15 0.500000 0.000000 0.500000
O O16 0.000000 0.000000 0.500000
#
# Coordination Sequence:
#
# PCOD9112310 Si02
#       7
#     2   2   2   2   2   2   2
#     4  12  26  41  71 100 132 178 228 278 337 403
#     4  10  23  43  69  93 137 177 218 281 331 400
#     4  10  24  45  67  95 135 182 219 278 339 399
#     4  10  20  46  67  94 132 179 227 269 337 396
#     4  12  25  40  66 105 133 175 226 274 342 406
#     4  10  23  42  68  96 133 176 221 277 339 400
#     4  10  24  46  65 100 141 175 224 279 343 393
#
# _framework density 24.208383999999999
#
# number of rings (size 3 to 8) (size 9 to 14) (size 15 to 20)
#    0.000    1.714    2.857    3.000    8.000    2.857 
#    2.571    0.000    0.000    0.000    0.000    0.000 
#    0.000    0.000    0.000    0.000    0.000    0.000 
#
# Total GULP energy -78153.019551 kJ/mol
# GULP energy per Si atom -5582.358539 kJ/mol
# Density = 2.415328 g / cm^3
# Si number density = 24.208384 Si / 1000 Ang^3
#
#
#
# Elastic Constant Matrix: (Units=GPa)
#
#
# Indices 1 2 3 4 5 6 
#
# 1 42.8616 -4.8098 2.1624 6.5835 6.1004 -8.2038
# 2 -4.8098 132.9048 39.4792 10.0358 -2.3264 -6.3912
# 3 2.1624 39.4792 62.5130 21.1722 11.1052 5.0757
# 4 6.5835 10.0358 21.1722 44.2246 -0.1187 -5.7578
# 5 6.1004 -2.3264 11.1052 -0.1187 32.9121 1.5631
# 6 -8.2038 -6.3912 5.0757 -5.7578 1.5631 17.5570
#
#
#
# Elastic Compliance Matrix: (Units=1/GPa)
#
#
# Indices 1 2 3 4 5 6 
#
# 1 0.027365 0.002342 -0.002103 -0.001776 -0.004873 0.014099
# 2 0.002342 0.010425 -0.008654 0.002471 0.002854 0.007948
# 3 -0.002103 -0.008654 0.029211 -0.013853 -0.009355 -0.016288
# 4 -0.001776 0.002471 -0.013853 0.030750 0.004636 0.013746
# 5 -0.004873 0.002854 -0.009355 0.004636 0.034667 -0.000099
# 6 0.014099 0.007948 -0.016288 0.013746 -0.000099 0.075664
#
#
# Mechanical properties :
#
#
# Convention : Reuss Voigt Hill
#
# Bulk Modulus (GPa) = 19.93226 34.66035 27.29631
# Shear Modulus (GPa) = 20.69225 32.36858 26.53041
#
# Velocity S-wave (km/s) = 2.92679 3.66058 3.31406
# Velocity P-wave (km/s) = 4.43542 5.67583 5.09353
#
# Compressibility (1/GPa) = 0.05016992
#
# Stress axis : x y z
#
# Youngs Moduli (GPa) = 36.54345 95.92136 34.23352
#
# Poissons Ratio (x) = -0.22463 0.07200
# Poissons Ratio (y) = -0.08558 0.29626
# Poissons Ratio (z) = 0.07686 0.83012
#
# Static dielectric constant tensor:
#      x y z
#    x 2.461020 -0.019390 -0.238280 
#    y -0.019390 2.013200 -0.027590 
#    z -0.238280 -0.027590 2.119430 
# 
# From -- ./inp_files/378670.got.cif
#   From: 2010.05.17/outbox.cif.g08.bks.cpg/sg2_190_cif.got.tgz:378670.got - 2010.06.03 11:33:40.
