data_PCOD9112569
_publ_section_title
;
Structure prediction by ZEFSAII (Michael W. Deem and Ramdas Pophale) SiO2 
 PCOD9112569
Probable space group: P 2
;
_chemical_formula_sum "Si O2"
_cell_formula_units_Z 16
_cell_length_a 18.919209
_cell_length_b 9.310465
_cell_length_c 8.261023
_cell_angle_alpha 90.000000
_cell_angle_beta 144.286347
_cell_angle_gamma 90.000000
_cell_volume 849.422368
_symmetry_space_group_name_H-M "P 2"
_symmetry_group_IT_number 3
_symmetry_cell_setting 'monoclinic'
loop_
_space_group_symop_operation_xyz
x,y,z
-x,y,-z
loop_
_atom_site_type_symbol
_atom_site_label
_atom_site_fract_x
_atom_site_fract_y
_atom_site_fract_z
Si Si1 0.135606 0.639040 0.312042
Si Si2 0.945891 0.863511 0.576638
Si Si3 0.377907 0.499771 0.879302
Si Si4 0.414826 0.016612 0.687188
Si Si5 0.434445 0.251335 0.225684
Si Si6 0.460231 0.764900 0.246992
Si Si7 0.182586 0.912876 0.184292
Si Si8 0.735303 0.997681 0.021506
O O1 0.111715 0.729567 0.433617
O O2 0.248247 0.530109 0.551333
O O3 0.181501 0.756204 0.265257
O O4 0.000000 0.588355 0.000000
O O5 0.851364 0.984300 0.349438
O O6 0.000000 0.816899 0.500000
O O7 0.041253 0.931593 0.879795
O O8 0.500000 0.484997 0.000000
O O9 0.380022 0.359878 0.995640
O O10 0.407118 0.637650 0.043981
O O11 0.437363 0.857029 0.654790
O O12 0.270787 0.016230 0.452096
O O13 0.465839 0.142607 0.667390
O O14 0.500000 0.025839 0.000000
O O15 0.500000 0.325191 0.500000
O O16 0.327515 0.150519 0.092397
O O17 0.500000 0.718176 0.500000
O O18 0.359310 0.885454 0.083097
O O19 0.234711 0.941038 0.101138
#
# Coordination Sequence:
#
# PCOD9112569 Si02
#       8
#     2   2   2   2   2   2   2   2
#     4  10  21  39  62  94 133 161 208 264 323 378
#     4   9  19  34  61  94 121 156 202 268 318 372
#     4  12  25  40  60  91 129 172 215 257 316 380
#     4  11  20  33  58  89 119 155 199 257 321 363
#     4  11  23  42  58  82 126 170 208 257 311 376
#     4  11  19  32  57  88 118 152 206 260 305 364
#     4  10  18  33  59  92 123 149 202 260 317 366
#     4  10  18  36  61  89 116 156 207 260 314 364
#
# _framework density 18.836328999999999
#
# number of rings (size 3 to 8) (size 9 to 14) (size 15 to 20)
#    0.000    1.500    3.750    3.375    1.750    0.000 
#    0.000    0.000    5.500    2.250    0.000    0.000 
#    0.000    0.000    0.000    0.000    0.000    0.000 
#
# Total GULP energy -89075.274706 kJ/mol
# GULP energy per Si atom -5567.204669 kJ/mol
# Density = 1.879346 g / cm^3
# Si number density = 18.836329 Si / 1000 Ang^3
#
#
#
# Elastic Constant Matrix: (Units=GPa)
#
#
# Indices 1 2 3 4 5 6 
#
# 1 74.1113 23.4307 34.6932 0.0000 -0.4915 0.0000
# 2 23.4307 61.7502 40.3799 0.0000 0.5721 0.0000
# 3 34.6932 40.3799 176.5804 0.0000 0.2291 0.0000
# 4 0.0000 0.0000 0.0000 13.3931 0.0000 1.3734
# 5 -0.4915 0.5721 0.2291 0.0000 28.3133 0.0000
# 6 0.0000 0.0000 0.0000 1.3734 0.0000 -1.5066
#
#
#
# Elastic Compliance Matrix: (Units=1/GPa)
#
#
# Indices 1 2 3 4 5 6 
#
# 1 0.015948 -0.004710 -0.002057 0.000000 0.000389 0.000000
# 2 -0.004710 0.020436 -0.003747 0.000000 -0.000464 0.000000
# 3 -0.002057 -0.003747 0.006924 0.000000 -0.000016 0.000000
# 4 0.000000 0.000000 0.000000 0.068282 0.000000 0.062246
# 5 0.000389 -0.000464 -0.000016 0.000000 0.035335 0.000000
# 6 0.000000 0.000000 0.000000 0.062246 0.000000 -0.606991
#
#
# Mechanical properties :
#
#
# Convention : Reuss Voigt Hill
#
# Bulk Modulus (GPa) = 44.88303 56.60550 50.74427
# Shear Modulus (GPa) = -11.58450 22.30249 5.35899
#
# Velocity S-wave (km/s) = -2.48263 3.44468 1.68855
# Velocity P-wave (km/s) = 3.95749 6.77773 5.54974
#
# Compressibility (1/GPa) = 0.02228013
#
# Stress axis : x y z
#
# Youngs Moduli (GPa) = 62.70514 48.93278 144.42135
#
# Poissons Ratio (x) = 0.23047 0.29704
# Poissons Ratio (y) = 0.29533 0.54119
# Poissons Ratio (z) = 0.12897 0.18337
#
# Static dielectric constant tensor:
#      x y z
#    x 1.743230 0.000000 0.036130 
#    y 0.000000 1.631820 0.000000 
#    z 0.036130 0.000000 1.756170 
# 
# From -- ./inp_files/9452.got.cif
#   From: 2010.05.17/outbox.cif.g08.bks.cpg/sg3_5_cif.got.tgz:9452.got - 2010.06.03 18:33:08.
