data_PCOD9112994
_publ_section_title
;
Structure prediction by ZEFSAII (Michael W. Deem and Ramdas Pophale) SiO2 
 PCOD9112994
Probable space group: P 2
;
_chemical_formula_sum "Si O2"
_cell_formula_units_Z 16
_cell_length_a 8.722846
_cell_length_b 12.077301
_cell_length_c 8.967395
_cell_angle_alpha 90.000000
_cell_angle_beta 62.950579
_cell_angle_gamma 90.000000
_cell_volume 841.364542
_symmetry_space_group_name_H-M "P 2"
_symmetry_group_IT_number 3
_symmetry_cell_setting 'monoclinic'
loop_
_space_group_symop_operation_xyz
x,y,z
-x,y,-z
loop_
_atom_site_type_symbol
_atom_site_label
_atom_site_fract_x
_atom_site_fract_y
_atom_site_fract_z
Si Si1 0.150891 0.842570 0.319983
Si Si2 0.315713 0.228104 0.999866
Si Si3 0.527068 0.817628 0.168334
Si Si4 0.280057 0.604164 0.810469
Si Si5 0.519684 0.377055 0.321684
Si Si6 0.174641 0.984518 0.014032
Si Si7 0.849665 0.375805 0.674302
Si Si8 0.065779 0.606719 0.211370
O O1 0.339244 0.848763 0.308901
O O2 0.146262 0.929305 0.187545
O O3 0.125945 0.718321 0.266189
O O4 0.000000 0.865365 0.500000
O O5 0.363370 0.296833 0.830988
O O6 0.500000 0.209563 0.000000
O O7 0.194271 0.299900 0.163198
O O8 0.229437 0.111431 0.003034
O O9 0.599037 0.709296 0.216407
O O10 0.500000 0.798735 0.000000
O O11 0.667616 0.913668 0.123122
O O12 0.390431 0.496745 0.723190
O O13 0.131287 0.620888 0.753834
O O14 0.180418 0.590144 0.012084
O O15 0.500000 0.338958 0.500000
O O16 0.330622 0.385023 0.333142
O O17 0.000000 0.970839 0.000000
O O18 0.908710 0.497122 0.702639
O O19 0.000000 0.331125 0.500000
#
# Coordination Sequence:
#
# PCOD9112994 Si02
#       8
#     2   2   2   2   2   2   2   2
#     4  11  23  39  63  93 125 160 206 256 309 371
#     4  10  23  43  66  87 119 168 210 256 317 370
#     4  10  20  37  63  87 122 163 202 248 306 373
#     4  11  21  35  62  92 127 164 206 256 309 374
#     4  11  24  41  63  94 128 162 210 259 311 374
#     4  11  23  42  65  89 118 161 210 256 309 378
#     4  11  23  40  63  91 128 166 209 256 310 377
#     4  11  21  36  60  94 128 165 208 252 309 374
#
# _framework density 19.016726999999999
#
# number of rings (size 3 to 8) (size 9 to 14) (size 15 to 20)
#    0.000    1.250    3.750    3.750    0.000    3.500 
#    0.000    4.375    0.000    0.000    0.000    0.000 
#    0.000    0.000    0.000    0.000    0.000    0.000 
#
# Total GULP energy -89440.369330 kJ/mol
# GULP energy per Si atom -5590.023083 kJ/mol
# Density = 1.897344 g / cm^3
# Si number density = 19.016727 Si / 1000 Ang^3
#
#
#
# Elastic Constant Matrix: (Units=GPa)
#
#
# Indices 1 2 3 4 5 6 
#
# 1 131.7587 73.7117 64.5279 0.0000 -18.5340 0.0000
# 2 73.7117 121.1363 51.1997 0.0000 -5.5710 0.0000
# 3 64.5279 51.1997 118.2958 0.0000 -25.2948 0.0000
# 4 0.0000 0.0000 0.0000 1.4518 0.0000 5.8715
# 5 -18.5340 -5.5710 -25.2948 0.0000 32.3154 0.0000
# 6 0.0000 0.0000 0.0000 5.8715 0.0000 10.5744
#
#
#
# Elastic Compliance Matrix: (Units=1/GPa)
#
#
# Indices 1 2 3 4 5 6 
#
# 1 0.013620 -0.006501 -0.003825 0.000000 0.003697 0.000000
# 2 -0.006501 0.013317 -0.003031 0.000000 -0.003806 0.000000
# 3 -0.003825 -0.003031 0.013537 0.000000 0.007879 0.000000
# 4 0.000000 0.000000 0.000000 -0.552989 0.000000 0.307051
# 5 0.003697 -0.003806 0.007879 0.000000 0.038577 0.000000
# 6 0.000000 0.000000 0.000000 0.307051 0.000000 -0.075924
#
#
# Mechanical properties :
#
#
# Convention : Reuss Voigt Hill
#
# Bulk Modulus (GPa) = 72.68128 83.34103 78.01116
# Shear Modulus (GPa) = -9.64206 20.98508 5.67151
#
# Velocity S-wave (km/s) = -2.25418 3.32551 1.72883
# Velocity P-wave (km/s) = 5.61494 7.65935 6.71540
#
# Compressibility (1/GPa) = 0.01375870
#
# Stress axis : x y z
#
# Youngs Moduli (GPa) = 73.42173 75.09039 73.87222
#
# Poissons Ratio (x) = 0.48816 0.28258
# Poissons Ratio (y) = 0.47731 0.22394
# Poissons Ratio (z) = 0.28086 0.22763
#
# Static dielectric constant tensor:
#      x y z
#    x 1.656310 0.000000 0.001410 
#    y 0.000000 1.620360 0.000000 
#    z 0.001410 0.000000 1.677600 
# 
# From -- ./inp_files/5990.got.cif
#   From: 2010.05.17/outbox.cif.g08.bks.cpg/sg3_3_cif.got.tgz:5990.got - 2010.06.03 18:33:08.
