data_PCOD9112038
_publ_section_title
;
Structure prediction by ZEFSAII (Michael W. Deem and Ramdas Pophale) SiO2 
 PCOD9112038
Probable space group: P -1
;
_chemical_formula_sum "Si O2"
_cell_formula_units_Z 12
_cell_length_a 9.877257
_cell_length_b 8.521661
_cell_length_c 11.723917
_cell_angle_alpha 126.032718
_cell_angle_beta 49.268720
_cell_angle_gamma 101.932919
_cell_volume 578.922193
_symmetry_space_group_name_H-M "P -1"
_symmetry_group_IT_number 2
_symmetry_cell_setting 'triclinic'
loop_
_space_group_symop_operation_xyz
x,y,z
-x,-y,-z
loop_
_atom_site_type_symbol
_atom_site_label
_atom_site_fract_x
_atom_site_fract_y
_atom_site_fract_z
Si Si1 0.296745 0.009949 0.154559
Si Si2 0.049712 0.905783 0.058627
Si Si3 0.943344 0.581160 0.441452
Si Si4 0.292168 0.501675 0.652779
Si Si5 0.697499 0.928348 0.422841
Si Si6 0.805951 0.178112 0.668388
O O1 0.216121 0.207517 0.360630
O O2 0.157936 0.023099 0.130696
O O3 0.299456 0.822204 0.155543
O O4 0.500000 0.000000 0.000000
O O5 0.865694 0.900636 0.227818
O O6 0.196905 0.683417 0.868399
O O7 0.000000 0.000000 0.000000
O O8 0.846527 0.454974 0.361196
O O9 0.000000 0.500000 0.500000
O O10 0.125048 0.625910 0.306314
O O11 0.500000 0.500000 0.500000
O O12 0.288148 0.284934 0.613373
O O13 0.500000 0.000000 0.500000
O O14 0.711264 0.100411 0.580397
O O15 0.000000 0.000000 0.500000
#
# Coordination Sequence:
#
# PCOD9112038 Si02
#       6
#     2   2   2   2   2   2
#     4  11  22  42  68  92 129 173 217 267 330 395
#     4  12  25  42  66 102 137 170 221 277 334 394
#     4  11  22  42  68  92 129 173 217 267 330 395
#     4  12  25  42  66 102 137 170 221 277 334 394
#     4  12  25  44  70  96 135 182 223 274 332 396
#     4  10  20  44  68  88 125 179 218 260 337 381
#
# _framework density 20.728173999999999
#
# number of rings (size 3 to 8) (size 9 to 14) (size 15 to 20)
#    0.000    0.667    6.667    3.500    4.667    0.000 
#    0.000    0.833    0.000    0.000    0.000    0.000 
#    0.000    0.000    0.000    0.000    0.000    0.000 
#
# Total GULP energy -67038.231902 kJ/mol
# GULP energy per Si atom -5586.519325 kJ/mol
# Density = 2.068100 g / cm^3
# Si number density = 20.728174 Si / 1000 Ang^3
#
#
#
# Elastic Constant Matrix: (Units=GPa)
#
#
# Indices 1 2 3 4 5 6 
#
# 1 144.4080 37.8318 37.0112 -27.5837 3.5722 13.8000
# 2 37.8318 105.6264 37.0835 -51.8217 -9.6467 5.1506
# 3 37.0112 37.0835 92.5049 -29.0243 -4.9145 14.8232
# 4 -27.5837 -51.8217 -29.0243 53.1565 8.6558 0.9758
# 5 3.5722 -9.6467 -4.9145 8.6558 35.6840 -4.9424
# 6 13.8000 5.1506 14.8232 0.9758 -4.9424 36.3888
#
#
#
# Elastic Compliance Matrix: (Units=1/GPa)
#
#
# Indices 1 2 3 4 5 6 
#
# 1 0.008539 -0.001162 -0.001764 0.002788 -0.002471 -0.002766
# 2 -0.001162 0.018841 -0.001422 0.016923 0.000630 -0.002015
# 3 -0.001764 -0.001422 0.014786 0.005927 -0.000352 -0.005360
# 4 0.002788 0.016923 0.005927 0.041103 -0.005935 -0.007776
# 5 -0.002471 0.000630 -0.000352 -0.005935 0.030567 0.005302
# 6 -0.002766 -0.002015 -0.005360 -0.007776 0.005302 0.031927
#
#
# Mechanical properties :
#
#
# Convention : Reuss Voigt Hill
#
# Bulk Modulus (GPa) = 29.87691 62.93247 46.40469
# Shear Modulus (GPa) = 30.19014 40.42004 35.30509
#
# Velocity S-wave (km/s) = 3.82052 4.42068 4.13151
# Velocity P-wave (km/s) = 5.82296 7.51553 6.72273
#
# Compressibility (1/GPa) = 0.03347066
#
# Stress axis : x y z
#
# Youngs Moduli (GPa) = 117.10390 53.07491 67.63156
#
# Poissons Ratio (x) = 0.06167 0.11930
# Poissons Ratio (y) = 0.13608 0.09617
# Poissons Ratio (z) = 0.20657 0.07547
#
# Static dielectric constant tensor:
#      x y z
#    x 1.727130 0.021370 0.023700 
#    y 0.021370 1.939540 0.094900 
#    z 0.023700 0.094900 1.732090 
# 
# From -- ./inp_files/144512.got.cif
#   From: 2010.05.17/outbox.cif.g08.bks.cpg/sg2_73_cif.got.tgz:144512.got - 2010.06.03 11:33:40.
