data_PCOD9112258
_publ_section_title
;
Structure prediction by ZEFSAII (Michael W. Deem and Ramdas Pophale) SiO2 
 PCOD9112258
Probable space group: P -1
;
_chemical_formula_sum "Si O2"
_cell_formula_units_Z 14
_cell_length_a 10.096471
_cell_length_b 13.349428
_cell_length_c 11.461701
_cell_angle_alpha 121.119524
_cell_angle_beta 40.472164
_cell_angle_gamma 146.305272
_cell_volume 526.568769
_symmetry_space_group_name_H-M "P -1"
_symmetry_group_IT_number 2
_symmetry_cell_setting 'triclinic'
loop_
_space_group_symop_operation_xyz
x,y,z
-x,-y,-z
loop_
_atom_site_type_symbol
_atom_site_label
_atom_site_fract_x
_atom_site_fract_y
_atom_site_fract_z
Si Si1 0.715081 0.214229 0.964945
Si Si2 0.300089 0.218155 0.385196
Si Si3 0.246144 0.022230 0.686817
Si Si4 0.658050 0.923814 0.081952
Si Si5 0.730962 0.377020 0.405188
Si Si6 0.119446 0.359082 0.994036
Si Si7 0.145908 0.342743 0.374736
O O1 0.527881 0.236457 0.165194
O O2 0.048401 0.350087 0.897781
O O3 0.674664 0.214128 0.854523
O O4 0.500000 0.000000 0.000000
O O5 0.519996 0.348523 0.429223
O O6 0.169780 0.265703 0.423532
O O7 0.000000 0.000000 0.500000
O O8 0.391601 0.115198 0.772132
O O9 0.463451 0.176585 0.532642
O O10 0.146961 0.843485 0.619347
O O11 0.887147 0.925972 0.875688
O O12 0.886212 0.143355 0.050415
O O13 0.988846 0.407572 0.187208
O O14 0.872238 0.533683 0.495529
O O15 0.505468 0.508937 0.838809
#
# Coordination Sequence:
#
# PCOD9112258 Si02
#       7
#     2   2   2   2   2   2   2
#     4   9  19  38  67 102 132 179 226 284 348 406
#     4  11  21  40  67  98 138 175 228 286 344 413
#     4  11  23  43  75  99 138 197 231 281 350 418
#     4  10  20  45  71 100 139 192 235 281 346 420
#     4  11  24  46  66 106 142 183 235 289 345 420
#     4  10  24  43  72 106 143 177 234 296 351 413
#     4  12  24  45  70 106 142 183 232 286 360 414
#
# _framework density 26.587221
#
# number of rings (size 3 to 8) (size 9 to 14) (size 15 to 20)
#    0.000    1.429    4.286    0.429    2.000    3.429 
#    5.143    0.714    0.000    0.000    0.000    0.000 
#    0.000    0.000    0.000    0.000    0.000    0.000 
#
# Total GULP energy -78596.967821 kJ/mol
# GULP energy per Si atom -5614.069130 kJ/mol
# Density = 2.652671 g / cm^3
# Si number density = 26.587221 Si / 1000 Ang^3
#
#
#
# Elastic Constant Matrix: (Units=GPa)
#
#
# Indices 1 2 3 4 5 6 
#
# 1 82.6820 -4.8647 23.9454 5.2653 25.5785 17.9850
# 2 -4.8647 139.4033 49.2568 22.8595 -2.3510 12.3437
# 3 23.9454 49.2568 130.6269 7.4517 1.1160 11.2424
# 4 5.2653 22.8595 7.4517 46.4310 -5.4066 -3.4848
# 5 25.5785 -2.3510 1.1160 -5.4066 36.9819 1.4371
# 6 17.9850 12.3437 11.2424 -3.4848 1.4371 40.8880
#
#
#
# Elastic Compliance Matrix: (Units=1/GPa)
#
#
# Indices 1 2 3 4 5 6 
#
# 1 0.020003 0.003513 -0.003790 -0.005679 -0.013985 -0.008809
# 2 0.003513 0.009741 -0.003673 -0.005161 -0.002305 -0.003835
# 3 -0.003790 -0.003673 0.009650 0.000958 0.002232 0.000126
# 4 -0.005679 -0.005161 0.000958 0.025829 0.007124 0.005743
# 5 -0.013985 -0.002305 0.002232 0.007124 0.037326 0.005529
# 6 -0.008809 -0.003835 0.000126 0.005743 0.005529 0.029750
#
#
# Mechanical properties :
#
#
# Convention : Reuss Voigt Hill
#
# Bulk Modulus (GPa) = 31.75160 54.37637 43.06399
# Shear Modulus (GPa) = 33.17904 43.81849 38.49876
#
# Velocity S-wave (km/s) = 3.53644 4.06409 3.80941
# Velocity P-wave (km/s) = 5.35197 6.52065 5.96500
#
# Compressibility (1/GPa) = 0.03149448
#
# Stress axis : x y z
#
# Youngs Moduli (GPa) = 49.99213 102.66209 103.62184
#
# Poissons Ratio (x) = -0.36061 0.39269
# Poissons Ratio (y) = -0.17560 0.38058
# Poissons Ratio (z) = 0.18945 0.37706
#
# Static dielectric constant tensor:
#      x y z
#    x 2.100020 -0.002710 -0.004460 
#    y -0.002710 2.019180 -0.012190 
#    z -0.004460 -0.012190 2.030680 
# 
# From -- ./inp_files/433180.got.cif
#   From: 2010.05.17/outbox.cif.g08.bks.cpg/sg2_217_cif.got.tgz:433180.got - 2010.06.03 11:33:40.
