data_PCOD9112006
_publ_section_title
;
Structure prediction by ZEFSAII (Michael W. Deem and Ramdas Pophale) SiO2 
 PCOD9112006
Probable space group: P -1
;
_chemical_formula_sum "Si O2"
_cell_formula_units_Z 15
_cell_length_a 8.422854
_cell_length_b 14.148465
_cell_length_c 8.077508
_cell_angle_alpha 90.795441
_cell_angle_beta 48.883335
_cell_angle_gamma 69.038643
_cell_volume 633.321192
_symmetry_space_group_name_H-M "P -1"
_symmetry_group_IT_number 2
_symmetry_cell_setting 'triclinic'
loop_
_space_group_symop_operation_xyz
x,y,z
-x,-y,-z
loop_
_atom_site_type_symbol
_atom_site_label
_atom_site_fract_x
_atom_site_fract_y
_atom_site_fract_z
Si Si1 0.500000 0.000000 0.500000
Si Si2 0.070971 0.339960 0.770600
Si Si3 0.343378 0.641834 0.760808
Si Si4 0.570479 0.203509 0.536685
Si Si5 0.260155 0.264616 0.275828
Si Si6 0.866852 0.466871 0.351770
Si Si7 0.250517 0.853924 0.222226
Si Si8 0.739568 0.938480 0.664407
O O1 0.593600 0.090718 0.460171
O O2 0.480880 0.017557 0.310287
O O3 0.281602 0.281686 0.759950
O O4 0.200123 0.282187 0.510740
O O5 0.015135 0.463011 0.796674
O O6 0.842392 0.325195 0.961147
O O7 0.344221 0.736600 0.652622
O O8 0.619410 0.555365 0.613596
O O9 0.234216 0.581942 0.718436
O O10 0.694724 0.190670 0.628047
O O11 0.238175 0.159138 0.242101
O O12 0.060645 0.371325 0.326940
O O13 0.534645 0.229959 0.041757
O O14 0.974454 0.887994 0.380556
O O15 0.257005 0.966691 0.231306
#
# Coordination Sequence:
#
# PCOD9112006 Si02
#       8
#     1   2   2   2   2   2   2   2
#     4  10  20  44  66  98 134 158 224 274 334 388
#     4  11  23  40  64  97 140 174 222 274 335 385
#     4  10  22  42  66  95 132 179 225 274 325 400
#     4  10  21  42  67  97 131 175 220 274 327 395
#     4  12  23  40  65  97 135 174 215 277 333 392
#     4  10  23  40  64  97 133 175 229 272 330 389
#     4  10  23  41  69  95 133 171 225 269 329 398
#     4  10  22  42  66  97 128 174 219 274 330 397
#
# _framework density 23.684667000000001
#
# number of rings (size 3 to 8) (size 9 to 14) (size 15 to 20)
#    0.000    1.600    1.333    2.800    0.000    5.867 
#    0.000    5.333    0.000    0.000    0.000    0.000 
#    0.000    0.000    0.000    0.000    0.000    0.000 
#
# Total GULP energy -83631.640007 kJ/mol
# GULP energy per Si atom -5575.442667 kJ/mol
# Density = 2.363076 g / cm^3
# Si number density = 23.684667 Si / 1000 Ang^3
#
#
#
# Elastic Constant Matrix: (Units=GPa)
#
#
# Indices 1 2 3 4 5 6 
#
# 1 23.4945 20.3722 13.7946 -7.2892 0.3889 12.7469
# 2 20.3722 153.2500 46.1134 -13.2614 -19.0419 5.5356
# 3 13.7946 46.1134 154.1410 -10.3233 -7.9074 13.2388
# 4 -7.2892 -13.2614 -10.3233 25.0416 8.7953 -7.7156
# 5 0.3889 -19.0419 -7.9074 8.7953 26.4033 -1.1649
# 6 12.7469 5.5356 13.2388 -7.7156 -1.1649 34.4281
#
#
#
# Elastic Compliance Matrix: (Units=1/GPa)
#
#
# Indices 1 2 3 4 5 6 
#
# 1 0.065141 -0.007916 -0.001551 0.012240 -0.012089 -0.019915
# 2 -0.007916 0.008795 -0.001812 0.000287 0.005931 0.002479
# 3 -0.001551 -0.001812 0.007409 0.000905 0.000556 -0.001762
# 4 0.012240 0.000287 0.000905 0.051761 -0.016675 0.006110
# 5 -0.012089 0.005931 0.000556 -0.016675 0.048103 0.001199
# 6 -0.019915 0.002479 -0.001762 0.006110 0.001199 0.038108
#
#
# Mechanical properties :
#
#
# Convention : Reuss Voigt Hill
#
# Bulk Modulus (GPa) = 17.01113 54.60510 35.80811
# Shear Modulus (GPa) = 19.12256 33.88162 26.50209
#
# Velocity S-wave (km/s) = 2.84453 3.78634 3.34871
# Velocity P-wave (km/s) = 4.24104 6.49771 5.48665
#
# Compressibility (1/GPa) = 0.05878504
#
# Stress axis : x y z
#
# Youngs Moduli (GPa) = 15.35142 113.69943 134.97176
#
# Poissons Ratio (x) = 0.90007 0.20940
# Poissons Ratio (y) = 0.12153 0.24459
# Poissons Ratio (z) = 0.02382 0.20604
#
# Static dielectric constant tensor:
#      x y z
#    x 1.915170 0.034850 0.044420 
#    y 0.034850 1.888410 -0.005270 
#    z 0.044420 -0.005270 1.937640 
# 
# From -- ./inp_files/135165.got.cif
#   From: 2010.05.17/outbox.cif.g08.bks.cpg/sg2_68_cif.got.tgz:135165.got - 2010.06.03 11:33:40.
