data_PCOD9112395
_publ_section_title
;
Structure prediction by ZEFSAII (Michael W. Deem and Ramdas Pophale) SiO2 
 PCOD9112395
Probable space group: P -1
;
_chemical_formula_sum "Si O2"
_cell_formula_units_Z 14
_cell_length_a 13.129588
_cell_length_b 14.901714
_cell_length_c 12.101753
_cell_angle_alpha 28.894537
_cell_angle_beta 69.148391
_cell_angle_gamma 88.365146
_cell_volume 832.927680
_symmetry_space_group_name_H-M "P -1"
_symmetry_group_IT_number 2
_symmetry_cell_setting 'triclinic'
loop_
_space_group_symop_operation_xyz
x,y,z
-x,-y,-z
loop_
_atom_site_type_symbol
_atom_site_label
_atom_site_fract_x
_atom_site_fract_y
_atom_site_fract_z
Si Si1 0.674589 0.293904 0.278624
Si Si2 0.044873 0.098745 0.717548
Si Si3 0.635866 0.005808 0.259973
Si Si4 0.345449 0.568877 0.111021
Si Si5 0.891408 0.814484 0.651881
Si Si6 0.653986 0.867287 0.652367
Si Si7 0.925264 0.221672 0.816972
O O1 0.525720 0.185832 0.507405
O O2 0.683177 0.082888 0.481364
O O3 0.663105 0.366946 0.080675
O O4 0.811424 0.537788 0.011658
O O5 0.207275 0.304193 0.468212
O O6 0.037161 0.122359 0.564473
O O7 0.958136 0.155662 0.759815
O O8 0.014018 0.857213 0.029638
O O9 0.654731 0.930202 0.455292
O O10 0.655767 0.247352 0.013327
O O11 0.760323 0.071678 0.063507
O O12 0.496006 0.633581 0.992870
O O13 0.768091 0.834051 0.664706
O O14 0.000000 0.000000 0.500000
O O15 0.000000 0.500000 0.500000
#
# Coordination Sequence:
#
# PCOD9112395 Si02
#       7
#     2   2   2   2   2   2   2
#     4   8  18  30  49  76  98 129 165 203 256 302
#     4  10  21  32  48  78 105 131 168 197 250 304
#     4   9  15  30  51  75 105 127 156 203 261 306
#     4   8  15  29  50  77 102 121 159 206 260 316
#     4  11  22  34  51  74 102 138 173 202 242 295
#     4   9  17  31  50  75 104 127 154 213 260 292
#     4  11  20  31  50  76 108 135 155 202 256 303
#
# _framework density 16.808181999999999
#
# number of rings (size 3 to 8) (size 9 to 14) (size 15 to 20)
#    0.000    2.571    2.857    1.714    2.000    2.286 
#    0.000    0.000    0.000    0.857    0.000    3.000 
#    0.000    0.000    0.000    0.000    0.000    0.000 
#
# Total GULP energy -78023.621439 kJ/mol
# GULP energy per Si atom -5573.115817 kJ/mol
# Density = 1.676993 g / cm^3
# Si number density = 16.808182 Si / 1000 Ang^3
#
#
#
# Elastic Constant Matrix: (Units=GPa)
#
#
# Indices 1 2 3 4 5 6 
#
# 1 30.5428 35.2623 14.4621 8.3621 -7.6102 -17.4815
# 2 35.2623 94.7531 53.6441 4.0069 -20.7846 -14.4775
# 3 14.4621 53.6441 87.6754 -2.0150 -9.6052 -10.5490
# 4 8.3621 4.0069 -2.0150 28.5694 -9.1894 -9.0833
# 5 -7.6102 -20.7846 -9.6052 -9.1894 25.1829 -0.0037
# 6 -17.4815 -14.4775 -10.5490 -9.0833 -0.0037 29.2765
#
#
#
# Elastic Compliance Matrix: (Units=1/GPa)
#
#
# Indices 1 2 3 4 5 6 
#
# 1 0.090800 -0.032742 0.009627 -0.008668 0.000931 0.038807
# 2 -0.032742 0.032060 -0.013321 0.006557 0.013877 -0.006461
# 3 0.009627 -0.013321 0.018839 0.002528 0.000023 0.006734
# 4 -0.008668 0.006557 0.002528 0.048066 0.021298 0.013893
# 5 0.000931 0.013877 0.000023 0.021298 0.059227 0.014042
# 6 0.038807 -0.006461 0.006734 0.013893 0.014042 0.060873
#
#
# Mechanical properties :
#
#
# Convention : Reuss Voigt Hill
#
# Bulk Modulus (GPa) = 14.52897 46.63425 30.58161
# Shear Modulus (GPa) = 12.32501 23.91259 18.11880
#
# Velocity S-wave (km/s) = 2.71084 3.77593 3.28681
# Velocity P-wave (km/s) = 4.29662 6.84218 5.71298
#
# Compressibility (1/GPa) = 0.06882802
#
# Stress axis : x y z
#
# Youngs Moduli (GPa) = 11.01320 31.19156 53.08070
#
# Poissons Ratio (x) = 1.02126 -0.51103
# Poissons Ratio (y) = 0.36059 0.70711
# Poissons Ratio (z) = -0.10603 0.41552
#
# Static dielectric constant tensor:
#      x y z
#    x 1.562330 -0.035930 0.002000 
#    y -0.035930 1.577700 -0.022710 
#    z 0.002000 -0.022710 1.628660 
# 
# From -- ./inp_files/193040.got.cif
#   From: 2010.05.17/outbox.cif.g08.bks.cpg/sg2_97_cif.got.tgz:193040.got - 2010.06.03 11:33:40.
