data_PCOD9112822
_publ_section_title
;
Structure prediction by ZEFSAII (Michael W. Deem and Ramdas Pophale) SiO2 
 PCOD9112822
Probable space group: P 2
;
_chemical_formula_sum "Si O2"
_cell_formula_units_Z 16
_cell_length_a 5.196616
_cell_length_b 9.087237
_cell_length_c 20.066723
_cell_angle_alpha 90.000000
_cell_angle_beta 55.437748
_cell_angle_gamma 90.000000
_cell_volume 780.365341
_symmetry_space_group_name_H-M "P 2"
_symmetry_group_IT_number 3
_symmetry_cell_setting 'monoclinic'
loop_
_space_group_symop_operation_xyz
x,y,z
-x,y,-z
loop_
_atom_site_type_symbol
_atom_site_label
_atom_site_fract_x
_atom_site_fract_y
_atom_site_fract_z
Si Si1 0.708412 0.190930 0.751153
Si Si2 0.232658 0.481602 0.415054
Si Si3 0.661238 0.815357 0.069771
Si Si4 0.537282 0.521938 0.755050
Si Si5 0.750713 0.944666 0.196396
Si Si6 0.364545 0.119072 0.083679
Si Si7 0.077091 0.669583 0.184396
Si Si8 0.263309 0.278411 0.587340
O O1 0.559131 0.345830 0.752303
O O2 0.657778 0.184106 0.838552
O O3 0.067197 0.193422 0.672853
O O4 0.529686 0.052840 0.744631
O O5 0.354257 0.572428 0.334407
O O6 0.525944 0.404088 0.408026
O O7 0.000000 0.562997 0.500000
O O8 0.003839 0.355649 0.418335
O O9 0.642626 0.840861 0.151837
O O10 0.370254 0.713129 0.095025
O O11 0.596718 0.978668 0.052539
O O12 0.000000 0.762106 0.000000
O O13 0.776047 0.584914 0.774472
O O14 0.179370 0.569381 0.813456
O O15 0.912598 0.829161 0.222873
O O16 0.019525 0.050513 0.127077
O O17 0.500000 0.206885 0.000000
O O18 0.500000 0.201593 0.500000
#
# Coordination Sequence:
#
# PCOD9112822 Si02
#       8
#     2   2   2   2   2   2   2   2
#     4  10  23  35  64  96 126 168 205 260 323 376
#     4   9  18  34  59  90 121 158 203 252 301 365
#     4  10  19  38  63  88 112 155 218 266 292 351
#     4  11  22  39  61  93 132 157 199 258 321 375
#     4  10  21  39  62  89 119 159 218 255 307 367
#     4  10  20  34  62  91 123 157 215 266 303 359
#     4  11  23  39  61  91 121 163 200 259 311 371
#     4   9  18  34  57  93 127 156 203 258 308 367
#
# _framework density 20.503215999999998
#
# number of rings (size 3 to 8) (size 9 to 14) (size 15 to 20)
#    0.000    2.000    2.500    1.500    5.250    0.000 
#    0.000    0.000    5.500    0.000    9.750    0.000 
#    0.000    0.000    0.000    0.000    0.000    0.000 
#
# Total GULP energy -89128.734808 kJ/mol
# GULP energy per Si atom -5570.545925 kJ/mol
# Density = 2.045655 g / cm^3
# Si number density = 20.503216 Si / 1000 Ang^3
#
#
#
# Elastic Constant Matrix: (Units=GPa)
#
#
# Indices 1 2 3 4 5 6 
#
# 1 111.0741 32.7098 27.9020 0.0000 -13.0188 0.0000
# 2 32.7098 53.2063 28.3656 0.0000 -13.7669 0.0000
# 3 27.9020 28.3656 100.5404 0.0000 -18.3959 0.0000
# 4 0.0000 0.0000 0.0000 -25.1297 0.0000 -37.2974
# 5 -13.0188 -13.7669 -18.3959 0.0000 39.4718 0.0000
# 6 0.0000 0.0000 0.0000 -37.2974 0.0000 -0.1136
#
#
#
# Elastic Compliance Matrix: (Units=1/GPa)
#
#
# Indices 1 2 3 4 5 6 
#
# 1 0.011187 -0.005950 -0.001236 0.000000 0.001039 0.000000
# 2 -0.005950 0.026331 -0.004872 0.000000 0.004951 0.000000
# 3 -0.001236 -0.004872 0.012330 0.000000 0.003639 0.000000
# 4 0.000000 0.000000 0.000000 0.000082 0.000000 -0.026867
# 5 0.001039 0.004951 0.003639 0.000000 0.029100 0.000000
# 6 0.000000 0.000000 0.000000 -0.026867 0.000000 0.018102
#
#
# Mechanical properties :
#
#
# Convention : Reuss Voigt Hill
#
# Bulk Modulus (GPa) = 38.86143 49.19730 44.02937
# Shear Modulus (GPa) = 38.51354 14.56859 26.54107
#
# Velocity S-wave (km/s) = 4.33877 2.66851 3.60180
# Velocity P-wave (km/s) = 6.64040 5.79151 6.23043
#
# Compressibility (1/GPa) = 0.02573245
#
# Stress axis : x y z
#
# Youngs Moduli (GPa) = 89.38604 37.97828 81.10548
#
# Poissons Ratio (x) = 0.22597 0.10025
# Poissons Ratio (y) = 0.53185 0.39512
# Poissons Ratio (z) = 0.11048 0.18502
#
# Static dielectric constant tensor:
#      x y z
#    x 1.813000 0.000000 0.049270 
#    y 0.000000 1.749460 0.000000 
#    z 0.049270 0.000000 1.827280 
# 
# From -- ./inp_files/15622.got.cif
#   From: 2010.05.17/outbox.cif.g08.bks.cpg/sg3_8_cif.got.tgz:15622.got - 2010.06.03 18:33:08.
