data_PCOD9112120
_publ_section_title
;
Structure prediction by ZEFSAII (Michael W. Deem and Ramdas Pophale) SiO2 
 PCOD9112120
Probable space group: P -1
;
_chemical_formula_sum "Si O2"
_cell_formula_units_Z 15
_cell_length_a 14.767052
_cell_length_b 8.150483
_cell_length_c 15.179187
_cell_angle_alpha 73.561168
_cell_angle_beta 28.347552
_cell_angle_gamma 89.620609
_cell_volume 704.318051
_symmetry_space_group_name_H-M "P -1"
_symmetry_group_IT_number 2
_symmetry_cell_setting 'triclinic'
loop_
_space_group_symop_operation_xyz
x,y,z
-x,-y,-z
loop_
_atom_site_type_symbol
_atom_site_label
_atom_site_fract_x
_atom_site_fract_y
_atom_site_fract_z
Si Si1 0.436439 0.869243 0.163082
Si Si2 0.994263 0.175445 0.928531
Si Si3 0.722705 0.585639 0.674033
Si Si4 0.237148 0.623300 0.829081
Si Si5 0.041104 0.201890 0.389049
Si Si6 0.274991 0.510044 0.006739
Si Si7 0.500000 0.500000 0.500000
Si Si8 0.870090 0.192613 0.841896
O O1 0.383353 0.648465 0.220422
O O2 0.202362 0.831216 0.403721
O O3 0.500000 0.000000 0.000000
O O4 0.638150 0.999591 0.037414
O O5 0.957750 0.138965 0.861368
O O6 0.239936 0.374193 0.704616
O O7 0.787477 0.195216 0.138940
O O8 0.000000 0.000000 0.000000
O O9 0.791947 0.626924 0.710341
O O10 0.534373 0.629173 0.797421
O O11 0.949398 0.722642 0.403796
O O12 0.247026 0.511114 0.925988
O O13 0.433153 0.641978 0.596696
O O14 0.000000 0.500000 0.000000
O O15 0.156059 0.285599 0.183880
O O16 0.000000 0.000000 0.500000
O O17 0.165656 0.627001 0.125719
#
# Coordination Sequence:
#
# PCOD9112120 Si02
#       8
#     2   2   2   2   2   2   1   2
#     4  12  23  41  67  96 134 182 227 281 336 402
#     4  10  23  42  67 104 137 174 229 288 344 418
#     4  12  24  43  68  94 138 183 223 286 337 405
#     4   9  21  42  68  98 134 175 227 279 342 420
#     4  12  24  43  65  99 137 183 228 283 338 408
#     4  11  23  42  67  98 136 176 227 281 342 410
#     4  10  20  44  70  94 136 182 220 282 356 394
#     4  11  24  44  66  99 138 179 232 274 346 417
#
# _framework density 21.297196
#
# number of rings (size 3 to 8) (size 9 to 14) (size 15 to 20)
#    0.000    1.067    2.667    4.000    0.000    3.733 
#    2.400    0.000    0.000    0.000    0.000    0.000 
#    0.000    0.000    0.000    0.000    0.000    0.000 
#
# Total GULP energy -83536.639966 kJ/mol
# GULP energy per Si atom -5569.109331 kJ/mol
# Density = 2.124872 g / cm^3
# Si number density = 21.297196 Si / 1000 Ang^3
#
#
#
# Elastic Constant Matrix: (Units=GPa)
#
#
# Indices 1 2 3 4 5 6 
#
# 1 146.6494 21.6281 38.7282 -18.9689 -11.2924 -1.7041
# 2 21.6281 57.8431 27.3750 1.2699 11.0837 -13.0874
# 3 38.7282 27.3750 80.6171 13.4160 -25.5858 -9.9246
# 4 -18.9689 1.2699 13.4160 44.7883 -3.4107 -10.1998
# 5 -11.2924 11.0837 -25.5858 -3.4107 31.8587 -3.7826
# 6 -1.7041 -13.0874 -9.9246 -10.1998 -3.7826 32.1397
#
#
#
# Elastic Compliance Matrix: (Units=1/GPa)
#
#
# Indices 1 2 3 4 5 6 
#
# 1 0.008939 -0.001440 -0.004420 0.005269 0.000717 0.000279
# 2 -0.001440 0.032608 -0.018365 0.003284 -0.025592 0.005561
# 3 -0.004420 -0.018365 0.032019 -0.007924 0.030069 0.003199
# 4 0.005269 0.003284 -0.007924 0.028545 -0.001629 0.008037
# 5 0.000717 -0.025592 0.030069 -0.001629 0.065240 0.006063
# 6 0.000279 0.005561 0.003199 0.008037 0.006063 0.037645
#
#
# Mechanical properties :
#
#
# Convention : Reuss Voigt Hill
#
# Bulk Modulus (GPa) = 39.81565 51.17470 45.49518
# Shear Modulus (GPa) = 19.09710 34.91589 27.00650
#
# Velocity S-wave (km/s) = 2.99774 4.05342 3.56487
# Velocity P-wave (km/s) = 5.54236 6.78144 6.19297
#
# Compressibility (1/GPa) = 0.02511575
#
# Stress axis : x y z
#
# Youngs Moduli (GPa) = 111.87453 30.66708 31.23109
#
# Poissons Ratio (x) = 0.04417 0.13804
# Poissons Ratio (y) = 0.16115 0.57356
# Poissons Ratio (z) = 0.49447 0.56320
#
# Static dielectric constant tensor:
#      x y z
#    x 1.702740 0.024080 0.016210 
#    y 0.024080 1.819950 0.019790 
#    z 0.016210 0.019790 1.781030 
# 
# From -- ./inp_files/529529.got.cif
#   From: 2010.05.17/outbox.cif.g08.bks.cpg/sg2_265_cif.got.tgz:529529.got - 2010.06.03 11:33:40.
