data_PCOD9112908
_publ_section_title
;
Structure prediction by ZEFSAII (Michael W. Deem and Ramdas Pophale) SiO2 
 PCOD9112908
Probable space group: P 2
;
_chemical_formula_sum "Si O2"
_cell_formula_units_Z 12
_cell_length_a 8.731289
_cell_length_b 9.670916
_cell_length_c 9.176299
_cell_angle_alpha 90.000000
_cell_angle_beta 120.992637
_cell_angle_gamma 90.000000
_cell_volume 664.221081
_symmetry_space_group_name_H-M "P 2"
_symmetry_group_IT_number 3
_symmetry_cell_setting 'monoclinic'
loop_
_space_group_symop_operation_xyz
x,y,z
-x,y,-z
loop_
_atom_site_type_symbol
_atom_site_label
_atom_site_fract_x
_atom_site_fract_y
_atom_site_fract_z
Si Si1 0.532171 0.535720 0.685077
Si Si2 0.699760 0.831316 0.169154
Si Si3 0.833006 0.540882 0.310922
Si Si4 0.311065 0.348164 0.995302
Si Si5 0.812432 0.040781 0.989992
Si Si6 0.469978 0.857922 0.318163
O O1 0.500000 0.499100 0.500000
O O2 0.342701 0.527952 0.674636
O O3 0.591152 0.696868 0.721703
O O4 0.659182 0.438093 0.843423
O O5 0.809097 0.689592 0.221785
O O6 0.650304 0.868088 0.310791
O O7 0.500000 0.810197 0.000000
O O8 0.801316 0.950246 0.132257
O O9 0.823255 0.425453 0.180923
O O10 0.000000 0.534541 0.500000
O O11 0.500000 0.342074 0.000000
O O12 0.248141 0.195623 0.004305
O O13 0.670404 0.962770 0.818255
O O14 0.000000 0.039156 0.000000
O O15 0.500000 0.889215 0.500000
#
# Coordination Sequence:
#
# PCOD9112908 Si02
#       6
#     2   2   2   2   2   2
#     4   9  19  36  60  84 107 140 181 219 268 332
#     4   9  18  37  59  79 108 146 180 216 271 333
#     4  10  20  35  58  85 108 137 180 228 274 317
#     4  10  20  38  57  75 110 152 181 215 270 333
#     4  11  23  36  53  80 110 145 185 226 270 314
#     4   9  18  36  59  83 107 138 181 222 267 331
#
# _framework density 18.066275999999998
#
# number of rings (size 3 to 8) (size 9 to 14) (size 15 to 20)
#    0.000    2.333    0.000    5.000    0.000    6.000 
#    0.000    5.833    0.000    0.000    0.000    0.000 
#    0.000    0.000    0.000    0.000    0.000    0.000 
#
# Total GULP energy -66932.061546 kJ/mol
# GULP energy per Si atom -5577.671795 kJ/mol
# Density = 1.802516 g / cm^3
# Si number density = 18.066276 Si / 1000 Ang^3
#
#
#
# Elastic Constant Matrix: (Units=GPa)
#
#
# Indices 1 2 3 4 5 6 
#
# 1 48.0508 57.6996 42.2020 0.0000 -12.9412 0.0000
# 2 57.6996 156.4952 93.5408 0.0000 -7.5765 0.0000
# 3 42.2020 93.5408 118.2460 0.0000 -20.3021 0.0000
# 4 0.0000 0.0000 0.0000 2.0608 0.0000 -6.4746
# 5 -12.9412 -7.5765 -20.3021 0.0000 37.5497 0.0000
# 6 0.0000 0.0000 0.0000 -6.4746 0.0000 18.1187
#
#
#
# Elastic Compliance Matrix: (Units=1/GPa)
#
#
# Indices 1 2 3 4 5 6 
#
# 1 0.042019 -0.013451 -0.002574 0.000000 0.010376 0.000000
# 2 -0.013451 0.016746 -0.009549 0.000000 -0.006420 0.000000
# 3 -0.002574 -0.009549 0.018129 0.000000 0.006988 0.000000
# 4 0.000000 0.000000 0.000000 -3.954744 0.000000 -1.413189
# 5 0.010376 -0.006420 0.006988 0.000000 0.032690 0.000000
# 6 0.000000 0.000000 0.000000 -1.413189 0.000000 -0.449798
#
#
# Mechanical properties :
#
#
# Convention : Reuss Voigt Hill
#
# Bulk Modulus (GPa) = 38.84142 78.85298 58.84720
# Shear Modulus (GPa) = -1.18057 20.16916 9.49429
#
# Velocity S-wave (km/s) = -0.80925 3.34488 2.29492
# Velocity P-wave (km/s) = 4.54675 7.65891 6.29809
#
# Compressibility (1/GPa) = 0.02574571
#
# Stress axis : x y z
#
# Youngs Moduli (GPa) = 23.79872 59.71478 55.15921
#
# Poissons Ratio (x) = 0.80325 0.14199
# Poissons Ratio (y) = 0.32013 0.52671
# Poissons Ratio (z) = 0.06126 0.57021
#
# Static dielectric constant tensor:
#      x y z
#    x 1.619730 0.000000 -0.012930 
#    y 0.000000 1.610570 0.000000 
#    z -0.012930 0.000000 1.632030 
# 
# From -- ./inp_files/4945.got.cif
#   From: 2010.05.17/outbox.cif.g08.bks.cpg/sg3_3_cif.got.tgz:4945.got - 2010.06.03 18:33:08.
