data_PCOD9112681
_publ_section_title
;
Structure prediction by ZEFSAII (Michael W. Deem and Ramdas Pophale) SiO2 
 PCOD9112681
Probable space group: P 2
;
_chemical_formula_sum "Si O2"
_cell_formula_units_Z 14
_cell_length_a 8.078795
_cell_length_b 17.106186
_cell_length_c 9.186026
_cell_angle_alpha 90.000000
_cell_angle_beta 33.678996
_cell_angle_gamma 90.000000
_cell_volume 703.979253
_symmetry_space_group_name_H-M "P 2"
_symmetry_group_IT_number 3
_symmetry_cell_setting 'monoclinic'
loop_
_space_group_symop_operation_xyz
x,y,z
-x,y,-z
loop_
_atom_site_type_symbol
_atom_site_label
_atom_site_fract_x
_atom_site_fract_y
_atom_site_fract_z
Si Si1 0.853513 0.631480 0.766329
Si Si2 0.852851 0.971047 0.766777
Si Si3 0.144749 0.801307 0.234820
Si Si4 0.842749 0.125704 0.958025
Si Si5 0.339099 0.217410 0.458836
Si Si6 0.083847 0.473623 0.105646
Si Si7 0.711643 0.389720 0.608345
O O1 0.936311 0.716852 0.772012
O O2 0.000000 0.623626 0.500000
O O3 0.500000 0.630699 0.000000
O O4 0.931184 0.557746 0.807118
O O5 0.943116 0.885729 0.765316
O O6 0.000000 0.981178 0.500000
O O7 0.900402 0.043751 0.837629
O O8 0.500000 0.968121 0.000000
O O9 0.000000 0.800901 0.500000
O O10 0.500000 0.801185 0.000000
O O11 0.004593 0.191132 0.741311
O O12 0.506442 0.151190 0.241263
O O13 0.000000 0.124179 0.000000
O O14 0.500000 0.224605 0.500000
O O15 0.359433 0.298568 0.359365
O O16 0.416024 0.436049 0.874738
O O17 0.000000 0.480560 0.000000
O O18 0.835477 0.420141 0.363868
O O19 0.000000 0.401618 0.500000
#
# Coordination Sequence:
#
# PCOD9112681 Si02
#       7
#     2   2   2   2   2   2   2
#     4  10  19  35  58  81 109 144 186 228 270 324
#     4  10  19  33  54  80 109 141 182 225 268 320
#     4   8  16  30  51  78 106 140 178 221 270 319
#     4  10  21  36  55  79 109 145 181 221 276 333
#     4  10  21  38  57  78 108 145 183 226 280 333
#     4  12  24  39  59  85 117 150 184 228 286 339
#     4  12  25  41  61  85 111 145 192 237 278 330
#
# _framework density 19.886951
#
# number of rings (size 3 to 8) (size 9 to 14) (size 15 to 20)
#    0.000    1.714    0.000    5.571    0.000    2.857 
#    0.000    0.714    0.000    0.000    0.000   16.000 
#    0.000    0.000    0.000    0.000    0.000    0.000 
#
# Total GULP energy -78130.549525 kJ/mol
# GULP energy per Si atom -5580.753538 kJ/mol
# Density = 1.984169 g / cm^3
# Si number density = 19.886951 Si / 1000 Ang^3
#
#
#
# Elastic Constant Matrix: (Units=GPa)
#
#
# Indices 1 2 3 4 5 6 
#
# 1 26.5379 22.8812 14.8700 0.0000 6.4577 0.0000
# 2 22.8812 154.9370 32.7664 0.0000 17.1531 0.0000
# 3 14.8700 32.7664 140.2726 0.0000 -0.5180 0.0000
# 4 0.0000 0.0000 0.0000 34.0520 0.0000 -5.3538
# 5 6.4577 17.1531 -0.5180 0.0000 23.0308 0.0000
# 6 0.0000 0.0000 0.0000 -5.3538 0.0000 -56.5014
#
#
#
# Elastic Compliance Matrix: (Units=1/GPa)
#
#
# Indices 1 2 3 4 5 6 
#
# 1 0.046405 -0.005017 -0.003782 0.000000 -0.009360 0.000000
# 2 -0.005017 0.007987 -0.001351 0.000000 -0.004572 0.000000
# 3 -0.003782 -0.001351 0.007854 0.000000 0.002243 0.000000
# 4 0.000000 0.000000 0.000000 0.028936 0.000000 -0.002742
# 5 -0.009360 -0.004572 0.002243 0.000000 0.049500 0.000000
# 6 0.000000 0.000000 0.000000 -0.002742 0.000000 -0.017439
#
#
# Mechanical properties :
#
#
# Convention : Reuss Voigt Hill
#
# Bulk Modulus (GPa) = 23.84019 51.42030 37.63025
# Shear Modulus (GPa) = 31.74124 16.86493 24.30308
#
# Velocity S-wave (km/s) = 3.99944 2.91527 3.49959
# Velocity P-wave (km/s) = 5.77418 6.10280 5.94076
#
# Compressibility (1/GPa) = 0.04194597
#
# Stress axis : x y z
#
# Youngs Moduli (GPa) = 21.54963 125.20334 127.32870
#
# Poissons Ratio (x) = 0.62814 0.48154
# Poissons Ratio (y) = 0.10811 0.17199
# Poissons Ratio (z) = 0.08150 0.16912
#
# Static dielectric constant tensor:
#      x y z
#    x 1.679220 0.000000 0.010110 
#    y 0.000000 1.765000 0.000000 
#    z 0.010110 0.000000 1.693400 
# 
# From -- ./inp_files/1589.got.cif
#   From: 2010.05.17/outbox.cif.g08.bks.cpg/sg3_1_cif.got.tgz:1589.got - 2010.06.03 18:33:08.
