data_PCOD9112604
_publ_section_title
;
Structure prediction by ZEFSAII (Michael W. Deem and Ramdas Pophale) SiO2 
 PCOD9112604
Probable space group: P 2
;
_chemical_formula_sum "Si O2"
_cell_formula_units_Z 15
_cell_length_a 9.132211
_cell_length_b 10.322262
_cell_length_c 17.478835
_cell_angle_alpha 90.000000
_cell_angle_beta 26.540858
_cell_angle_gamma 90.000000
_cell_volume 736.226321
_symmetry_space_group_name_H-M "P 2"
_symmetry_group_IT_number 3
_symmetry_cell_setting 'monoclinic'
loop_
_space_group_symop_operation_xyz
x,y,z
-x,y,-z
loop_
_atom_site_type_symbol
_atom_site_label
_atom_site_fract_x
_atom_site_fract_y
_atom_site_fract_z
Si Si1 0.064336 0.148430 0.609561
Si Si2 0.271582 0.902183 0.318009
Si Si3 0.255701 0.250881 0.784243
Si Si4 0.210050 0.966413 0.793229
Si Si5 0.708325 0.357541 0.698846
Si Si6 0.351891 0.767264 0.985190
Si Si7 0.150649 0.508316 0.013034
Si Si8 0.500000 0.010089 0.500000
O O1 0.412262 0.209399 0.417356
O O2 0.828237 0.268578 0.711586
O O3 0.166559 0.091603 0.642932
O O4 0.896023 0.034494 0.637597
O O5 0.579932 0.935572 0.228968
O O6 0.366888 0.802565 0.207459
O O7 0.000000 0.842184 0.500000
O O8 0.414374 0.284449 0.792007
O O9 0.045731 0.380510 0.863999
O O10 0.077869 0.113321 0.864628
O O11 0.447510 0.947369 0.607379
O O12 0.913105 0.874795 0.912892
O O13 0.000000 0.376782 0.500000
O O14 0.530879 0.479578 0.816895
O O15 0.500000 0.778861 0.000000
O O16 0.165627 0.631213 0.060599
O O17 0.000000 0.541992 0.000000
#
# Coordination Sequence:
#
# PCOD9112604 Si02
#       8
#     2   2   2   2   2   2   2   1
#     4  10  18  36  59 102 131 164 206 281 340 391
#     4  12  21  40  74  99 134 173 230 279 339 412
#     4   9  18  35  65  96 124 162 218 282 323 391
#     4  11  22  41  69 103 130 178 226 280 343 401
#     4   9  17  33  64  93 125 158 222 279 325 388
#     4  12  29  46  61  96 145 182 225 283 342 404
#     4  10  22  42  63  90 127 179 228 273 332 402
#     4  10  20  34  62  96 144 160 208 274 338 398
#
# _framework density 20.374168999999998
#
# number of rings (size 3 to 8) (size 9 to 14) (size 15 to 20)
#    0.000    1.600    4.000    2.400    1.867    1.600 
#    4.800    1.333    0.000    0.000    0.000    0.000 
#    0.000    0.000    0.000    0.000    0.000    0.000 
#
# Total GULP energy -83501.560173 kJ/mol
# GULP energy per Si atom -5566.770678 kJ/mol
# Density = 2.032780 g / cm^3
# Si number density = 20.374169 Si / 1000 Ang^3
#
#
#
# Elastic Constant Matrix: (Units=GPa)
#
#
# Indices 1 2 3 4 5 6 
#
# 1 134.8034 50.9436 29.3193 0.0000 -11.8466 0.0000
# 2 50.9436 117.4444 44.8998 0.0000 -14.6086 0.0000
# 3 29.3193 44.8998 65.6197 0.0000 -6.3818 0.0000
# 4 0.0000 0.0000 0.0000 4.0982 0.0000 -4.2054
# 5 -11.8466 -14.6086 -6.3818 0.0000 32.4483 0.0000
# 6 0.0000 0.0000 0.0000 -4.2054 0.0000 13.9314
#
#
#
# Elastic Compliance Matrix: (Units=1/GPa)
#
#
# Indices 1 2 3 4 5 6 
#
# 1 0.009110 -0.003056 -0.001824 0.000000 0.001591 0.000000
# 2 -0.003056 0.013012 -0.007215 0.000000 0.003323 0.000000
# 3 -0.001824 -0.007215 0.021012 0.000000 0.000218 0.000000
# 4 0.000000 0.000000 0.000000 0.353511 0.000000 0.106712
# 5 0.001591 0.003323 0.000218 0.000000 0.032938 0.000000
# 6 0.000000 0.000000 0.000000 0.106712 0.000000 0.103993
#
#
# Mechanical properties :
#
#
# Convention : Reuss Voigt Hill
#
# Bulk Modulus (GPa) = 52.78808 63.13254 57.96031
# Shear Modulus (GPa) = 8.86398 22.94258 15.90328
#
# Velocity S-wave (km/s) = 2.08807 3.35933 2.79688
# Velocity P-wave (km/s) = 5.63728 6.78974 6.24017
#
# Compressibility (1/GPa) = 0.01894367
#
# Stress axis : x y z
#
# Youngs Moduli (GPa) = 109.77199 76.85287 47.59124
#
# Poissons Ratio (x) = 0.23487 0.08683
# Poissons Ratio (y) = 0.33548 0.34335
# Poissons Ratio (z) = 0.20027 0.55446
#
# Static dielectric constant tensor:
#      x y z
#    x 1.733750 0.000000 -0.021280 
#    y 0.000000 1.772140 0.000000 
#    z -0.021280 0.000000 1.915680 
# 
# From -- ./inp_files/15032.got.cif
#   From: 2010.05.17/outbox.cif.g08.bks.cpg/sg3_8_cif.got.tgz:15032.got - 2010.06.03 18:33:08.
