data_PCOD9112680
_publ_section_title
;
Structure prediction by ZEFSAII (Michael W. Deem and Ramdas Pophale) SiO2 
 PCOD9112680
Probable space group: P 2
;
_chemical_formula_sum "Si O2"
_cell_formula_units_Z 16
_cell_length_a 15.387065
_cell_length_b 7.067075
_cell_length_c 24.674742
_cell_angle_alpha 90.000000
_cell_angle_beta 159.296326
_cell_angle_gamma 90.000000
_cell_volume 948.593866
_symmetry_space_group_name_H-M "P 2"
_symmetry_group_IT_number 3
_symmetry_cell_setting 'monoclinic'
loop_
_space_group_symop_operation_xyz
x,y,z
-x,y,-z
loop_
_atom_site_type_symbol
_atom_site_label
_atom_site_fract_x
_atom_site_fract_y
_atom_site_fract_z
Si Si1 0.848136 0.834870 0.630465
Si Si2 0.606289 0.569284 0.338382
Si Si3 0.956841 0.846048 0.819194
Si Si4 0.956767 0.834873 0.369569
Si Si5 0.500780 0.846071 0.819200
Si Si6 0.780330 0.159876 0.412778
Si Si7 0.591113 0.569259 0.661572
Si Si8 0.458033 0.159826 0.412797
O O1 0.953279 0.823161 0.752088
O O2 0.040387 0.824240 0.693579
O O3 0.647089 0.669460 0.504406
O O4 0.689800 0.028230 0.532574
O O5 0.866048 0.669477 0.504359
O O6 0.512979 0.666480 0.229084
O O7 0.650663 0.346957 0.358259
O O8 0.430622 0.609533 0.287099
O O9 0.825714 0.666418 0.770865
O O10 0.778926 0.023561 0.728218
O O11 0.228377 0.873077 0.999996
O O12 0.697038 0.823123 0.247953
O O13 0.092088 0.028248 0.467447
O O14 0.405762 0.023616 0.728238
O O15 0.000000 0.215750 0.500000
O O16 0.575837 0.346928 0.641697
O O17 0.500000 0.215671 0.500000
#
# Coordination Sequence:
#
# PCOD9112680 Si02
#       8
#     2   2   2   2   2   2   2   2
#     4   9  18  33  54  77  97 124 166 208 244 287
#     4  10  19  33  54  75  96 128 169 208 243 282
#     4  10  21  34  48  73 107 134 159 196 244 299
#     4   9  18  33  54  77  97 124 166 208 244 287
#     4  10  21  34  48  73 107 134 159 196 244 299
#     4   9  17  32  53  74  97 127 164 206 247 286
#     4  10  19  33  54  75  96 128 169 208 243 282
#     4   9  17  32  53  74  97 127 164 206 247 286
#
# _framework density 16.867070999999999
#
# number of rings (size 3 to 8) (size 9 to 14) (size 15 to 20)
#    0.000    2.500    0.000    4.500    0.000    3.000 
#    0.000    0.000    0.000    0.000    0.000    7.000 
#    0.000    0.000    0.000    0.000    0.000    0.000 
#
# Total GULP energy -89234.332553 kJ/mol
# GULP energy per Si atom -5577.145785 kJ/mol
# Density = 1.682868 g / cm^3
# Si number density = 16.867071 Si / 1000 Ang^3
#
#
#
# Elastic Constant Matrix: (Units=GPa)
#
#
# Indices 1 2 3 4 5 6 
#
# 1 96.8980 37.1512 46.4456 0.0000 0.0878 0.0000
# 2 37.1512 75.3267 20.3056 0.0000 0.0329 0.0000
# 3 46.4456 20.3056 85.3274 0.0000 -0.0880 0.0000
# 4 0.0000 0.0000 0.0000 5.1816 0.0000 0.0271
# 5 0.0878 0.0329 -0.0880 0.0000 9.4228 0.0000
# 6 0.0000 0.0000 0.0000 0.0271 0.0000 15.0377
#
#
#
# Elastic Compliance Matrix: (Units=1/GPa)
#
#
# Indices 1 2 3 4 5 6 
#
# 1 0.016141 -0.005976 -0.007364 0.000000 -0.000198 0.000000
# 2 -0.005976 0.016398 -0.000650 0.000000 -0.000008 0.000000
# 3 -0.007364 -0.000650 0.015883 0.000000 0.000219 0.000000
# 4 0.000000 0.000000 0.000000 0.192993 0.000000 -0.000348
# 5 -0.000198 -0.000008 0.000219 0.000000 0.106129 0.000000
# 6 0.000000 0.000000 0.000000 -0.000348 0.000000 0.066500
#
#
# Mechanical properties :
#
#
# Convention : Reuss Voigt Hill
#
# Bulk Modulus (GPa) = 48.91627 51.70632 50.31129
# Shear Modulus (GPa) = 11.13991 16.17173 13.65582
#
# Velocity S-wave (km/s) = 2.57272 3.09977 2.84846
# Velocity P-wave (km/s) = 6.15542 6.59797 6.38053
#
# Compressibility (1/GPa) = 0.02044310
#
# Stress axis : x y z
#
# Youngs Moduli (GPa) = 61.95306 60.98374 62.96090
#
# Poissons Ratio (x) = 0.36442 0.46366
# Poissons Ratio (y) = 0.37021 0.04090
# Poissons Ratio (z) = 0.45623 0.03961
#
# Static dielectric constant tensor:
#      x y z
#    x 1.594450 0.000000 0.000210 
#    y 0.000000 1.560860 0.000000 
#    z 0.000210 0.000000 1.524240 
# 
# From -- ./inp_files/11219.got.cif
#   From: 2010.05.17/outbox.cif.g08.bks.cpg/sg3_6_cif.got.tgz:11219.got - 2010.06.03 18:33:08.
