data_PCOD9112673
_publ_section_title
;
Structure prediction by ZEFSAII (Michael W. Deem and Ramdas Pophale) SiO2 
 PCOD9112673
Probable space group: P 2
;
_chemical_formula_sum "Si O2"
_cell_formula_units_Z 14
_cell_length_a 7.399420
_cell_length_b 9.771613
_cell_length_c 7.711324
_cell_angle_alpha 90.000000
_cell_angle_beta 84.484507
_cell_angle_gamma 90.000000
_cell_volume 554.980268
_symmetry_space_group_name_H-M "P 2"
_symmetry_group_IT_number 3
_symmetry_cell_setting 'monoclinic'
loop_
_space_group_symop_operation_xyz
x,y,z
-x,y,-z
loop_
_atom_site_type_symbol
_atom_site_label
_atom_site_fract_x
_atom_site_fract_y
_atom_site_fract_z
Si Si1 0.728115 0.924080 0.684791
Si Si2 0.692394 0.989169 0.313115
Si Si3 0.720876 0.130477 0.966904
Si Si4 0.289524 0.675403 0.083571
Si Si5 0.407726 0.467586 0.335156
Si Si6 0.774330 0.416451 0.118511
Si Si7 0.182359 0.260463 0.556309
O O1 0.780685 0.915647 0.475135
O O2 0.505571 0.923556 0.697049
O O3 0.787368 0.812378 0.822406
O O4 0.772741 0.065930 0.778203
O O5 0.778220 0.023397 0.116708
O O6 0.685738 0.145638 0.380504
O O7 0.794398 0.283894 0.993144
O O8 0.500000 0.133629 0.000000
O O9 0.295755 0.580474 0.251090
O O10 0.500000 0.700066 0.000000
O O11 0.196996 0.571002 0.953648
O O12 0.500000 0.525053 0.500000
O O13 0.563296 0.420228 0.191270
O O14 0.290098 0.342124 0.404026
O O15 0.867424 0.370512 0.288711
O O16 0.000000 0.199349 0.500000
#
# Coordination Sequence:
#
# PCOD9112673 Si02
#       7
#     2   2   2   2   2   2   2
#     4  10  20  31  55  89 124 150 188 246 309 359
#     4   9  20  31  54  84 121 152 199 240 305 358
#     4   9  16  29  50  80 115 146 184 241 297 346
#     4  10  19  33  51  89 123 152 185 246 307 370
#     4   9  19  31  55  83 115 144 193 244 305 352
#     4   9  19  33  57  84 118 147 193 253 309 354
#     4  10  21  38  58  87 119 157 208 259 304 358
#
# _framework density 25.226123999999999
#
# number of rings (size 3 to 8) (size 9 to 14) (size 15 to 20)
#    0.000    2.571    0.000    2.571   16.000    0.000 
#    2.571    0.714    0.000    0.857   14.857    0.000 
#    0.000    0.000    0.000    0.000    0.000    0.000 
#
# Total GULP energy -78105.973040 kJ/mol
# GULP energy per Si atom -5578.998074 kJ/mol
# Density = 2.516871 g / cm^3
# Si number density = 25.226124 Si / 1000 Ang^3
#
#
#
# Elastic Constant Matrix: (Units=GPa)
#
#
# Indices 1 2 3 4 5 6 
#
# 1 59.8403 9.1005 19.2730 0.0000 -2.4132 0.0000
# 2 9.1005 104.9488 45.9593 0.0000 -0.9051 0.0000
# 3 19.2730 45.9593 136.5837 0.0000 -4.0214 0.0000
# 4 0.0000 0.0000 0.0000 53.2480 0.0000 -5.8557
# 5 -2.4132 -0.9051 -4.0214 0.0000 12.5308 0.0000
# 6 0.0000 0.0000 0.0000 -5.8557 0.0000 -18.2163
#
#
#
# Elastic Compliance Matrix: (Units=1/GPa)
#
#
# Indices 1 2 3 4 5 6 
#
# 1 0.017616 -0.000528 -0.002230 0.000000 0.002639 0.000000
# 2 -0.000528 0.011193 -0.003706 0.000000 -0.000483 0.000000
# 3 -0.002230 -0.003706 0.008947 0.000000 0.002174 0.000000
# 4 0.000000 0.000000 0.000000 0.018139 0.000000 -0.005831
# 5 0.002639 -0.000483 0.002174 0.000000 0.080974 0.000000
# 6 0.000000 0.000000 0.000000 -0.005831 0.000000 -0.053021
#
#
# Mechanical properties :
#
#
# Convention : Reuss Voigt Hill
#
# Bulk Modulus (GPa) = 40.27789 50.00425 45.14107
# Shear Modulus (GPa) = 47.59489 24.64850 36.12170
#
# Velocity S-wave (km/s) = 4.34836 3.12925 3.78817
# Velocity P-wave (km/s) = 6.41969 5.73775 6.08827
#
# Compressibility (1/GPa) = 0.02482751
#
# Stress axis : x y z
#
# Youngs Moduli (GPa) = 56.76593 89.34120 111.76532
#
# Poissons Ratio (x) = 0.04718 0.24928
# Poissons Ratio (y) = 0.02998 0.41421
# Poissons Ratio (z) = 0.12661 0.33110
#
# Static dielectric constant tensor:
#      x y z
#    x 1.995530 0.000000 0.013260 
#    y 0.000000 2.016540 0.000000 
#    z 0.013260 0.000000 2.087830 
# 
# From -- ./inp_files/5567.got.cif
#   From: 2010.05.17/outbox.cif.g08.bks.cpg/sg3_3_cif.got.tgz:5567.got - 2010.06.03 18:33:08.
