data_PCOD9112334
_publ_section_title
;
Structure prediction by ZEFSAII (Michael W. Deem and Ramdas Pophale) SiO2 
 PCOD9112334
Probable space group: P -1
;
_chemical_formula_sum "Si O2"
_cell_formula_units_Z 15
_cell_length_a 9.172850
_cell_length_b 24.794007
_cell_length_c 8.001509
_cell_angle_alpha 136.193185
_cell_angle_beta 33.012916
_cell_angle_gamma 147.146435
_cell_volume 536.953246
_symmetry_space_group_name_H-M "P -1"
_symmetry_group_IT_number 2
_symmetry_cell_setting 'triclinic'
loop_
_space_group_symop_operation_xyz
x,y,z
-x,-y,-z
loop_
_atom_site_type_symbol
_atom_site_label
_atom_site_fract_x
_atom_site_fract_y
_atom_site_fract_z
Si Si1 0.750945 0.715407 0.632998
Si Si2 0.618051 0.498023 0.566716
Si Si3 0.848769 0.049398 0.915029
Si Si4 0.662778 0.160382 0.127826
Si Si5 0.725419 0.427526 0.741780
Si Si6 0.491132 0.741329 0.273719
Si Si7 0.546212 0.183540 0.931225
Si Si8 0.500000 0.000000 0.500000
O O1 0.515111 0.613574 0.529395
O O2 0.124559 0.743898 0.344576
O O3 0.576070 0.698119 0.940653
O O4 0.731487 0.798069 0.755341
O O5 0.500000 0.500000 0.500000
O O6 0.024575 0.569765 0.355376
O O7 0.445870 0.525860 0.922308
O O8 0.791567 0.100364 0.932317
O O9 0.632424 0.036607 0.257200
O O10 0.237667 0.142027 0.784745
O O11 0.736492 0.940483 0.740669
O O12 0.755499 0.241175 0.356773
O O13 0.735988 0.208037 0.982006
O O14 0.454448 0.308288 0.728048
O O15 0.000000 0.500000 0.500000
O O16 0.403626 0.074403 0.777802
#
# Coordination Sequence:
#
# PCOD9112334 Si02
#       8
#     2   2   2   2   2   2   2   1
#     4  12  27  46  77 104 150 194 261 300 378 454
#     4  12  27  52  77 109 153 200 256 325 388 455
#     4  10  22  46  69 108 146 201 240 316 367 457
#     4  10  25  43  71 103 157 187 253 299 389 435
#     4  12  30  50  79 114 154 198 255 324 392 459
#     4  12  26  43  76 103 147 194 251 304 378 453
#     4  11  26  45  71 112 141 204 238 316 362 453
#     4  10  20  46  72 106 152 186 258 298 370 442
#
# _framework density 27.935393999999999
#
# number of rings (size 3 to 8) (size 9 to 14) (size 15 to 20)
#    0.000    0.800    2.667    2.800    9.333    0.533 
#    7.200    0.000    0.000    0.000    0.000    0.000 
#    0.000    0.000    0.000    0.000    0.000    0.000 
#
# Total GULP energy -83507.474937 kJ/mol
# GULP energy per Si atom -5567.164996 kJ/mol
# Density = 2.787181 g / cm^3
# Si number density = 27.935394 Si / 1000 Ang^3
#
#
#
# Elastic Constant Matrix: (Units=GPa)
#
#
# Indices 1 2 3 4 5 6 
#
# 1 76.4334 -19.9286 25.5643 -6.3172 2.8104 -19.8870
# 2 -19.9286 86.2362 22.8067 25.2940 9.1814 -17.7524
# 3 25.5643 22.8067 143.9454 6.0657 -9.7223 2.7289
# 4 -6.3172 25.2940 6.0657 61.6911 -11.9522 0.3506
# 5 2.8104 9.1814 -9.7223 -11.9522 35.7710 -8.0895
# 6 -19.8870 -17.7524 2.7289 0.3506 -8.0895 41.2516
#
#
#
# Elastic Compliance Matrix: (Units=1/GPa)
#
#
# Indices 1 2 3 4 5 6 
#
# 1 0.021622 0.010660 -0.005946 -0.002333 -0.003498 0.014739
# 2 0.010660 0.021800 -0.005763 -0.008894 -0.007936 0.013421
# 3 -0.005946 -0.005763 0.009204 0.001616 0.003807 -0.005223
# 4 -0.002333 -0.008894 0.001616 0.021267 0.009236 -0.003429
# 5 -0.003498 -0.007936 0.003807 0.009236 0.034698 0.001373
# 6 0.014739 0.013421 -0.005223 -0.003429 0.001373 0.037767
#
#
# Mechanical properties :
#
#
# Convention : Reuss Voigt Hill
#
# Bulk Modulus (GPa) = 19.79082 40.38885 30.08983
# Shear Modulus (GPa) = 30.24807 46.28758 38.26782
#
# Velocity S-wave (km/s) = 3.29414 4.07498 3.70519
# Velocity P-wave (km/s) = 4.64418 6.05227 5.39437
#
# Compressibility (1/GPa) = 0.05052849
#
# Stress axis : x y z
#
# Youngs Moduli (GPa) = 46.24881 45.87133 108.64555
#
# Poissons Ratio (x) = -0.48900 0.64605
# Poissons Ratio (y) = -0.49302 0.62611
# Poissons Ratio (z) = 0.27501 0.26435
#
# Static dielectric constant tensor:
#      x y z
#    x 2.796340 0.773140 0.028970 
#    y 0.773140 3.573400 -0.223530 
#    z 0.028970 -0.223530 2.251470 
# 
# From -- ./inp_files/285711.got.cif
#   From: 2010.05.17/outbox.cif.g08.bks.cpg/sg2_143_cif.got.tgz:285711.got - 2010.06.03 11:33:40.
