data_PCOD9112091
_publ_section_title
;
Structure prediction by ZEFSAII (Michael W. Deem and Ramdas Pophale) SiO2 
 PCOD9112091
Probable space group: P -1
;
_chemical_formula_sum "Si O2"
_cell_formula_units_Z 16
_cell_length_a 10.500432
_cell_length_b 8.404430
_cell_length_c 25.928208
_cell_angle_alpha 148.281388
_cell_angle_beta 41.364130
_cell_angle_gamma 123.369789
_cell_volume 768.837860
_symmetry_space_group_name_H-M "P -1"
_symmetry_group_IT_number 2
_symmetry_cell_setting 'triclinic'
loop_
_space_group_symop_operation_xyz
x,y,z
-x,-y,-z
loop_
_atom_site_type_symbol
_atom_site_label
_atom_site_fract_x
_atom_site_fract_y
_atom_site_fract_z
Si Si1 0.373765 0.271956 0.758804
Si Si2 0.214730 0.815328 0.738851
Si Si3 0.971341 0.796795 0.002296
Si Si4 0.003599 0.875970 0.523930
Si Si5 0.919585 0.748114 0.727976
Si Si6 0.380988 0.088698 0.508125
Si Si7 0.337892 0.562316 0.210372
Si Si8 0.363354 0.582256 0.014422
O O1 0.533351 0.446800 0.779395
O O2 0.166484 0.515072 0.875590
O O3 0.355974 0.043706 0.748419
O O4 0.469432 0.064178 0.624666
O O5 0.315479 0.462418 0.626047
O O6 0.115494 0.807616 0.710864
O O7 0.066744 0.983228 0.874984
O O8 0.782323 0.648822 0.011738
O O9 0.000000 0.000000 0.000000
O O10 0.032026 0.509379 0.403140
O O11 0.184816 0.957166 0.522429
O O12 0.000000 0.000000 0.500000
O O13 0.794973 0.088854 0.667078
O O14 0.819543 0.625463 0.774784
O O15 0.777490 0.070488 0.841940
O O16 0.500000 0.000000 0.500000
O O17 0.490233 0.430768 0.082405
O O18 0.500000 0.500000 0.000000
#
# Coordination Sequence:
#
# PCOD9112091 Si02
#       8
#     2   2   2   2   2   2   2   2
#     4  12  23  45  72  97 136 182 236 280 340 415
#     4  12  23  45  72  97 136 182 236 280 340 415
#     4  12  28  45  64 100 145 175 223 298 347 397
#     4  10  20  44  70 100 133 172 227 277 330 419
#     4  11  22  44  75  96 131 183 229 280 337 412
#     4  12  25  42  70 108 140 177 230 285 354 403
#     4  11  22  44  75  96 131 183 229 280 337 412
#     4  12  28  44  64 104 137 178 235 282 348 408
#
# _framework density 20.81063
#
# number of rings (size 3 to 8) (size 9 to 14) (size 15 to 20)
#    0.000    0.500    7.500    2.625    3.500    2.000 
#    0.000    0.625    0.000    0.000    0.000    0.000 
#    0.000    0.000    0.000    0.000    0.000    0.000 
#
# Total GULP energy -89407.909956 kJ/mol
# GULP energy per Si atom -5587.994372 kJ/mol
# Density = 2.076326 g / cm^3
# Si number density = 20.810630 Si / 1000 Ang^3
#
#
#
# Elastic Constant Matrix: (Units=GPa)
#
#
# Indices 1 2 3 4 5 6 
#
# 1 150.8521 -7.1834 49.8632 2.1819 -0.5253 -15.5045
# 2 -7.1834 43.3843 8.0969 19.4615 -14.7763 15.2414
# 3 49.8632 8.0969 102.5240 26.2713 -19.2464 -13.6131
# 4 2.1819 19.4615 26.2713 41.9267 -13.9575 4.5313
# 5 -0.5253 -14.7763 -19.2464 -13.9575 46.8920 -11.8863
# 6 -15.5045 15.2414 -13.6131 4.5313 -11.8863 46.0510
#
#
#
# Elastic Compliance Matrix: (Units=1/GPa)
#
#
# Indices 1 2 3 4 5 6 
#
# 1 0.008227 0.000942 -0.004546 0.001636 -0.000801 0.000747
# 2 0.000942 0.033625 0.000037 -0.013261 0.004566 -0.008317
# 3 -0.004546 0.000037 0.015849 -0.008531 0.005281 0.005345
# 4 0.001636 -0.013261 -0.008531 0.036325 0.003057 -0.000367
# 5 -0.000801 0.004566 0.005281 0.003057 0.027500 0.006578
# 6 0.000747 -0.008317 0.005345 -0.000367 0.006578 0.028033
#
#
# Mechanical properties :
#
#
# Convention : Reuss Voigt Hill
#
# Bulk Modulus (GPa) = 19.77582 44.25710 32.01646
# Shear Modulus (GPa) = 28.81052 43.37285 36.09169
#
# Velocity S-wave (km/s) = 3.72481 4.57022 4.16900
# Velocity P-wave (km/s) = 5.29361 7.01156 6.21226
#
# Compressibility (1/GPa) = 0.05056681
#
# Stress axis : x y z
#
# Youngs Moduli (GPa) = 121.55468 29.74016 63.09543
#
# Poissons Ratio (x) = -0.02800 0.28682
# Poissons Ratio (y) = -0.11446 -0.00236
# Poissons Ratio (z) = 0.55257 -0.00111
#
# Static dielectric constant tensor:
#      x y z
#    x 1.726040 -0.006140 0.016960 
#    y -0.006140 1.813820 0.007580 
#    z 0.016960 0.007580 1.763690 
# 
# From -- ./inp_files/606920.got.cif
#   From: 2010.05.17/outbox.cif.g08.bks.cpg/sg2_304_cif.got.tgz:606920.got - 2010.06.03 11:33:40.
