data_PCOD9112216
_publ_section_title
;
Structure prediction by ZEFSAII (Michael W. Deem and Ramdas Pophale) SiO2 
 PCOD9112216
Probable space group: P -1
;
_chemical_formula_sum "Si O2"
_cell_formula_units_Z 14
_cell_length_a 7.955000
_cell_length_b 13.148251
_cell_length_c 9.253273
_cell_angle_alpha 134.569602
_cell_angle_beta 53.095050
_cell_angle_gamma 125.536056
_cell_volume 529.197968
_symmetry_space_group_name_H-M "P -1"
_symmetry_group_IT_number 2
_symmetry_cell_setting 'triclinic'
loop_
_space_group_symop_operation_xyz
x,y,z
-x,-y,-z
loop_
_atom_site_type_symbol
_atom_site_label
_atom_site_fract_x
_atom_site_fract_y
_atom_site_fract_z
Si Si1 0.653238 0.191177 0.395966
Si Si2 0.247830 0.094702 0.938075
Si Si3 0.000000 0.000000 0.500000
Si Si4 0.213504 0.473789 0.663524
Si Si5 0.091037 0.702070 0.122877
Si Si6 0.000000 0.500000 0.500000
Si Si7 0.370775 0.194550 0.293849
Si Si8 0.657424 0.663630 0.116723
O O1 0.574591 0.166441 0.245837
O O2 0.472100 0.252628 0.630694
O O3 0.877651 0.320907 0.419269
O O4 0.654518 0.033433 0.302891
O O5 0.276184 0.234483 0.957291
O O6 0.344678 0.148453 0.096733
O O7 0.000000 0.000000 0.000000
O O8 0.855415 0.122888 0.713373
O O9 0.152191 0.102720 0.399565
O O10 0.989377 0.376215 0.761472
O O11 0.160268 0.506903 0.562153
O O12 0.369493 0.366586 0.485086
O O13 0.258804 0.622096 0.886007
O O14 0.878762 0.662687 0.084623
O O15 0.500000 0.500000 0.000000
#
# Coordination Sequence:
#
# PCOD9112216 Si02
#       8
#     2   2   1   2   2   1   2   2
#     4  12  28  53  76 112 159 212 267 329 402 472
#     4  12  29  50  83 119 162 204 264 334 405 470
#     4  10  20  44  78 104 154 196 256 310 396 460
#     4  10  23  44  72 108 149 196 255 318 392 460
#     4  10  22  45  73 110 146 207 249 316 392 480
#     4  12  28  44  78 110 156 200 264 336 388 456
#     4  11  25  49  78 114 156 209 262 327 392 488
#     4  12  27  50  78 115 158 208 264 327 393 481
#
# _framework density 26.455127999999998
#
# number of rings (size 3 to 8) (size 9 to 14) (size 15 to 20)
#    0.000    0.857    2.857    3.429   10.000    2.857 
#   12.857    0.000    0.000    0.000    0.000    0.000 
#    0.000    0.000    0.000    0.000    0.000    0.000 
#
# Total GULP energy -78028.620970 kJ/mol
# GULP energy per Si atom -5573.472926 kJ/mol
# Density = 2.639492 g / cm^3
# Si number density = 26.455128 Si / 1000 Ang^3
#
#
#
# Elastic Constant Matrix: (Units=GPa)
#
#
# Indices 1 2 3 4 5 6 
#
# 1 79.6073 45.9429 32.7091 -4.7804 15.4351 3.6089
# 2 45.9429 202.2371 42.0632 11.2816 7.8085 -16.9083
# 3 32.7091 42.0632 118.0618 21.4061 -24.0911 -5.3429
# 4 -4.7804 11.2816 21.4061 22.3211 -21.6813 -3.9038
# 5 15.4351 7.8085 -24.0911 -21.6813 39.8087 4.4726
# 6 3.6089 -16.9083 -5.3429 -3.9038 4.4726 40.2102
#
#
#
# Elastic Compliance Matrix: (Units=1/GPa)
#
#
# Indices 1 2 3 4 5 6 
#
# 1 0.019057 -0.002952 -0.006691 0.002703 -0.009099 -0.002566
# 2 -0.002952 0.006720 -0.001159 -0.007609 -0.005333 0.002791
# 3 -0.006691 -0.001159 0.013439 -0.006509 0.007359 0.000449
# 4 0.002703 -0.007609 -0.006509 0.110581 0.056719 0.000120
# 5 -0.009099 -0.005333 0.007359 0.056719 0.065286 -0.002203
# 6 -0.002566 0.002791 0.000449 0.000120 -0.002203 0.026590
#
#
# Mechanical properties :
#
#
# Convention : Reuss Voigt Hill
#
# Bulk Modulus (GPa) = 56.77594 71.25961 64.01778
# Shear Modulus (GPa) = 18.57722 39.08075 28.82898
#
# Velocity S-wave (km/s) = 2.65281 3.84767 3.30469
# Velocity P-wave (km/s) = 5.55797 6.83622 6.22996
#
# Compressibility (1/GPa) = 0.01761309
#
# Stress axis : x y z
#
# Youngs Moduli (GPa) = 52.47373 148.81118 74.41153
#
# Poissons Ratio (x) = 0.43924 0.49789
# Poissons Ratio (y) = 0.15488 0.08622
# Poissons Ratio (z) = 0.35111 0.17242
#
# Static dielectric constant tensor:
#      x y z
#    x 2.061120 0.060040 -0.044310 
#    y 0.060040 2.078160 -0.029010 
#    z -0.044310 -0.029010 2.114790 
# 
# From -- ./inp_files/190627.got.cif
#   From: 2010.05.17/outbox.cif.g08.bks.cpg/sg2_96_cif.got.tgz:190627.got - 2010.06.03 11:33:40.
