data_PCOD9112677
_publ_section_title
;
Structure prediction by ZEFSAII (Michael W. Deem and Ramdas Pophale) SiO2 
 PCOD9112677
Probable space group: P 2
;
_chemical_formula_sum "Si O2"
_cell_formula_units_Z 12
_cell_length_a 9.777285
_cell_length_b 5.104998
_cell_length_c 10.657748
_cell_angle_alpha 90.000000
_cell_angle_beta 115.728118
_cell_angle_gamma 90.000000
_cell_volume 479.224017
_symmetry_space_group_name_H-M "P 2"
_symmetry_group_IT_number 3
_symmetry_cell_setting 'monoclinic'
loop_
_space_group_symop_operation_xyz
x,y,z
-x,y,-z
loop_
_atom_site_type_symbol
_atom_site_label
_atom_site_fract_x
_atom_site_fract_y
_atom_site_fract_z
Si Si1 0.890818 0.236700 0.616072
Si Si2 0.987201 0.755823 0.205297
Si Si3 0.405544 0.358931 0.353385
Si Si4 0.556966 0.860890 0.154970
Si Si5 0.756192 0.751296 0.896064
Si Si6 0.686537 0.326888 0.310622
O O1 0.971771 0.486661 0.710029
O O2 0.731047 0.212373 0.630919
O O3 0.836696 0.292633 0.452695
O O4 0.991657 0.983428 0.684596
O O5 0.112287 0.827266 0.148474
O O6 0.836043 0.716988 0.062660
O O7 0.500000 0.524407 0.500000
O O8 0.321924 0.508937 0.207297
O O9 0.552500 0.228689 0.350679
O O10 0.390129 0.929929 0.144587
O O11 0.647953 0.626729 0.260563
O O12 0.660652 0.119944 0.188795
O O13 0.500000 0.750189 0.000000
#
# Coordination Sequence:
#
# PCOD9112677 Si02
#       6
#     2   2   2   2   2   2
#     4  10  19  33  53  80 108 139 172 210 267 317
#     4  10  20  33  54  80 111 140 168 210 261 326
#     4   8  16  31  53  80 109 138 171 216 267 315
#     4  11  22  37  57  78 104 139 179 222 260 301
#     4   9  20  34  53  80 110 140 175 212 262 313
#     4  10  20  35  55  78 106 136 176 223 261 307
#
# _framework density 25.040479000000001
#
# number of rings (size 3 to 8) (size 9 to 14) (size 15 to 20)
#    0.000    2.333    0.000    2.500    0.000    9.333 
#    0.000    5.000    0.000    6.000    0.000    0.000 
#    0.000    0.000    0.000    0.000    0.000    0.000 
#
# Total GULP energy -66889.743168 kJ/mol
# GULP energy per Si atom -5574.145264 kJ/mol
# Density = 2.498349 g / cm^3
# Si number density = 25.040479 Si / 1000 Ang^3
#
#
#
# Elastic Constant Matrix: (Units=GPa)
#
#
# Indices 1 2 3 4 5 6 
#
# 1 73.2851 -5.5737 11.3495 0.0000 25.8767 0.0000
# 2 -5.5737 76.1253 57.2817 0.0000 22.4951 0.0000
# 3 11.3495 57.2817 212.3040 0.0000 43.4865 0.0000
# 4 0.0000 0.0000 0.0000 12.3389 0.0000 -2.0909
# 5 25.8767 22.4951 43.4865 0.0000 39.8463 0.0000
# 6 0.0000 0.0000 0.0000 -2.0909 0.0000 14.0198
#
#
#
# Elastic Compliance Matrix: (Units=1/GPa)
#
#
# Indices 1 2 3 4 5 6 
#
# 1 0.020090 0.005939 0.000879 0.000000 -0.017360 0.000000
# 2 0.005939 0.019322 -0.003228 0.000000 -0.011242 0.000000
# 3 0.000879 -0.003228 0.006797 0.000000 -0.006167 0.000000
# 4 0.000000 0.000000 0.000000 0.083146 0.000000 0.012401
# 5 -0.017360 -0.011242 -0.006167 0.000000 0.049447 0.000000
# 6 0.000000 0.000000 0.000000 0.012401 0.000000 0.073177
#
#
# Mechanical properties :
#
#
# Convention : Reuss Voigt Hill
#
# Bulk Modulus (GPa) = 18.72983 54.20325 36.46654
# Shear Modulus (GPa) = 19.04063 33.15146 26.09605
#
# Velocity S-wave (km/s) = 2.76052 3.64251 3.23174
# Velocity P-wave (km/s) = 4.20198 6.27565 5.34043
#
# Compressibility (1/GPa) = 0.05339078
#
# Stress axis : x y z
#
# Youngs Moduli (GPa) = 49.77490 51.75399 147.11562
#
# Poissons Ratio (x) = -0.30737 -0.12937
# Poissons Ratio (y) = -0.29562 0.47490
# Poissons Ratio (z) = -0.04377 0.16706
#
# Static dielectric constant tensor:
#      x y z
#    x 2.156940 0.000000 -0.118180 
#    y 0.000000 1.918670 0.000000 
#    z -0.118180 0.000000 2.028490 
# 
# From -- ./inp_files/8358.got.cif
#   From: 2010.05.17/outbox.cif.g08.bks.cpg/sg3_5_cif.got.tgz:8358.got - 2010.06.03 18:33:08.
