data_PCOD9112441
_publ_section_title
;
Structure prediction by ZEFSAII (Michael W. Deem and Ramdas Pophale) SiO2 
 PCOD9112441
Probable space group: P -1
;
_chemical_formula_sum "Si O2"
_cell_formula_units_Z 16
_cell_length_a 11.844219
_cell_length_b 11.358725
_cell_length_c 14.349711
_cell_angle_alpha 132.948990
_cell_angle_beta 32.633378
_cell_angle_gamma 117.651413
_cell_volume 732.000942
_symmetry_space_group_name_H-M "P -1"
_symmetry_group_IT_number 2
_symmetry_cell_setting 'triclinic'
loop_
_space_group_symop_operation_xyz
x,y,z
-x,-y,-z
loop_
_atom_site_type_symbol
_atom_site_label
_atom_site_fract_x
_atom_site_fract_y
_atom_site_fract_z
Si Si1 0.743865 0.751094 0.987465
Si Si2 0.382529 0.740430 0.373308
Si Si3 0.357653 0.378962 0.195304
Si Si4 0.561917 0.123743 0.237988
Si Si5 0.284881 0.864639 0.066761
Si Si6 0.168157 0.823259 0.759081
Si Si7 0.944149 0.833033 0.407277
Si Si8 0.026255 0.247800 0.462555
O O1 0.593591 0.771545 0.194487
O O2 0.678115 0.927527 0.071822
O O3 0.676983 0.627276 0.894616
O O4 0.002076 0.709234 0.802939
O O5 0.423285 0.545184 0.264074
O O6 0.285992 0.836481 0.586585
O O7 0.186321 0.775458 0.453190
O O8 0.138242 0.365922 0.391367
O O9 0.543226 0.221133 0.020052
O O10 0.652591 0.220372 0.307972
O O11 0.306254 0.143686 0.427282
O O12 0.624621 0.175401 0.120790
O O13 0.079352 0.797847 0.199632
O O14 0.205513 0.065626 0.238103
O O15 0.000000 0.000000 0.000000
O O16 0.016002 0.705717 0.374783
O O17 0.000000 0.000000 0.500000
#
# Coordination Sequence:
#
# PCOD9112441 Si02
#       8
#     2   2   2   2   2   2   2   2
#     4  11  22  39  64  95 130 165 210 259 322 379
#     4  12  25  41  63  98 131 166 210 262 319 381
#     4  12  22  39  66  96 135 166 198 264 333 377
#     4  11  21  39  63  91 122 166 214 264 304 364
#     4  11  21  38  62  92 127 162 207 259 314 372
#     4  10  24  42  64  89 123 175 218 260 307 367
#     4  10  21  32  61  97 121 154 203 262 315 365
#     4  11  19  37  63  92 129 162 205 259 321 372
#
# _framework density 21.857896
#
# number of rings (size 3 to 8) (size 9 to 14) (size 15 to 20)
#    0.000    1.000    3.750    5.625    0.000    3.000 
#    0.000    0.625    0.000    1.500    0.000    0.000 
#    0.000    0.000    0.000    0.000    0.000    0.000 
#
# Total GULP energy -89412.107055 kJ/mol
# GULP energy per Si atom -5588.256691 kJ/mol
# Density = 2.180815 g / cm^3
# Si number density = 21.857896 Si / 1000 Ang^3
#
#
#
# Elastic Constant Matrix: (Units=GPa)
#
#
# Indices 1 2 3 4 5 6 
#
# 1 131.6374 33.5089 56.3958 -30.3166 -9.8165 6.8559
# 2 33.5089 51.5399 33.8288 -13.8009 1.4628 -13.3255
# 3 56.3958 33.8288 108.7923 -43.8719 8.0003 -2.6164
# 4 -30.3166 -13.8009 -43.8719 45.0407 -4.2548 -3.2759
# 5 -9.8165 1.4628 8.0003 -4.2548 40.6666 -2.1853
# 6 6.8559 -13.3255 -2.6164 -3.2759 -2.1853 18.8357
#
#
#
# Elastic Compliance Matrix: (Units=1/GPa)
#
#
# Indices 1 2 3 4 5 6 
#
# 1 0.012391 -0.007680 -0.003736 0.001992 0.003690 -0.009687
# 2 -0.007680 0.035845 -0.005478 0.002470 -0.000314 0.027786
# 3 -0.003736 -0.005478 0.018703 0.013918 -0.002811 0.002177
# 4 0.001992 0.002470 0.013918 0.038793 0.002248 0.009964
# 5 0.003690 -0.000314 -0.002811 0.002248 0.026361 0.001494
# 6 -0.009687 0.027786 0.002177 0.009964 0.001494 0.078483
#
#
# Mechanical properties :
#
#
# Convention : Reuss Voigt Hill
#
# Bulk Modulus (GPa) = 30.16386 59.93739 45.05063
# Shear Modulus (GPa) = 19.57610 32.12435 25.85023
#
# Velocity S-wave (km/s) = 2.99592 3.83781 3.44270
# Velocity P-wave (km/s) = 5.07910 6.86435 6.03807
#
# Compressibility (1/GPa) = 0.03315226
#
# Stress axis : x y z
#
# Youngs Moduli (GPa) = 80.70672 27.89787 53.46603
#
# Poissons Ratio (x) = 0.21424 0.19976
# Poissons Ratio (y) = 0.61979 0.29286
# Poissons Ratio (z) = 0.30154 0.15281
#
# Static dielectric constant tensor:
#      x y z
#    x 1.827710 0.008240 0.013370 
#    y 0.008240 1.849060 0.020100 
#    z 0.013370 0.020100 1.879530 
# 
# From -- ./inp_files/519093.got.cif
#   From: 2010.05.17/outbox.cif.g08.bks.cpg/sg2_260_cif.got.tgz:519093.got - 2010.06.03 11:33:40.
