data_PCOD9112268
_publ_section_title
;
Structure prediction by ZEFSAII (Michael W. Deem and Ramdas Pophale) SiO2 
 PCOD9112268
Probable space group: P -1
;
_chemical_formula_sum "Si O2"
_cell_formula_units_Z 14
_cell_length_a 7.504849
_cell_length_b 11.062828
_cell_length_c 11.614157
_cell_angle_alpha 38.358017
_cell_angle_beta 114.077698
_cell_angle_gamma 123.245510
_cell_volume 500.009887
_symmetry_space_group_name_H-M "P -1"
_symmetry_group_IT_number 2
_symmetry_cell_setting 'triclinic'
loop_
_space_group_symop_operation_xyz
x,y,z
-x,-y,-z
loop_
_atom_site_type_symbol
_atom_site_label
_atom_site_fract_x
_atom_site_fract_y
_atom_site_fract_z
Si Si1 0.346014 0.704787 0.549738
Si Si2 0.208981 0.505298 0.907417
Si Si3 0.815719 0.865727 0.464008
Si Si4 0.255272 0.427469 0.531326
Si Si5 0.725908 0.905501 0.041586
Si Si6 0.354500 0.146217 0.194882
Si Si7 0.232322 0.793389 0.981267
O O1 0.256036 0.551833 0.748884
O O2 0.593902 0.750487 0.560057
O O3 0.242616 0.618744 0.460909
O O4 0.331528 0.927400 0.408290
O O5 0.391034 0.711881 0.857912
O O6 0.264544 0.305890 0.107993
O O7 0.961116 0.430549 0.924644
O O8 0.864929 0.697734 0.520817
O O9 0.772802 0.026553 0.242841
O O10 0.000000 0.000000 0.500000
O O11 0.500000 0.500000 0.500000
O O12 0.210461 0.253049 0.748968
O O13 0.808487 0.127286 0.963522
O O14 0.768523 0.915457 0.911720
O O15 0.467232 0.804870 0.049627
#
# Coordination Sequence:
#
# PCOD9112268 Si02
#       7
#     2   2   2   2   2   2   2
#     4  11  22  47  67  98 140 188 225 282 346 414
#     4  11  26  44  67 103 141 181 231 286 349 408
#     4  10  22  40  70 103 140 177 230 287 344 406
#     4   9  20  39  69  98 133 180 228 277 341 406
#     4  10  20  45  72  96 136 181 227 285 342 410
#     4  11  24  44  71  94 144 187 223 286 351 406
#     4  10  23  43  72 103 132 180 235 282 343 414
#
# _framework density 27.999447
#
# number of rings (size 3 to 8) (size 9 to 14) (size 15 to 20)
#    0.000    1.714    2.857    0.429    6.000    1.143 
#    5.143    2.143    0.000    0.000    0.000    0.000 
#    0.000    0.000    0.000    0.000    0.000    0.000 
#
# Total GULP energy -78488.676447 kJ/mol
# GULP energy per Si atom -5606.334032 kJ/mol
# Density = 2.793572 g / cm^3
# Si number density = 27.999447 Si / 1000 Ang^3
#
#
#
# Elastic Constant Matrix: (Units=GPa)
#
#
# Indices 1 2 3 4 5 6 
#
# 1 100.7156 52.4994 25.5299 -8.8869 -8.6345 42.5216
# 2 52.4994 197.5155 45.3512 9.0364 -6.1725 -7.2485
# 3 25.5299 45.3512 128.0109 4.4096 0.6431 -9.1060
# 4 -8.8869 9.0364 4.4096 43.4120 -7.3744 -7.8801
# 5 -8.6345 -6.1725 0.6431 -7.3744 38.7201 -12.2053
# 6 42.5216 -7.2485 -9.1060 -7.8801 -12.2053 54.9654
#
#
#
# Elastic Compliance Matrix: (Units=1/GPa)
#
#
# Indices 1 2 3 4 5 6 
#
# 1 0.021470 -0.005684 -0.003619 0.002495 -0.001216 -0.017871
# 2 -0.005684 0.007090 -0.000964 -0.001370 0.001276 0.005259
# 3 -0.003619 -0.000964 0.009191 -0.000722 0.000042 0.004101
# 4 0.002495 -0.001370 -0.000722 0.025436 0.006065 0.002763
# 5 -0.001216 0.001276 0.000042 0.006065 0.029612 0.008561
# 6 -0.017871 0.005259 0.004101 0.002763 0.008561 0.035688
#
#
# Mechanical properties :
#
#
# Convention : Reuss Voigt Hill
#
# Bulk Modulus (GPa) = 58.07642 74.77811 66.42726
# Shear Modulus (GPa) = 32.30793 47.61026 39.95909
#
# Velocity S-wave (km/s) = 3.40056 4.12806 3.78185
# Velocity P-wave (km/s) = 6.01710 7.03464 6.54567
#
# Compressibility (1/GPa) = 0.01721869
#
# Stress axis : x y z
#
# Youngs Moduli (GPa) = 46.57672 141.03594 108.79681
#
# Poissons Ratio (x) = 0.80160 0.39378
# Poissons Ratio (y) = 0.26473 0.10483
# Poissons Ratio (z) = 0.16858 0.13589
#
# Static dielectric constant tensor:
#      x y z
#    x 2.259130 -0.036370 -0.008040 
#    y -0.036370 2.222130 0.012230 
#    z -0.008040 0.012230 2.082980 
# 
# From -- ./inp_files/391867.got.cif
#   From: 2010.05.17/outbox.cif.g08.bks.cpg/sg2_196_cif.got.tgz:391867.got - 2010.06.03 11:33:40.
