data_PCOD9112794
_publ_section_title
;
Structure prediction by ZEFSAII (Michael W. Deem and Ramdas Pophale) SiO2 
 PCOD9112794
Probable space group: P 2
;
_chemical_formula_sum "Si O2"
_cell_formula_units_Z 14
_cell_length_a 27.330137
_cell_length_b 5.183039
_cell_length_c 15.727706
_cell_angle_alpha 90.000000
_cell_angle_beta 160.265208
_cell_angle_gamma 90.000000
_cell_volume 752.281091
_symmetry_space_group_name_H-M "P 2"
_symmetry_group_IT_number 3
_symmetry_cell_setting 'monoclinic'
loop_
_space_group_symop_operation_xyz
x,y,z
-x,y,-z
loop_
_atom_site_type_symbol
_atom_site_label
_atom_site_fract_x
_atom_site_fract_y
_atom_site_fract_z
Si Si1 0.401904 0.662110 0.469492
Si Si2 0.771258 0.314175 0.141995
Si Si3 0.580490 0.144073 0.042371
Si Si4 0.749118 0.633437 0.265296
Si Si5 0.276153 0.675706 0.083001
Si Si6 0.459987 0.149998 0.664672
Si Si7 0.994398 0.903937 0.582857
O O1 0.295403 0.641313 0.215006
O O2 0.561979 0.699613 0.689651
O O3 0.400564 0.401729 0.521090
O O4 0.380147 0.901442 0.497075
O O5 0.723362 0.551881 0.124939
O O6 0.898778 0.156467 0.399897
O O7 0.788940 0.436967 0.078019
O O8 0.629650 0.134930 0.914670
O O9 0.701034 0.372522 0.234402
O O10 0.653846 0.867934 0.143971
O O11 0.500000 0.149810 0.000000
O O12 0.469717 0.181004 0.782123
O O13 0.911024 0.746608 0.519647
O O14 0.162769 0.908049 0.882540
O O15 0.000000 0.762143 0.500000
#
# Coordination Sequence:
#
# PCOD9112794 Si02
#       7
#     2   2   2   2   2   2   2
#     4  10  22  39  54  79 117 168 203 246 269 335
#     4  10  21  36  53  82 122 163 197 246 291 344
#     4  11  22  38  64  89 115 150 191 259 324 364
#     4  11  21  38  52  88 125 148 194 239 311 357
#     4  10  22  36  53  82 117 168 217 229 274 354
#     4  10  19  37  58  76 115 146 189 251 303 346
#     4  12  22  33  55  85 123 169 197 232 296 347
#
# _framework density 18.610064999999999
#
# number of rings (size 3 to 8) (size 9 to 14) (size 15 to 20)
#    0.000    1.429    4.286    3.857    2.000    5.714 
#    0.000    0.000    0.000    0.000    0.000    6.000 
#    0.000    0.000    0.000    0.000    0.000    0.000 
#
# Total GULP energy -77968.124475 kJ/mol
# GULP energy per Si atom -5569.151748 kJ/mol
# Density = 1.856771 g / cm^3
# Si number density = 18.610065 Si / 1000 Ang^3
#
#
#
# Elastic Constant Matrix: (Units=GPa)
#
#
# Indices 1 2 3 4 5 6 
#
# 1 123.9926 51.0064 39.9255 0.0000 -13.0025 0.0000
# 2 51.0064 137.4988 42.1096 0.0000 -6.9300 0.0000
# 3 39.9255 42.1096 80.9858 0.0000 -19.2611 0.0000
# 4 0.0000 0.0000 0.0000 15.3839 0.0000 3.0864
# 5 -13.0025 -6.9300 -19.2611 0.0000 26.9213 0.0000
# 6 0.0000 0.0000 0.0000 3.0864 0.0000 20.7085
#
#
#
# Elastic Compliance Matrix: (Units=1/GPa)
#
#
# Indices 1 2 3 4 5 6 
#
# 1 0.010465 -0.002792 -0.003225 0.000000 0.002028 0.000000
# 2 -0.002792 0.009427 -0.003939 0.000000 -0.001740 0.000000
# 3 -0.003225 -0.003939 0.018527 0.000000 0.010684 0.000000
# 4 0.000000 0.000000 0.000000 0.067007 0.000000 -0.009987
# 5 0.002028 -0.001740 0.010684 0.000000 0.045321 0.000000
# 6 0.000000 0.000000 0.000000 -0.009987 0.000000 0.049778
#
#
# Mechanical properties :
#
#
# Convention : Reuss Voigt Hill
#
# Bulk Modulus (GPa) = 54.03521 67.61782 60.82652
# Shear Modulus (GPa) = 22.06487 26.56514 24.31501
#
# Velocity S-wave (km/s) = 3.44705 3.78227 3.61855
# Velocity P-wave (km/s) = 6.70383 7.44896 7.08620
#
# Compressibility (1/GPa) = 0.01850645
#
# Stress axis : x y z
#
# Youngs Moduli (GPa) = 95.55963 106.07564 53.97591
#
# Poissons Ratio (x) = 0.29618 0.17406
# Poissons Ratio (y) = 0.26681 0.21262
# Poissons Ratio (z) = 0.30816 0.41785
#
# Static dielectric constant tensor:
#      x y z
#    x 1.646340 0.000000 0.021020 
#    y 0.000000 1.741550 0.000000 
#    z 0.021020 0.000000 1.700420 
# 
# From -- ./inp_files/14493.got.cif
#   From: 2010.05.17/outbox.cif.g08.bks.cpg/sg3_8_cif.got.tgz:14493.got - 2010.06.03 18:33:08.
