data_PCOD9112675
_publ_section_title
;
Structure prediction by ZEFSAII (Michael W. Deem and Ramdas Pophale) SiO2 
 PCOD9112675
Probable space group: P 2
;
_chemical_formula_sum "Si O2"
_cell_formula_units_Z 11
_cell_length_a 9.518000
_cell_length_b 10.825464
_cell_length_c 5.377424
_cell_angle_alpha 90.000000
_cell_angle_beta 102.544115
_cell_angle_gamma 90.000000
_cell_volume 540.846157
_symmetry_space_group_name_H-M "P 2"
_symmetry_group_IT_number 3
_symmetry_cell_setting 'monoclinic'
loop_
_space_group_symop_operation_xyz
x,y,z
-x,y,-z
loop_
_atom_site_type_symbol
_atom_site_label
_atom_site_fract_x
_atom_site_fract_y
_atom_site_fract_z
Si Si1 0.344236 0.608800 0.574195
Si Si2 0.500000 0.465870 0.000000
Si Si3 0.344373 0.991606 0.158363
Si Si4 0.673365 0.893454 0.348782
Si Si5 0.835557 0.372381 0.514392
Si Si6 0.701650 0.274470 0.941166
O O1 0.500000 0.599677 0.500000
O O2 0.305585 0.751573 0.569129
O O3 0.228734 0.508275 0.444123
O O4 0.377714 0.557896 0.862098
O O5 0.570893 0.369753 0.836033
O O6 0.503004 0.929384 0.251074
O O7 0.272917 0.974411 0.399822
O O8 0.352650 0.134759 0.091576
O O9 0.266419 0.924101 0.899626
O O10 0.756817 0.312136 0.239625
O O11 0.000000 0.382891 0.500000
O O12 0.812236 0.294431 0.757464
#
# Coordination Sequence:
#
# PCOD9112675 Si02
#       6
#     2   1   2   2   2   2
#     4  11  20  36  59  90 125 154 199 255 301 355
#     4  10  20  32  56  92 120 150 198 260 308 348
#     4  10  19  33  52  86 118 156 183 243 301 355
#     4  10  20  31  54  86 129 148 186 241 316 351
#     4  11  25  42  62  87 124 167 203 246 303 361
#     4  11  22  37  62  87 123 155 207 248 305 358
#
# _framework density 20.338498999999999
#
# number of rings (size 3 to 8) (size 9 to 14) (size 15 to 20)
#    0.000    1.455    3.636    3.818    0.000    4.364 
#    0.000    0.000    0.000    6.545    0.000    0.000 
#    0.000    0.000    0.000    0.000    0.000    0.000 
#
# Total GULP energy -61258.271718 kJ/mol
# GULP energy per Si atom -5568.933793 kJ/mol
# Density = 2.029221 g / cm^3
# Si number density = 20.338499 Si / 1000 Ang^3
#
#
#
# Elastic Constant Matrix: (Units=GPa)
#
#
# Indices 1 2 3 4 5 6 
#
# 1 64.6699 12.2080 11.1946 0.0000 -15.9943 0.0000
# 2 12.2080 139.6990 29.7915 0.0000 -0.4312 0.0000
# 3 11.1946 29.7915 114.6460 0.0000 -23.8382 0.0000
# 4 0.0000 0.0000 0.0000 28.0687 0.0000 -4.5335
# 5 -15.9943 -0.4312 -23.8382 0.0000 24.2823 0.0000
# 6 0.0000 0.0000 0.0000 -4.5335 0.0000 13.7173
#
#
#
# Elastic Compliance Matrix: (Units=1/GPa)
#
#
# Indices 1 2 3 4 5 6 
#
# 1 0.019034 -0.001955 0.001569 0.000000 0.014043 0.000000
# 2 -0.001955 0.007879 -0.002633 0.000000 -0.003732 0.000000
# 3 0.001569 -0.002633 0.011884 0.000000 0.012654 0.000000
# 4 0.000000 0.000000 0.000000 0.037636 0.000000 0.012439
# 5 0.014043 -0.003732 0.012654 0.000000 0.062789 0.000000
# 6 0.000000 0.000000 0.000000 0.012439 0.000000 0.077012
#
#
# Mechanical properties :
#
#
# Convention : Reuss Voigt Hill
#
# Bulk Modulus (GPa) = 30.52370 47.26703 38.89536
# Shear Modulus (GPa) = 21.44181 30.93504 26.18842
#
# Velocity S-wave (km/s) = 3.25044 3.90424 3.59225
# Velocity P-wave (km/s) = 5.39700 6.60415 6.03085
#
# Compressibility (1/GPa) = 0.03276143
#
# Stress axis : x y z
#
# Youngs Moduli (GPa) = 52.53855 126.92073 84.14335
#
# Poissons Ratio (x) = 0.24808 -0.13205
# Poissons Ratio (y) = 0.10269 0.22151
# Poissons Ratio (z) = -0.08245 0.33412
#
# Static dielectric constant tensor:
#      x y z
#    x 1.325420 0.000000 0.160740 
#    y 0.000000 1.696560 0.000000 
#    z 0.160740 0.000000 1.778730 
# 
# From -- ./inp_files/2060.got.cif
#   From: 2010.05.17/outbox.cif.g08.bks.cpg/sg3_2_cif.got.tgz:2060.got - 2010.06.03 18:33:08.
