data_PCOD9112539
_publ_section_title
;
Structure prediction by ZEFSAII (Michael W. Deem and Ramdas Pophale) SiO2 
 PCOD9112539
Probable space group: P 2
;
_chemical_formula_sum "Si O2"
_cell_formula_units_Z 15
_cell_length_a 5.128283
_cell_length_b 9.734148
_cell_length_c 16.218603
_cell_angle_alpha 90.000000
_cell_angle_beta 78.610414
_cell_angle_gamma 90.000000
_cell_volume 793.680139
_symmetry_space_group_name_H-M "P 2"
_symmetry_group_IT_number 3
_symmetry_cell_setting 'monoclinic'
loop_
_space_group_symop_operation_xyz
x,y,z
-x,y,-z
loop_
_atom_site_type_symbol
_atom_site_label
_atom_site_fract_x
_atom_site_fract_y
_atom_site_fract_z
Si Si1 0.078708 0.516740 0.307892
Si Si2 0.513265 0.452638 0.401744
Si Si3 0.726397 0.432919 0.102973
Si Si4 0.425574 0.272045 0.265875
Si Si5 0.935169 0.887728 0.096346
Si Si6 0.500000 0.221261 0.000000
Si Si7 0.380114 0.021817 0.157801
Si Si8 0.210957 0.607432 0.124892
O O1 0.778697 0.526110 0.354254
O O2 0.155413 0.612450 0.226655
O O3 0.267763 0.532404 0.375274
O O4 0.151451 0.359823 0.274627
O O5 0.500000 0.441362 0.500000
O O6 0.507075 0.305455 0.354480
O O7 0.616996 0.357155 0.191965
O O8 0.014856 0.490316 0.103092
O O9 0.515646 0.557125 0.096775
O O10 0.703446 0.321656 0.032985
O O11 0.410850 0.117150 0.235990
O O12 0.088097 0.962493 0.161530
O O13 0.619716 0.910672 0.131431
O O14 0.089898 0.741894 0.089538
O O15 0.000000 0.943678 0.000000
O O16 0.599044 0.126106 0.920522
#
# Coordination Sequence:
#
# PCOD9112539 Si02
#       8
#     2   2   2   2   2   1   2   2
#     4   9  18  34  52  82 111 138 170 217 270 334
#     4  10  18  31  54  89 117 135 160 215 287 337
#     4  10  21  33  56  77 102 141 176 230 270 320
#     4   8  20  32  57  77 113 133 179 211 274 324
#     4  12  25  38  53  75 107 152 191 234 261 306
#     4  10  22  36  54  76 104 142 182 228 284 314
#     4  11  23  39  52  75 108 147 187 229 265 317
#     4  11  21  38  52  76 107 141 183 227 262 323
#
# _framework density 18.8993
#
# number of rings (size 3 to 8) (size 9 to 14) (size 15 to 20)
#    0.800    1.067    2.667    1.200    3.733    4.267 
#    0.000    0.000    0.000    0.000    0.000    5.600 
#    0.000    0.000    0.000    0.000    0.000    0.000 
#
# Total GULP energy -83545.245252 kJ/mol
# GULP energy per Si atom -5569.683017 kJ/mol
# Density = 1.885628 g / cm^3
# Si number density = 18.899300 Si / 1000 Ang^3
#
#
#
# Elastic Constant Matrix: (Units=GPa)
#
#
# Indices 1 2 3 4 5 6 
#
# 1 83.6419 4.2330 14.0222 0.0000 21.2115 0.0000
# 2 4.2330 32.7770 1.6807 0.0000 6.2581 0.0000
# 3 14.0222 1.6807 75.8449 0.0000 21.7683 0.0000
# 4 0.0000 0.0000 0.0000 16.8233 0.0000 2.3190
# 5 21.2115 6.2581 21.7683 0.0000 24.5825 0.0000
# 6 0.0000 0.0000 0.0000 2.3190 0.0000 -2.5047
#
#
#
# Elastic Compliance Matrix: (Units=1/GPa)
#
#
# Indices 1 2 3 4 5 6 
#
# 1 0.015416 0.000744 0.001348 0.000000 -0.014685 0.000000
# 2 0.000744 0.032377 0.002272 0.000000 -0.010896 0.000000
# 3 0.001348 0.002272 0.017946 0.000000 -0.017634 0.000000
# 4 0.000000 0.000000 0.000000 0.052714 0.000000 0.048804
# 5 -0.014685 -0.010896 -0.017634 0.000000 0.071740 0.000000
# 6 0.000000 0.000000 0.000000 0.048804 0.000000 -0.354059
#
#
# Mechanical properties :
#
#
# Convention : Reuss Voigt Hill
#
# Bulk Modulus (GPa) = 13.42853 25.79284 19.61069
# Shear Modulus (GPa) = -33.83580 19.26876 -7.28352
#
# Velocity S-wave (km/s) = -4.23581 3.19650 -1.96525
# Velocity P-wave (km/s) = 4.09903 5.22500 2.29114
#
# Compressibility (1/GPa) = 0.07446832
#
# Stress axis : x y z
#
# Youngs Moduli (GPa) = 64.86662 30.88610 55.72212
#
# Poissons Ratio (x) = -0.02297 -0.07513
# Poissons Ratio (y) = -0.04825 -0.12662
# Poissons Ratio (z) = -0.08746 -0.07019
#
# Static dielectric constant tensor:
#      x y z
#    x 1.690340 0.000000 0.011060 
#    y 0.000000 1.714400 0.000000 
#    z 0.011060 0.000000 1.667380 
# 
# From -- ./inp_files/14639.got.cif
#   From: 2010.05.17/outbox.cif.g08.bks.cpg/sg3_8_cif.got.tgz:14639.got - 2010.06.03 18:33:08.
