data_PCOD9112351
_publ_section_title
;
Structure prediction by ZEFSAII (Michael W. Deem and Ramdas Pophale) SiO2 
 PCOD9112351
Probable space group: P -1
;
_chemical_formula_sum "Si O2"
_cell_formula_units_Z 16
_cell_length_a 9.743880
_cell_length_b 17.841497
_cell_length_c 9.056225
_cell_angle_alpha 39.690986
_cell_angle_beta 105.110466
_cell_angle_gamma 132.384039
_cell_volume 621.728423
_symmetry_space_group_name_H-M "P -1"
_symmetry_group_IT_number 2
_symmetry_cell_setting 'triclinic'
loop_
_space_group_symop_operation_xyz
x,y,z
-x,-y,-z
loop_
_atom_site_type_symbol
_atom_site_label
_atom_site_fract_x
_atom_site_fract_y
_atom_site_fract_z
Si Si1 0.858964 0.738245 0.132677
Si Si2 0.397411 0.190927 0.070928
Si Si3 0.845769 0.061324 0.358432
Si Si4 0.210010 0.358507 0.225019
Si Si5 0.813823 0.310391 0.920302
Si Si6 0.546963 0.395411 0.357240
Si Si7 0.279637 0.723934 0.394946
Si Si8 0.121348 0.826928 0.360946
O O1 0.731796 0.554375 0.286683
O O2 0.971356 0.769454 0.267506
O O3 0.676867 0.725333 0.116792
O O4 0.058944 0.905138 0.826696
O O5 0.336545 0.129692 0.318471
O O6 0.244880 0.010942 0.198126
O O7 0.642984 0.299624 0.946170
O O8 0.062672 0.188048 0.330761
O O9 0.781164 0.158482 0.202764
O O10 0.341693 0.352491 0.375582
O O11 0.045502 0.328525 0.325783
O O12 0.367510 0.528447 0.901262
O O13 0.777633 0.275821 0.786974
O O14 0.062525 0.514323 0.706497
O O15 0.519059 0.239628 0.606150
O O16 0.298276 0.845852 0.321816
#
# Coordination Sequence:
#
# PCOD9112351 Si02
#       8
#     2   2   2   2   2   2   2   2
#     4  11  21  42  67  92 131 172 214 265 321 385
#     4  11  26  40  65  98 130 173 218 263 317 386
#     4  10  20  47  65  91 135 171 215 262 321 388
#     4   9  21  39  63  96 132 158 214 267 320 377
#     4  11  22  43  67  97 128 171 223 257 324 386
#     4  10  21  42  66  96 129 169 215 265 326 386
#     4  11  22  42  69  93 130 171 208 275 321 376
#     4  11  24  42  63  99 133 168 211 273 322 380
#
# _framework density 25.734708000000001
#
# number of rings (size 3 to 8) (size 9 to 14) (size 15 to 20)
#    0.000    1.500    3.750    1.875    3.500    1.500 
#    0.000    3.750    0.000    0.000    0.000    0.000 
#    0.000    0.000    0.000    0.000    0.000    0.000 
#
# Total GULP energy -89662.638961 kJ/mol
# GULP energy per Si atom -5603.914935 kJ/mol
# Density = 2.567613 g / cm^3
# Si number density = 25.734708 Si / 1000 Ang^3
#
#
#
# Elastic Constant Matrix: (Units=GPa)
#
#
# Indices 1 2 3 4 5 6 
#
# 1 115.7624 31.4209 11.1644 -6.7662 15.0533 -8.0549
# 2 31.4209 107.4585 19.9334 3.5698 0.5557 -0.7878
# 3 11.1644 19.9334 52.1533 17.3001 5.3515 -3.2035
# 4 -6.7662 3.5698 17.3001 26.4921 -5.3957 -0.1606
# 5 15.0533 0.5557 5.3515 -5.3957 45.4907 3.6720
# 6 -8.0549 -0.7878 -3.2035 -0.1606 3.6720 40.9364
#
#
#
# Elastic Compliance Matrix: (Units=1/GPa)
#
#
# Indices 1 2 3 4 5 6 
#
# 1 0.010309 -0.002743 -0.001967 0.003714 -0.002875 0.002094
# 2 -0.002743 0.010808 -0.003970 0.000714 0.001389 -0.000764
# 3 -0.001967 -0.003970 0.028204 -0.019410 -0.005092 0.002124
# 4 0.003714 0.000714 -0.019410 0.052775 0.007405 -0.001232
# 5 -0.002875 0.001389 -0.005092 0.007405 0.024646 -0.003119
# 6 0.002094 -0.000764 0.002124 -0.001232 -0.003119 0.025267
#
#
# Mechanical properties :
#
#
# Convention : Reuss Voigt Hill
#
# Bulk Modulus (GPa) = 31.28732 44.49018 37.88875
# Shear Modulus (GPa) = 27.77426 36.77419 32.27422
#
# Velocity S-wave (km/s) = 3.28876 3.78428 3.54519
# Velocity P-wave (km/s) = 5.15803 6.03489 5.61361
#
# Compressibility (1/GPa) = 0.03196183
#
# Stress axis : x y z
#
# Youngs Moduli (GPa) = 97.00072 92.52570 35.45564
#
# Poissons Ratio (x) = 0.25377 0.06974
# Poissons Ratio (y) = 0.26604 0.14076
# Poissons Ratio (z) = 0.19080 0.36733
#
# Static dielectric constant tensor:
#      x y z
#    x 2.027240 0.018480 -0.016840 
#    y 0.018480 1.966380 -0.026130 
#    z -0.016840 -0.026130 2.064780 
# 
# From -- ./inp_files/216521.got.cif
#   From: 2010.05.17/outbox.cif.g08.bks.cpg/sg2_109_cif.got.tgz:216521.got - 2010.06.03 11:33:40.
