data_PCOD9112147
_publ_section_title
;
Structure prediction by ZEFSAII (Michael W. Deem and Ramdas Pophale) SiO2 
 PCOD9112147
Probable space group: P -1
;
_chemical_formula_sum "Si O2"
_cell_formula_units_Z 14
_cell_length_a 6.557909
_cell_length_b 8.067539
_cell_length_c 24.860782
_cell_angle_alpha 32.317105
_cell_angle_beta 62.693999
_cell_angle_gamma 62.780705
_cell_volume 618.041318
_symmetry_space_group_name_H-M "P -1"
_symmetry_group_IT_number 2
_symmetry_cell_setting 'triclinic'
loop_
_space_group_symop_operation_xyz
x,y,z
-x,-y,-z
loop_
_atom_site_type_symbol
_atom_site_label
_atom_site_fract_x
_atom_site_fract_y
_atom_site_fract_z
Si Si1 0.858798 0.228276 0.072405
Si Si2 0.760323 0.389938 0.805767
Si Si3 0.028664 0.743306 0.383181
Si Si4 0.875747 0.356848 0.921594
Si Si5 0.294077 0.710854 0.756831
Si Si6 0.453229 0.122154 0.717186
Si Si7 0.048731 0.640942 0.610810
O O1 0.662348 0.092731 0.167656
O O2 0.748856 0.342510 0.997063
O O3 0.069682 0.937028 0.126333
O O4 0.000000 0.500000 0.000000
O O5 0.747577 0.450510 0.855257
O O6 0.501504 0.425260 0.802391
O O7 0.889379 0.604683 0.691976
O O8 0.279518 0.848676 0.319607
O O9 0.000000 0.500000 0.500000
O O10 0.001702 0.576478 0.374401
O O11 0.838692 0.049395 0.335544
O O12 0.079521 0.568001 0.847289
O O13 0.000000 0.000000 0.000000
O O14 0.409514 0.950972 0.713769
O O15 0.307319 0.473115 0.640862
O O16 0.000000 0.000000 0.500000
#
# Coordination Sequence:
#
# PCOD9112147 Si02
#       7
#     2   2   2   2   2   2   2
#     4  10  20  44  72 101 140 181 229 279 342 401
#     4  10  24  42  67 101 140 178 229 282 344 407
#     4  11  27  46  72  99 133 187 234 277 355 413
#     4  10  22  40  69 101 135 182 228 272 340 411
#     4  11  23  43  68  99 143 176 231 288 331 411
#     4  10  23  45  70 100 138 181 229 282 345 409
#     4  10  25  43  69 101 138 172 230 295 349 403
#
# _framework density 22.652206
#
# number of rings (size 3 to 8) (size 9 to 14) (size 15 to 20)
#    0.000    1.714    1.429    0.857    6.000    7.429 
#    2.571    5.714    0.000    0.000    0.000    0.000 
#    0.000    0.000    0.000    0.000    0.000    0.000 
#
# Total GULP energy -78048.122356 kJ/mol
# GULP energy per Si atom -5574.865883 kJ/mol
# Density = 2.260065 g / cm^3
# Si number density = 22.652206 Si / 1000 Ang^3
#
#
#
# Elastic Constant Matrix: (Units=GPa)
#
#
# Indices 1 2 3 4 5 6 
#
# 1 108.8418 40.3685 62.7802 6.2391 3.9975 -25.3939
# 2 40.3685 63.2797 49.7014 7.9246 6.6482 -18.1941
# 3 62.7802 49.7014 165.0319 0.6581 22.7103 -12.2571
# 4 6.2391 7.9246 0.6581 32.6937 7.2503 1.6732
# 5 3.9975 6.6482 22.7103 7.2503 32.5343 -4.9091
# 6 -25.3939 -18.1941 -12.2571 1.6732 -4.9091 39.7186
#
#
#
# Elastic Compliance Matrix: (Units=1/GPa)
#
#
# Indices 1 2 3 4 5 6 
#
# 1 0.014892 -0.004060 -0.004442 -0.002964 0.003800 0.006885
# 2 -0.004060 0.025887 -0.005900 -0.006211 0.001910 0.007939
# 3 -0.004442 -0.005900 0.010182 0.003732 -0.006698 -0.003386
# 4 -0.002964 -0.006211 0.003732 0.035062 -0.009731 -0.006268
# 5 0.003800 0.001910 -0.006698 -0.009731 0.037675 0.006304
# 6 0.006885 0.007939 -0.003386 -0.006268 0.006304 0.033214
#
#
# Mechanical properties :
#
#
# Convention : Reuss Voigt Hill
#
# Bulk Modulus (GPa) = 45.13360 71.42817 58.28088
# Shear Modulus (GPa) = 25.89313 33.27621 29.58467
#
# Velocity S-wave (km/s) = 3.38460 3.83692 3.61784
# Velocity P-wave (km/s) = 5.93649 7.15753 6.57542
#
# Compressibility (1/GPa) = 0.02215644
#
# Stress axis : x y z
#
# Youngs Moduli (GPa) = 67.14792 38.62997 98.21600
#
# Poissons Ratio (x) = 0.15683 0.43631
# Poissons Ratio (y) = 0.27260 0.57948
# Poissons Ratio (z) = 0.29830 0.22792
#
# Static dielectric constant tensor:
#      x y z
#    x 1.869580 0.000170 0.057220 
#    y 0.000170 1.943450 -0.023570 
#    z 0.057220 -0.023570 1.830470 
# 
# From -- ./inp_files/88663.got.cif
#   From: 2010.05.17/outbox.cif.g08.bks.cpg/sg2_45_cif.got.tgz:88663.got - 2010.06.03 11:33:40.
