data_PCOD9112063
_publ_section_title
;
Structure prediction by ZEFSAII (Michael W. Deem and Ramdas Pophale) SiO2 
 PCOD9112063
Probable space group: P -1
;
_chemical_formula_sum "Si O2"
_cell_formula_units_Z 15
_cell_length_a 15.924793
_cell_length_b 11.858943
_cell_length_c 6.264859
_cell_angle_alpha 68.108026
_cell_angle_beta 124.857922
_cell_angle_gamma 140.737337
_cell_volume 608.868980
_symmetry_space_group_name_H-M "P -1"
_symmetry_group_IT_number 2
_symmetry_cell_setting 'triclinic'
loop_
_space_group_symop_operation_xyz
x,y,z
-x,-y,-z
loop_
_atom_site_type_symbol
_atom_site_label
_atom_site_fract_x
_atom_site_fract_y
_atom_site_fract_z
Si Si1 0.062543 0.890681 0.284924
Si Si2 0.152012 0.215280 0.341535
Si Si3 0.431153 0.042292 0.212478
Si Si4 0.837539 0.573214 0.427102
Si Si5 0.500000 0.500000 0.500000
Si Si6 0.620324 0.324989 0.938964
Si Si7 0.611905 0.782928 0.662513
Si Si8 0.821220 0.354066 0.872260
O O1 0.998575 0.717575 0.436262
O O2 0.077645 0.015547 0.387231
O O3 0.226280 0.028867 0.315422
O O4 0.941726 0.815628 0.977051
O O5 0.148352 0.313552 0.450011
O O6 0.328289 0.345768 0.466984
O O7 0.259216 0.845808 0.081706
O O8 0.500000 0.000000 0.500000
O O9 0.514759 0.136737 0.043837
O O10 0.437321 0.173895 0.252013
O O11 0.712014 0.482450 0.130301
O O12 0.786316 0.401332 0.576386
O O13 0.585038 0.619435 0.772118
O O14 0.510135 0.314442 0.645354
O O15 0.742238 0.363587 0.938957
O O16 0.000000 0.500000 0.000000
#
# Coordination Sequence:
#
# PCOD9112063 Si02
#       8
#     2   2   2   2   1   2   2   2
#     4  10  24  42  70 101 141 179 227 291 344 406
#     4  10  22  44  67 100 138 179 230 285 345 407
#     4  12  25  47  70 101 136 182 232 289 341 411
#     4  12  24  43  68  99 139 180 229 283 348 412
#     4  10  20  44  68  96 136 176 226 276 338 408
#     4  12  25  46  70  99 137 182 229 286 345 412
#     4  11  25  43  72 102 135 183 228 285 346 413
#     4  12  29  44  68 100 138 181 232 287 343 413
#
# _framework density 24.635842
#
# number of rings (size 3 to 8) (size 9 to 14) (size 15 to 20)
#    0.000    0.800    2.667    4.000    5.600    0.533 
#    0.000   14.667    0.000    0.000    0.000    0.000 
#    0.000    0.000    0.000    0.000    0.000    0.000 
#
# Total GULP energy -83616.067368 kJ/mol
# GULP energy per Si atom -5574.404491 kJ/mol
# Density = 2.457977 g / cm^3
# Si number density = 24.635842 Si / 1000 Ang^3
#
#
#
# Elastic Constant Matrix: (Units=GPa)
#
#
# Indices 1 2 3 4 5 6 
#
# 1 81.2151 25.2052 25.7779 15.8765 2.4400 21.9736
# 2 25.2052 175.1600 44.2985 4.1080 -8.2801 33.4775
# 3 25.7779 44.2985 76.5830 15.4407 4.1348 9.7892
# 4 15.8765 4.1080 15.4407 44.3706 -2.5130 -3.5845
# 5 2.4400 -8.2801 4.1348 -2.5130 19.2276 7.8982
# 6 21.9736 33.4775 9.7892 -3.5845 7.8982 52.3586
#
#
#
# Elastic Compliance Matrix: (Units=1/GPa)
#
#
# Indices 1 2 3 4 5 6 
#
# 1 0.016208 0.000002 -0.003645 -0.005019 0.000776 -0.006583
# 2 0.000002 0.008196 -0.004584 0.000789 0.006819 -0.005359
# 3 -0.003645 -0.004584 0.018038 -0.004787 -0.006746 0.001778
# 4 -0.005019 0.000789 -0.004787 0.026449 0.003937 0.003714
# 5 0.000776 0.006819 -0.006746 0.003937 0.061947 -0.012500
# 6 -0.006583 -0.005359 0.001778 0.003714 -0.012500 0.027095
#
#
# Mechanical properties :
#
#
# Convention : Reuss Voigt Hill
#
# Bulk Modulus (GPa) = 38.47891 58.16904 48.32397
# Shear Modulus (GPa) = 27.31474 39.03646 33.17560
#
# Velocity S-wave (km/s) = 3.33339 3.98495 3.67364
# Velocity P-wave (km/s) = 5.51981 6.69596 6.13613
#
# Compressibility (1/GPa) = 0.02598827
#
# Stress axis : x y z
#
# Youngs Moduli (GPa) = 61.69701 122.00827 55.43746
#
# Poissons Ratio (x) = -0.00026 0.20209
# Poissons Ratio (y) = -0.00013 0.25412
# Poissons Ratio (z) = 0.22491 0.55927
#
# Static dielectric constant tensor:
#      x y z
#    x 1.991350 0.081900 -0.018840 
#    y 0.081900 1.831740 0.056550 
#    z -0.018840 0.056550 1.992300 
# 
# From -- ./inp_files/94828.got.cif
#   From: 2010.05.17/outbox.cif.g08.bks.cpg/sg2_48_cif.got.tgz:94828.got - 2010.06.03 11:33:40.
