data_PCOD9112398
_publ_section_title
;
Structure prediction by ZEFSAII (Michael W. Deem and Ramdas Pophale) SiO2 
 PCOD9112398
Probable space group: P -1
;
_chemical_formula_sum "Si O2"
_cell_formula_units_Z 15
_cell_length_a 10.997464
_cell_length_b 4.859028
_cell_length_c 13.232544
_cell_angle_alpha 70.920464
_cell_angle_beta 126.625588
_cell_angle_gamma 89.700663
_cell_volume 517.287796
_symmetry_space_group_name_H-M "P -1"
_symmetry_group_IT_number 2
_symmetry_cell_setting 'triclinic'
loop_
_space_group_symop_operation_xyz
x,y,z
-x,-y,-z
loop_
_atom_site_type_symbol
_atom_site_label
_atom_site_fract_x
_atom_site_fract_y
_atom_site_fract_z
Si Si1 0.316806 0.614386 0.420311
Si Si2 0.377822 0.029555 0.150894
Si Si3 0.176863 0.897532 0.703451
Si Si4 0.568505 0.481191 0.223338
Si Si5 0.935079 0.038538 0.078811
Si Si6 0.021333 0.556230 0.362213
Si Si7 0.203789 0.269944 0.242555
Si Si8 0.500000 0.500000 0.000000
O O1 0.500000 0.500000 0.500000
O O2 0.209970 0.488652 0.460986
O O3 0.244549 0.546669 0.283958
O O4 0.276667 0.970305 0.380318
O O5 0.506513 0.705007 0.256337
O O6 0.454945 0.301047 0.123164
O O7 0.301734 0.179203 0.199308
O O8 0.245563 0.938267 0.032703
O O9 0.275211 0.785532 0.661928
O O10 0.039168 0.731589 0.657395
O O11 0.309724 0.753501 0.868710
O O12 0.090277 0.247465 0.630601
O O13 0.568880 0.687936 0.102939
O O14 0.020702 0.290780 0.130660
O O15 0.978579 0.788329 0.217736
O O16 0.000000 0.000000 0.000000
#
# Coordination Sequence:
#
# PCOD9112398 Si02
#       8
#     2   2   2   2   2   2   2   1
#     4  11  23  41  63  87 110 140 191 253 301 339
#     4  11  20  35  55  81 118 163 187 221 278 331
#     4  10  21  33  51  79 113 150 189 229 265 326
#     4  10  21  32  50  78 113 157 195 229 260 318
#     4   9  20  33  51  78 116 153 187 217 268 343
#     4  11  20  36  56  79 112 151 183 235 287 330
#     4  10  22  38  57  86 114 146 192 235 284 359
#     4   8  20  30  48  74 120 142 202 218 254 304
#
# _framework density 28.997396999999999
#
# number of rings (size 3 to 8) (size 9 to 14) (size 15 to 20)
#    0.800    1.067    0.000    5.200    0.000    3.200 
#    0.000   11.333    0.000    0.000    0.000   18.667 
#    0.000    0.000    0.000    0.000    0.000    0.000 
#
# Total GULP energy -83551.769486 kJ/mol
# GULP energy per Si atom -5570.117966 kJ/mol
# Density = 2.893140 g / cm^3
# Si number density = 28.997397 Si / 1000 Ang^3
#
#
#
# Elastic Constant Matrix: (Units=GPa)
#
#
# Indices 1 2 3 4 5 6 
#
# 1 115.4152 56.4550 40.1198 1.9069 23.4667 -15.8314
# 2 56.4550 136.9984 36.1904 -7.9412 19.6474 -13.1619
# 3 40.1198 36.1904 148.1019 -4.7756 39.2889 -1.5901
# 4 1.9069 -7.9412 -4.7756 42.1137 -10.5654 -1.2774
# 5 23.4667 19.6474 39.2889 -10.5654 47.3504 2.7570
# 6 -15.8314 -13.1619 -1.5901 -1.2774 2.7570 60.7537
#
#
#
# Elastic Compliance Matrix: (Units=1/GPa)
#
#
# Indices 1 2 3 4 5 6 
#
# 1 0.012289 -0.004047 -0.001336 -0.002396 -0.003978 0.002421
# 2 -0.004047 0.009539 -0.000942 0.001693 -0.000855 0.001062
# 3 -0.001336 -0.000942 0.009084 -0.000757 -0.006652 -0.000028
# 4 -0.002396 0.001693 -0.000757 0.025810 0.006875 -0.000047
# 5 -0.003978 -0.000855 -0.006652 0.006875 0.030652 -0.002642
# 6 0.002421 0.001062 -0.000028 -0.000047 -0.002642 0.017439
#
#
# Mechanical properties :
#
#
# Convention : Reuss Voigt Hill
#
# Bulk Modulus (GPa) = 54.75865 74.00508 64.38187
# Shear Modulus (GPa) = 40.46956 47.89359 44.18158
#
# Velocity S-wave (km/s) = 3.73986 4.06846 3.90762
# Velocity P-wave (km/s) = 6.12974 6.90265 6.52764
#
# Compressibility (1/GPa) = 0.01826196
#
# Stress axis : x y z
#
# Youngs Moduli (GPa) = 81.37524 104.83795 110.08314
#
# Poissons Ratio (x) = 0.42427 0.14707
# Poissons Ratio (y) = 0.32932 0.10368
# Poissons Ratio (z) = 0.10872 0.09874
#
# Static dielectric constant tensor:
#      x y z
#    x 2.634070 -0.085120 -0.105100 
#    y -0.085120 2.240220 -0.091570 
#    z -0.105100 -0.091570 2.459720 
# 
# From -- ./inp_files/563866.got.cif
#   From: 2010.05.17/outbox.cif.g08.bks.cpg/sg2_282_cif.got.tgz:563866.got - 2010.06.03 11:33:40.
