data_PCOD9112537
_publ_section_title
;
Structure prediction by ZEFSAII (Michael W. Deem and Ramdas Pophale) SiO2 
 PCOD9112537
Probable space group: P 2
;
_chemical_formula_sum "Si O2"
_cell_formula_units_Z 16
_cell_length_a 8.665917
_cell_length_b 7.693111
_cell_length_c 20.641858
_cell_angle_alpha 90.000000
_cell_angle_beta 32.347046
_cell_angle_gamma 90.000000
_cell_volume 736.303068
_symmetry_space_group_name_H-M "P 2"
_symmetry_group_IT_number 3
_symmetry_cell_setting 'monoclinic'
loop_
_space_group_symop_operation_xyz
x,y,z
-x,y,-z
loop_
_atom_site_type_symbol
_atom_site_label
_atom_site_fract_x
_atom_site_fract_y
_atom_site_fract_z
Si Si1 0.196772 0.277270 0.622577
Si Si2 0.183400 0.679216 0.124167
Si Si3 0.811786 0.678769 0.373377
Si Si4 0.854358 0.775050 0.618792
Si Si5 0.685589 0.290434 0.124160
Si Si6 0.133800 0.181833 0.385342
Si Si7 0.192117 0.682953 0.872615
Si Si8 0.322107 0.282880 0.120559
O O1 0.500000 0.190847 0.500000
O O2 0.248989 0.477404 0.624231
O O3 0.023491 0.278361 0.617179
O O4 0.980707 0.198021 0.751810
O O5 0.247388 0.479239 0.123758
O O6 0.994432 0.757266 0.249576
O O7 0.002334 0.681729 0.122555
O O8 0.500000 0.757804 0.000000
O O9 0.500000 0.758019 0.500000
O O10 0.006918 0.683496 0.368199
O O11 0.507613 0.760411 0.745450
O O12 0.000000 0.711256 0.500000
O O13 0.932338 0.978069 0.596900
O O14 0.474301 0.205761 0.252108
O O15 0.739260 0.485783 0.129671
O O16 0.518604 0.292970 0.114886
O O17 0.000000 0.209539 0.000000
O O18 0.000000 0.244848 0.500000
O O19 0.000000 0.759875 0.000000
O O20 0.500000 0.197276 0.000000
#
# Coordination Sequence:
#
# PCOD9112537 Si02
#       8
#     2   2   2   2   2   2   2   2
#     4   9  19  34  54  80 104 136 181 226 274 322
#     4  10  18  31  52  81 110 137 171 222 278 327
#     4  10  20  35  57  82 108 140 183 233 278 322
#     4  11  23  39  55  79 113 151 191 228 272 331
#     4  10  20  35  57  86 110 141 183 229 279 329
#     4  10  23  38  54  77 112 151 185 223 270 327
#     4  11  21  35  60  88 111 143 184 231 281 330
#     4   9  16  29  49  77 110 135 166 218 272 322
#
# _framework density 21.730181999999999
#
# number of rings (size 3 to 8) (size 9 to 14) (size 15 to 20)
#    0.000    2.000    0.000    6.750    0.000    7.000 
#    0.000    0.000    0.000    9.000    0.000    0.875 
#    0.000    0.000    0.000    0.000    0.000    0.000 
#
# Total GULP energy -89278.603149 kJ/mol
# GULP energy per Si atom -5579.912697 kJ/mol
# Density = 2.168072 g / cm^3
# Si number density = 21.730182 Si / 1000 Ang^3
#
#
#
# Elastic Constant Matrix: (Units=GPa)
#
#
# Indices 1 2 3 4 5 6 
#
# 1 112.1991 -5.4633 83.6430 0.0000 0.1806 0.0000
# 2 -5.4633 39.8428 5.6155 0.0000 2.1602 0.0000
# 3 83.6430 5.6155 270.2253 0.0000 8.1351 0.0000
# 4 0.0000 0.0000 0.0000 13.6447 0.0000 -2.6725
# 5 0.1806 2.1602 8.1351 0.0000 46.0172 0.0000
# 6 0.0000 0.0000 0.0000 -2.6725 0.0000 -1.0942
#
#
#
# Elastic Compliance Matrix: (Units=1/GPa)
#
#
# Indices 1 2 3 4 5 6 
#
# 1 0.011776 0.002109 -0.003704 0.000000 0.000510 0.000000
# 2 0.002109 0.025605 -0.001155 0.000000 -0.001006 0.000000
# 3 -0.003704 -0.001155 0.004895 0.000000 -0.000797 0.000000
# 4 0.000000 0.000000 0.000000 0.049574 0.000000 -0.121078
# 5 0.000510 -0.001006 -0.000797 0.000000 0.021917 0.000000
# 6 0.000000 0.000000 0.000000 -0.121078 0.000000 -0.618182
#
#
# Mechanical properties :
#
#
# Convention : Reuss Voigt Hill
#
# Bulk Modulus (GPa) = 27.19095 65.53974 46.36535
# Shear Modulus (GPa) = -10.27419 34.27833 12.00207
#
# Velocity S-wave (km/s) = -2.17677 3.97602 2.35270
# Velocity P-wave (km/s) = 2.49447 7.16272 5.36316
#
# Compressibility (1/GPa) = 0.03677694
#
# Stress axis : x y z
#
# Youngs Moduli (GPa) = 84.91808 39.05469 204.28334
#
# Poissons Ratio (x) = -0.08237 0.75671
# Poissons Ratio (y) = -0.17911 0.23588
# Poissons Ratio (z) = 0.31456 0.04509
#
# Static dielectric constant tensor:
#      x y z
#    x 1.733770 0.000000 -0.002840 
#    y 0.000000 1.789410 0.000000 
#    z -0.002840 0.000000 1.881730 
# 
# From -- ./inp_files/15811.got.cif
#   From: 2010.05.17/outbox.cif.g08.bks.cpg/sg3_8_cif.got.tgz:15811.got - 2010.06.03 18:33:08.
