data_PCOD9112706
_publ_section_title
;
Structure prediction by ZEFSAII (Michael W. Deem and Ramdas Pophale) SiO2 
 PCOD9112706
Probable space group: P 2
;
_chemical_formula_sum "Si O2"
_cell_formula_units_Z 16
_cell_length_a 9.000167
_cell_length_b 18.343150
_cell_length_c 7.722047
_cell_angle_alpha 90.000000
_cell_angle_beta 33.934509
_cell_angle_gamma 90.000000
_cell_volume 711.674994
_symmetry_space_group_name_H-M "P 2"
_symmetry_group_IT_number 3
_symmetry_cell_setting 'monoclinic'
loop_
_space_group_symop_operation_xyz
x,y,z
-x,y,-z
loop_
_atom_site_type_symbol
_atom_site_label
_atom_site_fract_x
_atom_site_fract_y
_atom_site_fract_z
Si Si1 0.095662 0.221810 0.106053
Si Si2 0.584105 0.151806 0.620608
Si Si3 0.743249 0.007017 0.629645
Si Si4 0.406820 0.697581 0.397032
Si Si5 0.001819 0.445868 0.288013
Si Si6 0.263510 0.848246 0.357775
Si Si7 0.511020 0.355150 0.198160
Si Si8 0.915768 0.610960 0.783055
O O1 0.803874 0.211691 0.474056
O O2 0.295162 0.160550 0.986973
O O3 0.301707 0.289344 0.915034
O O4 0.000000 0.214198 0.000000
O O5 0.500000 0.161352 0.500000
O O6 0.708024 0.073155 0.530772
O O7 0.771413 0.926596 0.515083
O O8 0.000000 0.015906 0.500000
O O9 0.500000 0.012173 0.000000
O O10 0.500000 0.706196 0.500000
O O11 0.367547 0.776929 0.353037
O O12 0.114071 0.664841 0.684319
O O13 0.616423 0.641802 0.100334
O O14 0.776734 0.384966 0.457881
O O15 0.000000 0.445199 0.500000
O O16 0.995828 0.530088 0.240873
O O17 0.293663 0.421874 0.950346
O O18 0.000000 0.831659 0.500000
O O19 0.500000 0.865326 0.000000
O O20 0.500000 0.345616 0.000000
O O21 0.000000 0.614161 0.500000
#
# Coordination Sequence:
#
# PCOD9112706 Si02
#       8
#     2   2   2   2   2   2   2   2
#     4  10  21  36  54  80 113 151 191 230 283 355
#     4  10  21  37  56  79 114 155 191 231 287 354
#     4  10  21  37  59  87 116 148 196 252 293 341
#     4  12  24  38  59  91 125 154 196 256 306 354
#     4   9  19  35  57  83 109 141 189 240 288 347
#     4  10  21  39  61  85 116 157 201 242 295 365
#     4  10  19  34  55  81 110 141 184 241 291 338
#     4  11  22  40  64  86 115 161 204 242 300 374
#
# _framework density 22.482174000000001
#
# number of rings (size 3 to 8) (size 9 to 14) (size 15 to 20)
#    0.000    1.750    0.000    4.875    0.000    4.000 
#    0.000    2.500    0.000    8.250    0.000    0.000 
#    0.000    0.000    0.000    0.000    0.000    0.000 
#
# Total GULP energy -89113.630773 kJ/mol
# GULP energy per Si atom -5569.601923 kJ/mol
# Density = 2.243100 g / cm^3
# Si number density = 22.482174 Si / 1000 Ang^3
#
#
#
# Elastic Constant Matrix: (Units=GPa)
#
#
# Indices 1 2 3 4 5 6 
#
# 1 54.0682 33.9734 26.8775 0.0000 -23.2582 0.0000
# 2 33.9734 125.0014 -0.2281 0.0000 -13.2640 0.0000
# 3 26.8775 -0.2281 107.1308 0.0000 -35.5549 0.0000
# 4 0.0000 0.0000 0.0000 33.9368 0.0000 -5.0348
# 5 -23.2582 -13.2640 -35.5549 0.0000 29.2522 0.0000
# 6 0.0000 0.0000 0.0000 -5.0348 0.0000 62.5589
#
#
#
# Elastic Compliance Matrix: (Units=1/GPa)
#
#
# Indices 1 2 3 4 5 6 
#
# 1 0.032353 -0.006502 -0.000959 0.000000 0.021610 0.000000
# 2 -0.006502 0.010017 0.002421 0.000000 0.002315 0.000000
# 3 -0.000959 0.002421 0.016244 0.000000 0.020080 0.000000
# 4 0.000000 0.000000 0.000000 0.029823 0.000000 0.002400
# 5 0.021610 0.002315 0.020080 0.000000 0.076824 0.000000
# 6 0.000000 0.000000 0.000000 0.002400 0.000000 0.016178
#
#
# Mechanical properties :
#
#
# Convention : Reuss Voigt Hill
#
# Bulk Modulus (GPa) = 20.60351 45.27177 32.93764
# Shear Modulus (GPa) = 24.07366 40.18809 32.13087
#
# Velocity S-wave (km/s) = 3.27584 4.23253 3.78454
# Velocity P-wave (km/s) = 4.84690 6.63824 5.81200
#
# Compressibility (1/GPa) = 0.04853541
#
# Stress axis : x y z
#
# Youngs Moduli (GPa) = 30.90897 99.82991 61.56067
#
# Poissons Ratio (x) = 0.64906 0.05901
# Poissons Ratio (y) = 0.20096 -0.14903
# Poissons Ratio (z) = 0.02963 -0.24167
#
# Static dielectric constant tensor:
#      x y z
#    x 1.708780 0.000000 0.023120 
#    y 0.000000 1.942360 0.000000 
#    z 0.023120 0.000000 1.875260 
# 
# From -- ./inp_files/6202.got.cif
#   From: 2010.05.17/outbox.cif.g08.bks.cpg/sg3_4_cif.got.tgz:6202.got - 2010.06.03 18:33:08.
