data_PCOD9112839
_publ_section_title
;
Structure prediction by ZEFSAII (Michael W. Deem and Ramdas Pophale) SiO2 
 PCOD9112839
Probable space group: P 2
;
_chemical_formula_sum "Si O2"
_cell_formula_units_Z 15
_cell_length_a 26.935517
_cell_length_b 5.344514
_cell_length_c 13.575332
_cell_angle_alpha 90.000000
_cell_angle_beta 158.439897
_cell_angle_gamma 90.000000
_cell_volume 718.148389
_symmetry_space_group_name_H-M "P 2"
_symmetry_group_IT_number 3
_symmetry_cell_setting 'monoclinic'
loop_
_space_group_symop_operation_xyz
x,y,z
-x,y,-z
loop_
_atom_site_type_symbol
_atom_site_label
_atom_site_fract_x
_atom_site_fract_y
_atom_site_fract_z
Si Si1 0.441872 0.180460 0.109217
Si Si2 0.400748 0.681023 0.906547
Si Si3 0.026097 0.058425 0.734699
Si Si4 0.872567 0.698922 0.562269
Si Si5 0.887128 0.573509 0.876942
Si Si6 0.194301 0.412432 0.749340
Si Si7 0.000000 0.694491 0.500000
Si Si8 0.752998 0.084729 0.699914
O O1 0.442432 0.427494 0.040666
O O2 0.594185 0.124212 0.424188
O O3 0.402659 0.934236 0.974954
O O4 0.327207 0.242771 0.980836
O O5 0.500000 0.718266 0.000000
O O6 0.247033 0.660789 0.581749
O O7 0.023836 0.851144 0.644268
O O8 0.925778 0.974985 0.639163
O O9 0.945612 0.274159 0.532946
O O10 0.167752 0.095898 0.049388
O O11 0.798912 0.607418 0.327725
O O12 0.009257 0.555214 0.838544
O O13 0.805945 0.314214 0.729278
O O14 0.794884 0.818252 0.727715
O O15 0.000000 0.609881 0.000000
O O16 0.145279 0.554153 0.755431
#
# Coordination Sequence:
#
# PCOD9112839 Si02
#       8
#     2   2   2   2   2   2   1   2
#     4  11  24  41  63  93 131 177 204 258 329 375
#     4  11  23  39  60  91 129 172 225 263 300 364
#     4  10  19  40  63  93 124 157 210 260 322 380
#     4   9  20  35  60  88 122 168 210 263 310 355
#     4  11  23  39  60  91 129 172 225 263 300 364
#     4  10  19  40  63  93 124 157 210 260 322 380
#     4  10  22  36  72 104 112 156 214 274 314 386
#     4  11  24  41  63  93 131 177 204 258 329 375
#
# _framework density 20.887051
#
# number of rings (size 3 to 8) (size 9 to 14) (size 15 to 20)
#    0.000    1.600    2.667    2.000    3.733    0.000 
#    0.000    0.000    0.000    4.800    0.000    0.000 
#    0.000    0.000    0.000    0.000    0.000    0.000 
#
# Total GULP energy -83505.685456 kJ/mol
# GULP energy per Si atom -5567.045697 kJ/mol
# Density = 2.083951 g / cm^3
# Si number density = 20.887051 Si / 1000 Ang^3
#
#
#
# Elastic Constant Matrix: (Units=GPa)
#
#
# Indices 1 2 3 4 5 6 
#
# 1 72.6911 35.4334 35.5946 0.0000 25.6313 0.0000
# 2 35.4334 122.4056 45.3112 0.0000 15.2223 0.0000
# 3 35.5946 45.3112 145.1734 0.0000 18.1751 0.0000
# 4 0.0000 0.0000 0.0000 27.2422 0.0000 6.8962
# 5 25.6313 15.2223 18.1751 0.0000 26.0810 0.0000
# 6 0.0000 0.0000 0.0000 6.8962 0.0000 23.0548
#
#
#
# Elastic Compliance Matrix: (Units=1/GPa)
#
#
# Indices 1 2 3 4 5 6 
#
# 1 0.023403 -0.003547 -0.002203 0.000000 -0.019394 0.000000
# 2 -0.003547 0.010113 -0.002174 0.000000 -0.000902 0.000000
# 3 -0.002203 -0.002174 0.008411 0.000000 -0.002428 0.000000
# 4 0.000000 0.000000 0.000000 0.039715 0.000000 -0.011880
# 5 -0.019394 -0.000902 -0.002428 0.000000 0.059619 0.000000
# 6 0.000000 0.000000 0.000000 -0.011880 0.000000 0.046928
#
#
# Mechanical properties :
#
#
# Convention : Reuss Voigt Hill
#
# Bulk Modulus (GPa) = 38.34511 63.66096 51.00303
# Shear Modulus (GPa) = 23.50381 30.20432 26.85407
#
# Velocity S-wave (km/s) = 3.35816 3.80686 3.58953
# Velocity P-wave (km/s) = 5.78226 7.06171 6.45377
#
# Compressibility (1/GPa) = 0.02607895
#
# Stress axis : x y z
#
# Youngs Moduli (GPa) = 42.72935 98.88001 118.89377
#
# Poissons Ratio (x) = 0.35076 0.26191
# Poissons Ratio (y) = 0.15158 0.25846
# Poissons Ratio (z) = 0.09413 0.21496
#
# Static dielectric constant tensor:
#      x y z
#    x 1.845100 0.000000 0.003980 
#    y 0.000000 1.868360 0.000000 
#    z 0.003980 0.000000 1.825570 
# 
# From -- ./inp_files/8296.got.cif
#   From: 2010.05.17/outbox.cif.g08.bks.cpg/sg3_5_cif.got.tgz:8296.got - 2010.06.03 18:33:08.
