data_PCOD9112708
_publ_section_title
;
Structure prediction by ZEFSAII (Michael W. Deem and Ramdas Pophale) SiO2 
 PCOD9112708
Probable space group: P 2
;
_chemical_formula_sum "Si O2"
_cell_formula_units_Z 16
_cell_length_a 9.137233
_cell_length_b 12.619269
_cell_length_c 8.661497
_cell_angle_alpha 90.000000
_cell_angle_beta 123.866151
_cell_angle_gamma 90.000000
_cell_volume 829.275197
_symmetry_space_group_name_H-M "P 2"
_symmetry_group_IT_number 3
_symmetry_cell_setting 'monoclinic'
loop_
_space_group_symop_operation_xyz
x,y,z
-x,y,-z
loop_
_atom_site_type_symbol
_atom_site_label
_atom_site_fract_x
_atom_site_fract_y
_atom_site_fract_z
Si Si1 0.808313 0.546380 0.459332
Si Si2 0.676192 0.326983 0.711957
Si Si3 0.200288 0.761666 0.675776
Si Si4 0.682356 0.565783 0.705413
Si Si5 0.194393 0.768985 0.041985
Si Si6 0.816885 0.311243 0.481462
Si Si7 0.496285 0.923105 0.809575
Si Si8 0.506216 0.166953 0.188301
O O1 0.719891 0.647782 0.328919
O O2 0.824076 0.568918 0.650176
O O3 0.732836 0.428196 0.397690
O O4 0.000000 0.540182 0.500000
O O5 0.500000 0.322815 0.500000
O O6 0.689549 0.447565 0.779224
O O7 0.828733 0.306675 0.675003
O O8 0.646382 0.238401 0.823022
O O9 0.321789 0.853627 0.675793
O O10 0.000000 0.769495 0.500000
O O11 0.190264 0.764957 0.854236
O O12 0.500000 0.577024 0.500000
O O13 0.724120 0.660067 0.844398
O O14 0.334052 0.862566 0.157917
O O15 0.000000 0.784632 0.000000
O O16 0.687400 0.220996 0.347616
O O17 0.000000 0.304025 0.500000
O O18 0.496333 0.045065 0.760452
O O19 0.500000 0.923248 0.000000
O O20 0.500000 0.170652 0.000000
#
# Coordination Sequence:
#
# PCOD9112708 Si02
#       8
#     2   2   2   2   2   2   2   2
#     4   9  17  32  53  78 111 143 171 213 271 330
#     4   8  17  35  55  79 112 144 177 220 270 326
#     4  10  20  37  58  82 112 145 183 226 275 331
#     4  10  19  34  56  82 112 143 178 222 271 326
#     4  11  22  36  56  82 112 144 183 228 275 327
#     4   9  18  34  56  80 108 141 176 220 272 326
#     4   9  21  39  55  75 108 147 184 228 276 323
#     4  10  20  37  56  76 106 143 185 229 273 321
#
# _framework density 19.293959000000001
#
# number of rings (size 3 to 8) (size 9 to 14) (size 15 to 20)
#    0.000    2.500    0.000    3.000    0.000    1.500 
#    0.000   15.000    0.000    0.000    0.000    0.000 
#    0.000    0.000    0.000    0.000    0.000    0.000 
#
# Total GULP energy -89176.762253 kJ/mol
# GULP energy per Si atom -5573.547641 kJ/mol
# Density = 1.925004 g / cm^3
# Si number density = 19.293959 Si / 1000 Ang^3
#
#
#
# Elastic Constant Matrix: (Units=GPa)
#
#
# Indices 1 2 3 4 5 6 
#
# 1 130.6964 76.7455 28.6443 0.0000 -8.3765 0.0000
# 2 76.7455 198.0537 55.9919 0.0000 -3.6911 0.0000
# 3 28.6443 55.9919 46.7452 0.0000 -0.5429 0.0000
# 4 0.0000 0.0000 0.0000 26.0426 0.0000 -5.6676
# 5 -8.3765 -3.6911 -0.5429 0.0000 22.7879 0.0000
# 6 0.0000 0.0000 0.0000 -5.6676 0.0000 3.9693
#
#
#
# Elastic Compliance Matrix: (Units=1/GPa)
#
#
# Indices 1 2 3 4 5 6 
#
# 1 0.010288 -0.003259 -0.002364 0.000000 0.003198 0.000000
# 2 -0.003259 0.008690 -0.008412 0.000000 0.000009 0.000000
# 3 -0.002364 -0.008412 0.032901 0.000000 -0.001448 0.000000
# 4 0.000000 0.000000 0.000000 0.055710 0.000000 0.079546
# 5 0.003198 0.000009 -0.001448 0.000000 0.045025 0.000000
# 6 0.000000 0.000000 0.000000 0.079546 0.000000 0.365513
#
#
# Mechanical properties :
#
#
# Convention : Reuss Voigt Hill
#
# Bulk Modulus (GPa) = 42.00054 77.58429 59.79242
# Shear Modulus (GPa) = 9.02310 24.83421 16.92866
#
# Velocity S-wave (km/s) = 2.16490 3.59158 2.96532
# Velocity P-wave (km/s) = 5.29765 7.58276 6.54077
#
# Compressibility (1/GPa) = 0.02380922
#
# Stress axis : x y z
#
# Youngs Moduli (GPa) = 97.20249 115.07051 30.39450
#
# Poissons Ratio (x) = 0.37498 0.07184
# Poissons Ratio (y) = 0.31675 0.25569
# Poissons Ratio (z) = 0.22976 0.96802
#
# Static dielectric constant tensor:
#      x y z
#    x 1.734380 0.000000 0.001000 
#    y 0.000000 1.692460 0.000000 
#    z 0.001000 0.000000 1.673420 
# 
# From -- ./inp_files/6037.got.cif
#   From: 2010.05.17/outbox.cif.g08.bks.cpg/sg3_4_cif.got.tgz:6037.got - 2010.06.03 18:33:08.
