data_PCOD9112394
_publ_section_title
;
Structure prediction by ZEFSAII (Michael W. Deem and Ramdas Pophale) SiO2 
 PCOD9112394
Probable space group: P -1
;
_chemical_formula_sum "Si O2"
_cell_formula_units_Z 16
_cell_length_a 13.368638
_cell_length_b 11.668613
_cell_length_c 11.773414
_cell_angle_alpha 121.306629
_cell_angle_beta 64.886634
_cell_angle_gamma 66.435011
_cell_volume 849.025377
_symmetry_space_group_name_H-M "P -1"
_symmetry_group_IT_number 2
_symmetry_cell_setting 'triclinic'
loop_
_space_group_symop_operation_xyz
x,y,z
-x,-y,-z
loop_
_atom_site_type_symbol
_atom_site_label
_atom_site_fract_x
_atom_site_fract_y
_atom_site_fract_z
Si Si1 0.284126 0.797884 0.891058
Si Si2 0.853569 0.297039 0.388295
Si Si3 0.034035 0.590658 0.444445
Si Si4 0.174765 0.609519 0.805790
Si Si5 0.253486 0.894441 0.698240
Si Si6 0.363737 0.942823 0.079341
Si Si7 0.486137 0.125940 0.476892
Si Si8 0.641552 0.851738 0.029448
O O1 0.275507 0.646660 0.820296
O O2 0.329829 0.798648 0.741032
O O3 0.394291 0.766359 0.920359
O O4 0.071855 0.052259 0.141541
O O5 0.844975 0.414544 0.551619
O O6 0.795784 0.418575 0.359024
O O7 0.760827 0.241547 0.415780
O O8 0.000000 0.500000 0.500000
O O9 0.152719 0.410016 0.193768
O O10 0.833952 0.849488 0.655745
O O11 0.278364 0.382837 0.692100
O O12 0.956201 0.842940 0.054507
O O13 0.382378 0.874098 0.562397
O O14 0.511462 0.860690 0.050057
O O15 0.356133 0.041807 0.019323
O O16 0.500000 0.000000 0.500000
O O17 0.562670 0.992296 0.252852
#
# Coordination Sequence:
#
# PCOD9112394 Si02
#       8
#     2   2   2   2   2   2   2   2
#     4   8  14  32  55  86 108 128 164 221 287 328
#     4   8  16  30  56  88 108 130 170 214 288 333
#     4   9  18  29  51  82 113 137 152 208 282 334
#     4   9  20  33  56  78 107 140 173 220 272 320
#     4   9  18  36  55  77 110 138 173 232 263 312
#     4   9  17  31  53  81 108 129 160 218 280 329
#     4  12  26  38  50  74 108 153 196 215 242 310
#     4  10  21  32  48  75 108 141 175 210 261 322
#
# _framework density 18.845136
#
# number of rings (size 3 to 8) (size 9 to 14) (size 15 to 20)
#    0.000    2.750    1.250    1.500    7.000    3.500 
#    0.000    0.000    0.000    3.000    0.000    5.250 
#    0.000    0.000    0.000    0.000    0.000    0.000 
#
# Total GULP energy -89233.926867 kJ/mol
# GULP energy per Si atom -5577.120429 kJ/mol
# Density = 1.880224 g / cm^3
# Si number density = 18.845136 Si / 1000 Ang^3
#
#
#
# Elastic Constant Matrix: (Units=GPa)
#
#
# Indices 1 2 3 4 5 6 
#
# 1 70.3644 8.2282 11.0188 0.8999 -4.3671 8.0821
# 2 8.2282 75.4987 23.1541 13.9064 -5.4044 6.6837
# 3 11.0188 23.1541 71.3562 23.7816 0.4499 -5.0323
# 4 0.8999 13.9064 23.7816 19.2460 3.7869 -2.4981
# 5 -4.3671 -5.4044 0.4499 3.7869 22.9542 1.3662
# 6 8.0821 6.6837 -5.0323 -2.4981 1.3662 12.8653
#
#
#
# Elastic Compliance Matrix: (Units=1/GPa)
#
#
# Indices 1 2 3 4 5 6 
#
# 1 0.016426 0.000546 -0.004143 0.001610 0.003802 -0.012315
# 2 0.000546 0.018229 -0.002627 -0.013268 0.007482 -0.014211
# 3 -0.004143 -0.002627 0.025799 -0.029209 0.002423 0.008130
# 4 0.001610 -0.013268 -0.029209 0.103744 -0.020358 0.016762
# 5 0.003802 0.007482 0.002423 -0.020358 0.050231 -0.014615
# 6 -0.012315 -0.014211 0.008130 0.016762 -0.014615 0.100835
#
#
# Mechanical properties :
#
#
# Convention : Reuss Voigt Hill
#
# Bulk Modulus (GPa) = 20.83015 33.55798 27.19406
# Shear Modulus (GPa) = 14.54700 22.66763 18.60732
#
# Velocity S-wave (km/s) = 2.78137 3.47196 3.14567
# Velocity P-wave (km/s) = 4.62515 5.82396 5.25883
#
# Compressibility (1/GPa) = 0.04800734
#
# Stress axis : x y z
#
# Youngs Moduli (GPa) = 60.87734 54.85806 38.76123
#
# Poissons Ratio (x) = -0.02996 0.16058
# Poissons Ratio (y) = -0.03325 0.10182
# Poissons Ratio (z) = 0.25220 0.14410
#
# Static dielectric constant tensor:
#      x y z
#    x 1.721700 0.016950 -0.021980 
#    y 0.016950 1.608520 0.045110 
#    z -0.021980 0.045110 1.705160 
# 
# From -- ./inp_files/266465.got.cif
#   From: 2010.05.17/outbox.cif.g08.bks.cpg/sg2_134_cif.got.tgz:266465.got - 2010.06.03 11:33:40.
