data_PCOD9112058
_publ_section_title
;
Structure prediction by ZEFSAII (Michael W. Deem and Ramdas Pophale) SiO2 
 PCOD9112058
Probable space group: P -1
;
_chemical_formula_sum "Si O2"
_cell_formula_units_Z 14
_cell_length_a 8.545006
_cell_length_b 7.675150
_cell_length_c 18.444261
_cell_angle_alpha 141.912883
_cell_angle_beta 59.998562
_cell_angle_gamma 128.479155
_cell_volume 584.006803
_symmetry_space_group_name_H-M "P -1"
_symmetry_group_IT_number 2
_symmetry_cell_setting 'triclinic'
loop_
_space_group_symop_operation_xyz
x,y,z
-x,-y,-z
loop_
_atom_site_type_symbol
_atom_site_label
_atom_site_fract_x
_atom_site_fract_y
_atom_site_fract_z
Si Si1 0.961975 0.804125 0.106824
Si Si2 0.229337 0.234622 0.006970
Si Si3 0.722059 0.860313 0.312626
Si Si4 0.458370 0.940550 0.177497
Si Si5 0.339815 0.633443 0.595467
Si Si6 0.315540 0.324572 0.238603
Si Si7 0.083669 0.704989 0.474480
O O1 0.790230 0.742944 0.068886
O O2 0.895262 0.886678 0.226043
O O3 0.169606 0.102533 0.138702
O O4 0.000000 0.500000 0.000000
O O5 0.397385 0.105906 0.931681
O O6 0.318298 0.596266 0.129467
O O7 0.000000 0.000000 0.000000
O O8 0.545241 0.523016 0.232355
O O9 0.642567 0.109423 0.384876
O O10 0.798120 0.949532 0.406507
O O11 0.600209 0.180714 0.282497
O O12 0.321935 0.093491 0.224675
O O13 0.500000 0.500000 0.500000
O O14 0.110713 0.373977 0.555898
O O15 0.228603 0.570207 0.361883
O O16 0.000000 0.500000 0.500000
#
# Coordination Sequence:
#
# PCOD9112058 Si02
#       7
#     2   2   2   2   2   2   2
#     4  12  25  45  68  99 137 181 225 277 334 401
#     4  11  26  45  68  94 138 177 225 281 337 395
#     4  11  25  44  70 101 137 176 230 275 334 410
#     4  11  24  44  64 102 134 172 225 283 332 393
#     4  11  23  43  71  96 138 177 217 282 342 389
#     4  12  24  41  74  98 137 179 228 272 341 404
#     4  10  20  44  68  95 137 177 217 281 330 398
#
# _framework density 23.972321999999998
#
# number of rings (size 3 to 8) (size 9 to 14) (size 15 to 20)
#    0.000    0.857    5.714    2.143    4.000    0.571 
#    0.000    1.429    0.000    0.000    0.000    0.000 
#    0.000    0.000    0.000    0.000    0.000    0.000 
#
# Total GULP energy -78277.544367 kJ/mol
# GULP energy per Si atom -5591.253169 kJ/mol
# Density = 2.391776 g / cm^3
# Si number density = 23.972322 Si / 1000 Ang^3
#
#
#
# Elastic Constant Matrix: (Units=GPa)
#
#
# Indices 1 2 3 4 5 6 
#
# 1 137.0237 13.4809 49.7102 5.2340 -1.3183 19.6473
# 2 13.4809 70.6213 15.8355 19.8865 -8.0065 32.4858
# 3 49.7102 15.8355 118.8736 12.7287 -1.4571 10.1512
# 4 5.2340 19.8865 12.7287 29.3825 10.7812 6.3458
# 5 -1.3183 -8.0065 -1.4571 10.7812 57.3159 3.2809
# 6 19.6473 32.4858 10.1512 6.3458 3.2809 31.7403
#
#
#
# Elastic Compliance Matrix: (Units=1/GPa)
#
#
# Indices 1 2 3 4 5 6 
#
# 1 0.009442 0.002828 -0.003579 -0.000822 0.001108 -0.007544
# 2 0.002828 0.039223 -0.000524 -0.022953 0.012046 -0.038383
# 3 -0.003579 -0.000524 0.010390 -0.003835 0.000824 0.000111
# 4 -0.000822 -0.022953 -0.003835 0.053128 -0.014237 0.016078
# 5 0.001108 0.012046 0.000824 -0.014237 0.022585 -0.012766
# 6 -0.007544 -0.038383 0.000111 0.016078 -0.012766 0.073529
#
#
# Mechanical properties :
#
#
# Convention : Reuss Voigt Hill
#
# Bulk Modulus (GPa) = 17.69808 53.84129 35.76969
# Shear Modulus (GPa) = 21.76900 40.18721 30.97811
#
# Velocity S-wave (km/s) = 3.01672 4.09883 3.59868
# Velocity P-wave (km/s) = 4.41960 6.70142 5.67635
#
# Compressibility (1/GPa) = 0.05650329
#
# Stress axis : x y z
#
# Youngs Moduli (GPa) = 105.90852 25.49517 96.24480
#
# Poissons Ratio (x) = -0.07209 0.34449
# Poissons Ratio (y) = -0.29946 0.05046
# Poissons Ratio (z) = 0.37908 0.01337
#
# Static dielectric constant tensor:
#      x y z
#    x 1.945210 -0.020170 0.025250 
#    y -0.020170 1.985180 0.012350 
#    z 0.025250 0.012350 1.952250 
# 
# From -- ./inp_files/491968.got.cif
#   From: 2010.05.17/outbox.cif.g08.bks.cpg/sg2_246_cif.got.tgz:491968.got - 2010.06.03 11:33:40.
