data_PCOD9112019
_publ_section_title
;
Structure prediction by ZEFSAII (Michael W. Deem and Ramdas Pophale) SiO2 
 PCOD9112019
Probable space group: P -1
;
_chemical_formula_sum "Si O2"
_cell_formula_units_Z 12
_cell_length_a 8.783580
_cell_length_b 7.800753
_cell_length_c 8.771861
_cell_angle_alpha 54.230674
_cell_angle_beta 84.361527
_cell_angle_gamma 68.941048
_cell_volume 450.108597
_symmetry_space_group_name_H-M "P -1"
_symmetry_group_IT_number 2
_symmetry_cell_setting 'triclinic'
loop_
_space_group_symop_operation_xyz
x,y,z
-x,-y,-z
loop_
_atom_site_type_symbol
_atom_site_label
_atom_site_fract_x
_atom_site_fract_y
_atom_site_fract_z
Si Si1 0.245226 0.825132 0.764259
Si Si2 0.710289 0.113587 0.893295
Si Si3 0.532273 0.405498 0.375327
Si Si4 0.885118 0.501716 0.867056
Si Si5 0.435642 0.068752 0.270919
Si Si6 0.972472 0.792637 0.268368
O O1 0.289599 0.679576 0.679253
O O2 0.173657 0.697930 0.960579
O O3 0.422527 0.829796 0.791390
O O4 0.117827 0.085840 0.630821
O O5 0.585892 0.368419 0.815169
O O6 0.861549 0.152101 0.771275
O O7 0.612100 0.001700 0.853453
O O8 0.815645 0.931269 0.102002
O O9 0.500000 0.500000 0.500000
O O10 0.503770 0.169234 0.519420
O O11 0.732440 0.738305 0.757434
O O12 0.000000 0.500000 0.000000
O O13 0.960786 0.437414 0.721620
#
# Coordination Sequence:
#
# PCOD9112019 Si02
#       6
#     2   2   2   2   2   2
#     4  12  24  41  69 103 127 179 224 271 333 392
#     4  10  20  44  67  92 140 171 215 275 330 380
#     4  10  25  46  65  95 138 179 220 272 329 398
#     4  12  23  43  67  99 134 172 220 278 329 387
#     4  11  24  42  67 100 136 175 222 270 332 391
#     4  11  22  42  67  99 134 168 224 276 327 382
#
# _framework density 26.660233000000002
#
# number of rings (size 3 to 8) (size 9 to 14) (size 15 to 20)
#    0.000    1.000    5.000    2.000    2.333    3.333 
#    0.000   10.833    0.000    0.000    0.000    0.000 
#    0.000    0.000    0.000    0.000    0.000    0.000 
#
# Total GULP energy -66900.217987 kJ/mol
# GULP energy per Si atom -5575.018166 kJ/mol
# Density = 2.659955 g / cm^3
# Si number density = 26.660233 Si / 1000 Ang^3
#
#
#
# Elastic Constant Matrix: (Units=GPa)
#
#
# Indices 1 2 3 4 5 6 
#
# 1 75.2730 37.4693 -6.4232 4.3288 5.1504 4.1896
# 2 37.4693 270.0279 39.7113 -18.2892 -0.1175 -44.8647
# 3 -6.4232 39.7113 63.5676 -25.9585 5.4663 -9.4474
# 4 4.3288 -18.2892 -25.9585 42.3864 1.9601 -0.8966
# 5 5.1504 -0.1175 5.4663 1.9601 9.4526 -2.9776
# 6 4.1896 -44.8647 -9.4474 -0.8966 -2.9776 58.6335
#
#
#
# Elastic Compliance Matrix: (Units=1/GPa)
#
#
# Indices 1 2 3 4 5 6 
#
# 1 0.016553 -0.003601 0.004449 -0.000007 -0.012855 -0.003874
# 2 -0.003601 0.005422 -0.003387 0.000480 0.005190 0.004131
# 3 0.004449 -0.003387 0.026359 0.015195 -0.020697 0.000519
# 4 -0.000007 0.000480 0.015195 0.033854 -0.014987 0.002573
# 5 -0.012855 0.005190 -0.020697 -0.014987 0.130441 0.007950
# 6 -0.003874 0.004131 0.000519 0.002573 0.007950 0.021020
#
#
# Mechanical properties :
#
#
# Convention : Reuss Voigt Hill
#
# Bulk Modulus (GPa) = 23.11876 61.15369 42.13623
# Shear Modulus (GPa) = 19.75149 44.63523 32.19336
#
# Velocity S-wave (km/s) = 2.72483 4.09617 3.47874
# Velocity P-wave (km/s) = 4.31161 6.73494 5.65462
#
# Compressibility (1/GPa) = 0.04325492
#
# Stress axis : x y z
#
# Youngs Moduli (GPa) = 60.41317 184.42121 37.93803
#
# Poissons Ratio (x) = 0.66408 -0.16878
# Poissons Ratio (y) = 0.21754 0.12851
# Poissons Ratio (z) = -0.26877 0.62471
#
# Static dielectric constant tensor:
#      x y z
#    x 2.102780 0.132090 0.045190 
#    y 0.132090 2.407590 0.164210 
#    z 0.045190 0.164210 2.278200 
# 
# From -- ./inp_files/380967.got.cif
#   From: 2010.05.17/outbox.cif.g08.bks.cpg/sg2_191_cif.got.tgz:380967.got - 2010.06.03 11:33:40.
