data_PCOD9112372
_publ_section_title
;
Structure prediction by ZEFSAII (Michael W. Deem and Ramdas Pophale) SiO2 
 PCOD9112372
Probable space group: P -1
;
_chemical_formula_sum "Si O2"
_cell_formula_units_Z 16
_cell_length_a 9.493825
_cell_length_b 9.621613
_cell_length_c 10.527505
_cell_angle_alpha 122.928722
_cell_angle_beta 130.687590
_cell_angle_gamma 66.593234
_cell_volume 610.655205
_symmetry_space_group_name_H-M "P -1"
_symmetry_group_IT_number 2
_symmetry_cell_setting 'triclinic'
loop_
_space_group_symop_operation_xyz
x,y,z
-x,-y,-z
loop_
_atom_site_type_symbol
_atom_site_label
_atom_site_fract_x
_atom_site_fract_y
_atom_site_fract_z
Si Si1 0.823580 0.758249 0.735151
Si Si2 0.259259 0.430975 0.848974
Si Si3 0.553859 0.265021 0.608741
Si Si4 0.526091 0.148810 0.816942
Si Si5 0.858725 0.109281 0.172804
Si Si6 0.266636 0.536067 0.619660
Si Si7 0.078218 0.657872 0.056506
Si Si8 0.836921 0.907205 0.298760
O O1 0.601119 0.797938 0.610802
O O2 0.843098 0.566355 0.599972
O O3 0.939413 0.860939 0.752652
O O4 0.920960 0.755826 0.927445
O O5 0.462977 0.333180 0.930141
O O6 0.225476 0.459369 0.695028
O O7 0.134012 0.287870 0.756303
O O8 0.216075 0.587445 0.989052
O O9 0.516214 0.170700 0.671720
O O10 0.477570 0.461438 0.673909
O O11 0.776698 0.254859 0.722606
O O12 0.359131 0.048545 0.724810
O O13 0.722824 0.097447 0.967095
O O14 0.787613 0.271088 0.296733
O O15 0.833284 0.959030 0.177399
O O16 0.000000 0.500000 0.000000
O O17 0.000000 0.000000 0.500000
#
# Coordination Sequence:
#
# PCOD9112372 Si02
#       8
#     2   2   2   2   2   2   2   2
#     4  10  21  31  56  80 107 141 175 221 264 320
#     4   9  19  36  50  81 113 139 171 221 271 314
#     4   9  19  36  52  81 104 138 175 226 270 313
#     4   9  18  32  53  77 115 136 166 219 274 327
#     4  12  17  29  52  85 107 143 172 201 274 339
#     4   9  18  31  58  80 109 133 173 220 274 325
#     4  12  23  36  55  77 107 147 186 222 257 309
#     4  10  21  29  46  80 120 139 165 214 275 328
#
# _framework density 26.201363000000001
#
# number of rings (size 3 to 8) (size 9 to 14) (size 15 to 20)
#    1.500    0.500    2.500    3.000    1.750    2.500 
#    0.000    0.000    0.000    0.750    0.000    1.750 
#    0.000    0.000    0.000    0.000    0.000    0.000 
#
# Total GULP energy -89443.883569 kJ/mol
# GULP energy per Si atom -5590.242723 kJ/mol
# Density = 2.614173 g / cm^3
# Si number density = 26.201363 Si / 1000 Ang^3
#
#
#
# Elastic Constant Matrix: (Units=GPa)
#
#
# Indices 1 2 3 4 5 6 
#
# 1 99.9536 33.9649 56.0864 2.2255 12.8987 2.8263
# 2 33.9649 83.2228 32.4091 -7.3045 -1.3991 19.9811
# 3 56.0864 32.4091 144.3296 3.7731 42.1891 8.1121
# 4 2.2255 -7.3045 3.7731 38.1436 -2.8820 -2.1327
# 5 12.8987 -1.3991 42.1891 -2.8820 36.6677 7.8604
# 6 2.8263 19.9811 8.1121 -2.1327 7.8604 46.7903
#
#
#
# Elastic Compliance Matrix: (Units=1/GPa)
#
#
# Indices 1 2 3 4 5 6 
#
# 1 0.014055 -0.004652 -0.004290 -0.001231 -0.000699 0.001943
# 2 -0.004652 0.018385 -0.004946 0.004589 0.010149 -0.008208
# 3 -0.004290 -0.004946 0.014302 -0.003178 -0.015904 0.002418
# 4 -0.001231 0.004589 -0.003178 0.027922 0.006714 -0.001190
# 5 -0.000699 0.010149 -0.015904 0.006714 0.048750 -0.009418
# 6 0.001943 -0.008208 0.002418 -0.001190 -0.009418 0.025868
#
#
# Mechanical properties :
#
#
# Convention : Reuss Voigt Hill
#
# Bulk Modulus (GPa) = 52.72327 63.60298 58.16313
# Shear Modulus (GPa) = 27.26572 37.99000 32.62786
#
# Velocity S-wave (km/s) = 3.22937 3.81192 3.53267
# Velocity P-wave (km/s) = 5.83705 6.61072 6.23590
#
# Compressibility (1/GPa) = 0.01896696
#
# Stress axis : x y z
#
# Youngs Moduli (GPa) = 71.14784 54.39364 69.91907
#
# Poissons Ratio (x) = 0.25302 0.29996
# Poissons Ratio (y) = 0.33096 0.34580
# Poissons Ratio (z) = 0.30523 0.26902
#
# Static dielectric constant tensor:
#      x y z
#    x 2.075410 -0.096620 0.011070 
#    y -0.096620 2.220900 0.030140 
#    z 0.011070 0.030140 2.079720 
# 
# From -- ./inp_files/421499.got.cif
#   From: 2010.05.17/outbox.cif.g08.bks.cpg/sg2_211_cif.got.tgz:421499.got - 2010.06.03 11:33:40.
