data_PCOD9112541
_publ_section_title
;
Structure prediction by ZEFSAII (Michael W. Deem and Ramdas Pophale) SiO2 
 PCOD9112541
Probable space group: P 2
;
_chemical_formula_sum "Si O2"
_cell_formula_units_Z 14
_cell_length_a 9.187060
_cell_length_b 7.890305
_cell_length_c 13.070022
_cell_angle_alpha 90.000000
_cell_angle_beta 131.833423
_cell_angle_gamma 90.000000
_cell_volume 705.917067
_symmetry_space_group_name_H-M "P 2"
_symmetry_group_IT_number 3
_symmetry_cell_setting 'monoclinic'
loop_
_space_group_symop_operation_xyz
x,y,z
-x,y,-z
loop_
_atom_site_type_symbol
_atom_site_label
_atom_site_fract_x
_atom_site_fract_y
_atom_site_fract_z
Si Si1 0.658033 0.329390 0.494445
Si Si2 0.448212 0.738147 0.785014
Si Si3 0.094875 0.889400 0.730424
Si Si4 0.671596 0.734934 0.505020
Si Si5 0.929152 0.240225 0.357714
Si Si6 0.482070 0.349554 0.803310
Si Si7 0.336214 0.038511 0.012260
O O1 0.500000 0.263127 0.500000
O O2 0.679606 0.531304 0.518212
O O3 0.578083 0.301239 0.341610
O O4 0.873994 0.256980 0.614694
O O5 0.263569 0.758213 0.775712
O O6 0.377099 0.768169 0.636186
O O7 0.531975 0.547667 0.831278
O O8 0.599642 0.884234 0.885417
O O9 0.882113 0.810580 0.629213
O O10 0.113787 0.041063 0.656817
O O11 0.145118 0.981699 0.861046
O O12 0.500000 0.796121 0.500000
O O13 0.724666 0.325015 0.232943
O O14 0.000000 0.313115 0.500000
O O15 0.641079 0.217896 0.920303
O O16 0.500000 0.044513 0.000000
#
# Coordination Sequence:
#
# PCOD9112541 Si02
#       7
#     2   2   2   2   2   2   2
#     4   9  20  36  57  87 115 148 200 246 290 346
#     4  10  20  37  62  86 114 155 189 240 294 339
#     4  11  21  36  56  89 119 148 194 243 286 348
#     4  10  21  38  60  86 114 152 199 243 291 348
#     4  10  18  31  55  85 113 145 185 242 287 336
#     4  10  19  36  60  82 119 153 188 238 295 346
#     4  10  21  37  54  87 121 148 194 235 282 352
#
# _framework density 19.832357999999999
#
# number of rings (size 3 to 8) (size 9 to 14) (size 15 to 20)
#    0.000    2.000    2.857    2.143    2.000    4.571 
#    2.571    0.714    0.000    0.000    0.000    0.000 
#    0.000    0.000    0.000    0.000    0.000    0.000 
#
# Total GULP energy -78065.548219 kJ/mol
# GULP energy per Si atom -5576.110587 kJ/mol
# Density = 1.978722 g / cm^3
# Si number density = 19.832358 Si / 1000 Ang^3
#
#
#
# Elastic Constant Matrix: (Units=GPa)
#
#
# Indices 1 2 3 4 5 6 
#
# 1 64.5613 18.7828 19.4978 0.0000 -0.8220 0.0000
# 2 18.7828 94.0660 62.2441 0.0000 -4.8147 0.0000
# 3 19.4978 62.2441 112.7730 0.0000 6.4016 0.0000
# 4 0.0000 0.0000 0.0000 32.7271 0.0000 -2.2570
# 5 -0.8220 -4.8147 6.4016 0.0000 9.2095 0.0000
# 6 0.0000 0.0000 0.0000 -2.2570 0.0000 11.9817
#
#
#
# Elastic Compliance Matrix: (Units=1/GPa)
#
#
# Indices 1 2 3 4 5 6 
#
# 1 0.016659 -0.001993 -0.001880 0.000000 0.001752 0.000000
# 2 -0.001993 0.019531 -0.011457 0.000000 0.017997 0.000000
# 3 -0.001880 -0.011457 0.016517 0.000000 -0.017639 0.000000
# 4 0.000000 0.000000 0.000000 0.030958 0.000000 0.005832
# 5 0.001752 0.017997 -0.017639 0.000000 0.130409 0.000000
# 6 0.000000 0.000000 0.000000 0.005832 0.000000 0.084559
#
#
# Mechanical properties :
#
#
# Convention : Reuss Voigt Hill
#
# Bulk Modulus (GPa) = 45.35568 52.49438 48.92503
# Shear Modulus (GPa) = 14.85256 22.17538 18.51397
#
# Velocity S-wave (km/s) = 2.73958 3.34749 3.05868
# Velocity P-wave (km/s) = 5.73814 6.43952 6.09892
#
# Compressibility (1/GPa) = 0.02204795
#
# Stress axis : x y z
#
# Youngs Moduli (GPa) = 60.02785 51.20021 60.54279
#
# Poissons Ratio (x) = 0.10204 0.11380
# Poissons Ratio (y) = 0.11963 0.69364
# Poissons Ratio (z) = 0.11283 0.58660
#
# Static dielectric constant tensor:
#      x y z
#    x 1.709660 0.000000 -0.020790 
#    y 0.000000 1.720010 0.000000 
#    z -0.020790 0.000000 1.733250 
# 
# From -- ./inp_files/7491.got.cif
#   From: 2010.05.17/outbox.cif.g08.bks.cpg/sg3_4_cif.got.tgz:7491.got - 2010.06.03 18:33:08.
