data_PCOD9112905
_publ_section_title
;
Structure prediction by ZEFSAII (Michael W. Deem and Ramdas Pophale) SiO2 
 PCOD9112905
Probable space group: P 2
;
_chemical_formula_sum "Si O2"
_cell_formula_units_Z 12
_cell_length_a 8.839157
_cell_length_b 4.912729
_cell_length_c 12.466804
_cell_angle_alpha 90.000000
_cell_angle_beta 106.486706
_cell_angle_gamma 90.000000
_cell_volume 519.105449
_symmetry_space_group_name_H-M "P 2"
_symmetry_group_IT_number 3
_symmetry_cell_setting 'monoclinic'
loop_
_space_group_symop_operation_xyz
x,y,z
-x,y,-z
loop_
_atom_site_type_symbol
_atom_site_label
_atom_site_fract_x
_atom_site_fract_y
_atom_site_fract_z
Si Si1 0.647567 0.512690 0.608991
Si Si2 0.374723 0.594240 0.143527
Si Si3 0.719170 0.756008 0.202515
Si Si4 0.827287 0.219062 0.340865
Si Si5 0.167563 0.026500 0.413106
Si Si6 0.681935 0.083300 0.994289
O O1 0.500000 0.550118 0.500000
O O2 0.618045 0.564951 0.727770
O O3 0.701763 0.201070 0.620017
O O4 0.783463 0.713285 0.589053
O O5 0.557039 0.604452 0.142266
O O6 0.305099 0.886294 0.103892
O O7 0.285692 0.377421 0.049674
O O8 0.811387 0.520389 0.287739
O O9 0.690782 0.014881 0.273823
O O10 0.774440 0.923169 0.107685
O O11 0.827614 0.165854 0.467866
O O12 0.992510 0.086908 0.335952
O O13 0.500000 0.088216 0.000000
#
# Coordination Sequence:
#
# PCOD9112905 Si02
#       6
#     2   2   2   2   2   2
#     4  12  24  39  61  89 125 162 198 240 305 379
#     4  11  21  36  58  89 124 153 190 252 309 354
#     4  11  21  37  63  92 117 156 207 250 305 358
#     4  11  22  39  62  87 122 159 205 254 290 357
#     4  11  24  40  59  89 124 162 200 245 303 356
#     4  10  20  35  57  88 120 151 196 253 305 347
#
# _framework density 23.116692
#
# number of rings (size 3 to 8) (size 9 to 14) (size 15 to 20)
#    0.000    1.000    0.000   10.000    0.000    2.667 
#    0.000    0.000    0.000   15.000    0.000    0.000 
#    0.000    0.000    0.000    0.000    0.000    0.000 
#
# Total GULP energy -66891.027983 kJ/mol
# GULP energy per Si atom -5574.252332 kJ/mol
# Density = 2.306408 g / cm^3
# Si number density = 23.116692 Si / 1000 Ang^3
#
#
#
# Elastic Constant Matrix: (Units=GPa)
#
#
# Indices 1 2 3 4 5 6 
#
# 1 22.1051 3.7260 10.6461 0.0000 1.6329 0.0000
# 2 3.7260 123.3234 27.8206 0.0000 7.8546 0.0000
# 3 10.6461 27.8206 130.6150 0.0000 -5.5834 0.0000
# 4 0.0000 0.0000 0.0000 47.5639 0.0000 0.6072
# 5 1.6329 7.8546 -5.5834 0.0000 17.2175 0.0000
# 6 0.0000 0.0000 0.0000 0.6072 0.0000 17.3983
#
#
#
# Elastic Compliance Matrix: (Units=1/GPa)
#
#
# Indices 1 2 3 4 5 6 
#
# 1 0.047666 -0.000147 -0.004101 0.000000 -0.005784 0.000000
# 2 -0.000147 0.008883 -0.002082 0.000000 -0.004714 0.000000
# 3 -0.004101 -0.002082 0.008610 0.000000 0.004131 0.000000
# 4 0.000000 0.000000 0.000000 0.021034 0.000000 -0.000734
# 5 -0.005784 -0.004714 0.004131 0.000000 0.062119 0.000000
# 6 0.000000 0.000000 0.000000 -0.000734 0.000000 0.057503
#
#
# Mechanical properties :
#
#
# Convention : Reuss Voigt Hill
#
# Bulk Modulus (GPa) = 19.04753 40.04765 29.54759
# Shear Modulus (GPa) = 21.18890 32.02598 26.60744
#
# Velocity S-wave (km/s) = 3.03083 3.72614 3.39633
# Velocity P-wave (km/s) = 4.52831 5.98948 5.30940
#
# Compressibility (1/GPa) = 0.05250026
#
# Stress axis : x y z
#
# Youngs Moduli (GPa) = 20.97953 112.57469 116.13987
#
# Poissons Ratio (x) = 0.01650 0.47630
# Poissons Ratio (y) = 0.00308 0.24176
# Poissons Ratio (z) = 0.08604 0.23433
#
# Static dielectric constant tensor:
#      x y z
#    x 1.917480 0.000000 0.009090 
#    y 0.000000 1.853210 0.000000 
#    z 0.009090 0.000000 2.013440 
# 
# From -- ./inp_files/10260.got.cif
#   From: 2010.05.17/outbox.cif.g08.bks.cpg/sg3_6_cif.got.tgz:10260.got - 2010.06.03 18:33:08.
