data_PCOD9112941
_publ_section_title
;
Structure prediction by ZEFSAII (Michael W. Deem and Ramdas Pophale) SiO2 
 PCOD9112941
Probable space group: P 2
;
_chemical_formula_sum "Si O2"
_cell_formula_units_Z 16
_cell_length_a 8.862458
_cell_length_b 12.622247
_cell_length_c 8.563771
_cell_angle_alpha 90.000000
_cell_angle_beta 57.563031
_cell_angle_gamma 90.000000
_cell_volume 808.516902
_symmetry_space_group_name_H-M "P 2"
_symmetry_group_IT_number 3
_symmetry_cell_setting 'monoclinic'
loop_
_space_group_symop_operation_xyz
x,y,z
-x,y,-z
loop_
_atom_site_type_symbol
_atom_site_label
_atom_site_fract_x
_atom_site_fract_y
_atom_site_fract_z
Si Si1 0.193772 0.333290 0.965628
Si Si2 0.673882 0.336448 0.788907
Si Si3 0.488907 0.945675 0.196964
Si Si4 0.205448 0.553320 0.830439
Si Si5 0.492527 0.700709 0.192354
Si Si6 0.801108 0.538583 0.538418
Si Si7 0.799277 0.111377 0.670311
Si Si8 0.199815 0.099086 0.955437
O O1 0.278953 0.441120 0.856489
O O2 0.271207 0.218226 0.879423
O O3 0.172893 0.342145 0.163364
O O4 0.000000 0.332187 0.000000
O O5 0.704530 0.432526 0.655934
O O6 0.695523 0.221855 0.699816
O O7 0.500000 0.341805 0.000000
O O8 0.484300 0.823470 0.245510
O O9 0.313666 0.013884 0.334926
O O10 0.660562 0.008467 0.167335
O O11 0.500000 0.948033 0.000000
O O12 0.336896 0.643055 0.823979
O O13 0.199752 0.543881 0.647689
O O14 0.000000 0.568751 0.000000
O O15 0.316313 0.637276 0.339057
O O16 0.500000 0.694929 0.000000
O O17 0.000000 0.541758 0.500000
O O18 0.000000 0.117698 0.500000
O O19 0.808411 0.097573 0.852132
O O20 0.000000 0.085945 0.000000
#
# Coordination Sequence:
#
# PCOD9112941 Si02
#       8
#     2   2   2   2   2   2   2   2
#     4   9  17  32  56  84 117 149 182 228 286 348
#     4  11  21  36  61  89 121 157 193 236 292 355
#     4   9  20  39  60  82 112 154 199 242 293 350
#     4  11  23  40  61  88 122 157 198 248 301 357
#     4  11  23  41  62  84 116 158 205 252 299 350
#     4  12  24  39  61  89 121 156 200 246 297 356
#     4  10  20  36  59  88 119 153 193 237 289 351
#     4   9  18  35  59  86 116 152 190 237 294 351
#
# _framework density 19.789321000000001
#
# number of rings (size 3 to 8) (size 9 to 14) (size 15 to 20)
#    0.000    1.750    0.000    6.750    0.000    4.000 
#    0.000    5.625    0.000    6.000    0.000    0.000 
#    0.000    0.000    0.000    0.000    0.000    0.000 
#
# Total GULP energy -89309.908817 kJ/mol
# GULP energy per Si atom -5581.869301 kJ/mol
# Density = 1.974428 g / cm^3
# Si number density = 19.789321 Si / 1000 Ang^3
#
#
#
# Elastic Constant Matrix: (Units=GPa)
#
#
# Indices 1 2 3 4 5 6 
#
# 1 114.4351 77.3082 32.7705 0.0000 -19.6482 0.0000
# 2 77.3082 212.6873 72.9317 0.0000 -18.2720 0.0000
# 3 32.7705 72.9317 92.0150 0.0000 -22.0151 0.0000
# 4 0.0000 0.0000 0.0000 77.6649 0.0000 -25.3917
# 5 -19.6482 -18.2720 -22.0151 0.0000 38.0806 0.0000
# 6 0.0000 0.0000 0.0000 -25.3917 0.0000 41.0802
#
#
#
# Elastic Compliance Matrix: (Units=1/GPa)
#
#
# Indices 1 2 3 4 5 6 
#
# 1 0.012241 -0.004034 -0.000132 0.000000 0.004304 0.000000
# 2 -0.004034 0.007787 -0.005036 0.000000 -0.001256 0.000000
# 3 -0.000132 -0.005036 0.016609 0.000000 0.007118 0.000000
# 4 0.000000 0.000000 0.000000 0.016137 0.000000 0.009974
# 5 0.004304 -0.001256 0.007118 0.000000 0.031992 0.000000
# 6 0.000000 0.000000 0.000000 0.009974 0.000000 0.030508
#
#
# Mechanical properties :
#
#
# Convention : Reuss Voigt Hill
#
# Bulk Modulus (GPa) = 54.84762 87.23979 71.04370
# Shear Modulus (GPa) = 35.77662 47.10695 41.44178
#
# Velocity S-wave (km/s) = 4.25652 4.88425 4.58115
# Velocity P-wave (km/s) = 7.20647 8.71710 7.99753
#
# Compressibility (1/GPa) = 0.01823233
#
# Stress axis : x y z
#
# Youngs Moduli (GPa) = 81.69436 128.41912 60.20735
#
# Poissons Ratio (x) = 0.51807 0.00796
# Poissons Ratio (y) = 0.32957 0.30320
# Poissons Ratio (z) = 0.01080 0.64670
#
# Static dielectric constant tensor:
#      x y z
#    x 1.745720 0.000000 -0.009520 
#    y 0.000000 1.713760 0.000000 
#    z -0.009520 0.000000 1.689940 
# 
# From -- ./inp_files/5965.got.cif
#   From: 2010.05.17/outbox.cif.g08.bks.cpg/sg3_3_cif.got.tgz:5965.got - 2010.06.03 18:33:08.
