data_PCOD9112650
_publ_section_title
;
Structure prediction by ZEFSAII (Michael W. Deem and Ramdas Pophale) SiO2 
 PCOD9112650
Probable space group: P 2
;
_chemical_formula_sum "Si O2"
_cell_formula_units_Z 12
_cell_length_a 13.735519
_cell_length_b 5.609390
_cell_length_c 20.244598
_cell_angle_alpha 90.000000
_cell_angle_beta 18.069040
_cell_angle_gamma 90.000000
_cell_volume 483.792947
_symmetry_space_group_name_H-M "P 2"
_symmetry_group_IT_number 3
_symmetry_cell_setting 'monoclinic'
loop_
_space_group_symop_operation_xyz
x,y,z
-x,y,-z
loop_
_atom_site_type_symbol
_atom_site_label
_atom_site_fract_x
_atom_site_fract_y
_atom_site_fract_z
Si Si1 0.296088 0.382250 0.257634
Si Si2 0.121201 0.648283 0.738073
Si Si3 0.665138 0.360989 0.215243
Si Si4 0.966857 0.625889 0.358921
Si Si5 0.717138 0.883675 0.734418
Si Si6 0.001645 0.148003 0.885365
O O1 0.170360 0.419756 0.264005
O O2 0.455693 0.635606 0.169066
O O3 0.000000 0.377210 0.500000
O O4 0.462184 0.130090 0.152245
O O5 0.500000 0.651918 0.500000
O O6 0.020827 0.662654 0.726193
O O7 0.029403 0.384358 0.822859
O O8 0.021643 0.887660 0.841629
O O9 0.383375 0.542333 0.397488
O O10 0.699632 0.189907 0.256557
O O11 0.000000 0.499254 0.000000
O O12 0.702142 0.195103 0.127108
O O13 0.107616 0.848112 0.308546
O O14 0.000000 0.893831 0.500000
#
# Coordination Sequence:
#
# PCOD9112650 Si02
#       6
#     2   2   2   2   2   2
#     4   8  16  30  47  76 107 123 164 223 273 305
#     4  12  21  34  52  76 108 140 183 225 265 306
#     4   8  19  40  50  71 108 154 184 212 256 316
#     4  10  19  31  57  80 100 142 180 216 266 321
#     4   8  16  30  47  76 107 123 164 223 274 305
#     4   9  23  37  47  71 108 147 175 225 259 305
#
# _framework density 24.803998
#
# number of rings (size 3 to 8) (size 9 to 14) (size 15 to 20)
#    2.000    0.667    1.667    0.500    2.333    2.667 
#    3.000    0.000    0.000    0.000    0.000    4.667 
#    0.000    0.000    0.000    0.000    0.000    0.000 
#
# Total GULP energy -66905.817736 kJ/mol
# GULP energy per Si atom -5575.484811 kJ/mol
# Density = 2.474754 g / cm^3
# Si number density = 24.803998 Si / 1000 Ang^3
#
#
#
# Elastic Constant Matrix: (Units=GPa)
#
#
# Indices 1 2 3 4 5 6 
#
# 1 133.6310 59.3164 37.9744 0.0000 41.1221 0.0000
# 2 59.3164 256.3727 64.4091 0.0000 1.9280 0.0000
# 3 37.9744 64.4091 89.1743 0.0000 10.2057 0.0000
# 4 0.0000 0.0000 0.0000 37.0592 0.0000 4.9306
# 5 41.1221 1.9280 10.2057 0.0000 52.8201 0.0000
# 6 0.0000 0.0000 0.0000 4.9306 0.0000 39.1791
#
#
#
# Elastic Compliance Matrix: (Units=1/GPa)
#
#
# Indices 1 2 3 4 5 6 
#
# 1 0.011742 -0.002007 -0.002570 0.000000 -0.008572 0.000000
# 2 -0.002007 0.005121 -0.003070 0.000000 0.001968 0.000000
# 3 -0.002570 -0.003070 0.014607 0.000000 -0.000709 0.000000
# 4 0.000000 0.000000 0.000000 0.027443 0.000000 -0.003454
# 5 -0.008572 0.001968 -0.000709 0.000000 0.025671 0.000000
# 6 0.000000 0.000000 0.000000 -0.003454 0.000000 0.025958
#
#
# Mechanical properties :
#
#
# Convention : Reuss Voigt Hill
#
# Bulk Modulus (GPa) = 61.81426 89.17533 75.49479
# Shear Modulus (GPa) = 38.10162 46.97688 42.53925
#
# Velocity S-wave (km/s) = 3.92357 4.35664 4.14577
# Velocity P-wave (km/s) = 6.74545 7.83181 7.30884
#
# Compressibility (1/GPa) = 0.01617750
#
# Stress axis : x y z
#
# Youngs Moduli (GPa) = 85.16369 195.26427 68.46110
#
# Poissons Ratio (x) = 0.39182 0.17594
# Poissons Ratio (y) = 0.17089 0.21016
# Poissons Ratio (z) = 0.21887 0.59942
#
# Static dielectric constant tensor:
#      x y z
#    x 1.999040 0.000000 -0.002890 
#    y 0.000000 1.961280 0.000000 
#    z -0.002890 0.000000 1.980240 
# 
# From -- ./inp_files/15299.got.cif
#   From: 2010.05.17/outbox.cif.g08.bks.cpg/sg3_8_cif.got.tgz:15299.got - 2010.06.03 18:33:08.
