data_PCOD9112456
_publ_section_title
;
Structure prediction by ZEFSAII (Michael W. Deem and Ramdas Pophale) SiO2 
 PCOD9112456
Probable space group: P 2
;
_chemical_formula_sum "Si O2"
_cell_formula_units_Z 12
_cell_length_a 6.785481
_cell_length_b 8.690301
_cell_length_c 11.912444
_cell_angle_alpha 90.000000
_cell_angle_beta 136.045645
_cell_angle_gamma 90.000000
_cell_volume 487.561092
_symmetry_space_group_name_H-M "P 2"
_symmetry_group_IT_number 3
_symmetry_cell_setting 'monoclinic'
loop_
_space_group_symop_operation_xyz
x,y,z
-x,y,-z
loop_
_atom_site_type_symbol
_atom_site_label
_atom_site_fract_x
_atom_site_fract_y
_atom_site_fract_z
Si Si1 0.615443 0.362190 0.379302
Si Si2 0.615442 0.723463 0.379301
Si Si3 0.913971 0.227279 0.699077
Si Si4 0.086031 0.858372 0.300924
Si Si5 0.701019 0.220321 0.947703
Si Si6 0.298981 0.865331 0.052296
O O1 0.666331 0.542827 0.406879
O O2 0.864000 0.277387 0.550736
O O3 0.334971 0.313418 0.335028
O O4 0.522400 0.315836 0.216047
O O5 0.334972 0.772233 0.335029
O O6 0.863998 0.808267 0.550735
O O7 0.522400 0.769816 0.216047
O O8 0.873736 0.042826 0.691491
O O9 0.198018 0.263962 0.885728
O O10 0.801984 0.821689 0.114273
O O11 0.603615 0.042826 0.907405
O O12 0.000000 0.223835 0.000000
O O13 0.000000 0.861818 0.000000
#
# Coordination Sequence:
#
# PCOD9112456 Si02
#       6
#     2   2   2   2   2   2
#     4  10  16  19  25  34  40  42  45  55  64  66
#     4  10  16  19  25  34  40  42  45  55  64  66
#     4   9  15  22  28  30  35  45  52  54  56  65
#     4   9  15  22  28  30  35  45  52  54  56  65
#     4   8  14  22  28  31  35  44  52  54  57  65
#     4   8  14  22  28  31  35  44  52  54  57  65
#
# _framework density 24.612303000000001
#
# number of rings (size 3 to 8) (size 9 to 14) (size 15 to 20)
#    0.000    3.000    0.000    8.000    0.000    7.333 
#    0.000    0.000    0.000    0.000    0.000    0.000 
#    0.000    0.000    0.000    0.000    0.000    0.000 
#
# Total GULP energy -67087.478113 kJ/mol
# GULP energy per Si atom -5590.623176 kJ/mol
# Density = 2.455628 g / cm^3
# Si number density = 24.612303 Si / 1000 Ang^3
#
#
#
# Elastic Constant Matrix: (Units=GPa)
#
#
# Indices 1 2 3 4 5 6 
#
# 1 95.9133 13.7558 40.2941 0.0000 -22.0129 0.0000
# 2 13.7558 97.6340 75.3882 0.0000 -13.5635 0.0000
# 3 40.2941 75.3882 223.6301 0.0000 -25.3194 0.0000
# 4 0.0000 0.0000 0.0000 60.3589 0.0000 -12.7375
# 5 -22.0129 -13.5635 -25.3194 0.0000 64.6682 0.0000
# 6 0.0000 0.0000 0.0000 -12.7375 0.0000 -10.9749
#
#
#
# Elastic Compliance Matrix: (Units=1/GPa)
#
#
# Indices 1 2 3 4 5 6 
#
# 1 0.011947 0.000208 -0.001839 0.000000 0.003390 0.000000
# 2 0.000208 0.013929 -0.004598 0.000000 0.001192 0.000000
# 3 -0.001839 -0.004598 0.006459 0.000000 0.000939 0.000000
# 4 0.000000 0.000000 0.000000 0.013308 0.000000 -0.015445
# 5 0.003390 0.001192 0.000939 0.000000 0.017235 0.000000
# 6 0.000000 0.000000 0.000000 -0.015445 0.000000 -0.073191
#
#
# Mechanical properties :
#
#
# Convention : Reuss Voigt Hill
#
# Bulk Modulus (GPa) = 50.31007 75.11705 62.71356
# Shear Modulus (GPa) = 569.99526 41.99304 305.99415
#
# Velocity S-wave (km/s) = 15.23458 4.13508 11.16224
# Velocity P-wave (km/s) = 18.16430 7.30649 13.84425
#
# Compressibility (1/GPa) = 0.01987673
#
# Stress axis : x y z
#
# Youngs Moduli (GPa) = 83.70380 71.79215 154.81483
#
# Poissons Ratio (x) = -0.01490 0.28466
# Poissons Ratio (y) = -0.01737 0.71186
# Poissons Ratio (z) = 0.15391 0.33011
#
# Static dielectric constant tensor:
#      x y z
#    x 2.093380 0.000000 0.003560 
#    y 0.000000 1.812490 0.000000 
#    z 0.003560 0.000000 1.957180 
# 
# From -- ./inp_files/14328.got.cif
#   From: 2010.05.17/outbox.cif.g08.bks.cpg/sg3_8_cif.got.tgz:14328.got - 2010.06.03 18:33:08.
