data_PCOD9112251
_publ_section_title
;
Structure prediction by ZEFSAII (Michael W. Deem and Ramdas Pophale) SiO2 
 PCOD9112251
Probable space group: P -1
;
_chemical_formula_sum "Si O2"
_cell_formula_units_Z 16
_cell_length_a 15.711227
_cell_length_b 16.956496
_cell_length_c 7.050424
_cell_angle_alpha 47.238374
_cell_angle_beta 59.073838
_cell_angle_gamma 31.825147
_cell_volume 717.515502
_symmetry_space_group_name_H-M "P -1"
_symmetry_group_IT_number 2
_symmetry_cell_setting 'triclinic'
loop_
_space_group_symop_operation_xyz
x,y,z
-x,-y,-z
loop_
_atom_site_type_symbol
_atom_site_label
_atom_site_fract_x
_atom_site_fract_y
_atom_site_fract_z
Si Si1 0.120359 0.820288 0.538834
Si Si2 0.632103 0.308515 0.250434
Si Si3 0.857046 0.431635 0.174813
Si Si4 0.489214 0.745812 0.208259
Si Si5 0.379026 0.068479 0.693843
Si Si6 0.781619 0.111009 0.008333
Si Si7 0.161663 0.433069 0.406346
Si Si8 0.041773 0.261310 0.602483
O O1 0.281007 0.692541 0.690418
O O2 0.069642 0.741246 0.712257
O O3 0.154416 0.842311 0.259170
O O4 0.000000 0.000000 0.500000
O O5 0.566344 0.264234 0.518896
O O6 0.739638 0.174495 0.169236
O O7 0.500000 0.500000 0.000000
O O8 0.679718 0.558989 0.258647
O O9 0.984590 0.356732 0.310616
O O10 0.823788 0.544086 0.864224
O O11 0.377555 0.794271 0.083649
O O12 0.454943 0.903167 0.989784
O O13 0.317803 0.226840 0.618836
O O14 0.209919 0.169767 0.630724
O O15 0.500000 0.000000 0.500000
O O16 0.914822 0.901354 0.189417
O O17 0.000000 0.500000 0.500000
O O18 0.111908 0.579254 0.346923
#
# Coordination Sequence:
#
# PCOD9112251 Si02
#       8
#     2   2   2   2   2   2   2   2
#     4  11  24  39  64  94 130 172 217 264 322 385
#     4  11  23  41  65  97 132 170 219 266 322 384
#     4  12  23  40  64  95 129 165 219 267 319 389
#     4  10  23  41  65  95 130 170 215 265 330 381
#     4  10  20  45  69  90 128 173 211 271 329 378
#     4  10  22  42  63  92 136 173 212 271 319 385
#     4  10  23  42  66  90 129 165 211 270 325 380
#     4  10  24  40  67  94 127 171 213 259 331 384
#
# _framework density 22.29917
#
# number of rings (size 3 to 8) (size 9 to 14) (size 15 to 20)
#    0.000    1.500    1.250    3.000    0.000   14.000 
#    0.000    1.875    0.000    0.000    0.000    0.000 
#    0.000    0.000    0.000    0.000    0.000    0.000 
#
# Total GULP energy -89441.441021 kJ/mol
# GULP energy per Si atom -5590.090064 kJ/mol
# Density = 2.224842 g / cm^3
# Si number density = 22.299170 Si / 1000 Ang^3
#
#
#
# Elastic Constant Matrix: (Units=GPa)
#
#
# Indices 1 2 3 4 5 6 
#
# 1 29.7503 13.6362 22.2541 -3.2482 11.1779 1.6364
# 2 13.6362 98.7927 13.1981 -6.2351 8.4468 21.5099
# 3 22.2541 13.1981 112.6184 9.6193 4.6879 12.3747
# 4 -3.2482 -6.2351 9.6193 46.4554 1.6709 -4.2254
# 5 11.1779 8.4468 4.6879 1.6709 18.5237 1.1053
# 6 1.6364 21.5099 12.3747 -4.2254 1.1053 27.5661
#
#
#
# Elastic Compliance Matrix: (Units=1/GPa)
#
#
# Indices 1 2 3 4 5 6 
#
# 1 0.055183 -0.004877 -0.010543 0.007134 -0.029501 0.007539
# 2 -0.004877 0.013166 0.000597 0.000482 -0.002654 -0.010071
# 3 -0.010543 0.000597 0.011693 -0.003744 0.003815 -0.005816
# 4 0.007134 0.000482 -0.003744 0.023510 -0.005979 0.004725
# 5 -0.029501 -0.002654 0.003815 -0.005979 0.072674 -0.001721
# 6 0.007539 -0.010071 -0.005816 0.004725 -0.001721 0.047092
#
#
# Mechanical properties :
#
#
# Convention : Reuss Voigt Hill
#
# Bulk Modulus (GPa) = 19.84295 37.70424 28.77360
# Shear Modulus (GPa) = 18.53486 31.31391 24.92439
#
# Velocity S-wave (km/s) = 2.88617 3.75142 3.34687
# Velocity P-wave (km/s) = 4.47487 5.97572 5.27890
#
# Compressibility (1/GPa) = 0.05039574
#
# Stress axis : x y z
#
# Youngs Moduli (GPa) = 18.12146 75.95404 85.52145
#
# Poissons Ratio (x) = 0.37045 0.90162
# Poissons Ratio (y) = 0.08838 -0.05104
# Poissons Ratio (z) = 0.19105 -0.04533
#
# Static dielectric constant tensor:
#      x y z
#    x 1.990720 -0.117250 0.123070 
#    y -0.117250 1.977490 -0.156010 
#    z 0.123070 -0.156010 1.903540 
# 
# From -- ./inp_files/111581.got.cif
#   From: 2010.05.17/outbox.cif.g08.bks.cpg/sg2_56_cif.got.tgz:111581.got - 2010.06.03 11:33:40.
