data_PCOD9112811
_publ_section_title
;
Structure prediction by ZEFSAII (Michael W. Deem and Ramdas Pophale) SiO2 
 PCOD9112811
Probable space group: P 2
;
_chemical_formula_sum "Si O2"
_cell_formula_units_Z 12
_cell_length_a 7.891708
_cell_length_b 7.744286
_cell_length_c 12.323275
_cell_angle_alpha 90.000000
_cell_angle_beta 36.631620
_cell_angle_gamma 90.000000
_cell_volume 449.377330
_symmetry_space_group_name_H-M "P 2"
_symmetry_group_IT_number 3
_symmetry_cell_setting 'monoclinic'
loop_
_space_group_symop_operation_xyz
x,y,z
-x,y,-z
loop_
_atom_site_type_symbol
_atom_site_label
_atom_site_fract_x
_atom_site_fract_y
_atom_site_fract_z
Si Si1 0.958571 0.098830 0.700579
Si Si2 0.372384 0.529885 0.837942
Si Si3 0.345624 0.149897 0.925201
Si Si4 0.234054 0.474325 0.548388
Si Si5 0.040895 0.680238 0.824300
Si Si6 0.530778 0.994506 0.364271
O O1 0.651633 0.084230 0.805727
O O2 0.081980 0.290733 0.618023
O O3 0.884862 0.085396 0.868091
O O4 0.190922 0.973824 0.525833
O O5 0.356188 0.358251 0.918310
O O6 0.665266 0.529745 0.622425
O O7 0.165264 0.529218 0.838496
O O8 0.267971 0.695503 0.961550
O O9 0.332174 0.096396 0.805876
O O10 0.500000 0.469043 0.500000
O O11 0.027527 0.612361 0.710600
O O12 0.280079 0.824989 0.715469
O O13 0.500000 0.081084 0.500000
#
# Coordination Sequence:
#
# PCOD9112811 Si02
#       6
#     2   2   2   2   2   2
#     4  11  24  43  71 107 149 193 243 302 369 441
#     4  10  20  38  69 101 136 182 237 303 354 428
#     4  11  25  43  74 106 146 195 246 303 365 443
#     4  10  19  37  67 104 139 177 245 305 359 424
#     4  10  23  40  64 105 148 178 236 305 369 425
#     4  12  26  43  70 109 147 197 239 308 371 435
#
# _framework density 26.703617999999999
#
# number of rings (size 3 to 8) (size 9 to 14) (size 15 to 20)
#    0.000    1.333    3.333    2.500    2.333    4.667 
#    0.000    0.000   22.000    2.000    0.000    0.000 
#    0.000    0.000    0.000    0.000    0.000    0.000 
#
# Total GULP energy -66985.087391 kJ/mol
# GULP energy per Si atom -5582.090616 kJ/mol
# Density = 2.664284 g / cm^3
# Si number density = 26.703618 Si / 1000 Ang^3
#
#
#
# Elastic Constant Matrix: (Units=GPa)
#
#
# Indices 1 2 3 4 5 6 
#
# 1 59.7230 14.6919 34.7643 0.0000 1.4678 0.0000
# 2 14.6919 88.6430 80.3682 0.0000 -2.0993 0.0000
# 3 34.7643 80.3682 285.5886 0.0000 6.6112 0.0000
# 4 0.0000 0.0000 0.0000 49.0224 0.0000 -9.3753
# 5 1.4678 -2.0993 6.6112 0.0000 38.3628 0.0000
# 6 0.0000 0.0000 0.0000 -9.3753 0.0000 12.7881
#
#
#
# Elastic Compliance Matrix: (Units=1/GPa)
#
#
# Indices 1 2 3 4 5 6 
#
# 1 0.018148 -0.001377 -0.001811 0.000000 -0.000458 0.000000
# 2 -0.001377 0.015345 -0.004188 0.000000 0.001614 0.000000
# 3 -0.001811 -0.004188 0.004924 0.000000 -0.001008 0.000000
# 4 0.000000 0.000000 0.000000 0.023725 0.000000 0.017394
# 5 -0.000458 0.001614 -0.001008 0.000000 0.026347 0.000000
# 6 0.000000 0.000000 0.000000 0.017394 0.000000 0.090950
#
#
# Mechanical properties :
#
#
# Convention : Reuss Voigt Hill
#
# Bulk Modulus (GPa) = 42.25634 77.06706 59.66170
# Shear Modulus (GPa) = 24.74289 40.31001 32.52645
#
# Velocity S-wave (km/s) = 3.04727 3.88949 3.49385
# Velocity P-wave (km/s) = 5.31410 7.00668 6.21825
#
# Compressibility (1/GPa) = 0.02366509
#
# Stress axis : x y z
#
# Youngs Moduli (GPa) = 55.10208 65.16945 203.09128
#
# Poissons Ratio (x) = 0.08972 0.36783
# Poissons Ratio (y) = 0.07586 0.85054
# Poissons Ratio (z) = 0.09980 0.27293
#
# Static dielectric constant tensor:
#      x y z
#    x 2.261080 0.000000 -0.094240 
#    y 0.000000 2.087180 0.000000 
#    z -0.094240 0.000000 2.281760 
# 
# From -- ./inp_files/10617.got.cif
#   From: 2010.05.17/outbox.cif.g08.bks.cpg/sg3_6_cif.got.tgz:10617.got - 2010.06.03 18:33:08.
