data_PCOD9112164
_publ_section_title
;
Structure prediction by ZEFSAII (Michael W. Deem and Ramdas Pophale) SiO2 
 PCOD9112164
Probable space group: P -1
;
_chemical_formula_sum "Si O2"
_cell_formula_units_Z 11
_cell_length_a 14.912995
_cell_length_b 4.798851
_cell_length_c 9.073338
_cell_angle_alpha 93.230243
_cell_angle_beta 37.720838
_cell_angle_gamma 91.344559
_cell_volume 396.405056
_symmetry_space_group_name_H-M "P -1"
_symmetry_group_IT_number 2
_symmetry_cell_setting 'triclinic'
loop_
_space_group_symop_operation_xyz
x,y,z
-x,-y,-z
loop_
_atom_site_type_symbol
_atom_site_label
_atom_site_fract_x
_atom_site_fract_y
_atom_site_fract_z
Si Si1 0.596999 0.189313 0.513757
Si Si2 0.000000 0.000000 0.000000
Si Si3 0.064041 0.258023 0.233718
Si Si4 0.774178 0.059614 0.717748
Si Si5 0.257589 0.302940 0.530001
Si Si6 0.332092 0.603116 0.893696
O O1 0.633667 0.878134 0.509224
O O2 0.437027 0.326343 0.754033
O O3 0.631652 0.238007 0.299141
O O4 0.708637 0.377978 0.469131
O O5 0.073505 0.107774 0.060775
O O6 0.095282 0.230279 0.788853
O O7 0.891516 0.265066 0.497042
O O8 0.140854 0.100556 0.265953
O O9 0.161280 0.528091 0.103481
O O10 0.721864 0.836226 0.660815
O O11 0.650394 0.237839 0.970054
#
# Coordination Sequence:
#
# PCOD9112164 Si02
#       6
#     2   1   2   2   2   2
#     4  11  27  44  71  98 142 176 234 262 347 397
#     4  10  20  44  72  94 138 170 232 276 334 392
#     4  10  21  43  66 102 128 181 224 283 337 397
#     4  10  24  41  69  97 140 170 232 278 343 390
#     4  11  25  46  66 107 131 185 219 283 330 411
#     4  11  24  42  69  96 136 183 219 289 322 415
#
# _framework density 27.749393000000001
#
# number of rings (size 3 to 8) (size 9 to 14) (size 15 to 20)
#    0.000    1.455    1.818    1.636    5.091    3.636 
#    9.818    0.000    0.000    0.000    0.000    0.000 
#    0.000    0.000    0.000    0.000    0.000    0.000 
#
# Total GULP energy -61508.588165 kJ/mol
# GULP energy per Si atom -5591.689833 kJ/mol
# Density = 2.768623 g / cm^3
# Si number density = 27.749393 Si / 1000 Ang^3
#
#
#
# Elastic Constant Matrix: (Units=GPa)
#
#
# Indices 1 2 3 4 5 6 
#
# 1 146.0347 25.5616 23.0938 3.4384 33.3006 29.9830
# 2 25.5616 75.1162 10.3726 -7.4171 1.6277 18.2302
# 3 23.0938 10.3726 108.4981 -6.1529 18.1447 14.7022
# 4 3.4384 -7.4171 -6.1529 25.0484 8.7540 -2.6914
# 5 33.3006 1.6277 18.1447 8.7540 43.9533 10.5594
# 6 29.9830 18.2302 14.7022 -2.6914 10.5594 65.1227
#
#
#
# Elastic Compliance Matrix: (Units=1/GPa)
#
#
# Indices 1 2 3 4 5 6 
#
# 1 0.009238 -0.002365 -0.000389 -0.000201 -0.006105 -0.002522
# 2 -0.002365 0.015309 -0.000554 0.003882 0.001436 -0.003144
# 3 -0.000389 -0.000554 0.010485 0.003923 -0.004521 -0.001138
# 4 -0.000201 0.003882 0.003923 0.046197 -0.011257 0.001855
# 5 -0.006105 0.001436 -0.004521 -0.011257 0.031965 -0.002219
# 6 -0.002522 -0.003144 -0.001138 0.001855 -0.002219 0.018090
#
#
# Mechanical properties :
#
#
# Convention : Reuss Voigt Hill
#
# Bulk Modulus (GPa) = 35.19211 49.74501 42.46856
# Shear Modulus (GPa) = 33.92745 44.86627 39.39686
#
# Velocity S-wave (km/s) = 3.50042 4.02535 3.77203
# Velocity P-wave (km/s) = 5.38952 6.29047 5.85734
#
# Compressibility (1/GPa) = 0.02841546
#
# Stress axis : x y z
#
# Youngs Moduli (GPa) = 108.25077 65.31933 95.37207
#
# Poissons Ratio (x) = 0.15451 0.03709
# Poissons Ratio (y) = 0.25607 0.05285
# Poissons Ratio (z) = 0.04210 0.03619
#
# Static dielectric constant tensor:
#      x y z
#    x 2.092850 -0.029380 -0.088760 
#    y -0.029380 2.152780 0.019490 
#    z -0.088760 0.019490 2.243740 
# 
# From -- ./inp_files/17152.got.cif
#   From: 2010.05.17/outbox.cif.g08.bks.cpg/sg2_9_cif.got.tgz:17152.got - 2010.06.03 11:33:40.
