data_PCOD9112098
_publ_section_title
;
Structure prediction by ZEFSAII (Michael W. Deem and Ramdas Pophale) SiO2 
 PCOD9112098
Probable space group: P -1
;
_chemical_formula_sum "Si O2"
_cell_formula_units_Z 16
_cell_length_a 9.624825
_cell_length_b 14.758323
_cell_length_c 5.230889
_cell_angle_alpha 91.598377
_cell_angle_beta 80.963837
_cell_angle_gamma 74.288368
_cell_volume 704.448732
_symmetry_space_group_name_H-M "P -1"
_symmetry_group_IT_number 2
_symmetry_cell_setting 'triclinic'
loop_
_space_group_symop_operation_xyz
x,y,z
-x,-y,-z
loop_
_atom_site_type_symbol
_atom_site_label
_atom_site_fract_x
_atom_site_fract_y
_atom_site_fract_z
Si Si1 0.353842 0.801428 0.688885
Si Si2 0.682626 0.371264 0.018988
Si Si3 0.631059 0.744953 0.352189
Si Si4 0.049525 0.044751 0.733778
Si Si5 0.616804 0.004072 0.239115
Si Si6 0.059982 0.786024 0.912090
Si Si7 0.267622 0.172389 0.159930
Si Si8 0.552643 0.565908 0.296918
O O1 0.456655 0.795714 0.415840
O O2 0.386720 0.889230 0.834863
O O3 0.181175 0.819316 0.716330
O O4 0.693655 0.791940 0.574391
O O5 0.605433 0.302131 0.197623
O O6 0.649303 0.483271 0.082026
O O7 0.851239 0.319132 0.031521
O O8 0.600076 0.372031 0.776258
O O9 0.695880 0.762188 0.067152
O O10 0.644274 0.634796 0.370577
O O11 0.222970 0.030069 0.675501
O O12 0.971235 0.154374 0.813225
O O13 0.000000 0.000000 0.500000
O O14 0.000000 0.000000 0.000000
O O15 0.642576 0.932452 0.980592
O O16 0.500000 0.000000 0.500000
O O17 0.906701 0.810610 0.813206
O O18 0.500000 0.500000 0.500000
#
# Coordination Sequence:
#
# PCOD9112098 Si02
#       8
#     2   2   2   2   2   2   2   2
#     4  10  20  44  70 101 134 186 235 290 329 417
#     4   9  21  42  71 103 135 171 240 293 345 410
#     4  12  25  45  69 102 143 184 232 293 354 410
#     4  11  23  42  66  96 135 186 234 282 336 402
#     4  11  23  43  68 104 142 188 236 283 341 411
#     4   9  22  45  68  99 138 188 232 284 346 416
#     4  11  27  46  66 102 152 190 224 289 353 417
#     4  11  21  41  74 106 128 175 233 299 352 415
#
# _framework density 22.712793999999999
#
# number of rings (size 3 to 8) (size 9 to 14) (size 15 to 20)
#    0.750    0.750    3.750    0.750    1.750    6.500 
#    6.750    1.250    0.000    0.000    0.000    0.000 
#    0.000    0.000    0.000    0.000    0.000    0.000 
#
# Total GULP energy -89174.813923 kJ/mol
# GULP energy per Si atom -5573.425870 kJ/mol
# Density = 2.266110 g / cm^3
# Si number density = 22.712794 Si / 1000 Ang^3
#
#
#
# Elastic Constant Matrix: (Units=GPa)
#
#
# Indices 1 2 3 4 5 6 
#
# 1 128.2396 39.4230 51.1297 18.2609 -19.9083 2.7275
# 2 39.4230 110.3267 11.6133 8.3502 8.2913 20.5811
# 3 51.1297 11.6133 87.1641 -7.3999 -1.3251 5.1575
# 4 18.2609 8.3502 -7.3999 37.2712 10.8186 -0.8313
# 5 -19.9083 8.2913 -1.3251 10.8186 44.9057 7.2716
# 6 2.7275 20.5811 5.1575 -0.8313 7.2716 42.2102
#
#
#
# Elastic Compliance Matrix: (Units=1/GPa)
#
#
# Indices 1 2 3 4 5 6 
#
# 1 0.016756 -0.004895 -0.010077 -0.012276 0.010926 0.000412
# 2 -0.004895 0.011767 0.001630 0.001064 -0.003749 -0.004953
# 3 -0.010077 0.001630 0.017978 0.010000 -0.006481 -0.001027
# 4 -0.012276 0.001064 0.010000 0.039042 -0.015143 0.002430
# 5 0.010926 -0.003749 -0.006481 -0.015143 0.031890 -0.003878
# 6 0.000412 -0.004953 -0.001027 0.002430 -0.003878 0.026921
#
#
# Mechanical properties :
#
#
# Convention : Reuss Voigt Hill
#
# Bulk Modulus (GPa) = 50.46400 58.89582 54.67991
# Shear Modulus (GPa) = 28.14628 39.78172 33.96400
#
# Velocity S-wave (km/s) = 3.52408 4.18965 3.87119
# Velocity P-wave (km/s) = 6.23101 7.02788 6.64141
#
# Compressibility (1/GPa) = 0.01981611
#
# Stress axis : x y z
#
# Youngs Moduli (GPa) = 59.67972 84.98362 55.62438
#
# Poissons Ratio (x) = 0.41604 0.56053
# Poissons Ratio (y) = 0.29216 -0.09068
# Poissons Ratio (z) = 0.60140 -0.13855
#
# Static dielectric constant tensor:
#      x y z
#    x 1.907500 0.003420 -0.003980 
#    y 0.003420 2.051650 0.112280 
#    z -0.003980 0.112280 2.009610 
# 
# From -- ./inp_files/47756.got.cif
#   From: 2010.05.17/outbox.cif.g08.bks.cpg/sg2_24_cif.got.tgz:47756.got - 2010.06.03 11:33:40.
