data_PCOD9112528
_publ_section_title
;
Structure prediction by ZEFSAII (Michael W. Deem and Ramdas Pophale) SiO2 
 PCOD9112528
Probable space group: P 2
;
_chemical_formula_sum "Si O2"
_cell_formula_units_Z 16
_cell_length_a 8.192965
_cell_length_b 9.425950
_cell_length_c 19.668610
_cell_angle_alpha 90.000000
_cell_angle_beta 33.583376
_cell_angle_gamma 90.000000
_cell_volume 840.200057
_symmetry_space_group_name_H-M "P 2"
_symmetry_group_IT_number 3
_symmetry_cell_setting 'monoclinic'
loop_
_space_group_symop_operation_xyz
x,y,z
-x,y,-z
loop_
_atom_site_type_symbol
_atom_site_label
_atom_site_fract_x
_atom_site_fract_y
_atom_site_fract_z
Si Si1 0.287146 0.531840 0.759081
Si Si2 0.310161 0.556833 0.500017
Si Si3 0.190005 0.873672 0.500009
Si Si4 0.676469 0.531848 0.759112
Si Si5 0.268901 0.860820 0.765610
Si Si6 0.693208 0.365498 0.999985
Si Si7 0.802004 0.041265 0.999990
Si Si8 0.668619 0.860825 0.765629
O O1 0.473067 0.482020 0.628838
O O2 0.508634 0.531643 0.745684
O O3 0.192443 0.695917 0.779528
O O4 0.005272 0.440575 0.877192
O O5 0.500000 0.596403 0.500000
O O6 0.204116 0.701763 0.500015
O O7 0.011524 0.482035 0.628880
O O8 0.524202 0.915910 0.367542
O O9 0.000000 0.914576 0.500000
O O10 0.994326 0.915913 0.632480
O O11 0.689370 0.695925 0.779564
O O12 0.485857 0.440581 0.877229
O O13 0.473183 0.861588 0.763408
O O14 0.989228 0.956114 0.879039
O O15 0.500000 0.379479 0.000000
O O16 0.742577 0.201417 0.999984
O O17 0.505419 0.956125 0.120944
O O18 0.000000 0.041795 0.000000
#
# Coordination Sequence:
#
# PCOD9112528 Si02
#       8
#     2   2   2   2   2   2   2   2
#     4  10  19  36  60  83 105 139 182 223 264 317
#     4  10  18  30  51  84 117 140 166 214 270 320
#     4   8  14  28  49  76 105 134 170 216 260 308
#     4  10  19  36  60  83 105 139 182 223 264 317
#     4   8  15  29  54  80 100 126 172 222 260 304
#     4  12  25  38  50  74 110 146 181 226 274 318
#     4  10  19  34  52  72 100 138 177 218 264 316
#     4   8  15  29  54  80 100 126 172 222 260 304
#
# _framework density 19.043084
#
# number of rings (size 3 to 8) (size 9 to 14) (size 15 to 20)
#    0.000    2.500    0.000    5.250    0.000    2.000 
#    0.000    8.750    0.000    3.000    0.000    0.000 
#    0.000    0.000    0.000    0.000    0.000    0.000 
#
# Total GULP energy -89207.915713 kJ/mol
# GULP energy per Si atom -5575.494732 kJ/mol
# Density = 1.899974 g / cm^3
# Si number density = 19.043084 Si / 1000 Ang^3
#
#
#
# Elastic Constant Matrix: (Units=GPa)
#
#
# Indices 1 2 3 4 5 6 
#
# 1 41.3240 12.3420 20.2831 0.0000 0.0676 0.0000
# 2 12.3420 78.4792 83.5217 0.0000 0.5828 0.0000
# 3 20.2831 83.5217 228.7794 0.0000 1.4555 0.0000
# 4 0.0000 0.0000 0.0000 -6.1486 0.0000 0.0358
# 5 0.0676 0.5828 1.4555 0.0000 15.3896 0.0000
# 6 0.0000 0.0000 0.0000 0.0358 0.0000 -10.2325
#
#
#
# Elastic Compliance Matrix: (Units=1/GPa)
#
#
# Indices 1 2 3 4 5 6 
#
# 1 0.025629 -0.002637 -0.001310 0.000000 0.000111 0.000000
# 2 -0.002637 0.021110 -0.007472 0.000000 -0.000081 0.000000
# 3 -0.001310 -0.007472 0.007218 0.000000 -0.000394 0.000000
# 4 0.000000 0.000000 0.000000 -0.162642 0.000000 -0.000569
# 5 0.000111 -0.000081 -0.000394 0.000000 0.065019 0.000000
# 6 0.000000 0.000000 0.000000 -0.000569 0.000000 -0.097730
#
#
# Mechanical properties :
#
#
# Convention : Reuss Voigt Hill
#
# Bulk Modulus (GPa) = 32.13584 64.54180 48.33882
# Shear Modulus (GPa) = -46.21757 15.29743 -15.46007
#
# Velocity S-wave (km/s) = -4.93180 2.83734 -2.85238
# Velocity P-wave (km/s) = 3.93933 6.68581 3.81980
#
# Compressibility (1/GPa) = 0.03111791
#
# Stress axis : x y z
#
# Youngs Moduli (GPa) = 39.01756 47.37061 138.54803
#
# Poissons Ratio (x) = 0.12491 0.18154
# Poissons Ratio (y) = 0.10289 1.03530
# Poissons Ratio (z) = 0.05112 0.35398
#
# Static dielectric constant tensor:
#      x y z
#    x 1.651700 0.000000 0.000470 
#    y 0.000000 1.618560 0.000000 
#    z 0.000470 0.000000 1.707350 
# 
# From -- ./inp_files/15818.got.cif
#   From: 2010.05.17/outbox.cif.g08.bks.cpg/sg3_8_cif.got.tgz:15818.got - 2010.06.03 18:33:08.
