data_PCOD9112897
_publ_section_title
;
Structure prediction by ZEFSAII (Michael W. Deem and Ramdas Pophale) SiO2 
 PCOD9112897
Probable space group: P 2
;
_chemical_formula_sum "Si O2"
_cell_formula_units_Z 14
_cell_length_a 7.671094
_cell_length_b 16.102814
_cell_length_c 9.354412
_cell_angle_alpha 90.000000
_cell_angle_beta 146.811867
_cell_angle_gamma 90.000000
_cell_volume 632.517225
_symmetry_space_group_name_H-M "P 2"
_symmetry_group_IT_number 3
_symmetry_cell_setting 'monoclinic'
loop_
_space_group_symop_operation_xyz
x,y,z
-x,y,-z
loop_
_atom_site_type_symbol
_atom_site_label
_atom_site_fract_x
_atom_site_fract_y
_atom_site_fract_z
Si Si1 0.725357 0.580160 0.513061
Si Si2 0.136749 0.841010 0.751863
Si Si3 0.274787 0.391134 0.488109
Si Si4 0.198755 0.100039 0.994600
Si Si5 0.781323 0.681297 0.991934
Si Si6 0.230695 0.286896 0.016578
Si Si7 0.203991 0.997126 0.497873
O O1 0.500000 0.579166 0.500000
O O2 0.751936 0.485917 0.479478
O O3 0.061400 0.611572 0.800449
O O4 0.558327 0.646205 0.292949
O O5 0.191806 0.764777 0.897354
O O6 0.000000 0.815909 0.500000
O O7 0.500000 0.878964 0.000000
O O8 0.868695 0.907052 0.622146
O O9 0.500000 0.394067 0.500000
O O10 0.958211 0.343112 0.225354
O O11 0.454914 0.334705 0.724116
O O12 0.309281 0.192251 0.028262
O O13 0.961561 0.064810 0.714253
O O14 0.460909 0.031970 0.219378
O O15 0.000000 0.112226 0.000000
O O16 0.000000 0.691092 0.000000
O O17 0.000000 0.285072 0.000000
O O18 0.000000 0.988984 0.500000
#
# Coordination Sequence:
#
# PCOD9112897 Si02
#       7
#     2   2   2   2   2   2   2
#     4   9  17  29  49  80 115 147 181 226 280 337
#     4  11  23  41  61  82 110 150 199 241 285 351
#     4   9  15  26  45  74 113 150 179 217 276 335
#     4  11  22  38  60  90 120 148 191 246 297 339
#     4  10  20  35  56  84 115 143 182 238 291 336
#     4   9  17  28  47  77 113 146 180 227 279 333
#     4  11  23  41  61  83 114 154 197 239 288 355
#
# _framework density 22.133783000000001
#
# number of rings (size 3 to 8) (size 9 to 14) (size 15 to 20)
#    0.000    2.000    0.000    5.143    0.000    6.286 
#    0.000    5.714    0.000    0.000    0.000   35.000 
#    0.000    0.000    0.000    0.000    0.000    0.000 
#
# Total GULP energy -78133.116605 kJ/mol
# GULP energy per Si atom -5580.936900 kJ/mol
# Density = 2.208341 g / cm^3
# Si number density = 22.133783 Si / 1000 Ang^3
#
#
#
# Elastic Constant Matrix: (Units=GPa)
#
#
# Indices 1 2 3 4 5 6 
#
# 1 26.0555 17.5657 12.8072 0.0000 -5.3161 0.0000
# 2 17.5657 454.7729 319.2495 0.0000 50.1651 0.0000
# 3 12.8072 319.2495 401.2825 0.0000 51.2145 0.0000
# 4 0.0000 0.0000 0.0000 53.6279 0.0000 -13.5765
# 5 -5.3161 50.1651 51.2145 0.0000 32.6391 0.0000
# 6 0.0000 0.0000 0.0000 -13.5765 0.0000 38.1332
#
#
#
# Elastic Compliance Matrix: (Units=1/GPa)
#
#
# Indices 1 2 3 4 5 6 
#
# 1 0.042917 -0.002149 -0.001217 0.000000 0.012204 0.000000
# 2 -0.002149 0.005174 -0.003736 0.000000 -0.002439 0.000000
# 3 -0.001217 -0.003736 0.005997 0.000000 -0.003865 0.000000
# 4 0.000000 0.000000 0.000000 0.020494 0.000000 0.007296
# 5 0.012204 -0.002439 -0.003865 0.000000 0.042440 0.000000
# 6 0.000000 0.000000 0.000000 0.007296 0.000000 0.028822
#
#
# Mechanical properties :
#
#
# Convention : Reuss Voigt Hill
#
# Bulk Modulus (GPa) = 25.07421 175.70620 100.39021
# Shear Modulus (GPa) = 28.84458 60.37927 44.61193
#
# Velocity S-wave (km/s) = 3.61389 5.22862 4.49437
# Velocity P-wave (km/s) = 5.36346 10.77067 8.50806
#
# Compressibility (1/GPa) = 0.03988161
#
# Stress axis : x y z
#
# Youngs Moduli (GPa) = 23.30089 193.28065 166.76117
#
# Poissons Ratio (x) = 0.41541 0.20301
# Poissons Ratio (y) = 0.05008 0.62306
# Poissons Ratio (z) = 0.02837 0.72214
#
# Static dielectric constant tensor:
#      x y z
#    x 1.844840 0.000000 0.016280 
#    y 0.000000 1.870090 0.000000 
#    z 0.016280 0.000000 1.701810 
# 
# From -- ./inp_files/6240.got.cif
#   From: 2010.05.17/outbox.cif.g08.bks.cpg/sg3_4_cif.got.tgz:6240.got - 2010.06.03 18:33:08.
