data_PCOD9112883
_publ_section_title
;
Structure prediction by ZEFSAII (Michael W. Deem and Ramdas Pophale) SiO2 
 PCOD9112883
Probable space group: P 2
;
_chemical_formula_sum "Si O2"
_cell_formula_units_Z 16
_cell_length_a 9.181401
_cell_length_b 5.464764
_cell_length_c 19.179685
_cell_angle_alpha 90.000000
_cell_angle_beta 123.387721
_cell_angle_gamma 90.000000
_cell_volume 803.508607
_symmetry_space_group_name_H-M "P 2"
_symmetry_group_IT_number 3
_symmetry_cell_setting 'monoclinic'
loop_
_space_group_symop_operation_xyz
x,y,z
-x,y,-z
loop_
_atom_site_type_symbol
_atom_site_label
_atom_site_fract_x
_atom_site_fract_y
_atom_site_fract_z
Si Si1 0.522307 0.032790 0.159573
Si Si2 0.226450 0.455942 0.390036
Si Si3 0.800289 0.062551 0.125897
Si Si4 0.145026 0.951908 0.295161
Si Si5 0.611613 0.461165 0.421160
Si Si6 0.173960 0.289166 0.008498
Si Si7 0.470723 0.962282 0.673917
Si Si8 0.386916 0.676041 0.025284
O O1 0.684968 0.149525 0.161046
O O2 0.343353 0.162698 0.087582
O O3 0.535205 0.002510 0.244859
O O4 0.509868 0.768907 0.119262
O O5 0.144102 0.202273 0.340603
O O6 0.420908 0.461970 0.407761
O O7 0.250485 0.464876 0.479496
O O8 0.140315 0.705524 0.339809
O O9 0.978092 0.950956 0.201383
O O10 0.847099 0.259677 0.080007
O O11 0.687536 0.879585 0.047145
O O12 0.327647 0.955409 0.300161
O O13 0.618175 0.202568 0.383127
O O14 0.613802 0.705839 0.374251
O O15 0.223281 0.572291 0.024092
O O16 0.000000 0.212576 0.000000
O O17 0.500000 0.512978 0.000000
#
# Coordination Sequence:
#
# PCOD9112883 Si02
#       8
#     2   2   2   2   2   2   2   2
#     4  10  22  39  56  80 115 156 196 235 290 352
#     4   9  18  34  57  85 117 151 190 243 300 349
#     4  10  22  39  56  80 115 156 196 235 290 352
#     4  10  20  34  57  88 116 149 198 246 290 344
#     4   9  18  34  57  85 117 151 190 243 300 349
#     4  11  22  36  59  85 113 147 191 246 293 342
#     4  10  20  34  57  88 116 149 198 246 290 344
#     4   9  20  38  57  77 109 155 195 232 285 354
#
# _framework density 19.912666000000002
#
# number of rings (size 3 to 8) (size 9 to 14) (size 15 to 20)
#    0.000    2.250    0.000    3.375    3.500    6.000 
#    0.000    0.000    0.000    4.500    0.000    0.000 
#    0.000    0.000    0.000    0.000    0.000    0.000 
#
# Total GULP energy -89073.510976 kJ/mol
# GULP energy per Si atom -5567.094436 kJ/mol
# Density = 1.986734 g / cm^3
# Si number density = 19.912666 Si / 1000 Ang^3
#
#
#
# Elastic Constant Matrix: (Units=GPa)
#
#
# Indices 1 2 3 4 5 6 
#
# 1 59.4188 16.4655 20.8046 0.0000 -20.5038 0.0000
# 2 16.4655 96.4436 44.6635 0.0000 -17.5238 0.0000
# 3 20.8046 44.6635 120.5784 0.0000 -34.7907 0.0000
# 4 0.0000 0.0000 0.0000 12.8760 0.0000 -1.9327
# 5 -20.5038 -17.5238 -34.7907 0.0000 30.4774 0.0000
# 6 0.0000 0.0000 0.0000 -1.9327 0.0000 13.6596
#
#
#
# Elastic Compliance Matrix: (Units=1/GPa)
#
#
# Indices 1 2 3 4 5 6 
#
# 1 0.022143 -0.001536 0.001181 0.000000 0.015361 0.000000
# 2 -0.001536 0.012789 -0.003950 0.000000 0.001812 0.000000
# 3 0.001181 -0.003950 0.013609 0.000000 0.014058 0.000000
# 4 0.000000 0.000000 0.000000 0.079349 0.000000 0.011227
# 5 0.015361 0.001812 0.014058 0.000000 0.060235 0.000000
# 6 0.000000 0.000000 0.000000 0.011227 0.000000 0.074797
#
#
# Mechanical properties :
#
#
# Convention : Reuss Voigt Hill
#
# Bulk Modulus (GPa) = 25.04327 48.92312 36.98319
# Shear Modulus (GPa) = 17.55362 24.36976 20.96169
#
# Velocity S-wave (km/s) = 2.97228 3.50213 3.24802
# Velocity P-wave (km/s) = 4.93793 6.40120 5.71658
#
# Compressibility (1/GPa) = 0.03993089
#
# Stress axis : x y z
#
# Youngs Moduli (GPa) = 45.16176 78.19096 73.48161
#
# Poissons Ratio (x) = 0.12010 -0.08675
# Poissons Ratio (y) = 0.06937 0.29022
# Poissons Ratio (z) = -0.05332 0.30882
#
# Static dielectric constant tensor:
#      x y z
#    x 1.785880 0.000000 -0.000200 
#    y 0.000000 1.852140 0.000000 
#    z -0.000200 0.000000 1.662260 
# 
# From -- ./inp_files/14876.got.cif
#   From: 2010.05.17/outbox.cif.g08.bks.cpg/sg3_8_cif.got.tgz:14876.got - 2010.06.03 18:33:08.
