data_PCOD9112419
_publ_section_title
;
Structure prediction by ZEFSAII (Michael W. Deem and Ramdas Pophale) SiO2 
 PCOD9112419
Probable space group: P -1
;
_chemical_formula_sum "Si O2"
_cell_formula_units_Z 16
_cell_length_a 11.244951
_cell_length_b 22.045971
_cell_length_c 13.662750
_cell_angle_alpha 26.885356
_cell_angle_beta 45.394210
_cell_angle_gamma 31.128376
_cell_volume 764.129539
_symmetry_space_group_name_H-M "P -1"
_symmetry_group_IT_number 2
_symmetry_cell_setting 'triclinic'
loop_
_space_group_symop_operation_xyz
x,y,z
-x,-y,-z
loop_
_atom_site_type_symbol
_atom_site_label
_atom_site_fract_x
_atom_site_fract_y
_atom_site_fract_z
Si Si1 0.786472 0.670044 0.309233
Si Si2 0.291220 0.995977 0.899446
Si Si3 0.080127 0.617532 0.686777
Si Si4 0.572998 0.883305 0.523619
Si Si5 0.779605 0.415472 0.557617
Si Si6 0.268305 0.994101 0.145926
Si Si7 0.864405 0.009771 0.332683
Si Si8 0.437458 0.706526 0.082403
O O1 0.787617 0.562688 0.375934
O O2 0.000000 0.500000 0.500000
O O3 0.524331 0.813268 0.305541
O O4 0.817079 0.807506 0.063265
O O5 0.421052 0.021115 0.710969
O O6 0.021101 0.200313 0.755874
O O7 0.339433 0.964293 0.032051
O O8 0.337629 0.825337 0.070082
O O9 0.225059 0.585893 0.553787
O O10 0.283347 0.416093 0.914450
O O11 0.845114 0.685340 0.676428
O O12 0.993106 0.794917 0.543673
O O13 0.369664 0.889960 0.612341
O O14 0.500000 0.000000 0.500000
O O15 0.582896 0.442412 0.689224
O O16 0.059928 0.004688 0.261899
O O17 0.738691 0.135295 0.125433
#
# Coordination Sequence:
#
# PCOD9112419 Si02
#       8
#     2   2   2   2   2   2   2   2
#     4  11  22  39  58  84 115 135 189 240 289 321
#     4  11  19  35  58  81 116 151 185 220 278 328
#     4  10  21  32  53  82 116 151 179 220 277 328
#     4   9  19  37  52  79 122 155 174 224 270 330
#     4  11  19  34  53  85 113 144 178 239 278 317
#     4  11  23  36  62  86 103 151 186 235 277 330
#     4  11  20  38  54  83 119 143 187 222 277 329
#     4  12  19  30  57  82 115 148 184 221 267 336
#
# _framework density 20.938856999999999
#
# number of rings (size 3 to 8) (size 9 to 14) (size 15 to 20)
#    0.000    1.250    6.250    3.000    0.000    0.500 
#    0.000    0.000    0.000    6.000    0.000    0.000 
#    0.000    0.000    0.000    0.000    0.000    0.000 
#
# Total GULP energy -89215.094348 kJ/mol
# GULP energy per Si atom -5575.943397 kJ/mol
# Density = 2.089120 g / cm^3
# Si number density = 20.938857 Si / 1000 Ang^3
#
#
#
# Elastic Constant Matrix: (Units=GPa)
#
#
# Indices 1 2 3 4 5 6 
#
# 1 42.4613 21.8508 30.7022 -4.2904 -14.4751 -25.8717
# 2 21.8508 93.2153 41.5698 -1.6892 -5.9165 -36.9576
# 3 30.7022 41.5698 73.5038 -17.1105 -11.4668 -18.9034
# 4 -4.2904 -1.6892 -17.1105 51.9317 -7.4260 9.8985
# 5 -14.4751 -5.9165 -11.4668 -7.4260 38.9254 1.6338
# 6 -25.8717 -36.9576 -18.9034 9.8985 1.6338 42.5505
#
#
#
# Elastic Compliance Matrix: (Units=1/GPa)
#
#
# Indices 1 2 3 4 5 6 
#
# 1 0.060954 0.011174 -0.021085 -0.006677 0.015270 0.038367
# 2 0.011174 0.022750 -0.013136 -0.006679 0.001537 0.022213
# 3 -0.021085 -0.013136 0.028826 0.010130 0.001167 -0.013825
# 4 -0.006677 -0.006679 0.010130 0.024640 0.004660 -0.011271
# 5 0.015270 0.001537 0.001167 0.004660 0.032465 0.008808
# 6 0.038367 0.022213 -0.013825 -0.011271 0.008808 0.062265
#
#
# Mechanical properties :
#
#
# Convention : Reuss Voigt Hill
#
# Bulk Modulus (GPa) = 15.05198 44.15846 29.60522
# Shear Modulus (GPa) = 16.65898 34.35201 25.50550
#
# Velocity S-wave (km/s) = 2.82370 4.05481 3.49391
# Velocity P-wave (km/s) = 4.22317 6.56178 5.51780
#
# Compressibility (1/GPa) = 0.06643645
#
# Stress axis : x y z
#
# Youngs Moduli (GPa) = 16.40572 43.95636 34.69135
#
# Poissons Ratio (x) = -0.49119 0.73147
# Poissons Ratio (y) = -0.18332 0.45570
# Poissons Ratio (z) = 0.34592 0.57741
#
# Static dielectric constant tensor:
#      x y z
#    x 1.825180 -0.070670 0.045160 
#    y -0.070670 1.810660 0.011540 
#    z 0.045160 0.011540 1.840280 
# 
# From -- ./inp_files/571188.got.cif
#   From: 2010.05.17/outbox.cif.g08.bks.cpg/sg2_286_cif.got.tgz:571188.got - 2010.06.03 11:33:40.
