data_PCOD9112325
_publ_section_title
;
Structure prediction by ZEFSAII (Michael W. Deem and Ramdas Pophale) SiO2 
 PCOD9112325
Probable space group: P -1
;
_chemical_formula_sum "Si O2"
_cell_formula_units_Z 16
_cell_length_a 10.523587
_cell_length_b 8.608952
_cell_length_c 19.309225
_cell_angle_alpha 41.669422
_cell_angle_beta 137.030204
_cell_angle_gamma 106.641498
_cell_volume 649.025782
_symmetry_space_group_name_H-M "P -1"
_symmetry_group_IT_number 2
_symmetry_cell_setting 'triclinic'
loop_
_space_group_symop_operation_xyz
x,y,z
-x,-y,-z
loop_
_atom_site_type_symbol
_atom_site_label
_atom_site_fract_x
_atom_site_fract_y
_atom_site_fract_z
Si Si1 0.735307 0.650915 0.839290
Si Si2 0.226446 0.005593 0.672837
Si Si3 0.509868 0.579872 0.205401
Si Si4 0.880856 0.072944 0.612507
Si Si5 0.839965 0.456486 0.270614
Si Si6 0.311718 0.088585 0.060004
Si Si7 0.458149 0.731072 0.459708
Si Si8 0.874204 0.536002 0.784668
O O1 0.654747 0.457447 0.896332
O O2 0.709801 0.640374 0.750260
O O3 0.607418 0.976301 0.699225
O O4 0.000000 0.500000 0.000000
O O5 0.218182 0.753370 0.718351
O O6 0.473622 0.933572 0.812732
O O7 0.094397 0.074901 0.671544
O O8 0.076594 0.264403 0.471784
O O9 0.702113 0.266991 0.416123
O O10 0.649992 0.647528 0.188968
O O11 0.396540 0.797305 0.151388
O O12 0.741550 0.192463 0.589542
O O13 0.947421 0.754178 0.739689
O O14 0.810755 0.668411 0.129261
O O15 0.099113 0.215879 0.985053
O O16 0.500000 0.500000 0.500000
O O17 0.701646 0.597130 0.635920
#
# Coordination Sequence:
#
# PCOD9112325 Si02
#       8
#     2   2   2   2   2   2   2   2
#     4  11  25  44  69 100 136 184 228 281 357 414
#     4  10  23  44  73 101 134 189 232 281 352 409
#     4  11  24  44  67 100 142 179 226 293 339 412
#     4  10  20  46  70  93 138 183 221 284 348 409
#     4  10  23  44  69 103 138 182 238 281 345 414
#     4  12  26  43  69 106 142 180 232 291 340 411
#     4  11  24  45  72 103 131 182 233 287 348 412
#     4  11  23  46  70  98 140 180 228 285 349 417
#
# _framework density 24.652332999999999
#
# number of rings (size 3 to 8) (size 9 to 14) (size 15 to 20)
#    0.000    1.250    3.750    1.500    3.500    4.500 
#    4.500    0.000    0.000    0.000    0.000    0.000 
#    0.000    0.000    0.000    0.000    0.000    0.000 
#
# Total GULP energy -89451.465120 kJ/mol
# GULP energy per Si atom -5590.716570 kJ/mol
# Density = 2.459622 g / cm^3
# Si number density = 24.652333 Si / 1000 Ang^3
#
#
#
# Elastic Constant Matrix: (Units=GPa)
#
#
# Indices 1 2 3 4 5 6 
#
# 1 92.5211 10.2312 14.4800 -0.0543 18.3615 -16.7911
# 2 10.2312 106.1744 46.7822 -9.5462 13.9089 -18.0489
# 3 14.4800 46.7822 95.2972 5.1025 18.4519 4.4867
# 4 -0.0543 -9.5462 5.1025 26.3502 -8.1800 6.7465
# 5 18.3615 13.9089 18.4519 -8.1800 42.9787 -3.8976
# 6 -16.7911 -18.0489 4.4867 6.7465 -3.8976 26.7524
#
#
#
# Elastic Compliance Matrix: (Units=1/GPa)
#
#
# Indices 1 2 3 4 5 6 
#
# 1 0.013880 0.001859 -0.002342 -0.003111 -0.005176 0.010389
# 2 0.001859 0.015476 -0.008622 0.004144 -0.000226 0.011976
# 3 -0.002342 -0.008622 0.016873 -0.005641 -0.005387 -0.009479
# 4 -0.003111 0.004144 -0.005641 0.045880 0.010393 -0.008267
# 5 -0.005176 -0.000226 -0.005387 0.010393 0.029772 -0.000781
# 6 0.010389 0.011976 -0.009479 -0.008267 -0.000781 0.055541
#
#
# Mechanical properties :
#
#
# Convention : Reuss Voigt Hill
#
# Bulk Modulus (GPa) = 35.68897 48.55328 42.12113
# Shear Modulus (GPa) = 24.39351 34.04954 29.22153
#
# Velocity S-wave (km/s) = 3.14905 3.72047 3.44662
# Velocity P-wave (km/s) = 5.26596 6.18011 5.74126
#
# Compressibility (1/GPa) = 0.02801986
#
# Stress axis : x y z
#
# Youngs Moduli (GPa) = 72.04504 64.61498 59.26595
#
# Poissons Ratio (x) = -0.12010 0.13879
# Poissons Ratio (y) = -0.13391 0.51098
# Poissons Ratio (z) = 0.16872 0.55709
#
# Static dielectric constant tensor:
#      x y z
#    x -56.019400 40.491640 3.712180 
#    y 40.491640 -26.206520 -2.589300 
#    z 3.712180 -2.589300 1.691210 
# 
# From -- ./inp_files/346194.got.cif
#   From: 2010.05.17/outbox.cif.g08.bks.cpg/sg2_174_cif.got.tgz:346194.got - 2010.06.03 11:33:40.
