data_PCOD9112161
_publ_section_title
;
Structure prediction by ZEFSAII (Michael W. Deem and Ramdas Pophale) SiO2 
 PCOD9112161
Probable space group: P -1
;
_chemical_formula_sum "Si O2"
_cell_formula_units_Z 15
_cell_length_a 19.582048
_cell_length_b 8.570277
_cell_length_c 16.792309
_cell_angle_alpha 118.950048
_cell_angle_beta 159.027802
_cell_angle_gamma 50.629704
_cell_volume 717.588552
_symmetry_space_group_name_H-M "P -1"
_symmetry_group_IT_number 2
_symmetry_cell_setting 'triclinic'
loop_
_space_group_symop_operation_xyz
x,y,z
-x,-y,-z
loop_
_atom_site_type_symbol
_atom_site_label
_atom_site_fract_x
_atom_site_fract_y
_atom_site_fract_z
Si Si1 0.000000 0.500000 0.500000
Si Si2 0.182480 0.739846 0.135256
Si Si3 0.743747 0.990337 0.419367
Si Si4 0.691934 0.822418 0.104895
Si Si5 0.091026 0.118968 0.783988
Si Si6 0.877830 0.601090 0.720608
Si Si7 0.316565 0.414621 0.334370
Si Si8 0.494015 0.985806 0.677802
O O1 0.121064 0.389357 0.692835
O O2 0.154892 0.249268 0.566364
O O3 0.212318 0.642826 0.232786
O O4 0.442498 0.660939 0.377987
O O5 0.080502 0.638680 0.944710
O O6 0.000000 0.000000 0.000000
O O7 0.694021 0.991932 0.459099
O O8 0.929227 0.040678 0.609599
O O9 0.482948 0.180511 0.148388
O O10 0.809510 0.920183 0.207111
O O11 0.500000 0.000000 0.000000
O O12 0.946146 0.380184 0.700042
O O13 0.309621 0.018476 0.057831
O O14 0.844985 0.580577 0.773240
O O15 0.643826 0.810182 0.480938
O O16 0.388288 0.233413 0.300289
#
# Coordination Sequence:
#
# PCOD9112161 Si02
#       8
#     1   2   2   2   2   2   2   2
#     4  10  20  44  72  90 124 160 202 252 322 380
#     4  11  24  40  63  87 121 174 220 267 324 361
#     4  10  24  42  66  93 129 165 204 261 316 385
#     4   9  21  43  66  95 126 158 202 257 309 387
#     4  11  25  41  64  95 131 166 207 261 322 375
#     4  12  25  39  62  92 129 170 221 269 314 374
#     4  11  25  40  62  91 127 173 224 270 311 374
#     4  11  24  42  61  94 130 167 219 265 314 376
#
# _framework density 20.903344000000001
#
# number of rings (size 3 to 8) (size 9 to 14) (size 15 to 20)
#    0.000    1.333    2.667    1.600    3.733    4.267 
#    0.000    6.667    0.000    0.000    0.000    0.000 
#    0.000    0.000    0.000    0.000    0.000    0.000 
#
# Total GULP energy -83515.789327 kJ/mol
# GULP energy per Si atom -5567.719288 kJ/mol
# Density = 2.085577 g / cm^3
# Si number density = 20.903344 Si / 1000 Ang^3
#
#
#
# Elastic Constant Matrix: (Units=GPa)
#
#
# Indices 1 2 3 4 5 6 
#
# 1 116.8387 32.8761 19.9434 -1.8363 9.4624 1.2364
# 2 32.8761 85.6927 24.8713 -25.7035 -0.6505 -0.5996
# 3 19.9434 24.8713 90.6443 -14.3173 -2.6934 32.3644
# 4 -1.8363 -25.7035 -14.3173 35.3085 17.1060 -5.2871
# 5 9.4624 -0.6505 -2.6934 17.1060 41.3090 -6.2580
# 6 1.2364 -0.5996 32.3644 -5.2871 -6.2580 26.8959
#
#
#
# Elastic Compliance Matrix: (Units=1/GPa)
#
#
# Indices 1 2 3 4 5 6 
#
# 1 0.010076 -0.004050 -0.001827 -0.002368 -0.001380 0.000859
# 2 -0.004050 0.019312 -0.005456 0.014904 -0.003901 0.009204
# 3 -0.001827 -0.005456 0.023499 0.002972 -0.003697 -0.028590
# 4 -0.002368 0.014904 0.002972 0.049975 -0.019394 0.002177
# 5 -0.001380 -0.003901 -0.003697 -0.019394 0.033527 0.008414
# 6 0.000859 0.009204 -0.028590 0.002177 0.008414 0.074135
#
#
# Mechanical properties :
#
#
# Convention : Reuss Voigt Hill
#
# Bulk Modulus (GPa) = 33.09024 49.83971 41.46497
# Shear Modulus (GPa) = 20.55381 35.06834 27.81107
#
# Velocity S-wave (km/s) = 3.13913 4.10035 3.65150
# Velocity P-wave (km/s) = 5.38547 6.80528 6.13658
#
# Compressibility (1/GPa) = 0.03022040
#
# Stress axis : x y z
#
# Youngs Moduli (GPa) = 99.24808 51.78082 42.55526
#
# Poissons Ratio (x) = 0.20971 0.07776
# Poissons Ratio (y) = 0.40195 0.23218
# Poissons Ratio (z) = 0.18135 0.28252
#
# Static dielectric constant tensor:
#      x y z
#    x 1.861840 0.027970 0.052870 
#    y 0.027970 1.726550 0.060790 
#    z 0.052870 0.060790 1.896720 
# 
# From -- ./inp_files/577391.got.cif
#   From: 2010.05.17/outbox.cif.g08.bks.cpg/sg2_289_cif.got.tgz:577391.got - 2010.06.03 11:33:40.
