data_PCOD9112820
_publ_section_title
;
Structure prediction by ZEFSAII (Michael W. Deem and Ramdas Pophale) SiO2 
 PCOD9112820
Probable space group: P 2
;
_chemical_formula_sum "Si O2"
_cell_formula_units_Z 15
_cell_length_a 18.780376
_cell_length_b 5.192590
_cell_length_c 5.366734
_cell_angle_alpha 90.000000
_cell_angle_beta 79.234298
_cell_angle_gamma 90.000000
_cell_volume 514.145934
_symmetry_space_group_name_H-M "P 2"
_symmetry_group_IT_number 3
_symmetry_cell_setting 'monoclinic'
loop_
_space_group_symop_operation_xyz
x,y,z
-x,y,-z
loop_
_atom_site_type_symbol
_atom_site_label
_atom_site_fract_x
_atom_site_fract_y
_atom_site_fract_z
Si Si1 0.374594 0.172780 0.437760
Si Si2 0.500000 0.773791 0.500000
Si Si3 0.098085 0.605979 0.719284
Si Si4 0.414600 0.471237 0.915999
Si Si5 0.843132 0.390923 0.820235
Si Si6 0.273816 0.672677 0.977881
Si Si7 0.776357 0.920638 0.491500
Si Si8 0.981582 0.126426 0.763043
O O1 0.384585 0.349937 0.675839
O O2 0.428873 0.939994 0.480391
O O3 0.287642 0.136041 0.469660
O O4 0.406341 0.279180 0.153467
O O5 0.485549 0.603405 0.755406
O O6 0.145605 0.460103 0.475154
O O7 0.137222 0.891169 0.636778
O O8 0.026349 0.403736 0.735971
O O9 0.120009 0.568551 0.990956
O O10 0.355792 0.691618 0.009116
O O11 0.896409 0.155529 0.820443
O O12 0.760880 0.388539 0.959953
O O13 0.258604 0.752776 0.709072
O O14 0.230233 0.822325 0.220743
O O15 0.000000 0.976574 0.500000
O O16 0.000000 0.973222 0.000000
#
# Coordination Sequence:
#
# PCOD9112820 Si02
#       8
#     2   1   2   2   2   2   2   2
#     4  12  28  48  73 102 131 177 225 271 346 419
#     4  12  30  54  72 100 144 176 218 306 340 408
#     4   8  14  23  44  73 112 155 197 250 312 359
#     4  12  28  48  73 102 131 177 225 271 346 419
#     4   8  14  23  44  73 112 155 197 250 312 359
#     4  10  19  38  62  88 126 169 206 270 328 375
#     4  10  19  38  62  88 126 169 206 270 328 375
#     4   8  12  20  34  68 112 146 194 254 294 358
#
# _framework density 29.174596999999999
#
# number of rings (size 3 to 8) (size 9 to 14) (size 15 to 20)
#    0.000    2.133    1.333    2.000    0.000    3.200 
#    0.000    0.000    0.000    0.000    0.000    0.000 
#    0.000  160.000    0.000    0.000    0.000    0.000 
#
# Total GULP energy -83535.287677 kJ/mol
# GULP energy per Si atom -5569.019178 kJ/mol
# Density = 2.910819 g / cm^3
# Si number density = 29.174597 Si / 1000 Ang^3
#
#
#
# Elastic Constant Matrix: (Units=GPa)
#
#
# Indices 1 2 3 4 5 6 
#
# 1 123.1837 37.0253 20.6727 0.0000 -12.6140 0.0000
# 2 37.0253 81.4351 50.1029 0.0000 4.2540 0.0000
# 3 20.6727 50.1029 222.5399 0.0000 6.2640 0.0000
# 4 0.0000 0.0000 0.0000 41.1627 0.0000 6.4848
# 5 -12.6140 4.2540 6.2640 0.0000 60.9406 0.0000
# 6 0.0000 0.0000 0.0000 6.4848 0.0000 48.1043
#
#
#
# Elastic Compliance Matrix: (Units=1/GPa)
#
#
# Indices 1 2 3 4 5 6 
#
# 1 0.009722 -0.004580 0.000063 0.000000 0.002326 0.000000
# 2 -0.004580 0.016439 -0.003226 0.000000 -0.001764 0.000000
# 3 0.000063 -0.003226 0.005222 0.000000 -0.000299 0.000000
# 4 0.000000 0.000000 0.000000 0.024821 0.000000 -0.003346
# 5 0.002326 -0.001764 -0.000299 0.000000 0.017045 0.000000
# 6 0.000000 0.000000 0.000000 -0.003346 0.000000 0.021239
#
#
# Mechanical properties :
#
#
# Convention : Reuss Voigt Hill
#
# Bulk Modulus (GPa) = 62.90705 71.41785 67.16245
# Shear Modulus (GPa) = 43.37451 51.33205 47.35328
#
# Velocity S-wave (km/s) = 3.85999 4.19916 4.03314
# Velocity P-wave (km/s) = 6.44011 6.93132 6.69023
#
# Compressibility (1/GPa) = 0.01589647
#
# Stress axis : x y z
#
# Youngs Moduli (GPa) = 102.85604 60.83037 191.48035
#
# Poissons Ratio (x) = 0.27863 -0.01199
# Poissons Ratio (y) = 0.47112 0.61771
# Poissons Ratio (z) = -0.00644 0.19624
#
# Static dielectric constant tensor:
#      x y z
#    x 2.548760 0.000000 -0.011860 
#    y 0.000000 2.517970 0.000000 
#    z -0.011860 0.000000 2.176890 
# 
# From -- ./inp_files/3888.got.cif
#   From: 2010.05.17/outbox.cif.g08.bks.cpg/sg3_2_cif.got.tgz:3888.got - 2010.06.03 18:33:08.
