data_PCOD9112124
_publ_section_title
;
Structure prediction by ZEFSAII (Michael W. Deem and Ramdas Pophale) SiO2 
 PCOD9112124
Probable space group: P -1
;
_chemical_formula_sum "Si O2"
_cell_formula_units_Z 14
_cell_length_a 10.813783
_cell_length_b 9.370792
_cell_length_c 7.747002
_cell_angle_alpha 68.770606
_cell_angle_beta 70.502256
_cell_angle_gamma 116.489505
_cell_volume 527.036147
_symmetry_space_group_name_H-M "P -1"
_symmetry_group_IT_number 2
_symmetry_cell_setting 'triclinic'
loop_
_space_group_symop_operation_xyz
x,y,z
-x,-y,-z
loop_
_atom_site_type_symbol
_atom_site_label
_atom_site_fract_x
_atom_site_fract_y
_atom_site_fract_z
Si Si1 0.722147 0.351584 0.176974
Si Si2 0.156145 0.269114 0.166715
Si Si3 0.617373 0.821683 0.759578
Si Si4 0.801356 0.150819 0.977691
Si Si5 0.608980 0.153291 0.689264
Si Si6 0.136124 0.405921 0.490708
Si Si7 0.170601 0.105426 0.692079
O O1 0.583216 0.307770 0.120948
O O2 0.817525 0.283050 0.071284
O O3 0.636679 0.228781 0.445401
O O4 0.826623 0.585762 0.047852
O O5 0.314398 0.271476 0.124193
O O6 0.117135 0.330869 0.336256
O O7 0.000169 0.047229 0.274921
O O8 0.677107 0.030177 0.711417
O O9 0.686332 0.852652 0.520671
O O10 0.835132 0.002664 0.089816
O O11 0.594249 0.997966 0.106239
O O12 0.953947 0.307996 0.705994
O O13 0.722530 0.355330 0.659076
O O14 0.204941 0.309497 0.605101
#
# Coordination Sequence:
#
# PCOD9112124 Si02
#       7
#     2   2   2   2   2   2   2
#     4  11  22  44  73 102 133 184 236 283 340 415
#     4  11  26  45  68 103 139 190 221 282 359 414
#     4  10  20  44  70  97 137 176 236 279 337 419
#     4  11  23  45  73 105 138 179 236 288 343 408
#     4  11  23  46  77 101 132 185 236 292 334 405
#     4  11  26  44  66 106 145 176 230 289 350 408
#     4  11  22  47  69  95 140 186 228 281 342 415
#
# _framework density 26.563644
#
# number of rings (size 3 to 8) (size 9 to 14) (size 15 to 20)
#    0.000    1.143    2.857    4.286    2.000    2.286 
#   12.857    1.429    0.000    0.000    0.000    0.000 
#    0.000    0.000    0.000    0.000    0.000    0.000 
#
# Total GULP energy -78485.225332 kJ/mol
# GULP energy per Si atom -5606.087524 kJ/mol
# Density = 2.650318 g / cm^3
# Si number density = 26.563644 Si / 1000 Ang^3
#
#
#
# Elastic Constant Matrix: (Units=GPa)
#
#
# Indices 1 2 3 4 5 6 
#
# 1 122.7315 45.8019 32.1844 2.9499 -8.5641 -13.8194
# 2 45.8019 168.3197 66.4856 -5.2472 -7.3411 -20.3266
# 3 32.1844 66.4856 171.9735 8.6402 -6.8045 -17.2305
# 4 2.9499 -5.2472 8.6402 53.8149 -4.4948 4.0141
# 5 -8.5641 -7.3411 -6.8045 -4.4948 32.5847 -8.5124
# 6 -13.8194 -20.3266 -17.2305 4.0141 -8.5124 34.5384
#
#
#
# Elastic Compliance Matrix: (Units=1/GPa)
#
#
# Indices 1 2 3 4 5 6 
#
# 1 0.009569 -0.001884 -0.000608 -0.000620 0.002702 0.003154
# 2 -0.001884 0.007865 -0.002381 0.001174 0.001718 0.002974
# 3 -0.000608 -0.002381 0.007214 -0.001434 0.001247 0.002428
# 4 -0.000620 0.001174 -0.001434 0.019274 0.001929 -0.002037
# 5 0.002702 0.001718 0.001247 0.001929 0.035232 0.011173
# 6 0.003154 0.002974 0.002428 -0.002037 0.011173 0.036168
#
#
# Mechanical properties :
#
#
# Convention : Reuss Voigt Hill
#
# Bulk Modulus (GPa) = 67.10955 83.55206 75.33080
# Shear Modulus (GPa) = 38.45104 45.42444 41.93774
#
# Velocity S-wave (km/s) = 3.80874 4.13973 3.97768
# Velocity P-wave (km/s) = 6.68285 7.37371 7.03677
#
# Compressibility (1/GPa) = 0.01490101
#
# Stress axis : x y z
#
# Youngs Moduli (GPa) = 104.50227 127.14594 138.62213
#
# Poissons Ratio (x) = 0.23956 0.08432
# Poissons Ratio (y) = 0.19690 0.33006
# Poissons Ratio (z) = 0.06357 0.30274
#
# Static dielectric constant tensor:
#      x y z
#    x 2.099260 0.043990 0.016570 
#    y 0.043990 2.086820 -0.018520 
#    z 0.016570 -0.018520 2.069960 
# 
# From -- ./inp_files/242904.got.cif
#   From: 2010.05.17/outbox.cif.g08.bks.cpg/sg2_122_cif.got.tgz:242904.got - 2010.06.03 11:33:40.
