data_PCOD9112136
_publ_section_title
;
Structure prediction by ZEFSAII (Michael W. Deem and Ramdas Pophale) SiO2 
 PCOD9112136
Probable space group: P -1
;
_chemical_formula_sum "Si O2"
_cell_formula_units_Z 14
_cell_length_a 14.577128
_cell_length_b 22.206149
_cell_length_c 13.820813
_cell_angle_alpha 156.531606
_cell_angle_beta 149.013675
_cell_angle_gamma 17.594055
_cell_volume 533.097601
_symmetry_space_group_name_H-M "P -1"
_symmetry_group_IT_number 2
_symmetry_cell_setting 'triclinic'
loop_
_space_group_symop_operation_xyz
x,y,z
-x,-y,-z
loop_
_atom_site_type_symbol
_atom_site_label
_atom_site_fract_x
_atom_site_fract_y
_atom_site_fract_z
Si Si1 0.670187 0.927163 0.298339
Si Si2 0.506141 0.355690 0.113490
Si Si3 0.333156 0.036495 0.991171
Si Si4 0.008331 0.425906 0.524321
Si Si5 0.116631 0.815717 0.974956
Si Si6 0.817418 0.719653 0.323618
Si Si7 0.933756 0.090819 0.413751
O O1 0.885862 0.749400 0.325849
O O2 0.805995 0.964831 0.408218
O O3 0.559095 0.866883 0.038953
O O4 0.360690 0.183063 0.452665
O O5 0.373984 0.594293 0.398317
O O6 0.606555 0.323989 0.048331
O O7 0.247544 0.407654 0.951380
O O8 0.802079 0.073703 0.013672
O O9 0.110256 0.328345 0.247766
O O10 0.500000 0.000000 0.000000
O O11 0.161363 0.000316 0.755677
O O12 0.857915 0.380515 0.276504
O O13 0.965397 0.425023 0.600089
O O14 0.070854 0.934587 0.207314
O O15 0.500000 0.000000 0.500000
#
# Coordination Sequence:
#
# PCOD9112136 Si02
#       7
#     2   2   2   2   2   2   2
#     4  11  25  47  74 107 142 191 250 297 369 435
#     4  11  23  41  71 109 151 188 243 304 369 437
#     4  12  28  51  70 103 153 198 244 303 367 443
#     4  11  23  47  76 102 151 196 242 302 370 439
#     4  11  22  43  73 106 152 195 239 302 376 433
#     4  10  20  44  71 111 141 184 244 303 362 430
#     4  12  27  46  72 112 145 193 251 302 367 442
#
# _framework density 26.261610000000001
#
# number of rings (size 3 to 8) (size 9 to 14) (size 15 to 20)
#    0.000    0.857    4.286    3.429    4.000    1.714 
#    5.143    0.000    0.000    0.000    0.000    0.000 
#    0.000    0.000    0.000    0.000    0.000    0.000 
#
# Total GULP energy -78295.952238 kJ/mol
# GULP energy per Si atom -5592.568017 kJ/mol
# Density = 2.620184 g / cm^3
# Si number density = 26.261610 Si / 1000 Ang^3
#
#
#
# Elastic Constant Matrix: (Units=GPa)
#
#
# Indices 1 2 3 4 5 6 
#
# 1 158.6428 13.0139 23.7279 -9.0013 6.9472 -12.8178
# 2 13.0139 25.4123 -2.5356 4.4198 1.6283 -7.1910
# 3 23.7279 -2.5356 144.3873 3.5458 20.2576 -5.1321
# 4 -9.0013 4.4198 3.5458 33.5685 -2.2558 5.1109
# 5 6.9472 1.6283 20.2576 -2.2558 49.5617 -16.3038
# 6 -12.8178 -7.1910 -5.1321 5.1109 -16.3038 38.9523
#
#
#
# Elastic Compliance Matrix: (Units=1/GPa)
#
#
# Indices 1 2 3 4 5 6 
#
# 1 0.007027 -0.003802 -0.001258 0.002345 0.000157 0.001202
# 2 -0.003802 0.045400 0.001830 -0.008479 0.000810 0.008823
# 3 -0.001258 0.001830 0.007637 -0.001569 -0.003135 -0.000176
# 4 0.002345 -0.008479 -0.001569 0.032504 0.000393 -0.005101
# 5 0.000157 0.000810 -0.003135 0.000393 0.024748 0.010095
# 6 0.001202 0.008823 -0.000176 -0.005101 0.010095 0.032568
#
#
# Mechanical properties :
#
#
# Convention : Reuss Voigt Hill
#
# Bulk Modulus (GPa) = 18.65529 44.09498 31.37513
# Shear Modulus (GPa) = 28.70067 44.03225 36.36646
#
# Velocity S-wave (km/s) = 3.30945 4.09917 3.72530
# Velocity P-wave (km/s) = 4.66073 6.26349 5.52058
#
# Compressibility (1/GPa) = 0.05360411
#
# Stress axis : x y z
#
# Youngs Moduli (GPa) = 142.31007 22.02639 130.94513
#
# Poissons Ratio (x) = 0.08374 0.16477
# Poissons Ratio (y) = 0.54103 -0.23966
# Poissons Ratio (z) = 0.17908 -0.04031
#
# Static dielectric constant tensor:
#      x y z
#    x 2.134460 0.074370 -0.016810 
#    y 0.074370 2.177350 0.087280 
#    z -0.016810 0.087280 2.105640 
# 
# From -- ./inp_files/535356.got.cif
#   From: 2010.05.17/outbox.cif.g08.bks.cpg/sg2_268_cif.got.tgz:535356.got - 2010.06.03 11:33:40.
