data_PCOD9112183
_publ_section_title
;
Structure prediction by ZEFSAII (Michael W. Deem and Ramdas Pophale) SiO2 
 PCOD9112183
Probable space group: P -1
;
_chemical_formula_sum "Si O2"
_cell_formula_units_Z 10
_cell_length_a 8.991289
_cell_length_b 11.851436
_cell_length_c 11.219007
_cell_angle_alpha 36.600040
_cell_angle_beta 121.265289
_cell_angle_gamma 141.277771
_cell_volume 427.011233
_symmetry_space_group_name_H-M "P -1"
_symmetry_group_IT_number 2
_symmetry_cell_setting 'triclinic'
loop_
_space_group_symop_operation_xyz
x,y,z
-x,-y,-z
loop_
_atom_site_type_symbol
_atom_site_label
_atom_site_fract_x
_atom_site_fract_y
_atom_site_fract_z
Si Si1 0.527414 0.648114 0.770358
Si Si2 0.047033 0.839161 0.586351
Si Si3 0.729091 0.875438 0.018099
Si Si4 0.557025 0.115578 0.638092
Si Si5 0.440892 0.667807 0.297081
O O1 0.370646 0.704643 0.602120
O O2 0.797706 0.951820 0.635693
O O3 0.500000 0.500000 0.000000
O O4 0.469187 0.446488 0.815610
O O5 0.813596 0.537495 0.708432
O O6 0.256832 0.877407 0.705953
O O7 0.000000 0.000000 0.500000
O O8 0.677038 0.006095 0.795409
O O9 0.663938 0.899340 0.103998
O O10 0.000000 0.000000 0.000000
O O11 0.600130 0.255530 0.661902
O O12 0.500000 0.500000 0.500000
#
# Coordination Sequence:
#
# PCOD9112183 Si02
#       5
#     2   2   2   2   2
#     4  10  24  45  68 102 145 184 232 291 356 412
#     4  10  20  44  73  98 142 179 237 286 347 425
#     4  12  27  45  71 106 145 186 238 292 357 424
#     4  10  25  46  74 106 138 191 237 288 360 412
#     4  12  21  46  76 103 138 188 236 295 350 424
#
# _framework density 23.418586000000001
#
# number of rings (size 3 to 8) (size 9 to 14) (size 15 to 20)
#    1.200    0.000    6.000    0.600    2.800    2.400 
#    3.600    0.000    0.000    0.000    0.000    0.000 
#    0.000    0.000    0.000    0.000    0.000    0.000 
#
# Total GULP energy -55698.277710 kJ/mol
# GULP energy per Si atom -5569.827771 kJ/mol
# Density = 2.336528 g / cm^3
# Si number density = 23.418586 Si / 1000 Ang^3
#
#
#
# Elastic Constant Matrix: (Units=GPa)
#
#
# Indices 1 2 3 4 5 6 
#
# 1 90.1557 52.5131 52.0433 11.4075 10.6737 17.5080
# 2 52.5131 115.0621 11.4776 6.9738 0.6308 17.2106
# 3 52.0433 11.4776 155.1012 36.4175 10.4058 18.7182
# 4 11.4075 6.9738 36.4175 35.9583 6.8711 6.0190
# 5 10.6737 0.6308 10.4058 6.8711 49.8556 11.0985
# 6 17.5080 17.2106 18.7182 6.0190 11.0985 29.3873
#
#
#
# Elastic Compliance Matrix: (Units=1/GPa)
#
#
# Indices 1 2 3 4 5 6 
#
# 1 0.019966 -0.008235 -0.006171 0.002459 -0.002631 -0.002652
# 2 -0.008235 0.013041 0.002790 -0.002382 0.002445 -0.004944
# 3 -0.006171 0.002790 0.010796 -0.009155 0.001040 -0.003352
# 4 0.002459 -0.002382 -0.009155 0.037552 -0.003637 -0.000557
# 5 -0.002631 0.002445 0.001040 -0.003637 0.022737 -0.008369
# 6 -0.002652 -0.004944 -0.003352 -0.000557 -0.008369 0.043913
#
#
# Mechanical properties :
#
#
# Convention : Reuss Voigt Hill
#
# Bulk Modulus (GPa) = 48.61019 65.82078 57.21549
# Shear Modulus (GPa) = 28.07501 39.32589 33.70045
#
# Velocity S-wave (km/s) = 3.46618 4.10232 3.79759
# Velocity P-wave (km/s) = 6.06806 7.11379 6.61163
#
# Compressibility (1/GPa) = 0.02057182
#
# Stress axis : x y z
#
# Youngs Moduli (GPa) = 50.08526 76.67918 92.62833
#
# Poissons Ratio (x) = 0.63143 0.57161
# Poissons Ratio (y) = 0.41243 -0.25843
# Poissons Ratio (z) = 0.30908 -0.21393
#
# Static dielectric constant tensor:
#      x y z
#    x 1.964080 0.021270 -0.059050 
#    y 0.021270 2.040360 0.060920 
#    z -0.059050 0.060920 1.910900 
# 
# From -- ./inp_files/374685.got.cif
#   From: 2010.05.17/outbox.cif.g08.bks.cpg/sg2_188_cif.got.tgz:374685.got - 2010.06.03 11:33:40.
