data_PCOD9112958
_publ_section_title
;
Structure prediction by ZEFSAII (Michael W. Deem and Ramdas Pophale) SiO2 
 PCOD9112958
Probable space group: P 2
;
_chemical_formula_sum "Si O2"
_cell_formula_units_Z 16
_cell_length_a 8.504933
_cell_length_b 12.706595
_cell_length_c 9.005960
_cell_angle_alpha 90.000000
_cell_angle_beta 59.614953
_cell_angle_gamma 90.000000
_cell_volume 839.580923
_symmetry_space_group_name_H-M "P 2"
_symmetry_group_IT_number 3
_symmetry_cell_setting 'monoclinic'
loop_
_space_group_symop_operation_xyz
x,y,z
-x,y,-z
loop_
_atom_site_type_symbol
_atom_site_label
_atom_site_fract_x
_atom_site_fract_y
_atom_site_fract_z
Si Si1 0.794564 0.266540 0.664229
Si Si2 0.694092 0.097332 0.487764
Si Si3 0.661086 0.712589 0.804178
Si Si4 0.966420 0.245647 0.189200
Si Si5 0.960839 0.707995 0.194928
Si Si6 0.663360 0.476757 0.806909
Si Si7 0.311247 0.854451 0.500516
Si Si8 0.956480 0.477140 0.195208
O O1 0.698787 0.168890 0.632542
O O2 0.841229 0.247468 0.814628
O O3 0.685307 0.374694 0.694305
O O4 0.000000 0.276742 0.500000
O O5 0.500000 0.101959 0.500000
O O6 0.842970 0.152991 0.311595
O O7 0.739475 0.976383 0.499132
O O8 0.636228 0.593061 0.754140
O O9 0.669366 0.793411 0.664669
O O10 0.848695 0.712967 0.807365
O O11 0.500000 0.732382 0.000000
O O12 0.874874 0.361349 0.262497
O O13 0.000000 0.234761 0.000000
O O14 0.834128 0.795981 0.326136
O O15 0.871321 0.591728 0.264862
O O16 0.000000 0.719817 0.000000
O O17 0.854913 0.479384 0.803552
O O18 0.500000 0.459694 0.000000
O O19 0.500000 0.851818 0.500000
O O20 0.000000 0.477557 0.000000
#
# Coordination Sequence:
#
# PCOD9112958 Si02
#       8
#     2   2   2   2   2   2   2   2
#     4   9  19  35  55  79 112 145 176 217 269 326
#     4  10  23  40  54  75 108 142 185 235 274 316
#     4  10  21  38  59  85 116 147 184 229 278 334
#     4   9  18  35  58  81 109 143 177 217 267 328
#     4  10  20  36  61  88 115 148 184 225 279 336
#     4   9  18  32  54  84 113 139 173 220 270 325
#     4  11  24  41  57  78 111 150 194 239 279 325
#     4   8  16  31  52  82 115 142 172 214 268 330
#
# _framework density 19.057127999999999
#
# number of rings (size 3 to 8) (size 9 to 14) (size 15 to 20)
#    0.000    2.500    0.000    1.125    0.000   11.500 
#    0.000    4.375    0.000    0.000    0.000    0.000 
#    0.000    0.000    0.000    0.000    0.000    0.000 
#
# Total GULP energy -89177.109558 kJ/mol
# GULP energy per Si atom -5573.569347 kJ/mol
# Density = 1.901375 g / cm^3
# Si number density = 19.057128 Si / 1000 Ang^3
#
#
#
# Elastic Constant Matrix: (Units=GPa)
#
#
# Indices 1 2 3 4 5 6 
#
# 1 41.5015 52.0559 29.9120 0.0000 15.1909 0.0000
# 2 52.0559 216.7202 79.9027 0.0000 7.6110 0.0000
# 3 29.9120 79.9027 77.9446 0.0000 15.4038 0.0000
# 4 0.0000 0.0000 0.0000 -127.1266 0.0000 19.6545
# 5 15.1909 7.6110 15.4038 0.0000 35.5612 0.0000
# 6 0.0000 0.0000 0.0000 19.6545 0.0000 25.8594
#
#
#
# Elastic Compliance Matrix: (Units=1/GPa)
#
#
# Indices 1 2 3 4 5 6 
#
# 1 0.043227 -0.007726 -0.005847 0.000000 -0.014279 0.000000
# 2 -0.007726 0.008914 -0.007052 0.000000 0.004447 0.000000
# 3 -0.005847 -0.007052 0.023524 0.000000 -0.006183 0.000000
# 4 0.000000 0.000000 0.000000 -0.007039 0.000000 0.005350
# 5 -0.014279 0.004447 -0.006183 0.000000 0.035947 0.000000
# 6 0.000000 0.000000 0.000000 0.005350 0.000000 0.034604
#
#
# Mechanical properties :
#
#
# Convention : Reuss Voigt Hill
#
# Bulk Modulus (GPa) = 29.05616 73.32304 51.18960
# Shear Modulus (GPa) = 26.05561 -1.52148 12.26707
#
# Velocity S-wave (km/s) = 3.70163 -0.89449 2.53988
# Velocity P-wave (km/s) = 5.79218 6.12308 5.95993
#
# Compressibility (1/GPa) = 0.03441610
#
# Stress axis : x y z
#
# Youngs Moduli (GPa) = 23.13370 112.18739 42.50984
#
# Poissons Ratio (x) = 0.86675 0.24855
# Poissons Ratio (y) = 0.17873 0.29976
# Poissons Ratio (z) = 0.13526 0.79109
#
# Static dielectric constant tensor:
#      x y z
#    x 1.682850 0.000000 0.005430 
#    y 0.000000 1.701320 0.000000 
#    z 0.005430 0.000000 1.668250 
# 
# From -- ./inp_files/5978.got.cif
#   From: 2010.05.17/outbox.cif.g08.bks.cpg/sg3_3_cif.got.tgz:5978.got - 2010.06.03 18:33:08.
