data_PCOD9112041
_publ_section_title
;
Structure prediction by ZEFSAII (Michael W. Deem and Ramdas Pophale) SiO2 
 PCOD9112041
Probable space group: P -1
;
_chemical_formula_sum "Si O2"
_cell_formula_units_Z 16
_cell_length_a 9.192065
_cell_length_b 5.418601
_cell_length_c 19.139735
_cell_angle_alpha 116.393068
_cell_angle_beta 124.384585
_cell_angle_gamma 72.972795
_cell_volume 703.605848
_symmetry_space_group_name_H-M "P -1"
_symmetry_group_IT_number 2
_symmetry_cell_setting 'triclinic'
loop_
_space_group_symop_operation_xyz
x,y,z
-x,-y,-z
loop_
_atom_site_type_symbol
_atom_site_label
_atom_site_fract_x
_atom_site_fract_y
_atom_site_fract_z
Si Si1 0.933495 0.319341 0.022964
Si Si2 0.569366 0.179324 0.476375
Si Si3 0.543134 0.540082 0.920701
Si Si4 0.781822 0.531721 0.782582
Si Si5 0.589026 0.939832 0.112745
Si Si6 0.956551 0.164998 0.266996
Si Si7 0.921893 0.255337 0.645087
Si Si8 0.673894 0.009217 0.733292
O O1 0.021921 0.432955 0.131187
O O2 0.727142 0.374047 0.966162
O O3 0.000000 0.500000 0.000000
O O4 0.000000 0.000000 0.000000
O O5 0.500000 0.500000 0.500000
O O6 0.780478 0.176643 0.539131
O O7 0.500000 0.000000 0.500000
O O8 0.484006 0.059644 0.368868
O O9 0.411892 0.288917 0.854355
O O10 0.525894 0.769395 0.883644
O O11 0.524782 0.751414 0.008100
O O12 0.800370 0.383592 0.693213
O O13 0.684182 0.333405 0.783011
O O14 0.679387 0.823479 0.779561
O O15 0.786089 0.045392 0.169868
O O16 0.959957 0.495277 0.313771
O O17 0.978254 0.011564 0.327920
O O18 0.135113 0.077133 0.261448
#
# Coordination Sequence:
#
# PCOD9112041 Si02
#       8
#     2   2   2   2   2   2   2   2
#     4  12  25  40  57  76 103 143 186 237 271 309
#     4  12  16  28  41  70 104 144 177 191 255 311
#     4  10  21  37  53  76 100 130 177 222 285 316
#     4  10  19  32  47  67  92 132 180 208 254 303
#     4  10  20  33  55  76 101 134 170 226 265 329
#     4  10  17  27  41  68  96 131 171 193 245 296
#     4  10  18  27  45  68 103 143 166 205 244 323
#     4  10  18  28  47  69 103 143 166 208 246 324
#
# _framework density 22.740005
#
# number of rings (size 3 to 8) (size 9 to 14) (size 15 to 20)
#    0.000    1.500    5.000    3.750    0.000    6.000 
#    0.000    0.000    0.000    0.000    0.000    0.000 
#    0.000    0.000    0.000  130.500    0.000    0.000 
#
# Total GULP energy -89271.593919 kJ/mol
# GULP energy per Si atom -5579.474620 kJ/mol
# Density = 2.268825 g / cm^3
# Si number density = 22.740005 Si / 1000 Ang^3
#
#
#
# Elastic Constant Matrix: (Units=GPa)
#
#
# Indices 1 2 3 4 5 6 
#
# 1 29.1380 35.3229 22.6244 3.9595 12.1260 9.9757
# 2 35.3229 233.7303 31.7446 0.6202 12.4601 37.9858
# 3 22.6244 31.7446 119.1384 -3.2156 23.0980 5.8351
# 4 3.9595 0.6202 -3.2156 34.7752 11.4770 4.3946
# 5 12.1260 12.4601 23.0980 11.4770 16.3657 8.0090
# 6 9.9757 37.9858 5.8351 4.3946 8.0090 37.9823
#
#
#
# Elastic Compliance Matrix: (Units=1/GPa)
#
#
# Indices 1 2 3 4 5 6 
#
# 1 0.060251 -0.006533 -0.001177 0.007361 -0.042701 -0.000957
# 2 -0.006533 0.005978 -0.000919 -0.000190 0.004155 -0.004976
# 3 -0.001177 -0.000919 0.014266 0.010051 -0.027398 0.003651
# 4 0.007361 -0.000190 0.010051 0.046028 -0.053031 0.002569
# 5 -0.042701 0.004155 -0.027398 -0.053031 0.174976 -0.019491
# 6 -0.000957 -0.004976 0.003651 0.002569 -0.019491 0.034808
#
#
# Mechanical properties :
#
#
# Convention : Reuss Voigt Hill
#
# Bulk Modulus (GPa) = 15.81342 62.37673 39.09508
# Shear Modulus (GPa) = 13.34600 37.31230 25.32915
#
# Velocity S-wave (km/s) = 2.42522 4.05510 3.34107
# Velocity P-wave (km/s) = 3.84855 7.02959 5.66685
#
# Compressibility (1/GPa) = 0.06323743
#
# Stress axis : x y z
#
# Youngs Moduli (GPa) = 16.59727 167.27127 70.09541
#
# Poissons Ratio (x) = 1.09283 0.08247
# Poissons Ratio (y) = 0.10843 0.06443
# Poissons Ratio (z) = 0.01953 0.15376
#
# Static dielectric constant tensor:
#      x y z
#    x 1.925280 0.048500 0.021200 
#    y 0.048500 1.941210 -0.006240 
#    z 0.021200 -0.006240 1.846920 
# 
# From -- ./inp_files/609105.got.cif
#   From: 2010.05.17/outbox.cif.g08.bks.cpg/sg2_305_cif.got.tgz:609105.got - 2010.06.03 11:33:40.
