data_PCOD9112959
_publ_section_title
;
Structure prediction by ZEFSAII (Michael W. Deem and Ramdas Pophale) SiO2 
 PCOD9112959
Probable space group: P 2
;
_chemical_formula_sum "Si O2"
_cell_formula_units_Z 15
_cell_length_a 8.201921
_cell_length_b 16.984542
_cell_length_c 5.274828
_cell_angle_alpha 90.000000
_cell_angle_beta 103.785717
_cell_angle_gamma 90.000000
_cell_volume 713.647235
_symmetry_space_group_name_H-M "P 2"
_symmetry_group_IT_number 3
_symmetry_cell_setting 'monoclinic'
loop_
_space_group_symop_operation_xyz
x,y,z
-x,y,-z
loop_
_atom_site_type_symbol
_atom_site_label
_atom_site_fract_x
_atom_site_fract_y
_atom_site_fract_z
Si Si1 0.654604 0.955460 0.930946
Si Si2 0.296606 0.232782 0.431121
Si Si3 0.116083 0.489765 0.793156
Si Si4 0.814068 0.823355 0.318475
Si Si5 0.500000 0.834077 0.500000
Si Si6 0.113317 0.660298 0.796673
Si Si7 0.701631 0.326863 0.070975
Si Si8 0.111652 0.068595 0.291647
O O1 0.551655 0.888306 0.751549
O O2 0.761186 0.001318 0.760271
O O3 0.500000 0.004853 0.000000
O O4 0.773007 0.906222 0.165760
O O5 0.500000 0.226568 0.500000
O O6 0.242538 0.273412 0.672480
O O7 0.216357 0.147058 0.385452
O O8 0.244376 0.287189 0.173583
O O9 0.205651 0.575834 0.811133
O O10 0.234715 0.414865 0.862634
O O11 0.000000 0.482660 0.500000
O O12 0.000000 0.488045 0.000000
O O13 0.675615 0.798616 0.477035
O O14 0.803446 0.745751 0.139347
O O15 0.000000 0.831044 0.500000
O O16 0.000000 0.665160 0.500000
O O17 0.000000 0.651930 0.000000
O O18 0.500000 0.327324 0.000000
O O19 0.000000 0.050135 0.500000
O O20 0.000000 0.082987 0.000000
#
# Coordination Sequence:
#
# PCOD9112959 Si02
#       8
#     2   2   2   2   1   2   2   2
#     4  10  26  45  65  93 130 176 220 272 337 407
#     4  10  23  43  65  86 127 173 211 258 327 394
#     4  10  20  36  62  93 126 165 209 259 318 383
#     4  10  23  42  70  93 133 176 224 280 332 399
#     4  10  24  42  64  96 124 168 232 260 338 402
#     4   9  20  37  62  94 127 171 214 259 326 390
#     4  10  21  39  63  92 124 168 212 257 322 390
#     4  12  29  43  66 100 130 162 222 279 331 394
#
# _framework density 21.018789000000002
#
# number of rings (size 3 to 8) (size 9 to 14) (size 15 to 20)
#    0.000    1.867    0.000    1.600   10.267    4.800 
#    0.000    2.000    4.400    0.000    0.000    0.000 
#    0.000    0.000    0.000    0.000    0.000    0.000 
#
# Total GULP energy -83662.716370 kJ/mol
# GULP energy per Si atom -5577.514425 kJ/mol
# Density = 2.097095 g / cm^3
# Si number density = 21.018789 Si / 1000 Ang^3
#
#
#
# Elastic Constant Matrix: (Units=GPa)
#
#
# Indices 1 2 3 4 5 6 
#
# 1 87.4754 47.6126 42.4997 0.0000 -11.7272 0.0000
# 2 47.6126 131.4305 39.9652 0.0000 -4.4655 0.0000
# 3 42.4997 39.9652 131.1198 0.0000 -19.5237 0.0000
# 4 0.0000 0.0000 0.0000 -2.1142 0.0000 -50.8379
# 5 -11.7272 -4.4655 -19.5237 0.0000 26.0955 0.0000
# 6 0.0000 0.0000 0.0000 -50.8379 0.0000 -49.1025
#
#
#
# Elastic Compliance Matrix: (Units=1/GPa)
#
#
# Indices 1 2 3 4 5 6 
#
# 1 0.016088 -0.004726 -0.003171 0.000000 0.004048 0.000000
# 2 -0.004726 0.009781 -0.001706 0.000000 -0.001727 0.000000
# 3 -0.003171 -0.001706 0.010037 0.000000 0.005792 0.000000
# 4 0.000000 0.000000 0.000000 0.019794 0.000000 -0.020494
# 5 0.004048 -0.001727 0.005792 0.000000 0.044178 0.000000
# 6 0.000000 0.000000 0.000000 -0.020494 0.000000 0.000852
#
#
# Mechanical properties :
#
#
# Convention : Reuss Voigt Hill
#
# Bulk Modulus (GPa) = 59.88699 67.79787 63.84243
# Shear Modulus (GPa) = 39.83947 9.63898 24.73923
#
# Velocity S-wave (km/s) = 4.35837 2.14379 3.43447
# Velocity P-wave (km/s) = 7.34038 6.20110 6.79466
#
# Compressibility (1/GPa) = 0.01669812
#
# Stress axis : x y z
#
# Youngs Moduli (GPa) = 62.15948 102.23977 99.63066
#
# Poissons Ratio (x) = 0.48320 0.31594
# Poissons Ratio (y) = 0.29378 0.17002
# Poissons Ratio (z) = 0.19712 0.17447
#
# Static dielectric constant tensor:
#      x y z
#    x 1.889280 0.000000 -0.078130 
#    y 0.000000 1.779210 0.000000 
#    z -0.078130 0.000000 1.804800 
# 
# From -- ./inp_files/1607.got.cif
#   From: 2010.05.17/outbox.cif.g08.bks.cpg/sg3_1_cif.got.tgz:1607.got - 2010.06.03 18:33:08.
