data_PCOD9112841
_publ_section_title
;
Structure prediction by ZEFSAII (Michael W. Deem and Ramdas Pophale) SiO2 
 PCOD9112841
Probable space group: P 2
;
_chemical_formula_sum "Si O2"
_cell_formula_units_Z 12
_cell_length_a 9.648977
_cell_length_b 7.410077
_cell_length_c 9.789431
_cell_angle_alpha 90.000000
_cell_angle_beta 58.903579
_cell_angle_gamma 90.000000
_cell_volume 599.359033
_symmetry_space_group_name_H-M "P 2"
_symmetry_group_IT_number 3
_symmetry_cell_setting 'monoclinic'
loop_
_space_group_symop_operation_xyz
x,y,z
-x,y,-z
loop_
_atom_site_type_symbol
_atom_site_label
_atom_site_fract_x
_atom_site_fract_y
_atom_site_fract_z
Si Si1 0.584389 0.136200 0.586261
Si Si2 0.812188 0.324579 0.847184
Si Si3 0.658388 0.457069 0.199635
Si Si4 0.334130 0.971268 0.167764
Si Si5 0.172258 0.443730 0.609414
Si Si6 0.659484 0.595310 0.735345
O O1 0.500000 0.040115 0.500000
O O2 0.455687 0.290154 0.696157
O O3 0.740667 0.250818 0.461261
O O4 0.630199 0.019076 0.692552
O O5 0.679745 0.415727 0.815480
O O6 0.983070 0.405310 0.714231
O O7 0.793738 0.111237 0.830631
O O8 0.770917 0.385268 0.021095
O O9 0.758617 0.514212 0.281564
O O10 0.528689 0.604125 0.212816
O O11 0.287953 0.761959 0.198026
O O12 0.500000 0.994378 0.000000
O O13 0.231016 0.568981 0.454885
#
# Coordination Sequence:
#
# PCOD9112841 Si02
#       6
#     2   2   2   2   2   2
#     4   9  19  36  59  87 117 157 205 247 298 365
#     4  12  21  40  62  93 126 159 202 263 317 374
#     4  10  19  40  66  86 119 167 211 256 302 370
#     4  12  22  38  66  94 121 167 212 259 310 371
#     4  10  22  39  61  91 125 164 202 253 324 365
#     4  11  23  39  63  90 123 161 215 253 306 376
#
# _framework density 20.021388000000002
#
# number of rings (size 3 to 8) (size 9 to 14) (size 15 to 20)
#    0.000    1.333    5.000    4.000    0.000    1.333 
#    6.000    0.000    0.000    2.000    0.000    0.000 
#    0.000    0.000    0.000    0.000    0.000    0.000 
#
# Total GULP energy -67003.805455 kJ/mol
# GULP energy per Si atom -5583.650455 kJ/mol
# Density = 1.997582 g / cm^3
# Si number density = 20.021388 Si / 1000 Ang^3
#
#
#
# Elastic Constant Matrix: (Units=GPa)
#
#
# Indices 1 2 3 4 5 6 
#
# 1 55.4798 4.2476 30.3617 0.0000 -5.8895 0.0000
# 2 4.2476 59.8221 7.7633 0.0000 -3.2569 0.0000
# 3 30.3617 7.7633 110.9450 0.0000 3.7046 0.0000
# 4 0.0000 0.0000 0.0000 24.7969 0.0000 4.4660
# 5 -5.8895 -3.2569 3.7046 0.0000 33.7770 0.0000
# 6 0.0000 0.0000 0.0000 4.4660 0.0000 17.0645
#
#
#
# Elastic Compliance Matrix: (Units=1/GPa)
#
#
# Indices 1 2 3 4 5 6 
#
# 1 0.021872 -0.000520 -0.006097 0.000000 0.004432 0.000000
# 2 -0.000520 0.016987 -0.001102 0.000000 0.001668 0.000000
# 3 -0.006097 -0.001102 0.010838 0.000000 -0.002358 0.000000
# 4 0.000000 0.000000 0.000000 0.042322 0.000000 -0.011076
# 5 0.004432 0.001668 -0.002358 0.000000 0.030798 0.000000
# 6 0.000000 0.000000 0.000000 -0.011076 0.000000 0.061500
#
#
# Mechanical properties :
#
#
# Convention : Reuss Voigt Hill
#
# Bulk Modulus (GPa) = 29.19060 34.55468 31.87264
# Shear Modulus (GPa) = 23.67705 27.38597 25.53151
#
# Velocity S-wave (km/s) = 3.44261 3.70244 3.57489
# Velocity P-wave (km/s) = 5.51484 5.96437 5.74400
#
# Compressibility (1/GPa) = 0.03425761
#
# Stress axis : x y z
#
# Youngs Moduli (GPa) = 45.72147 58.86851 92.26906
#
# Poissons Ratio (x) = 0.03064 0.56257
# Poissons Ratio (y) = 0.02379 0.10167
# Poissons Ratio (z) = 0.27877 0.06487
#
# Static dielectric constant tensor:
#      x y z
#    x 1.723790 0.000000 0.025170 
#    y 0.000000 1.729910 0.000000 
#    z 0.025170 0.000000 1.716680 
# 
# From -- ./inp_files/5056.got.cif
#   From: 2010.05.17/outbox.cif.g08.bks.cpg/sg3_3_cif.got.tgz:5056.got - 2010.06.03 18:33:08.
