data_PCOD9112443
_publ_section_title
;
Structure prediction by ZEFSAII (Michael W. Deem and Ramdas Pophale) SiO2 
 PCOD9112443
Probable space group: P 2
;
_chemical_formula_sum "Si O2"
_cell_formula_units_Z 16
_cell_length_a 7.973610
_cell_length_b 19.298770
_cell_length_c 5.397673
_cell_angle_alpha 90.000000
_cell_angle_beta 123.396154
_cell_angle_gamma 90.000000
_cell_volume 693.454150
_symmetry_space_group_name_H-M "P 2"
_symmetry_group_IT_number 3
_symmetry_cell_setting 'monoclinic'
loop_
_space_group_symop_operation_xyz
x,y,z
-x,y,-z
loop_
_atom_site_type_symbol
_atom_site_label
_atom_site_fract_x
_atom_site_fract_y
_atom_site_fract_z
Si Si1 0.123735 0.468910 0.356161
Si Si2 0.272184 0.324310 0.357555
Si Si3 0.364533 0.909082 0.637760
Si Si4 0.716724 0.116585 0.931070
Si Si5 0.633935 0.607895 0.359352
Si Si6 0.364502 0.758768 0.640498
Si Si7 0.270817 0.272609 0.859783
Si Si8 0.252507 0.060353 0.549173
O O1 0.271374 0.404208 0.434655
O O2 0.225629 0.541689 0.503721
O O3 0.000000 0.449414 0.500000
O O4 0.000000 0.476495 0.000000
O O5 0.500000 0.298651 0.500000
O O6 0.185561 0.278665 0.513014
O O7 0.180769 0.318095 0.008236
O O8 0.500000 0.908077 0.500000
O O9 0.258026 0.833731 0.559542
O O10 0.236162 0.978295 0.501374
O O11 0.500000 0.916304 0.000000
O O12 0.491677 0.083538 0.745843
O O13 0.808814 0.105073 0.737150
O O14 0.716057 0.195562 0.020369
O O15 0.822763 0.076512 0.238598
O O16 0.500000 0.606915 0.500000
O O17 0.740643 0.683663 0.441934
O O18 0.500000 0.602339 0.000000
O O19 0.500000 0.758715 0.500000
O O20 0.500000 0.758887 0.000000
O O21 0.500000 0.298012 0.000000
#
# Coordination Sequence:
#
# PCOD9112443 Si02
#       8
#     2   2   2   2   2   2   2   2
#     4  12  25  41  61  85 113 143 181 237 287 330
#     4  10  22  36  54  77 102 140 180 221 267 337
#     4  10  14  22  32  55  87 130 172 200 245 307
#     4  10  16  22  34  55  87 131 174 205 245 311
#     4  10  20  38  61  84 110 147 186 226 270 335
#     4   8  16  26  44  67  95 130 179 208 246 309
#     4  10  18  29  46  67  98 133 181 213 262 311
#     4  10  15  20  32  52  88 130 173 202 246 306
#
# _framework density 23.072903
#
# number of rings (size 3 to 8) (size 9 to 14) (size 15 to 20)
#    0.000    2.000    3.750    2.625    3.500    1.500 
#    0.000    0.000    0.000    0.000    0.000    0.000 
#    0.000    0.000    0.000   22.500    5.000    1.000 
#
# Total GULP energy -89265.741174 kJ/mol
# GULP energy per Si atom -5579.108823 kJ/mol
# Density = 2.302039 g / cm^3
# Si number density = 23.072903 Si / 1000 Ang^3
#
#
#
# Elastic Constant Matrix: (Units=GPa)
#
#
# Indices 1 2 3 4 5 6 
#
# 1 74.6171 16.7614 43.9953 0.0000 -40.4574 0.0000
# 2 16.7614 181.8133 28.3015 0.0000 -17.7693 0.0000
# 3 43.9953 28.3015 159.2128 0.0000 -45.5657 0.0000
# 4 0.0000 0.0000 0.0000 27.4323 0.0000 -17.1169
# 5 -40.4574 -17.7693 -45.5657 0.0000 51.9818 0.0000
# 6 0.0000 0.0000 0.0000 -17.1169 0.0000 4.7451
#
#
#
# Elastic Compliance Matrix: (Units=1/GPa)
#
#
# Indices 1 2 3 4 5 6 
#
# 1 0.023532 -0.000273 -0.001654 0.000000 0.016772 0.000000
# 2 -0.000273 0.005738 -0.000593 0.000000 0.001230 0.000000
# 3 -0.001654 -0.000593 0.008566 0.000000 0.006019 0.000000
# 4 0.000000 0.000000 0.000000 -0.029143 0.000000 -0.105128
# 5 0.016772 0.001230 0.006019 0.000000 0.037987 0.000000
# 6 0.000000 0.000000 0.000000 -0.105128 0.000000 -0.168483
#
#
# Mechanical properties :
#
#
# Convention : Reuss Voigt Hill
#
# Bulk Modulus (GPa) = 30.49119 65.97328 48.23223
# Shear Modulus (GPa) = -47.24434 38.60416 -4.32009
#
# Velocity S-wave (km/s) = -4.52996 4.09484 -1.36983
# Velocity P-wave (km/s) = 3.75725 7.14230 4.29508
#
# Compressibility (1/GPa) = 0.03279636
#
# Stress axis : x y z
#
# Youngs Moduli (GPa) = 42.49542 174.28525 116.74321
#
# Poissons Ratio (x) = 0.04754 0.19311
# Poissons Ratio (y) = 0.01159 0.06919
# Poissons Ratio (z) = 0.07029 0.10329
#
# Static dielectric constant tensor:
#      x y z
#    x 1.860960 0.000000 -0.001810 
#    y 0.000000 1.858440 0.000000 
#    z -0.001810 0.000000 1.957870 
# 
# From -- ./inp_files/1737.got.cif
#   From: 2010.05.17/outbox.cif.g08.bks.cpg/sg3_1_cif.got.tgz:1737.got - 2010.06.03 18:33:08.
