data_PCOD9112967
_publ_section_title
;
Structure prediction by ZEFSAII (Michael W. Deem and Ramdas Pophale) SiO2 
 PCOD9112967
Probable space group: P 2
;
_chemical_formula_sum "Si O2"
_cell_formula_units_Z 14
_cell_length_a 8.637689
_cell_length_b 7.535077
_cell_length_c 14.908886
_cell_angle_alpha 90.000000
_cell_angle_beta 41.486832
_cell_angle_gamma 90.000000
_cell_volume 642.809344
_symmetry_space_group_name_H-M "P 2"
_symmetry_group_IT_number 3
_symmetry_cell_setting 'monoclinic'
loop_
_space_group_symop_operation_xyz
x,y,z
-x,y,-z
loop_
_atom_site_type_symbol
_atom_site_label
_atom_site_fract_x
_atom_site_fract_y
_atom_site_fract_z
Si Si1 0.165967 0.855550 0.343925
Si Si2 0.479957 0.329779 0.406490
Si Si3 0.669823 0.552799 0.012412
Si Si4 0.019011 0.162742 0.644458
Si Si5 0.620678 0.964453 0.045712
Si Si6 0.996635 0.254895 0.146780
Si Si7 0.712267 0.458004 0.684622
O O1 0.168993 0.644580 0.340731
O O2 0.000000 0.909755 0.500000
O O3 0.035300 0.955786 0.321332
O O4 0.425389 0.939381 0.210827
O O5 0.500000 0.402510 0.500000
O O6 0.359890 0.461136 0.387864
O O7 0.716898 0.252829 0.260847
O O8 0.287001 0.178417 0.501870
O O9 0.708828 0.762638 0.998928
O O10 0.910946 0.449772 0.914315
O O11 0.500000 0.520301 0.000000
O O12 0.521876 0.467700 0.156778
O O13 0.968157 0.244775 0.761943
O O14 0.861228 0.284295 0.646508
O O15 0.829685 0.105948 0.970006
O O16 0.500000 0.008409 0.000000
#
# Coordination Sequence:
#
# PCOD9112967 Si02
#       7
#     2   2   2   2   2   2   2
#     4  11  22  36  64  97 122 158 219 273 314 365
#     4  10  24  41  62  95 136 175 216 264 330 397
#     4  10  20  36  65  98 123 165 220 271 321 383
#     4  11  21  39  65  93 128 170 222 267 316 384
#     4  10  20  37  62  96 127 163 217 267 317 383
#     4  11  21  39  64  95 134 175 206 266 335 388
#     4  11  22  41  66  92 126 170 220 270 318 381
#
# _framework density 21.779399000000002
#
# number of rings (size 3 to 8) (size 9 to 14) (size 15 to 20)
#    0.000    1.429    2.857    3.429    0.000    0.571 
#    0.000    4.286    0.000   18.857    0.000    0.000 
#    0.000    0.000    0.000    0.000    0.000    0.000 
#
# Total GULP energy -77939.611060 kJ/mol
# GULP energy per Si atom -5567.115076 kJ/mol
# Density = 2.172983 g / cm^3
# Si number density = 21.779399 Si / 1000 Ang^3
#
#
#
# Elastic Constant Matrix: (Units=GPa)
#
#
# Indices 1 2 3 4 5 6 
#
# 1 59.4955 27.7183 4.9133 0.0000 7.3872 0.0000
# 2 27.7183 108.3962 55.6172 0.0000 -24.3027 0.0000
# 3 4.9133 55.6172 148.9800 0.0000 -9.3381 0.0000
# 4 0.0000 0.0000 0.0000 25.3388 0.0000 7.7078
# 5 7.3872 -24.3027 -9.3381 0.0000 25.3209 0.0000
# 6 0.0000 0.0000 0.0000 7.7078 0.0000 6.0169
#
#
#
# Elastic Compliance Matrix: (Units=1/GPa)
#
#
# Indices 1 2 3 4 5 6 
#
# 1 0.023807 -0.010988 0.002273 0.000000 -0.016653 0.000000
# 2 -0.010988 0.019333 -0.005621 0.000000 0.019689 0.000000
# 3 0.002273 -0.005621 0.008554 0.000000 -0.002904 0.000000
# 4 0.000000 0.000000 0.000000 0.064663 0.000000 -0.082835
# 5 -0.016653 0.019689 -0.002904 0.000000 0.062178 0.000000
# 6 0.000000 0.000000 0.000000 -0.082835 0.000000 0.272313
#
#
# Mechanical properties :
#
#
# Convention : Reuss Voigt Hill
#
# Bulk Modulus (GPa) = 43.43547 54.81881 49.12714
# Shear Modulus (GPa) = 10.26287 26.57685 18.41986
#
# Velocity S-wave (km/s) = 2.17311 3.49703 2.91133
# Velocity P-wave (km/s) = 5.12672 6.44440 5.82295
#
# Compressibility (1/GPa) = 0.02302266
#
# Stress axis : x y z
#
# Youngs Moduli (GPa) = 42.00438 51.72377 116.90683
#
# Poissons Ratio (x) = 0.56832 -0.26572
# Poissons Ratio (y) = 0.46153 0.65715
# Poissons Ratio (z) = -0.09547 0.29074
#
# Static dielectric constant tensor:
#      x y z
#    x 1.856390 0.000000 0.017560 
#    y 0.000000 1.758730 0.000000 
#    z 0.017560 0.000000 1.909230 
# 
# From -- ./inp_files/15023.got.cif
#   From: 2010.05.17/outbox.cif.g08.bks.cpg/sg3_8_cif.got.tgz:15023.got - 2010.06.03 18:33:08.
