data_PCOD9112611
_publ_section_title
;
Structure prediction by ZEFSAII (Michael W. Deem and Ramdas Pophale) SiO2 
 PCOD9112611
Probable space group: P 2
;
_chemical_formula_sum "Si O2"
_cell_formula_units_Z 14
_cell_length_a 11.183378
_cell_length_b 9.758351
_cell_length_c 7.921650
_cell_angle_alpha 90.000000
_cell_angle_beta 54.383206
_cell_angle_gamma 90.000000
_cell_volume 702.778220
_symmetry_space_group_name_H-M "P 2"
_symmetry_group_IT_number 3
_symmetry_cell_setting 'monoclinic'
loop_
_space_group_symop_operation_xyz
x,y,z
-x,y,-z
loop_
_atom_site_type_symbol
_atom_site_label
_atom_site_fract_x
_atom_site_fract_y
_atom_site_fract_z
Si Si1 0.177407 0.604730 0.833644
Si Si2 0.820671 0.409418 0.458789
Si Si3 0.845251 0.496271 0.800462
Si Si4 0.148348 0.814749 0.297323
Si Si5 0.661919 0.150678 0.437345
Si Si6 0.579113 0.925115 0.758836
Si Si7 0.721540 0.897892 0.156266
O O1 0.225714 0.535944 0.620903
O O2 0.220833 0.763318 0.798117
O O3 0.231689 0.517060 0.953668
O O4 0.000000 0.599121 0.000000
O O5 0.772100 0.429328 0.694040
O O6 0.760974 0.276941 0.411623
O O7 0.999120 0.418107 0.309465
O O8 0.875074 0.655682 0.729091
O O9 0.000000 0.869732 0.500000
O O10 0.285216 0.827551 0.311151
O O11 0.192008 0.896063 0.092236
O O12 0.500000 0.191266 0.500000
O O13 0.637204 0.061356 0.625149
O O14 0.729800 0.040843 0.248651
O O15 0.450126 0.870824 0.744783
O O16 0.500000 0.955337 0.000000
#
# Coordination Sequence:
#
# PCOD9112611 Si02
#       7
#     2   2   2   2   2   2   2
#     4   9  19  36  61  92 122 158 203 265 319 364
#     4  10  19  38  60  81 124 163 197 254 311 368
#     4   9  19  37  60  86 123 160 198 257 315 367
#     4  10  18  36  63  96 122 152 206 264 318 366
#     4  10  22  41  58  87 122 169 215 250 306 380
#     4   9  20  39  61  85 123 165 201 260 312 368
#     4   9  20  38  61  88 126 163 205 258 312 372
#
# _framework density 19.920936000000001
#
# number of rings (size 3 to 8) (size 9 to 14) (size 15 to 20)
#    0.000    2.571    1.429    0.000    2.000    0.000 
#   12.857    5.000    0.000    0.000    0.000    0.000 
#    0.000    0.000    0.000    0.000    0.000    0.000 
#
# Total GULP energy -78025.742572 kJ/mol
# GULP energy per Si atom -5573.267327 kJ/mol
# Density = 1.987559 g / cm^3
# Si number density = 19.920936 Si / 1000 Ang^3
#
#
#
# Elastic Constant Matrix: (Units=GPa)
#
#
# Indices 1 2 3 4 5 6 
#
# 1 81.8478 69.2847 56.5606 0.0000 17.2092 0.0000
# 2 69.2847 96.6234 39.0993 0.0000 4.3630 0.0000
# 3 56.5606 39.0993 72.2989 0.0000 8.9080 0.0000
# 4 0.0000 0.0000 0.0000 17.4842 0.0000 -7.1165
# 5 17.2092 4.3630 8.9080 0.0000 30.1103 0.0000
# 6 0.0000 0.0000 0.0000 -7.1165 0.0000 39.8798
#
#
#
# Elastic Compliance Matrix: (Units=1/GPa)
#
#
# Indices 1 2 3 4 5 6 
#
# 1 0.071536 -0.036831 -0.032863 0.000000 -0.025826 0.000000
# 2 -0.036831 0.032213 0.009729 0.000000 0.013504 0.000000
# 3 -0.032863 0.009729 0.033355 0.000000 0.007505 0.000000
# 4 0.000000 0.000000 0.000000 0.061674 0.000000 0.011006
# 5 -0.025826 0.013504 0.007505 0.000000 0.043795 0.000000
# 6 0.000000 0.000000 0.000000 0.011006 0.000000 0.027039
#
#
# Mechanical properties :
#
#
# Convention : Reuss Voigt Hill
#
# Bulk Modulus (GPa) = 58.23216 64.51771 61.37493
# Shear Modulus (GPa) = 12.64971 23.21656 17.93314
#
# Velocity S-wave (km/s) = 2.52265 3.41755 3.00361
# Velocity P-wave (km/s) = 6.14655 6.93037 6.55020
#
# Compressibility (1/GPa) = 0.01717264
#
# Stress axis : x y z
#
# Youngs Moduli (GPa) = 13.97906 31.04365 29.98058
#
# Poissons Ratio (x) = 1.14336 0.98526
# Poissons Ratio (y) = 0.51486 -0.29167
# Poissons Ratio (z) = 0.45940 -0.30202
#
# Static dielectric constant tensor:
#      x y z
#    x 1.758410 0.000000 0.033860 
#    y 0.000000 1.664290 0.000000 
#    z 0.033860 0.000000 1.752850 
# 
# From -- ./inp_files/7117.got.cif
#   From: 2010.05.17/outbox.cif.g08.bks.cpg/sg3_4_cif.got.tgz:7117.got - 2010.06.03 18:33:08.
