data_PCOD9112315
_publ_section_title
;
Structure prediction by ZEFSAII (Michael W. Deem and Ramdas Pophale) SiO2 
 PCOD9112315
Probable space group: P -1
;
_chemical_formula_sum "Si O2"
_cell_formula_units_Z 14
_cell_length_a 9.621226
_cell_length_b 10.075647
_cell_length_c 14.664525
_cell_angle_alpha 34.453469
_cell_angle_beta 77.226243
_cell_angle_gamma 53.546899
_cell_volume 521.922564
_symmetry_space_group_name_H-M "P -1"
_symmetry_group_IT_number 2
_symmetry_cell_setting 'triclinic'
loop_
_space_group_symop_operation_xyz
x,y,z
-x,-y,-z
loop_
_atom_site_type_symbol
_atom_site_label
_atom_site_fract_x
_atom_site_fract_y
_atom_site_fract_z
Si Si1 0.309280 0.383737 0.261090
Si Si2 0.553625 0.032359 0.852993
Si Si3 0.065920 0.170114 0.128220
Si Si4 0.418154 0.728512 0.973319
Si Si5 0.520185 0.164648 0.577717
Si Si6 0.963891 0.253170 0.739675
Si Si7 0.190601 0.773804 0.528141
O O1 0.095303 0.637214 0.207631
O O2 0.500000 0.000000 0.500000
O O3 0.323455 0.239855 0.242811
O O4 0.379199 0.565654 0.140971
O O5 0.528219 0.191090 0.668534
O O6 0.330988 0.363018 0.747031
O O7 0.758963 0.925944 0.913203
O O8 0.566629 0.744549 0.986702
O O9 0.980250 0.068165 0.131028
O O10 0.108222 0.955548 0.336047
O O11 0.000000 0.500000 0.000000
O O12 0.500000 0.500000 0.000000
O O13 0.181759 0.126723 0.761504
O O14 0.273963 0.412092 0.453876
O O15 0.629085 0.250442 0.464733
O O16 0.000000 0.000000 0.500000
#
# Coordination Sequence:
#
# PCOD9112315 Si02
#       7
#     2   2   2   2   2   2   2
#     4  10  24  45  69  95 136 180 222 273 342 409
#     4  11  22  45  69  95 141 174 225 275 338 403
#     4  11  23  45  69  96 137 187 221 274 343 401
#     4  12  25  43  68 105 134 174 229 283 329 397
#     4  10  20  46  68  97 132 188 215 271 344 406
#     4  11  23  43  68  97 136 179 227 268 344 395
#     4  11  24  43  72  99 135 178 232 277 331 402
#
# _framework density 26.823900999999999
#
# number of rings (size 3 to 8) (size 9 to 14) (size 15 to 20)
#    0.000    1.143    4.286    2.143    4.000    1.714 
#   10.286    1.429    0.000    0.000    0.000    0.000 
#    0.000    0.000    0.000    0.000    0.000    0.000 
#
# Total GULP energy -78059.276940 kJ/mol
# GULP energy per Si atom -5575.662639 kJ/mol
# Density = 2.676285 g / cm^3
# Si number density = 26.823901 Si / 1000 Ang^3
#
#
#
# Elastic Constant Matrix: (Units=GPa)
#
#
# Indices 1 2 3 4 5 6 
#
# 1 110.4416 18.8198 3.0586 14.1070 -15.1436 -5.8117
# 2 18.8198 138.7463 25.4032 -28.1912 7.1948 -14.9105
# 3 3.0586 25.4032 63.5985 -31.4953 -23.3544 -7.4767
# 4 14.1070 -28.1912 -31.4953 53.1107 -0.3521 -4.0796
# 5 -15.1436 7.1948 -23.3544 -0.3521 31.9228 -1.9723
# 6 -5.8117 -14.9105 -7.4767 -4.0796 -1.9723 49.5596
#
#
#
# Elastic Compliance Matrix: (Units=1/GPa)
#
#
# Indices 1 2 3 4 5 6 
#
# 1 0.010882 -0.002715 0.001528 -0.003327 0.006898 0.000690
# 2 -0.002715 0.009560 -0.003952 0.003566 -0.006170 0.002009
# 3 0.001528 -0.003952 0.041819 0.023169 0.032991 0.008519
# 4 -0.003327 0.003566 0.023169 0.036043 0.015445 0.007759
# 5 0.006898 -0.006170 0.032991 0.015445 0.060766 0.007619
# 6 0.000690 0.002009 0.008519 0.007759 0.007619 0.023090
#
#
# Mechanical properties :
#
#
# Convention : Reuss Voigt Hill
#
# Bulk Modulus (GPa) = 19.23727 45.26104 32.24916
# Shear Modulus (GPa) = 23.83621 44.61895 34.22758
#
# Velocity S-wave (km/s) = 2.98420 4.08291 3.57600
# Velocity P-wave (km/s) = 4.36592 6.25595 5.39435
#
# Compressibility (1/GPa) = 0.05198243
#
# Stress axis : x y z
#
# Youngs Moduli (GPa) = 91.89431 104.60715 23.91269
#
# Poissons Ratio (x) = 0.28404 -0.03653
# Poissons Ratio (y) = 0.24952 0.09449
# Poissons Ratio (z) = -0.14040 0.41336
#
# Static dielectric constant tensor:
#      x y z
#    x 2.374170 0.023010 0.164990 
#    y 0.023010 2.165370 0.015130 
#    z 0.164990 0.015130 2.292050 
# 
# From -- ./inp_files/299368.got.cif
#   From: 2010.05.17/outbox.cif.g08.bks.cpg/sg2_150_cif.got.tgz:299368.got - 2010.06.03 11:33:40.
