data_PCOD9112411
_publ_section_title
;
Structure prediction by ZEFSAII (Michael W. Deem and Ramdas Pophale) SiO2 
 PCOD9112411
Probable space group: P -1
;
_chemical_formula_sum "Si O2"
_cell_formula_units_Z 14
_cell_length_a 12.957942
_cell_length_b 15.411170
_cell_length_c 12.496570
_cell_angle_alpha 17.894028
_cell_angle_beta 113.860621
_cell_angle_gamma 114.934695
_cell_volume 695.248705
_symmetry_space_group_name_H-M "P -1"
_symmetry_group_IT_number 2
_symmetry_cell_setting 'triclinic'
loop_
_space_group_symop_operation_xyz
x,y,z
-x,-y,-z
loop_
_atom_site_type_symbol
_atom_site_label
_atom_site_fract_x
_atom_site_fract_y
_atom_site_fract_z
Si Si1 0.628847 0.864651 0.599894
Si Si2 0.182522 0.903094 0.228217
Si Si3 0.735979 0.267601 0.768816
Si Si4 0.042333 0.410598 0.507501
Si Si5 0.354498 0.767169 0.628365
Si Si6 0.586363 0.862122 0.348019
Si Si7 0.456445 0.362770 0.753835
O O1 0.490617 0.831781 0.591027
O O2 0.655273 0.881346 0.465175
O O3 0.670333 0.126007 0.388188
O O4 0.669958 0.571563 0.001379
O O5 0.236278 0.808988 0.250787
O O6 0.281505 0.933980 0.321232
O O7 0.077057 0.682710 0.491242
O O8 0.113162 0.153676 0.866817
O O9 0.859853 0.353618 0.773888
O O10 0.667476 0.539879 0.408799
O O11 0.658952 0.025107 0.090076
O O12 0.000000 0.500000 0.500000
O O13 0.532517 0.544173 0.663962
O O14 0.483910 0.044557 0.120981
O O15 0.500000 0.500000 0.500000
#
# Coordination Sequence:
#
# PCOD9112411 Si02
#       7
#     2   2   2   2   2   2   2
#     4  10  22  38  55  88 112 160 197 225 276 342
#     4  10  21  37  60  85 114 149 193 251 292 342
#     4  10  21  32  58  84 117 151 184 240 300 348
#     4   9  21  37  55  89 110 146 197 237 309 344
#     4  10  22  37  61  79 117 153 198 236 276 331
#     4  11  22  37  55  84 128 153 191 233 282 354
#     4  10  21  32  52  85 120 157 184 221 286 356
#
# _framework density 20.136679000000001
#
# number of rings (size 3 to 8) (size 9 to 14) (size 15 to 20)
#    0.000    2.000    0.000    3.429   12.000    1.143 
#    0.000    0.000    0.000    1.714    0.000    0.000 
#    0.000    0.000    0.000    0.000    0.000    0.000 
#
# Total GULP energy -77994.582418 kJ/mol
# GULP energy per Si atom -5571.041601 kJ/mol
# Density = 2.009085 g / cm^3
# Si number density = 20.136679 Si / 1000 Ang^3
#
#
#
# Elastic Constant Matrix: (Units=GPa)
#
#
# Indices 1 2 3 4 5 6 
#
# 1 111.3407 29.4350 21.2927 -10.5927 4.8500 -1.3624
# 2 29.4350 81.8516 10.7180 -2.0707 3.7058 -14.1088
# 3 21.2927 10.7180 34.7079 0.4694 10.0381 -4.7578
# 4 -10.5927 -2.0707 0.4694 31.4957 -2.4415 -1.0927
# 5 4.8500 3.7058 10.0381 -2.4415 31.0615 -10.1197
# 6 -1.3624 -14.1088 -4.7578 -1.0927 -10.1197 28.9803
#
#
#
# Elastic Compliance Matrix: (Units=1/GPa)
#
#
# Indices 1 2 3 4 5 6 
#
# 1 0.011442 -0.003547 -0.006340 0.003666 0.000330 -0.001977
# 2 -0.003547 0.014955 -0.001958 0.000221 0.001845 0.007445
# 3 -0.006340 -0.001958 0.036537 -0.003593 -0.010566 0.000922
# 4 0.003666 0.000221 -0.003593 0.033438 0.003950 0.002330
# 5 0.000330 0.001845 -0.010566 0.003950 0.039977 0.013288
# 6 -0.001977 0.007445 0.000922 0.002330 0.013288 0.042917
#
#
# Mechanical properties :
#
#
# Convention : Reuss Voigt Hill
#
# Bulk Modulus (GPa) = 25.48229 38.97685 32.22957
# Shear Modulus (GPa) = 23.14417 29.40447 26.27432
#
# Velocity S-wave (km/s) = 3.39389 3.82546 3.61612
# Velocity P-wave (km/s) = 5.29529 6.23782 5.78578
#
# Compressibility (1/GPa) = 0.03924294
#
# Stress axis : x y z
#
# Youngs Moduli (GPa) = 87.39755 66.86883 27.36971
#
# Poissons Ratio (x) = 0.23721 0.17352
# Poissons Ratio (y) = 0.31004 0.05359
# Poissons Ratio (z) = 0.55409 0.13092
#
# Static dielectric constant tensor:
#      x y z
#    x 1.703350 0.065580 -0.081050 
#    y 0.065580 1.776800 -0.040870 
#    z -0.081050 -0.040870 1.788260 
# 
# From -- ./inp_files/66481.got.cif
#   From: 2010.05.17/outbox.cif.g08.bks.cpg/sg2_34_cif.got.tgz:66481.got - 2010.06.03 11:33:40.
