data_PCOD9112243
_publ_section_title
;
Structure prediction by ZEFSAII (Michael W. Deem and Ramdas Pophale) SiO2 
 PCOD9112243
Probable space group: P -1
;
_chemical_formula_sum "Si O2"
_cell_formula_units_Z 16
_cell_length_a 20.323346
_cell_length_b 7.335077
_cell_length_c 6.883954
_cell_angle_alpha 56.090391
_cell_angle_beta 126.936168
_cell_angle_gamma 136.255584
_cell_volume 552.759343
_symmetry_space_group_name_H-M "P -1"
_symmetry_group_IT_number 2
_symmetry_cell_setting 'triclinic'
loop_
_space_group_symop_operation_xyz
x,y,z
-x,-y,-z
loop_
_atom_site_type_symbol
_atom_site_label
_atom_site_fract_x
_atom_site_fract_y
_atom_site_fract_z
Si Si1 0.180103 0.410487 0.356349
Si Si2 0.004458 0.877035 0.289568
Si Si3 0.327549 0.265809 0.652532
Si Si4 0.153517 0.715465 0.587889
Si Si5 0.696791 0.701085 0.974312
Si Si6 0.883469 0.247766 0.949288
Si Si7 0.417411 0.727637 0.288765
Si Si8 0.635228 0.088314 0.525218
O O1 0.236505 0.299816 0.414132
O O2 0.165153 0.620845 0.098895
O O3 0.266525 0.616752 0.540666
O O4 0.067677 0.155226 0.360048
O O5 0.076378 0.773537 0.515547
O O6 0.894971 0.599759 0.287885
O O7 0.000000 0.000000 0.000000
O O8 0.351178 0.345525 0.870450
O O9 0.418988 0.497736 0.549921
O O10 0.269592 0.947693 0.712216
O O11 0.140147 0.766014 0.311573
O O12 0.654564 0.443545 0.916503
O O13 0.819225 0.932736 0.081028
O O14 0.663986 0.879438 0.706788
O O15 0.000000 0.500000 0.000000
O O16 0.385796 0.853518 0.325787
O O17 0.532574 0.962510 0.300794
#
# Coordination Sequence:
#
# PCOD9112243 Si02
#       8
#     2   2   2   2   2   2   2   2
#     4   9  21  40  56  88 129 159 210 273 318 378
#     4  10  21  36  61  84 120 172 211 261 326 380
#     4  10  22  42  62  91 131 164 216 270 322 396
#     4  10  22  39  59  89 126 167 216 270 321 384
#     4  11  23  41  65  95 131 169 213 269 329 391
#     4  11  23  39  61  91 125 171 222 264 325 399
#     4  10  20  45  68  92 129 169 212 269 336 388
#     4   9  21  40  69  95 126 167 216 271 324 396
#
# _framework density 28.945688000000001
#
# number of rings (size 3 to 8) (size 9 to 14) (size 15 to 20)
#    0.000    2.000    1.250    1.125    8.750    1.000 
#    4.500    5.625    0.000    0.000    0.000    0.000 
#    0.000    0.000    0.000    0.000    0.000    0.000 
#
# Total GULP energy -89314.126741 kJ/mol
# GULP energy per Si atom -5582.132921 kJ/mol
# Density = 2.887981 g / cm^3
# Si number density = 28.945688 Si / 1000 Ang^3
#
#
#
# Elastic Constant Matrix: (Units=GPa)
#
#
# Indices 1 2 3 4 5 6 
#
# 1 63.6160 68.4891 14.1806 5.7310 7.0180 -6.7786
# 2 68.4891 254.4440 48.2823 14.0991 -5.9923 1.1365
# 3 14.1806 48.2823 90.8612 8.3885 -18.6811 -5.8162
# 4 5.7310 14.0991 8.3885 58.6829 -7.2316 -4.2272
# 5 7.0180 -5.9923 -18.6811 -7.2316 50.0475 -10.7491
# 6 -6.7786 1.1365 -5.8162 -4.2272 -10.7491 62.2604
#
#
#
# Elastic Compliance Matrix: (Units=1/GPa)
#
#
# Indices 1 2 3 4 5 6 
#
# 1 0.023274 -0.006118 -0.001026 -0.001041 -0.004151 0.001762
# 2 -0.006118 0.006033 -0.002158 -0.000549 0.000496 -0.000929
# 3 -0.001026 -0.002158 0.013589 -0.000517 0.005331 0.002082
# 4 -0.001041 -0.000549 -0.000517 0.017803 0.002790 0.001539
# 5 -0.004151 0.000496 0.005331 0.002790 0.023952 0.004362
# 6 0.001762 -0.000929 0.002082 0.001539 0.004362 0.017322
#
#
# Mechanical properties :
#
#
# Convention : Reuss Voigt Hill
#
# Bulk Modulus (GPa) = 41.16381 74.53612 57.84996
# Shear Modulus (GPa) = 38.85767 52.72944 45.79355
#
# Velocity S-wave (km/s) = 3.66790 4.27273 3.98182
# Velocity P-wave (km/s) = 5.67361 7.08152 6.41630
#
# Compressibility (1/GPa) = 0.02429318
#
# Stress axis : x y z
#
# Youngs Moduli (GPa) = 42.96607 165.76507 73.58643
#
# Poissons Ratio (x) = 1.01416 0.07549
# Poissons Ratio (y) = 0.26287 0.15877
# Poissons Ratio (z) = 0.04408 0.35767
#
# Static dielectric constant tensor:
#      x y z
#    x 2.368410 -0.002730 0.025530 
#    y -0.002730 2.286980 -0.018440 
#    z 0.025530 -0.018440 2.346310 
# 
# From -- ./inp_files/356361.got.cif
#   From: 2010.05.17/outbox.cif.g08.bks.cpg/sg2_179_cif.got.tgz:356361.got - 2010.06.03 11:33:40.
