data_PCOD9112031
_publ_section_title
;
Structure prediction by ZEFSAII (Michael W. Deem and Ramdas Pophale) SiO2 
 PCOD9112031
Probable space group: P -1
;
_chemical_formula_sum "Si O2"
_cell_formula_units_Z 13
_cell_length_a 4.989486
_cell_length_b 8.878521
_cell_length_c 12.135826
_cell_angle_alpha 111.492124
_cell_angle_beta 81.655682
_cell_angle_gamma 104.769568
_cell_volume 482.899155
_symmetry_space_group_name_H-M "P -1"
_symmetry_group_IT_number 2
_symmetry_cell_setting 'triclinic'
loop_
_space_group_symop_operation_xyz
x,y,z
-x,-y,-z
loop_
_atom_site_type_symbol
_atom_site_label
_atom_site_fract_x
_atom_site_fract_y
_atom_site_fract_z
Si Si1 0.718719 0.000819 0.127652
Si Si2 0.769936 0.730000 0.915183
Si Si3 0.000000 0.500000 0.000000
Si Si4 0.344832 0.787261 0.403571
Si Si5 0.553460 0.206438 0.363442
Si Si6 0.086175 0.208218 0.752667
Si Si7 0.174966 0.404029 0.350296
O O1 0.896591 0.924340 0.187511
O O2 0.503124 0.073431 0.232020
O O3 0.590388 0.848838 0.013542
O O4 0.932722 0.145024 0.090326
O O5 0.679342 0.644482 0.782586
O O6 0.807168 0.592961 0.962008
O O7 0.972823 0.628363 0.141223
O O8 0.411488 0.873527 0.542051
O O9 0.614955 0.765892 0.315583
O O10 0.209082 0.598787 0.401888
O O11 0.132465 0.843052 0.347273
O O12 0.324419 0.316499 0.411000
O O13 0.851904 0.319419 0.343767
#
# Coordination Sequence:
#
# PCOD9112031 Si02
#       7
#     2   2   1   2   2   2   2
#     4   9  22  42  64 100 131 181 210 272 328 401
#     4   9  19  41  70  95 133 167 226 267 335 382
#     4  10  20  44  68 100 126 172 210 286 314 392
#     4  12  24  42  66 101 131 179 218 275 316 398
#     4  11  24  41  68  94 140 171 224 264 333 386
#     4  11  25  42  68  97 138 169 224 264 337 379
#     4  11  22  41  67 100 130 177 216 280 324 386
#
# _framework density 26.920736000000002
#
# number of rings (size 3 to 8) (size 9 to 14) (size 15 to 20)
#    0.000    1.538    1.538    2.769    2.154    4.923 
#    0.000    0.000    0.000    0.000    0.000    0.000 
#    0.000    0.000    0.000    0.000    0.000    0.000 
#
# Total GULP energy -72660.127695 kJ/mol
# GULP energy per Si atom -5589.240592 kJ/mol
# Density = 2.685946 g / cm^3
# Si number density = 26.920736 Si / 1000 Ang^3
#
#
#
# Elastic Constant Matrix: (Units=GPa)
#
#
# Indices 1 2 3 4 5 6 
#
# 1 105.2184 20.8795 4.0795 -4.4665 -5.5946 -9.3578
# 2 20.8795 58.5311 5.5786 1.0273 -17.8060 -14.6187
# 3 4.0795 5.5786 143.5166 12.1767 4.1847 1.0901
# 4 -4.4665 1.0273 12.1767 44.2884 -10.9276 -2.2144
# 5 -5.5946 -17.8060 4.1847 -10.9276 34.7767 -8.7098
# 6 -9.3578 -14.6187 1.0901 -2.2144 -8.7098 28.9408
#
#
#
# Elastic Compliance Matrix: (Units=1/GPa)
#
#
# Indices 1 2 3 4 5 6 
#
# 1 0.010430 -0.002500 -0.000421 0.001785 0.001704 0.002775
# 2 -0.002500 0.030796 -0.002538 0.006612 0.023353 0.022377
# 3 -0.000421 -0.002538 0.007493 -0.003207 -0.004071 -0.003171
# 4 0.001785 0.006612 -0.003207 0.027861 0.015529 0.010843
# 5 0.001704 0.023353 -0.004071 0.015529 0.053842 0.029893
# 6 0.002775 0.022377 -0.003171 0.010843 0.029893 0.056699
#
#
# Mechanical properties :
#
#
# Convention : Reuss Voigt Hill
#
# Bulk Modulus (GPa) = 26.45523 40.92681 33.69102
# Shear Modulus (GPa) = 23.73714 40.04973 31.89343
#
# Velocity S-wave (km/s) = 2.97264 3.86124 3.44570
# Velocity P-wave (km/s) = 4.65086 5.92576 5.32659
#
# Compressibility (1/GPa) = 0.03779972
#
# Stress axis : x y z
#
# Youngs Moduli (GPa) = 95.88007 32.47194 133.45208
#
# Poissons Ratio (x) = 0.08119 0.05625
# Poissons Ratio (y) = 0.23972 0.33869
# Poissons Ratio (z) = 0.04041 0.08241
#
# Static dielectric constant tensor:
#      x y z
#    x 1.984320 0.062820 0.012840 
#    y 0.062820 2.129610 0.054390 
#    z 0.012840 0.054390 2.190850 
# 
# From -- ./inp_files/23282.got.cif
#   From: 2010.05.17/outbox.cif.g08.bks.cpg/sg2_12_cif.got.tgz:23282.got - 2010.06.03 11:33:40.
