data_PCOD9112307
_publ_section_title
;
Structure prediction by ZEFSAII (Michael W. Deem and Ramdas Pophale) SiO2 
 PCOD9112307
Probable space group: P -1
;
_chemical_formula_sum "Si O2"
_cell_formula_units_Z 16
_cell_length_a 18.067932
_cell_length_b 8.439648
_cell_length_c 5.997645
_cell_angle_alpha 76.950659
_cell_angle_beta 61.043686
_cell_angle_gamma 53.134076
_cell_volume 637.481595
_symmetry_space_group_name_H-M "P -1"
_symmetry_group_IT_number 2
_symmetry_cell_setting 'triclinic'
loop_
_space_group_symop_operation_xyz
x,y,z
-x,-y,-z
loop_
_atom_site_type_symbol
_atom_site_label
_atom_site_fract_x
_atom_site_fract_y
_atom_site_fract_z
Si Si1 0.753255 0.096709 0.101192
Si Si2 0.952035 0.873813 0.570487
Si Si3 0.474458 0.668228 0.658987
Si Si4 0.341749 0.456998 0.257519
Si Si5 0.293280 0.196720 0.683129
Si Si6 0.562294 0.834615 0.154753
Si Si7 0.154230 0.812813 0.688835
Si Si8 0.929287 0.425519 0.177740
O O1 0.640638 0.237287 0.107951
O O2 0.781071 0.216326 0.178657
O O3 0.729072 0.959594 0.319083
O O4 0.853274 0.953588 0.849567
O O5 0.040817 0.649003 0.582367
O O6 0.900404 0.959067 0.379555
O O7 0.000000 0.000000 0.500000
O O8 0.500000 0.500000 0.500000
O O9 0.560325 0.573068 0.754238
O O10 0.490387 0.818855 0.444394
O O11 0.337855 0.279194 0.423901
O O12 0.235924 0.662390 0.425292
O O13 0.368491 0.383734 0.989471
O O14 0.359581 0.135819 0.832571
O O15 0.179665 0.395950 0.813393
O O16 0.500000 0.000000 0.000000
O O17 0.071940 0.758446 0.857632
O O18 0.000000 0.500000 0.000000
#
# Coordination Sequence:
#
# PCOD9112307 Si02
#       8
#     2   2   2   2   2   2   2   2
#     4  12  23  42  69  99 143 178 228 284 348 410
#     4  10  24  43  67  95 134 174 230 288 341 403
#     4  11  24  41  64 103 141 183 223 270 348 408
#     4  10  22  44  68  98 142 180 229 280 334 415
#     4  10  23  42  70  99 136 181 229 280 350 408
#     4  11  24  43  69 100 139 181 230 283 336 405
#     4  10  24  40  70 100 133 179 229 278 352 406
#     4  10  20  46  66  93 131 177 228 281 341 408
#
# _framework density 25.098762000000001
#
# number of rings (size 3 to 8) (size 9 to 14) (size 15 to 20)
#    0.000    1.500    2.500    1.500    1.750    7.500 
#    0.000    3.125    0.000    0.000    0.000    0.000 
#    0.000    0.000    0.000    0.000    0.000    0.000 
#
# Total GULP energy -89278.886192 kJ/mol
# GULP energy per Si atom -5579.930387 kJ/mol
# Density = 2.504164 g / cm^3
# Si number density = 25.098762 Si / 1000 Ang^3
#
#
#
# Elastic Constant Matrix: (Units=GPa)
#
#
# Indices 1 2 3 4 5 6 
#
# 1 171.4577 38.4064 50.4265 -9.6283 -19.9220 -3.5003
# 2 38.4064 97.5308 23.8358 -28.7493 10.4259 -8.3856
# 3 50.4265 23.8358 81.4110 12.8153 -17.6033 -8.7993
# 4 -9.6283 -28.7493 12.8153 52.2191 2.8743 2.1697
# 5 -19.9220 10.4259 -17.6033 2.8743 34.3185 -4.2562
# 6 -3.5003 -8.3856 -8.7993 2.1697 -4.2562 47.9082
#
#
#
# Elastic Compliance Matrix: (Units=1/GPa)
#
#
# Indices 1 2 3 4 5 6 
#
# 1 0.007848 -0.002305 -0.003646 0.000902 0.003279 -0.000249
# 2 -0.002305 0.018186 -0.008523 0.012364 -0.012296 -0.000203
# 3 -0.003646 -0.008523 0.022203 -0.011716 0.013343 0.004036
# 4 0.000902 0.012364 -0.011716 0.029758 -0.012024 -0.002338
# 5 0.003279 -0.012296 0.013343 -0.012024 0.043240 0.004924
# 6 -0.000249 -0.000203 0.004036 -0.002338 0.004924 0.022104
#
#
# Mechanical properties :
#
#
# Convention : Reuss Voigt Hill
#
# Bulk Modulus (GPa) = 51.84875 63.97076 57.90976
# Shear Modulus (GPa) = 27.97740 42.73788 35.35764
#
# Velocity S-wave (km/s) = 3.34232 4.13096 3.75739
# Velocity P-wave (km/s) = 5.96637 6.94954 6.47664
#
# Compressibility (1/GPa) = 0.01928687
#
# Stress axis : x y z
#
# Youngs Moduli (GPa) = 127.42772 54.98885 45.03934
#
# Poissons Ratio (x) = 0.12676 0.16421
# Poissons Ratio (y) = 0.29375 0.38389
# Poissons Ratio (z) = 0.46458 0.46869
#
# Static dielectric constant tensor:
#      x y z
#    x 1.965390 -0.060680 0.006130 
#    y -0.060680 2.156210 -0.033800 
#    z 0.006130 -0.033800 2.064140 
# 
# From -- ./inp_files/106656.got.cif
#   From: 2010.05.17/outbox.cif.g08.bks.cpg/sg2_54_cif.got.tgz:106656.got - 2010.06.03 11:33:40.
