data_PCOD9112423
_publ_section_title
;
Structure prediction by ZEFSAII (Michael W. Deem and Ramdas Pophale) SiO2 
 PCOD9112423
Probable space group: P -1
;
_chemical_formula_sum "Si O2"
_cell_formula_units_Z 16
_cell_length_a 8.047719
_cell_length_b 13.630141
_cell_length_c 13.670567
_cell_angle_alpha 95.953278
_cell_angle_beta 117.970792
_cell_angle_gamma 133.935157
_cell_volume 703.888245
_symmetry_space_group_name_H-M "P -1"
_symmetry_group_IT_number 2
_symmetry_cell_setting 'triclinic'
loop_
_space_group_symop_operation_xyz
x,y,z
-x,-y,-z
loop_
_atom_site_type_symbol
_atom_site_label
_atom_site_fract_x
_atom_site_fract_y
_atom_site_fract_z
Si Si1 0.053848 0.721831 0.192007
Si Si2 0.819141 0.660987 0.320619
Si Si3 0.780412 0.813443 0.464851
Si Si4 0.586583 0.707383 0.024237
Si Si5 0.813165 0.484171 0.867004
Si Si6 0.720444 0.755493 0.856280
Si Si7 0.006374 0.931661 0.755116
Si Si8 0.669916 0.123575 0.922382
O O1 0.326137 0.840485 0.188593
O O2 0.108016 0.766041 0.327889
O O3 0.797664 0.513128 0.099638
O O4 0.622787 0.767828 0.930349
O O5 0.924666 0.773816 0.454717
O O6 0.834062 0.721081 0.098934
O O7 0.591526 0.464018 0.264192
O O8 0.389942 0.650150 0.295131
O O9 0.794229 0.827882 0.585795
O O10 0.000000 0.000000 0.500000
O O11 0.509077 0.594382 0.182883
O O12 0.745147 0.861231 0.154389
O O13 0.000000 0.500000 0.000000
O O14 0.102652 0.692354 0.939432
O O15 0.768211 0.830843 0.774934
O O16 0.098034 0.870235 0.995008
O O17 0.273639 0.956868 0.832392
#
# Coordination Sequence:
#
# PCOD9112423 Si02
#       8
#     2   2   2   2   2   2   2   2
#     4   9  17  33  54  78 110 145 180 232 276 324
#     4   8  18  35  54  77 109 148 183 218 277 334
#     4  10  21  33  51  85 115 137 177 238 286 326
#     4   9  18  31  55  83 103 145 191 230 272 324
#     4   9  18  32  52  77 111 135 179 222 271 333
#     4   9  19  38  53  78 111 153 194 220 264 332
#     4  12  22  32  56  86 114 144 184 236 272 320
#     4  10  21  32  54  84 111 142 188 230 273 321
#
# _framework density 22.730882000000001
#
# number of rings (size 3 to 8) (size 9 to 14) (size 15 to 20)
#    0.750    1.750    0.000    4.500    5.250    0.500 
#    0.000    0.625    0.000    1.500    0.000    3.500 
#    0.000    0.125    0.000    0.000    0.000    0.000 
#
# Total GULP energy -89133.223936 kJ/mol
# GULP energy per Si atom -5570.826496 kJ/mol
# Density = 2.267915 g / cm^3
# Si number density = 22.730882 Si / 1000 Ang^3
#
#
#
# Elastic Constant Matrix: (Units=GPa)
#
#
# Indices 1 2 3 4 5 6 
#
# 1 37.2683 6.2110 28.1787 4.0920 -16.7795 7.8123
# 2 6.2110 76.1780 24.5614 -15.8628 -18.3169 10.3436
# 3 28.1787 24.5614 133.4097 -8.5293 -32.8574 -2.1122
# 4 4.0920 -15.8628 -8.5293 26.9665 1.8619 -11.1647
# 5 -16.7795 -18.3169 -32.8574 1.8619 33.7839 -2.8961
# 6 7.8123 10.3436 -2.1122 -11.1647 -2.8961 28.5564
#
#
#
# Elastic Compliance Matrix: (Units=1/GPa)
#
#
# Indices 1 2 3 4 5 6 
#
# 1 0.044673 0.001319 -0.007323 -0.016956 0.015143 -0.018334
# 2 0.001319 0.017408 -0.000912 0.008033 0.008529 -0.002728
# 3 -0.007323 -0.000912 0.011507 0.006367 0.007258 0.006410
# 4 -0.016956 0.008033 0.006367 0.056406 0.001106 0.024365
# 5 0.015143 0.008529 0.007258 0.001106 0.048629 -0.001331
# 6 -0.018334 -0.002728 0.006410 0.024365 -0.001331 0.050887
#
#
# Mechanical properties :
#
#
# Convention : Reuss Voigt Hill
#
# Bulk Modulus (GPa) = 16.73551 40.52869 28.63210
# Shear Modulus (GPa) = 18.99254 30.38836 24.69045
#
# Velocity S-wave (km/s) = 2.89371 3.66030 3.29934
# Velocity P-wave (km/s) = 4.30618 5.97764 5.20938
#
# Compressibility (1/GPa) = 0.05975318
#
# Stress axis : x y z
#
# Youngs Moduli (GPa) = 22.38503 57.44559 86.90711
#
# Poissons Ratio (x) = -0.07575 0.63644
# Poissons Ratio (y) = -0.02952 0.07929
# Poissons Ratio (z) = 0.16393 0.05241
#
# Static dielectric constant tensor:
#      x y z
#    x 1.996780 0.049410 -0.041070 
#    y 0.049410 1.896760 -0.052030 
#    z -0.041070 -0.052030 1.871140 
# 
# From -- ./inp_files/435800.got.cif
#   From: 2010.05.17/outbox.cif.g08.bks.cpg/sg2_218_cif.got.tgz:435800.got - 2010.06.03 11:33:40.
