data_PCOD9112701
_publ_section_title
;
Structure prediction by ZEFSAII (Michael W. Deem and Ramdas Pophale) SiO2 
 PCOD9112701
Probable space group: P 2
;
_chemical_formula_sum "Si O2"
_cell_formula_units_Z 10
_cell_length_a 12.620241
_cell_length_b 5.306425
_cell_length_c 8.150168
_cell_angle_alpha 90.000000
_cell_angle_beta 136.787185
_cell_angle_gamma 90.000000
_cell_volume 373.717121
_symmetry_space_group_name_H-M "P 2"
_symmetry_group_IT_number 3
_symmetry_cell_setting 'monoclinic'
loop_
_space_group_symop_operation_xyz
x,y,z
-x,y,-z
loop_
_atom_site_type_symbol
_atom_site_label
_atom_site_fract_x
_atom_site_fract_y
_atom_site_fract_z
Si Si1 0.256309 0.845780 0.837829
Si Si2 0.662536 0.506856 0.585937
Si Si3 0.155437 0.348258 0.563445
Si Si4 0.442121 0.008201 0.623217
Si Si5 0.941195 0.643388 0.098433
O O1 0.262586 0.569070 0.763620
O O2 0.125000 0.818990 0.832376
O O3 0.213952 0.066292 0.663671
O O4 0.415263 0.931328 0.102645
O O5 0.500000 0.532147 0.500000
O O6 0.674759 0.776960 0.514003
O O7 0.635987 0.276993 0.431859
O O8 0.793659 0.479448 0.871397
O O9 0.000000 0.358699 0.500000
O O10 0.077867 0.458463 0.310141
O O11 0.500000 0.037779 0.500000
O O12 0.000000 0.780348 0.000000
#
# Coordination Sequence:
#
# PCOD9112701 Si02
#       5
#     2   2   2   2   2
#     4  11  21  42  65  97 128 181 227 272 324 415
#     4  10  20  37  62  96 124 171 230 272 319 400
#     4  10  23  38  63  93 134 178 223 264 336 412
#     4  10  19  33  65  91 122 165 241 270 304 388
#     4  11  24  44  70 109 142 173 224 302 353 393
#
# _framework density 26.758205
#
# number of rings (size 3 to 8) (size 9 to 14) (size 15 to 20)
#    0.000    1.600    4.000    3.000    8.400    1.600 
#    0.000   16.000    0.000    7.200    0.000    0.000 
#    0.000    0.000    0.000    0.000    0.000    0.000 
#
# Total GULP energy -55985.438853 kJ/mol
# GULP energy per Si atom -5598.543885 kJ/mol
# Density = 2.669730 g / cm^3
# Si number density = 26.758205 Si / 1000 Ang^3
#
#
#
# Elastic Constant Matrix: (Units=GPa)
#
#
# Indices 1 2 3 4 5 6 
#
# 1 85.2121 23.3545 24.4603 0.0000 -26.0062 0.0000
# 2 23.3545 222.3336 73.9092 0.0000 0.0964 0.0000
# 3 24.4603 73.9092 190.8411 0.0000 27.6520 0.0000
# 4 0.0000 0.0000 0.0000 40.4950 0.0000 -4.6498
# 5 -26.0062 0.0964 27.6520 0.0000 51.4373 0.0000
# 6 0.0000 0.0000 0.0000 -4.6498 0.0000 20.1014
#
#
#
# Elastic Compliance Matrix: (Units=1/GPa)
#
#
# Indices 1 2 3 4 5 6 
#
# 1 0.015775 -0.000599 -0.003194 0.000000 0.009694 0.000000
# 2 -0.000599 0.005249 -0.002072 0.000000 0.000801 0.000000
# 3 -0.003194 -0.002072 0.007250 0.000000 -0.005509 0.000000
# 4 0.000000 0.000000 0.000000 0.025368 0.000000 0.005868
# 5 0.009694 0.000801 -0.005509 0.000000 0.027302 0.000000
# 6 0.000000 0.000000 0.000000 0.005868 0.000000 0.051105
#
#
# Mechanical properties :
#
#
# Convention : Reuss Voigt Hill
#
# Bulk Modulus (GPa) = 60.45000 82.42611 71.43806
# Shear Modulus (GPa) = 33.49036 47.51758 40.50397
#
# Velocity S-wave (km/s) = 3.54162 4.21861 3.89485
# Velocity P-wave (km/s) = 6.27410 7.38917 6.85435
#
# Compressibility (1/GPa) = 0.01654260
#
# Stress axis : x y z
#
# Youngs Moduli (GPa) = 63.39020 190.50522 137.92886
#
# Poissons Ratio (x) = 0.11418 0.44061
# Poissons Ratio (y) = 0.03799 0.28581
# Poissons Ratio (z) = 0.20250 0.39476
#
# Static dielectric constant tensor:
#      x y z
#    x 2.626150 0.000000 -0.115390 
#    y 0.000000 2.078040 0.000000 
#    z -0.115390 0.000000 2.070300 
# 
# From -- ./inp_files/7999.got.cif
#   From: 2010.05.17/outbox.cif.g08.bks.cpg/sg3_4_cif.got.tgz:7999.got - 2010.06.03 18:33:08.
