data_PCOD9112642
_publ_section_title
;
Structure prediction by ZEFSAII (Michael W. Deem and Ramdas Pophale) SiO2 
 PCOD9112642
Probable space group: P 2
;
_chemical_formula_sum "Si O2"
_cell_formula_units_Z 15
_cell_length_a 8.119523
_cell_length_b 8.863817
_cell_length_c 19.805939
_cell_angle_alpha 90.000000
_cell_angle_beta 150.832100
_cell_angle_gamma 90.000000
_cell_volume 694.713914
_symmetry_space_group_name_H-M "P 2"
_symmetry_group_IT_number 3
_symmetry_cell_setting 'monoclinic'
loop_
_space_group_symop_operation_xyz
x,y,z
-x,y,-z
loop_
_atom_site_type_symbol
_atom_site_label
_atom_site_fract_x
_atom_site_fract_y
_atom_site_fract_z
Si Si1 0.651810 0.910150 0.662893
Si Si2 0.165951 0.902696 0.126734
Si Si3 0.066287 0.017888 0.598488
Si Si4 0.738053 0.187717 0.021105
Si Si5 0.717277 0.276575 0.691808
Si Si6 0.844634 0.301285 0.278353
Si Si7 0.500000 0.716564 0.500000
Si Si8 0.131631 0.510173 0.477638
O O1 0.807466 0.838709 0.786636
O O2 0.761677 0.823941 0.635038
O O3 0.703246 0.092286 0.681222
O O4 0.243495 0.901867 0.511882
O O5 0.559356 0.950283 0.258214
O O6 0.000000 0.828953 0.000000
O O7 0.928282 0.048885 0.054220
O O8 0.036839 0.148055 0.642849
O O9 0.000000 0.086129 0.500000
O O10 0.501803 0.268020 0.882990
O O11 0.500000 0.139384 0.000000
O O12 0.018290 0.296796 0.153073
O O13 0.383019 0.370959 0.585004
O O14 0.879779 0.334305 0.680523
O O15 0.831204 0.433142 0.327786
O O16 0.330280 0.613777 0.496279
O O17 0.000000 0.580120 0.500000
#
# Coordination Sequence:
#
# PCOD9112642 Si02
#       8
#     2   2   2   2   2   2   1   2
#     4  10  22  37  67  93 131 172 217 274 333 389
#     4  10  19  34  57  98 138 162 207 273 338 400
#     4  10  19  30  56  97 130 158 205 263 328 383
#     4   9  20  31  54  92 136 165 200 259 340 393
#     4  10  20  38  62  99 123 163 215 272 332 386
#     4  11  18  34  57  93 130 162 200 266 326 386
#     4  12  26  48  64  96 134 184 228 274 326 400
#     4  12  26  41  67  95 132 170 222 275 333 392
#
# _framework density 21.591621
#
# number of rings (size 3 to 8) (size 9 to 14) (size 15 to 20)
#    0.000    1.600    4.000    1.200    3.733    1.600 
#    0.000    0.000    0.000    4.800    0.000    0.000 
#    0.000    0.000    0.000    0.000    0.000    0.000 
#
# Total GULP energy -83638.926576 kJ/mol
# GULP energy per Si atom -5575.928438 kJ/mol
# Density = 2.154248 g / cm^3
# Si number density = 21.591621 Si / 1000 Ang^3
#
#
#
# Elastic Constant Matrix: (Units=GPa)
#
#
# Indices 1 2 3 4 5 6 
#
# 1 94.3220 23.2128 40.8636 0.0000 -28.5594 0.0000
# 2 23.2128 53.4302 24.6619 0.0000 -12.0440 0.0000
# 3 40.8636 24.6619 160.0742 0.0000 -26.6166 0.0000
# 4 0.0000 0.0000 0.0000 3.3291 0.0000 -6.8658
# 5 -28.5594 -12.0440 -26.6166 0.0000 47.1715 0.0000
# 6 0.0000 0.0000 0.0000 -6.8658 0.0000 23.9819
#
#
#
# Elastic Compliance Matrix: (Units=1/GPa)
#
#
# Indices 1 2 3 4 5 6 
#
# 1 0.014416 -0.003854 -0.001985 0.000000 0.006624 0.000000
# 2 -0.003854 0.021797 -0.002027 0.000000 0.002088 0.000000
# 3 -0.001985 -0.002027 0.007482 0.000000 0.002503 0.000000
# 4 0.000000 0.000000 0.000000 0.733439 0.000000 0.209978
# 5 0.006624 0.002088 0.002503 0.000000 0.027155 0.000000
# 6 0.000000 0.000000 0.000000 0.209978 0.000000 0.101813
#
#
# Mechanical properties :
#
#
# Convention : Reuss Voigt Hill
#
# Bulk Modulus (GPa) = 35.76112 53.92257 44.84185
# Shear Modulus (GPa) = 5.36968 29.50237 17.43602
#
# Velocity S-wave (km/s) = 1.57871 3.70047 2.84480
# Velocity P-wave (km/s) = 4.46336 6.57921 5.62172
#
# Compressibility (1/GPa) = 0.02796333
#
# Stress axis : x y z
#
# Youngs Moduli (GPa) = 69.36746 45.87864 133.64977
#
# Poissons Ratio (x) = 0.17680 0.26529
# Poissons Ratio (y) = 0.26732 0.27092
# Poissons Ratio (z) = 0.13769 0.09300
#
# Static dielectric constant tensor:
#      x y z
#    x 1.898840 0.000000 -0.006120 
#    y 0.000000 1.817580 0.000000 
#    z -0.006120 0.000000 1.810080 
# 
# From -- ./inp_files/15795.got.cif
#   From: 2010.05.17/outbox.cif.g08.bks.cpg/sg3_8_cif.got.tgz:15795.got - 2010.06.03 18:33:08.
