data_PCOD9112121
_publ_section_title
;
Structure prediction by ZEFSAII (Michael W. Deem and Ramdas Pophale) SiO2 
 PCOD9112121
Probable space group: P -1
;
_chemical_formula_sum "Si O2"
_cell_formula_units_Z 15
_cell_length_a 25.796354
_cell_length_b 13.857891
_cell_length_c 5.327782
_cell_angle_alpha 105.243284
_cell_angle_beta 82.883525
_cell_angle_gamma 159.062710
_cell_volume 614.404549
_symmetry_space_group_name_H-M "P -1"
_symmetry_group_IT_number 2
_symmetry_cell_setting 'triclinic'
loop_
_space_group_symop_operation_xyz
x,y,z
-x,-y,-z
loop_
_atom_site_type_symbol
_atom_site_label
_atom_site_fract_x
_atom_site_fract_y
_atom_site_fract_z
Si Si1 0.824783 0.646598 0.859064
Si Si2 0.193995 0.044743 0.761390
Si Si3 0.608379 0.414916 0.122842
Si Si4 0.500000 0.500000 0.000000
Si Si5 0.336174 0.007889 0.660735
Si Si6 0.879429 0.527477 0.885679
Si Si7 0.575818 0.186586 0.330839
Si Si8 0.034503 0.471874 0.779373
O O1 0.819804 0.531989 0.925163
O O2 0.756279 0.502901 0.522468
O O3 0.715718 0.531515 0.980662
O O4 0.000000 0.000000 0.000000
O O5 0.290302 0.301891 0.725012
O O6 0.326218 0.232217 0.975730
O O7 0.042427 0.817032 0.833136
O O8 0.117907 0.823932 0.485508
O O9 0.566479 0.286693 0.323717
O O10 0.454969 0.163663 0.882416
O O11 0.425144 0.270054 0.720293
O O12 0.254070 0.784825 0.362272
O O13 0.186138 0.771243 0.742357
O O14 0.923596 0.558386 0.141341
O O15 0.500000 0.000000 0.500000
O O16 0.500000 0.000000 0.000000
O O17 0.000000 0.500000 0.000000
#
# Coordination Sequence:
#
# PCOD9112121 Si02
#       8
#     2   2   2   1   2   2   2   2
#     4  12  27  46  76 111 153 212 256 323 381 464
#     4  10  23  44  69 105 141 190 242 316 378 463
#     4  11  25  46  71 107 155 195 263 309 384 456
#     4  10  20  44  70  94 138 186 236 304 386 446
#     4  10  24  43  71 102 141 192 243 314 380 462
#     4  11  24  43  70 103 146 187 248 301 388 449
#     4  12  27  49  74 108 154 209 264 321 382 457
#     4  11  24  43  70 102 139 186 247 310 386 463
#
# _framework density 24.413885000000001
#
# number of rings (size 3 to 8) (size 9 to 14) (size 15 to 20)
#    0.000    1.067    2.667    2.400    3.733    4.800 
#    0.000   13.333    0.000    0.000    0.000    0.000 
#    0.000    0.000    0.000    0.000    0.000    0.000 
#
# Total GULP energy -83565.800733 kJ/mol
# GULP energy per Si atom -5571.053382 kJ/mol
# Density = 2.435832 g / cm^3
# Si number density = 24.413885 Si / 1000 Ang^3
#
#
#
# Elastic Constant Matrix: (Units=GPa)
#
#
# Indices 1 2 3 4 5 6 
#
# 1 138.0441 128.1071 -136.7974 -52.7507 60.0952 178.7243
# 2 128.1071 401.2635 -409.4095 -144.8447 131.9685 498.7707
# 3 -136.7974 -409.4095 1068.4179 399.0173 -228.5442 -931.9099
# 4 -52.7507 -144.8447 399.0173 189.1406 -92.7112 -353.2332
# 5 60.0952 131.9685 -228.5442 -92.7112 111.6657 247.8760
# 6 178.7243 498.7707 -931.9099 -353.2332 247.8760 995.0184
#
#
#
# Elastic Compliance Matrix: (Units=1/GPa)
#
#
# Indices 1 2 3 4 5 6 
#
# 1 0.010995 -0.002290 -0.001072 0.000239 -0.002976 -0.001005
# 2 -0.002290 0.008224 -0.001151 -0.002594 -0.000719 -0.005531
# 3 -0.001072 -0.001151 0.008602 -0.008508 -0.000913 0.006033
# 4 0.000239 -0.002594 -0.008508 0.026314 0.003427 0.001777
# 5 -0.002976 -0.000719 -0.000913 0.003427 0.021463 -0.004091
# 6 -0.001005 -0.005531 0.006033 0.001777 -0.004091 0.011259
#
#
# Mechanical properties :
#
#
# Convention : Reuss Voigt Hill
#
# Bulk Modulus (GPa) = 53.20933 85.72510 69.46721
# Shear Modulus (GPa) = 48.94923 394.21996 221.58460
#
# Velocity S-wave (km/s) = 4.48255 12.72101 9.53723
# Velocity P-wave (km/s) = 6.97374 15.84156 12.23904
#
# Compressibility (1/GPa) = 0.01879370
#
# Stress axis : x y z
#
# Youngs Moduli (GPa) = 90.95409 121.60084 116.25231
#
# Poissons Ratio (x) = 0.27846 0.12463
# Poissons Ratio (y) = 0.20828 0.13383
# Poissons Ratio (z) = 0.09751 0.13998
#
# Static dielectric constant tensor:
#      x y z
#    x 2.073750 0.022200 0.048750 
#    y 0.022200 1.959930 -0.031240 
#    z 0.048750 -0.031240 1.989710 
# 
# From -- ./inp_files/127198.got.cif
#   From: 2010.05.17/outbox.cif.g08.bks.cpg/sg2_64_cif.got.tgz:127198.got - 2010.06.03 11:33:40.
