data_PCOD9112082
_publ_section_title
;
Structure prediction by ZEFSAII (Michael W. Deem and Ramdas Pophale) SiO2 
 PCOD9112082
Probable space group: P -1
;
_chemical_formula_sum "Si O2"
_cell_formula_units_Z 16
_cell_length_a 13.217256
_cell_length_b 12.992830
_cell_length_c 7.514012
_cell_angle_alpha 103.313478
_cell_angle_beta 147.754979
_cell_angle_gamma 88.781762
_cell_volume 631.451650
_symmetry_space_group_name_H-M "P -1"
_symmetry_group_IT_number 2
_symmetry_cell_setting 'triclinic'
loop_
_space_group_symop_operation_xyz
x,y,z
-x,-y,-z
loop_
_atom_site_type_symbol
_atom_site_label
_atom_site_fract_x
_atom_site_fract_y
_atom_site_fract_z
Si Si1 0.328962 0.384064 0.643596
Si Si2 0.165817 0.979502 0.363594
Si Si3 0.449400 0.682140 0.558091
Si Si4 0.882918 0.691814 0.343775
Si Si5 0.842987 0.098981 0.315105
Si Si6 0.132248 0.453132 0.045286
Si Si7 0.491574 0.911337 0.604833
Si Si8 0.517587 0.209197 0.980406
O O1 0.159848 0.353365 0.537133
O O2 0.241212 0.395374 0.325211
O O3 0.433973 0.289649 0.771978
O O4 0.500000 0.500000 0.000000
O O5 0.325357 0.100892 0.697168
O O6 0.067455 0.906306 0.359588
O O7 0.310335 0.919499 0.462328
O O8 0.000000 0.000000 0.000000
O O9 0.295397 0.560948 0.239810
O O10 0.456537 0.781181 0.472692
O O11 0.666182 0.675406 0.926836
O O12 0.390677 0.723678 0.677606
O O13 0.008051 0.823772 0.574871
O O14 0.974459 0.626782 0.309616
O O15 0.673763 0.157728 0.108642
O O16 0.718540 0.970320 0.036754
O O17 0.000000 0.500000 0.000000
O O18 0.500000 0.000000 0.500000
#
# Coordination Sequence:
#
# PCOD9112082 Si02
#       8
#     2   2   2   2   2   2   2   2
#     4  11  25  46  71 101 136 187 237 287 353 415
#     4  11  24  40  68 102 134 187 234 285 351 423
#     4  11  22  45  68  98 140 182 229 289 351 412
#     4  11  27  43  72 107 137 185 238 288 355 421
#     4  11  23  46  68  98 143 185 229 292 355 414
#     4  12  27  47  74 102 141 185 235 297 351 421
#     4  11  25  43  69 102 140 183 232 287 352 420
#     4  10  20  44  69  92 137 187 224 289 349 408
#
# _framework density 25.338439000000001
#
# number of rings (size 3 to 8) (size 9 to 14) (size 15 to 20)
#    0.000    1.000    5.000    1.875    3.500    5.000 
#    0.000    0.000    0.000    0.000    0.000    0.000 
#    0.000    0.000    0.000    0.000    0.000    0.000 
#
# Total GULP energy -89572.631429 kJ/mol
# GULP energy per Si atom -5598.289464 kJ/mol
# Density = 2.528077 g / cm^3
# Si number density = 25.338439 Si / 1000 Ang^3
#
#
#
# Elastic Constant Matrix: (Units=GPa)
#
#
# Indices 1 2 3 4 5 6 
#
# 1 116.3450 36.9907 14.4645 3.5837 1.0186 10.3618
# 2 36.9907 155.4410 20.0760 3.0474 -6.2119 24.3037
# 3 14.4645 20.0760 51.5453 21.1727 0.9637 15.9081
# 4 3.5837 3.0474 21.1727 31.1725 9.7255 8.0576
# 5 1.0186 -6.2119 0.9637 9.7255 38.9235 -5.0192
# 6 10.3618 24.3037 15.9081 8.0576 -5.0192 52.0867
#
#
#
# Elastic Compliance Matrix: (Units=1/GPa)
#
#
# Indices 1 2 3 4 5 6 
#
# 1 0.009506 -0.001954 -0.002096 0.000919 -0.000811 -0.000559
# 2 -0.001954 0.007593 -0.002210 0.001479 0.000606 -0.002650
# 3 -0.002096 -0.002210 0.030409 -0.020125 0.003411 -0.004397
# 4 0.000919 0.001479 -0.020125 0.050302 -0.012335 -0.003697
# 5 -0.000811 0.000606 0.003411 -0.012335 0.029267 0.003565
# 6 -0.000559 -0.002650 -0.004397 -0.003697 0.003565 0.022805
#
#
# Mechanical properties :
#
#
# Convention : Reuss Voigt Hill
#
# Bulk Modulus (GPa) = 28.58238 51.82154 40.20196
# Shear Modulus (GPa) = 28.72477 41.22323 34.97400
#
# Velocity S-wave (km/s) = 3.37062 4.03787 3.71923
# Velocity P-wave (km/s) = 5.14323 6.49887 5.86038
#
# Compressibility (1/GPa) = 0.03498659
#
# Stress axis : x y z
#
# Youngs Moduli (GPa) = 105.20030 131.69378 32.88472
#
# Poissons Ratio (x) = 0.25737 0.06893
# Poissons Ratio (y) = 0.20560 0.07269
# Poissons Ratio (z) = 0.22052 0.29109
#
# Static dielectric constant tensor:
#      x y z
#    x 2.084570 -0.029190 -0.021240 
#    y -0.029190 1.996160 0.056040 
#    z -0.021240 0.056040 2.209420 
# 
# From -- ./inp_files/307859.got.cif
#   From: 2010.05.17/outbox.cif.g08.bks.cpg/sg2_154_cif.got.tgz:307859.got - 2010.06.03 11:33:40.
