data_PCOD9112114
_publ_section_title
;
Structure prediction by ZEFSAII (Michael W. Deem and Ramdas Pophale) SiO2 
 PCOD9112114
Probable space group: P -1
;
_chemical_formula_sum "Si O2"
_cell_formula_units_Z 15
_cell_length_a 11.466875
_cell_length_b 11.792749
_cell_length_c 16.621943
_cell_angle_alpha 147.915813
_cell_angle_beta 31.116769
_cell_angle_gamma 136.818004
_cell_volume 616.933037
_symmetry_space_group_name_H-M "P -1"
_symmetry_group_IT_number 2
_symmetry_cell_setting 'triclinic'
loop_
_space_group_symop_operation_xyz
x,y,z
-x,-y,-z
loop_
_atom_site_type_symbol
_atom_site_label
_atom_site_fract_x
_atom_site_fract_y
_atom_site_fract_z
Si Si1 0.682607 0.046381 0.080155
Si Si2 0.196263 0.029271 0.745543
Si Si3 0.160096 0.646715 0.407660
Si Si4 0.922540 0.783429 0.372327
Si Si5 0.576300 0.059383 0.671126
Si Si6 0.324375 0.325865 0.247562
Si Si7 0.210188 0.484776 0.926379
Si Si8 0.500000 0.500000 0.500000
O O1 0.617681 0.291650 0.264399
O O2 0.537671 0.945987 0.177907
O O3 0.948241 0.029399 0.930255
O O4 0.643342 0.918567 0.943651
O O5 0.385303 0.003747 0.685641
O O6 0.198836 0.838398 0.564703
O O7 0.231832 0.254776 0.815763
O O8 0.303093 0.718545 0.289960
O O9 0.245705 0.439249 0.278319
O O10 0.891475 0.638551 0.547037
O O11 0.747390 0.631829 0.431328
O O12 0.138712 0.655579 0.139049
O O13 0.766252 0.876820 0.448656
O O14 0.000000 0.000000 0.500000
O O15 0.553714 0.440779 0.207027
O O16 0.000000 0.500000 0.000000
#
# Coordination Sequence:
#
# PCOD9112114 Si02
#       8
#     2   2   2   2   2   2   2   1
#     4  10  22  42  69 102 136 184 231 286 354 421
#     4  11  22  42  69  97 140 177 237 283 346 420
#     4  10  22  42  67 100 136 184 227 299 341 412
#     4  11  25  46  67 103 142 186 234 291 362 424
#     4  11  22  41  71 100 135 181 235 286 347 418
#     4  10  23  44  66  99 143 180 232 292 351 417
#     4  12  24  42  71 101 136 185 237 288 354 427
#     4  10  20  44  70  92 140 186 222 286 354 418
#
# _framework density 24.313824
#
# number of rings (size 3 to 8) (size 9 to 14) (size 15 to 20)
#    0.000    1.333    2.667    3.200    1.867    0.533 
#    4.800    4.667    0.000    0.000    0.000    0.000 
#    0.000    0.000    0.000    0.000    0.000    0.000 
#
# Total GULP energy -83771.285133 kJ/mol
# GULP energy per Si atom -5584.752342 kJ/mol
# Density = 2.425848 g / cm^3
# Si number density = 24.313824 Si / 1000 Ang^3
#
#
#
# Elastic Constant Matrix: (Units=GPa)
#
#
# Indices 1 2 3 4 5 6 
#
# 1 94.8874 35.5508 24.2445 -1.3323 -21.9257 13.0820
# 2 35.5508 145.9384 33.8430 -17.3105 -1.3468 29.9005
# 3 24.2445 33.8430 104.2602 16.5352 -7.2062 7.6682
# 4 -1.3323 -17.3105 16.5352 58.5205 9.2836 -3.5750
# 5 -21.9257 -1.3468 -7.2062 9.2836 25.1033 -8.5501
# 6 13.0820 29.9005 7.6682 -3.5750 -8.5501 35.2515
#
#
#
# Elastic Compliance Matrix: (Units=1/GPa)
#
#
# Indices 1 2 3 4 5 6 
#
# 1 0.015384 -0.003932 -0.000950 -0.002754 0.014321 0.001027
# 2 -0.003932 0.010847 -0.003342 0.004894 -0.008548 -0.008591
# 3 -0.000950 -0.003342 0.011934 -0.005053 0.004701 0.001219
# 4 -0.002754 0.004894 -0.005053 0.021725 -0.012610 -0.002886
# 5 0.014321 -0.008548 0.004701 -0.012610 0.062976 0.014909
# 6 0.001027 -0.008591 0.001219 -0.002886 0.014909 0.038332
#
#
# Mechanical properties :
#
#
# Convention : Reuss Voigt Hill
#
# Bulk Modulus (GPa) = 46.04750 59.15138 52.59944
# Shear Modulus (GPa) = 27.04413 40.53824 33.79118
#
# Velocity S-wave (km/s) = 3.33873 4.08768 3.73204
# Velocity P-wave (km/s) = 5.81745 6.83081 6.34439
#
# Compressibility (1/GPa) = 0.02171670
#
# Stress axis : x y z
#
# Youngs Moduli (GPa) = 65.00434 92.19258 83.79625
#
# Poissons Ratio (x) = 0.36251 0.07960
# Poissons Ratio (y) = 0.25560 0.28002
# Poissons Ratio (z) = 0.06175 0.30808
#
# Static dielectric constant tensor:
#      x y z
#    x 1.965300 -0.006920 0.010940 
#    y -0.006920 1.957280 -0.008580 
#    z 0.010940 -0.008580 1.926210 
# 
# From -- ./inp_files/569238.got.cif
#   From: 2010.05.17/outbox.cif.g08.bks.cpg/sg2_285_cif.got.tgz:569238.got - 2010.06.03 11:33:40.
