data_PCOD9112450
_publ_section_title
;
Structure prediction by ZEFSAII (Michael W. Deem and Ramdas Pophale) SiO2 
 PCOD9112450
Probable space group: P 2
;
_chemical_formula_sum "Si O2"
_cell_formula_units_Z 16
_cell_length_a 25.027029
_cell_length_b 8.102325
_cell_length_c 18.343864
_cell_angle_alpha 90.000000
_cell_angle_beta 169.414657
_cell_angle_gamma 90.000000
_cell_volume 683.311439
_symmetry_space_group_name_H-M "P 2"
_symmetry_group_IT_number 3
_symmetry_cell_setting 'monoclinic'
loop_
_space_group_symop_operation_xyz
x,y,z
-x,y,-z
loop_
_atom_site_type_symbol
_atom_site_label
_atom_site_fract_x
_atom_site_fract_y
_atom_site_fract_z
Si Si1 0.132392 0.273620 0.597739
Si Si2 0.037905 0.027915 0.882555
Si Si3 0.244689 0.377327 0.517065
Si Si4 0.149270 0.577108 0.523740
Si Si5 0.700215 0.850443 0.551486
Si Si6 0.330811 0.148930 0.410477
Si Si7 0.336696 0.488115 0.476653
Si Si8 0.143488 0.947102 0.521932
O O1 0.027843 0.432958 0.412339
O O2 0.000000 0.272421 0.500000
O O3 0.075476 0.102616 0.481409
O O4 0.478012 0.302397 0.069353
O O5 0.950520 0.219970 0.760432
O O6 0.813224 0.902403 0.622741
O O7 0.013013 0.973306 0.765996
O O8 0.301786 0.054814 0.294411
O O9 0.099566 0.517220 0.373383
O O10 0.341299 0.439312 0.567654
O O11 0.064724 0.759203 0.435711
O O12 0.500000 0.577041 0.000000
O O13 0.553330 0.676746 0.373539
O O14 0.530710 0.012526 0.350999
O O15 0.000000 0.845391 0.000000
O O16 0.450974 0.334259 0.580485
O O17 0.000000 0.168323 0.000000
O O18 0.000000 0.504579 0.000000
O O19 0.500000 0.949111 0.000000
#
# Coordination Sequence:
#
# PCOD9112450 Si02
#       8
#     2   2   2   2   2   2   2   2
#     4  11  23  37  50  70 105 139 169 206 249 305
#     4  10  15  27  46  70 100 124 158 204 245 291
#     4  11  17  32  52  75 101 131 167 209 250 288
#     4   9  20  34  53  76  96 126 171 217 256 295
#     4   8  15  23  37  66 104 128 146 183 249 306
#     4   8  14  24  35  65 103 126 142 189 246 299
#     4  10  15  24  43  69 103 129 151 197 256 295
#     4  11  19  33  55  75  96 127 171 218 258 295
#
# _framework density 23.415384
#
# number of rings (size 3 to 8) (size 9 to 14) (size 15 to 20)
#    0.000    2.500    6.250    1.125    0.000    0.500 
#    0.000    0.000    0.000    0.000    0.000    3.500 
#    0.000    2.000    0.000    0.000    0.000    0.000 
#
# Total GULP energy -89138.605957 kJ/mol
# GULP energy per Si atom -5571.162872 kJ/mol
# Density = 2.336209 g / cm^3
# Si number density = 23.415384 Si / 1000 Ang^3
#
#
#
# Elastic Constant Matrix: (Units=GPa)
#
#
# Indices 1 2 3 4 5 6 
#
# 1 117.6302 48.6785 30.7443 0.0000 -18.1722 0.0000
# 2 48.6785 219.0727 37.0147 0.0000 2.5573 0.0000
# 3 30.7443 37.0147 55.4974 0.0000 -13.5827 0.0000
# 4 0.0000 0.0000 0.0000 4.9593 0.0000 -15.1926
# 5 -18.1722 2.5573 -13.5827 0.0000 25.0492 0.0000
# 6 0.0000 0.0000 0.0000 -15.1926 0.0000 14.8152
#
#
#
# Elastic Compliance Matrix: (Units=1/GPa)
#
#
# Indices 1 2 3 4 5 6 
#
# 1 0.011200 -0.002016 -0.003253 0.000000 0.006567 0.000000
# 2 -0.002016 0.005677 -0.003654 0.000000 -0.004023 0.000000
# 3 -0.003253 -0.003654 0.025103 0.000000 0.011625 0.000000
# 4 0.000000 0.000000 0.000000 -0.094159 0.000000 -0.096558
# 5 0.006567 -0.004023 0.011625 0.000000 0.051400 0.000000
# 6 0.000000 0.000000 0.000000 -0.096558 0.000000 -0.031519
#
#
# Mechanical properties :
#
#
# Convention : Reuss Voigt Hill
#
# Bulk Modulus (GPa) = 41.43440 69.45281 55.44360
# Shear Modulus (GPa) = -780.45213 27.34894 -376.55160
#
# Velocity S-wave (km/s) = -18.27652 3.42129 -12.69499
# Velocity P-wave (km/s) = 20.67948 6.73295 13.82585
#
# Compressibility (1/GPa) = 0.02413454
#
# Stress axis : x y z
#
# Youngs Moduli (GPa) = 89.28485 176.14895 39.83509
#
# Poissons Ratio (x) = 0.35507 0.12958
# Poissons Ratio (y) = 0.17998 0.14557
# Poissons Ratio (z) = 0.29043 0.64372
#
# Static dielectric constant tensor:
#      x y z
#    x 1.925510 0.000000 0.073590 
#    y 0.000000 1.936720 0.000000 
#    z 0.073590 0.000000 1.946410 
# 
# From -- ./inp_files/14383.got.cif
#   From: 2010.05.17/outbox.cif.g08.bks.cpg/sg3_8_cif.got.tgz:14383.got - 2010.06.03 18:33:08.
