data_PCOD9112353
_publ_section_title
;
Structure prediction by ZEFSAII (Michael W. Deem and Ramdas Pophale) SiO2 
 PCOD9112353
Probable space group: P -1
;
_chemical_formula_sum "Si O2"
_cell_formula_units_Z 16
_cell_length_a 8.346285
_cell_length_b 6.243634
_cell_length_c 20.713838
_cell_angle_alpha 120.937121
_cell_angle_beta 49.843160
_cell_angle_gamma 125.124941
_cell_volume 656.845707
_symmetry_space_group_name_H-M "P -1"
_symmetry_group_IT_number 2
_symmetry_cell_setting 'triclinic'
loop_
_space_group_symop_operation_xyz
x,y,z
-x,-y,-z
loop_
_atom_site_type_symbol
_atom_site_label
_atom_site_fract_x
_atom_site_fract_y
_atom_site_fract_z
Si Si1 0.146846 0.323687 0.954221
Si Si2 0.693699 0.813394 0.982768
Si Si3 0.518611 0.542637 0.365772
Si Si4 0.075923 0.554867 0.688830
Si Si5 0.805592 0.826924 0.212889
Si Si6 0.705299 0.971490 0.861857
Si Si7 0.845676 0.299242 0.455929
Si Si8 0.173337 0.027647 0.311482
O O1 0.287855 0.382955 0.994165
O O2 0.290276 0.305768 0.851308
O O3 0.000000 0.500000 0.000000
O O4 0.947329 0.031415 0.958043
O O5 0.507280 0.936100 0.070834
O O6 0.670043 0.789075 0.907142
O O7 0.707539 0.493949 0.350113
O O8 0.631935 0.694200 0.294216
O O9 0.398387 0.715469 0.461110
O O10 0.342649 0.242306 0.348414
O O11 0.090409 0.572245 0.610986
O O12 0.111725 0.848756 0.753647
O O13 0.863937 0.285789 0.721700
O O14 0.045764 0.791123 0.157132
O O15 0.736070 0.867124 0.767286
O O16 0.000000 0.500000 0.500000
O O17 0.931675 0.053262 0.391383
#
# Coordination Sequence:
#
# PCOD9112353 Si02
#       8
#     2   2   2   2   2   2   2   2
#     4  10  23  45  71 107 145 190 245 303 367 441
#     4   9  22  43  70  99 144 187 241 301 362 437
#     4  11  26  44  73 106 145 192 246 302 374 437
#     4  12  24  46  72 107 141 197 242 309 362 441
#     4  11  25  45  70 108 151 187 241 310 363 436
#     4  10  20  47  67 101 147 190 240 299 368 431
#     4  10  24  47  70 104 148 191 242 309 368 440
#     4  11  25  46  73 104 147 193 248 306 364 443
#
# _framework density 24.358839
#
# number of rings (size 3 to 8) (size 9 to 14) (size 15 to 20)
#    0.000    1.500    2.500    0.375    3.500    9.000 
#    2.250    3.125    0.000    0.000    0.000    0.000 
#    0.000    0.000    0.000    0.000    0.000    0.000 
#
# Total GULP energy -89304.658255 kJ/mol
# GULP energy per Si atom -5581.541141 kJ/mol
# Density = 2.430340 g / cm^3
# Si number density = 24.358839 Si / 1000 Ang^3
#
#
#
# Elastic Constant Matrix: (Units=GPa)
#
#
# Indices 1 2 3 4 5 6 
#
# 1 114.4981 44.9140 56.2894 15.2124 15.4900 -21.2270
# 2 44.9140 93.9760 32.1334 -5.9766 17.0781 -12.5909
# 3 56.2894 32.1334 159.6588 0.1106 9.6385 -21.8448
# 4 15.2124 -5.9766 0.1106 33.2534 11.3405 -0.2592
# 5 15.4900 17.0781 9.6385 11.3405 48.0798 -5.2552
# 6 -21.2270 -12.5909 -21.8448 -0.2592 -5.2552 29.8068
#
#
#
# Elastic Compliance Matrix: (Units=1/GPa)
#
#
# Indices 1 2 3 4 5 6 
#
# 1 0.014572 -0.005673 -0.003248 -0.007774 0.000418 0.005606
# 2 -0.005673 0.015036 -0.000587 0.006988 -0.004927 0.001074
# 3 -0.003248 -0.000587 0.007991 0.001497 -0.000345 0.003247
# 4 -0.007774 0.006988 0.001497 0.038125 -0.009581 -0.002845
# 5 0.000418 -0.004927 -0.000345 -0.009581 0.024993 0.002287
# 6 0.005606 0.001074 0.003247 -0.002845 0.002287 0.040754
#
#
# Mechanical properties :
#
#
# Convention : Reuss Voigt Hill
#
# Bulk Modulus (GPa) = 53.81253 70.53404 62.17328
# Shear Modulus (GPa) = 29.99747 37.88107 33.93927
#
# Velocity S-wave (km/s) = 3.51305 3.94779 3.73675
# Velocity P-wave (km/s) = 6.21248 7.05685 6.64809
#
# Compressibility (1/GPa) = 0.01858303
#
# Stress axis : x y z
#
# Youngs Moduli (GPa) = 68.62656 66.50517 125.14357
#
# Poissons Ratio (x) = 0.37726 0.40652
# Poissons Ratio (y) = 0.38930 0.07343
# Poissons Ratio (z) = 0.22293 0.03903
#
# Static dielectric constant tensor:
#      x y z
#    x 1.974060 -0.013260 -0.008390 
#    y -0.013260 1.998200 0.009150 
#    z -0.008390 0.009150 1.937930 
# 
# From -- ./inp_files/585846.got.cif
#   From: 2010.05.17/outbox.cif.g08.bks.cpg/sg2_293_cif.got.tgz:585846.got - 2010.06.03 11:33:40.
