data_PCOD9112026
_publ_section_title
;
Structure prediction by ZEFSAII (Michael W. Deem and Ramdas Pophale) SiO2 
 PCOD9112026
Probable space group: P -1
;
_chemical_formula_sum "Si O2"
_cell_formula_units_Z 16
_cell_length_a 10.452454
_cell_length_b 6.686971
_cell_length_c 11.222830
_cell_angle_alpha 100.540104
_cell_angle_beta 74.115261
_cell_angle_gamma 121.051568
_cell_volume 645.525982
_symmetry_space_group_name_H-M "P -1"
_symmetry_group_IT_number 2
_symmetry_cell_setting 'triclinic'
loop_
_space_group_symop_operation_xyz
x,y,z
-x,-y,-z
loop_
_atom_site_type_symbol
_atom_site_label
_atom_site_fract_x
_atom_site_fract_y
_atom_site_fract_z
Si Si1 0.412396 0.338031 0.187900
Si Si2 0.132187 0.981508 0.889614
Si Si3 0.466238 0.716434 0.396395
Si Si4 0.853412 0.479740 0.152780
Si Si5 0.474576 0.807836 0.668323
Si Si6 0.963978 0.908023 0.308568
Si Si7 0.110615 0.384006 0.463818
Si Si8 0.694159 0.568721 0.993418
O O1 0.490000 0.540599 0.288869
O O2 0.394614 0.131314 0.256886
O O3 0.531998 0.366562 0.058479
O O4 0.297060 0.389115 0.145109
O O5 0.111252 0.728757 0.875954
O O6 0.138315 0.049822 0.757162
O O7 0.281045 0.184860 0.935228
O O8 0.000000 0.000000 0.000000
O O9 0.519034 0.741240 0.522637
O O10 0.281923 0.595898 0.434099
O O11 0.534001 0.963499 0.342026
O O12 0.693799 0.377832 0.258404
O O13 0.987946 0.722931 0.199727
O O14 0.808913 0.518180 0.035535
O O15 0.902703 0.751734 0.424531
O O16 0.072267 0.171937 0.357126
O O17 0.000000 0.500000 0.500000
#
# Coordination Sequence:
#
# PCOD9112026 Si02
#       8
#     2   2   2   2   2   2   2   2
#     4  10  21  42  63  93 134 166 220 269 325 391
#     4  11  24  41  67  97 130 171 220 270 324 394
#     4  11  23  39  64 100 128 171 219 268 324 392
#     4  10  20  44  67  96 133 170 218 265 333 397
#     4  10  22  40  66  99 129 171 209 274 334 381
#     4  10  23  41  66  92 129 179 211 264 326 384
#     4  11  24  44  64  96 136 175 219 265 331 390
#     4   9  22  40  65  94 128 178 210 269 335 382
#
# _framework density 24.785986999999999
#
# number of rings (size 3 to 8) (size 9 to 14) (size 15 to 20)
#    0.000    1.750    1.250    1.875    1.750    5.000 
#    9.000    3.750    0.000    0.000    0.000    0.000 
#    0.000    0.000    0.000    0.000    0.000    0.000 
#
# Total GULP energy -89161.005746 kJ/mol
# GULP energy per Si atom -5572.562859 kJ/mol
# Density = 2.472957 g / cm^3
# Si number density = 24.785987 Si / 1000 Ang^3
#
#
#
# Elastic Constant Matrix: (Units=GPa)
#
#
# Indices 1 2 3 4 5 6 
#
# 1 65.6704 39.6974 63.0854 -13.3804 10.2693 -10.4622
# 2 39.6974 120.7411 40.7783 -8.6142 15.4965 -30.5439
# 3 63.0854 40.7783 151.0278 -26.0330 42.3364 -18.0393
# 4 -13.3804 -8.6142 -26.0330 44.2933 -2.1296 -2.9341
# 5 10.2693 15.4965 42.3364 -2.1296 48.3175 0.2898
# 6 -10.4622 -30.5439 -18.0393 -2.9341 0.2898 39.7556
#
#
#
# Elastic Compliance Matrix: (Units=1/GPa)
#
#
# Indices 1 2 3 4 5 6 
#
# 1 0.030974 -0.007583 -0.013499 0.000063 0.007703 -0.003851
# 2 -0.007583 0.013063 0.002416 0.002063 -0.004660 0.009323
# 3 -0.013499 0.002416 0.016977 0.006201 -0.012547 0.006556
# 4 0.000063 0.002063 0.006201 0.026829 -0.004965 0.006432
# 5 0.007703 -0.004660 -0.012547 -0.004965 0.031376 -0.007841
# 6 -0.003851 0.009323 0.006556 0.006432 -0.007841 0.034810
#
#
# Mechanical properties :
#
#
# Convention : Reuss Voigt Hill
#
# Bulk Modulus (GPa) = 42.22681 69.39571 55.81126
# Shear Modulus (GPa) = 25.09357 39.39850 32.24603
#
# Velocity S-wave (km/s) = 3.18529 3.99124 3.61082
# Velocity P-wave (km/s) = 5.53188 7.02130 6.32062
#
# Compressibility (1/GPa) = 0.02368164
#
# Stress axis : x y z
#
# Youngs Moduli (GPa) = 32.28546 76.55116 58.90408
#
# Poissons Ratio (x) = 0.58048 0.79514
# Poissons Ratio (y) = 0.24482 -0.14230
# Poissons Ratio (z) = 0.43582 -0.18493
#
# Static dielectric constant tensor:
#      x y z
#    x 2.080670 0.051260 -0.004980 
#    y 0.051260 2.005550 -0.001620 
#    z -0.004980 -0.001620 1.993600 
# 
# From -- ./inp_files/410784.got.cif
#   From: 2010.05.17/outbox.cif.g08.bks.cpg/sg2_206_cif.got.tgz:410784.got - 2010.06.03 11:33:40.
