data_PCOD9112867
_publ_section_title
;
Structure prediction by ZEFSAII (Michael W. Deem and Ramdas Pophale) SiO2 
 PCOD9112867
Probable space group: P 2
;
_chemical_formula_sum "Si O2"
_cell_formula_units_Z 16
_cell_length_a 14.017731
_cell_length_b 11.565269
_cell_length_c 5.556547
_cell_angle_alpha 90.000000
_cell_angle_beta 76.110148
_cell_angle_gamma 90.000000
_cell_volume 874.480007
_symmetry_space_group_name_H-M "P 2"
_symmetry_group_IT_number 3
_symmetry_cell_setting 'monoclinic'
loop_
_space_group_symop_operation_xyz
x,y,z
-x,y,-z
loop_
_atom_site_type_symbol
_atom_site_label
_atom_site_fract_x
_atom_site_fract_y
_atom_site_fract_z
Si Si1 0.397886 0.792380 0.675667
Si Si2 0.444285 0.543819 0.789758
Si Si3 0.109328 0.691924 0.846956
Si Si4 0.246156 0.691024 0.384350
Si Si5 0.777502 0.891173 0.986558
Si Si6 0.056490 0.062794 0.217862
Si Si7 0.943701 0.340462 0.781868
Si Si8 0.238931 0.499199 0.040530
O O1 0.500000 0.832655 0.500000
O O2 0.422980 0.682834 0.830930
O O3 0.327137 0.728590 0.527269
O O4 0.330046 0.893429 0.826637
O O5 0.500000 0.531713 0.500000
O O6 0.500000 0.507096 0.000000
O O7 0.339821 0.477671 0.839991
O O8 0.136106 0.674423 0.554446
O O9 0.149674 0.819564 0.882288
O O10 0.175945 0.596966 0.939783
O O11 0.000000 0.679765 0.000000
O O12 0.239078 0.799508 0.214579
O O13 0.273310 0.568635 0.255875
O O14 0.836954 0.002188 0.864694
O O15 0.064624 0.201589 0.222422
O O16 0.000000 0.025964 0.500000
O O17 0.000000 0.035811 0.000000
O O18 0.836145 0.397328 0.859865
O O19 0.000000 0.376945 0.500000
O O20 0.000000 0.370493 0.000000
#
# Coordination Sequence:
#
# PCOD9112867 Si02
#       8
#     2   2   2   2   2   2   2   2
#     4  10  20  33  52  78 119 147 192 228 280 338
#     4  11  22  35  55  80 115 155 188 227 277 336
#     4  10  21  31  46  80 118 150 182 221 287 342
#     4  10  20  34  48  83 116 149 190 220 289 339
#     4  10  21  32  54  80 109 151 189 230 280 337
#     4  10  23  42  61  82 111 149 195 235 276 332
#     4  10  24  41  61  86 110 151 194 233 282 332
#     4  11  21  34  55  82 115 149 186 235 275 342
#
# _framework density 18.296586999999999
#
# number of rings (size 3 to 8) (size 9 to 14) (size 15 to 20)
#    0.000    1.750    3.750    2.250    8.750    1.000 
#    0.000    0.000    0.000    0.750    3.250    0.000 
#    0.000    0.000    0.000    0.000    0.000    0.000 
#
# Total GULP energy -89124.484784 kJ/mol
# GULP energy per Si atom -5570.280299 kJ/mol
# Density = 1.825494 g / cm^3
# Si number density = 18.296587 Si / 1000 Ang^3
#
#
#
# Elastic Constant Matrix: (Units=GPa)
#
#
# Indices 1 2 3 4 5 6 
#
# 1 126.4696 29.0934 66.7351 0.0000 -40.5371 0.0000
# 2 29.0934 37.0074 25.6679 0.0000 -11.3374 0.0000
# 3 66.7351 25.6679 113.7867 0.0000 -25.0973 0.0000
# 4 0.0000 0.0000 0.0000 12.2305 0.0000 -10.0239
# 5 -40.5371 -11.3374 -25.0973 0.0000 43.3627 0.0000
# 6 0.0000 0.0000 0.0000 -10.0239 0.0000 20.5240
#
#
#
# Elastic Compliance Matrix: (Units=1/GPa)
#
#
# Indices 1 2 3 4 5 6 
#
# 1 0.015082 -0.005049 -0.005603 0.000000 0.009536 0.000000
# 2 -0.005049 0.034622 -0.004463 0.000000 0.001749 0.000000
# 3 -0.005603 -0.004463 0.013376 0.000000 0.001337 0.000000
# 4 0.000000 0.000000 0.000000 0.136337 0.000000 0.066587
# 5 0.009536 0.001749 0.001337 0.000000 0.033207 0.000000
# 6 0.000000 0.000000 0.000000 0.066587 0.000000 0.081245
#
#
# Mechanical properties :
#
#
# Convention : Reuss Voigt Hill
#
# Bulk Modulus (GPa) = 30.44146 57.80629 44.12387
# Shear Modulus (GPa) = 14.08257 25.60792 19.84525
#
# Velocity S-wave (km/s) = 2.77733 3.74518 3.29696
# Velocity P-wave (km/s) = 5.19217 7.09679 6.21784
#
# Compressibility (1/GPa) = 0.03284993
#
# Stress axis : x y z
#
# Youngs Moduli (GPa) = 66.30592 28.88319 74.75955
#
# Poissons Ratio (x) = 0.14583 0.41888
# Poissons Ratio (y) = 0.33477 0.33366
# Poissons Ratio (z) = 0.37152 0.12891
#
# Static dielectric constant tensor:
#      x y z
#    x 1.674040 0.000000 0.001670 
#    y 0.000000 1.595570 0.000000 
#    z 0.001670 0.000000 1.773380 
# 
# From -- ./inp_files/2502.got.cif
#   From: 2010.05.17/outbox.cif.g08.bks.cpg/sg3_2_cif.got.tgz:2502.got - 2010.06.03 18:33:08.
