data_PCOD9112502
_publ_section_title
;
Structure prediction by ZEFSAII (Michael W. Deem and Ramdas Pophale) SiO2 
 PCOD9112502
Probable space group: P 2
;
_chemical_formula_sum "Si O2"
_cell_formula_units_Z 12
_cell_length_a 19.423581
_cell_length_b 5.015954
_cell_length_c 14.390809
_cell_angle_alpha 90.000000
_cell_angle_beta 160.790248
_cell_angle_gamma 90.000000
_cell_volume 461.317674
_symmetry_space_group_name_H-M "P 2"
_symmetry_group_IT_number 3
_symmetry_cell_setting 'monoclinic'
loop_
_space_group_symop_operation_xyz
x,y,z
-x,y,-z
loop_
_atom_site_type_symbol
_atom_site_label
_atom_site_fract_x
_atom_site_fract_y
_atom_site_fract_z
Si Si1 0.693531 0.345230 0.622476
Si Si2 0.589180 0.568730 0.202005
Si Si3 0.855764 0.827458 0.149435
Si Si4 0.157669 0.418860 0.631519
Si Si5 0.367212 0.860266 0.567112
Si Si6 0.794961 0.318417 0.953685
O O1 0.702565 0.648340 0.600079
O O2 0.827622 0.292726 0.885363
O O3 0.453801 0.284095 0.345766
O O4 0.722714 0.144984 0.574174
O O5 0.733078 0.362335 0.329233
O O6 0.698236 0.740989 0.417853
O O7 0.500000 0.738274 0.000000
O O8 0.374093 0.443320 0.965978
O O9 0.621877 0.860519 0.893268
O O10 0.837497 0.614421 0.042952
O O11 0.023061 0.685348 0.431023
O O12 0.900219 0.107954 0.157277
O O13 0.000000 0.266992 0.500000
#
# Coordination Sequence:
#
# PCOD9112502 Si02
#       6
#     2   2   2   2   2   2
#     4   9  18  30  53  79 117 142 192 232 278 339
#     4   8  19  33  57  85 115 148 192 229 291 339
#     4  10  17  32  55  78 115 144 190 231 280 334
#     4   9  17  35  58  84 116 149 188 237 282 343
#     4  10  17  33  53  82 109 153 181 233 284 331
#     4   9  18  30  51  85 107 151 188 232 281 334
#
# _framework density 26.012442
#
# number of rings (size 3 to 8) (size 9 to 14) (size 15 to 20)
#    1.000    1.667    1.667    1.000    0.000    4.000 
#    0.000    5.000    0.000    6.000    0.000    0.000 
#    0.000    0.000    0.000    0.000    0.000    0.000 
#
# Total GULP energy -66905.227803 kJ/mol
# GULP energy per Si atom -5575.435650 kJ/mol
# Density = 2.595324 g / cm^3
# Si number density = 26.012442 Si / 1000 Ang^3
#
#
#
# Elastic Constant Matrix: (Units=GPa)
#
#
# Indices 1 2 3 4 5 6 
#
# 1 81.6552 -7.6771 53.2123 0.0000 1.7795 0.0000
# 2 -7.6771 64.2856 19.2357 0.0000 13.1859 0.0000
# 3 53.2123 19.2357 105.0927 0.0000 31.1516 0.0000
# 4 0.0000 0.0000 0.0000 123.8655 0.0000 52.5594
# 5 1.7795 13.1859 31.1516 0.0000 44.7663 0.0000
# 6 0.0000 0.0000 0.0000 52.5594 0.0000 19.3905
#
#
#
# Elastic Compliance Matrix: (Units=1/GPa)
#
#
# Indices 1 2 3 4 5 6 
#
# 1 0.021899 0.005354 -0.014291 0.000000 0.007497 0.000000
# 2 0.005354 0.018204 -0.005531 0.000000 -0.001726 0.000000
# 3 -0.014291 -0.005531 0.021559 0.000000 -0.012805 0.000000
# 4 0.000000 0.000000 0.000000 -0.053761 0.000000 0.145724
# 5 0.007497 -0.001726 -0.012805 0.000000 0.031460 0.000000
# 6 0.000000 0.000000 0.000000 0.145724 0.000000 -0.343423
#
#
# Mechanical properties :
#
#
# Convention : Reuss Voigt Hill
#
# Bulk Modulus (GPa) = 30.55636 42.28615 36.42126
# Shear Modulus (GPa) = -18.92385 50.02195 15.54905
#
# Velocity S-wave (km/s) = -2.70013 4.38996 2.44755
# Velocity P-wave (km/s) = 1.43226 6.47974 4.69247
#
# Compressibility (1/GPa) = 0.03272641
#
# Stress axis : x y z
#
# Youngs Moduli (GPa) = 45.66335 54.93317 46.38330
#
# Poissons Ratio (x) = -0.29409 0.66285
# Poissons Ratio (y) = -0.24446 0.25655
# Poissons Ratio (z) = 0.65256 0.30384
#
# Static dielectric constant tensor:
#      x y z
#    x 2.099600 0.000000 0.005130 
#    y 0.000000 2.029140 0.000000 
#    z 0.005130 0.000000 2.032400 
# 
# From -- ./inp_files/14299.got.cif
#   From: 2010.05.17/outbox.cif.g08.bks.cpg/sg3_8_cif.got.tgz:14299.got - 2010.06.03 18:33:08.
