data_PCOD9112579
_publ_section_title
;
Structure prediction by ZEFSAII (Michael W. Deem and Ramdas Pophale) SiO2 
 PCOD9112579
Probable space group: P 2
;
_chemical_formula_sum "Si O2"
_cell_formula_units_Z 15
_cell_length_a 10.162289
_cell_length_b 9.517978
_cell_length_c 8.779118
_cell_angle_alpha 90.000000
_cell_angle_beta 65.543974
_cell_angle_gamma 90.000000
_cell_volume 772.968472
_symmetry_space_group_name_H-M "P 2"
_symmetry_group_IT_number 3
_symmetry_cell_setting 'monoclinic'
loop_
_space_group_symop_operation_xyz
x,y,z
-x,y,-z
loop_
_atom_site_type_symbol
_atom_site_label
_atom_site_fract_x
_atom_site_fract_y
_atom_site_fract_z
Si Si1 0.849986 0.472440 0.764956
Si Si2 0.572695 0.876044 0.311960
Si Si3 0.644041 0.175738 0.332483
Si Si4 0.357941 0.264094 0.011296
Si Si5 0.137928 0.355356 0.582097
Si Si6 0.303050 0.990929 0.239558
Si Si7 0.000000 0.096880 0.500000
Si Si8 0.661666 0.725235 0.980690
O O1 0.815514 0.417159 0.607074
O O2 0.772535 0.612986 0.858281
O O3 0.023082 0.469640 0.695065
O O4 0.783631 0.355558 0.905976
O O5 0.500000 0.816940 0.500000
O O6 0.436012 0.944083 0.284150
O O7 0.678232 0.007159 0.306120
O O8 0.646621 0.760632 0.167656
O O9 0.500000 0.175834 0.500000
O O10 0.622423 0.218120 0.169549
O O11 0.740222 0.295718 0.366712
O O12 0.500000 0.346045 0.000000
O O13 0.342570 0.134488 0.134773
O O14 0.045596 0.210573 0.605600
O O15 0.295207 0.872805 0.115378
O O16 0.146298 0.012651 0.392373
O O17 0.500000 0.690075 0.000000
#
# Coordination Sequence:
#
# PCOD9112579 Si02
#       8
#     2   2   2   2   2   2   1   2
#     4  10  22  39  60  85 128 170 211 258 314 383
#     4  10  20  35  63  96 129 158 207 274 319 365
#     4  11  21  34  61  95 124 158 207 271 325 358
#     4  12  19  35  60  90 120 162 211 262 307 376
#     4  10  21  38  59  90 126 160 214 265 312 373
#     4  11  19  37  60  93 124 163 214 258 312 382
#     4  10  18  34  58  84 122 156 206 264 310 366
#     4  10  21  39  60  92 126 169 215 254 311 388
#
# _framework density 19.405707
#
# number of rings (size 3 to 8) (size 9 to 14) (size 15 to 20)
#    0.000    1.600    5.333    3.200    0.000    1.600 
#    0.000    3.333    0.000    4.800    0.000    0.000 
#    0.000    0.000    0.000    0.000    0.000    0.000 
#
# Total GULP energy -83512.551722 kJ/mol
# GULP energy per Si atom -5567.503448 kJ/mol
# Density = 1.936154 g / cm^3
# Si number density = 19.405707 Si / 1000 Ang^3
#
#
#
# Elastic Constant Matrix: (Units=GPa)
#
#
# Indices 1 2 3 4 5 6 
#
# 1 46.6960 13.5343 25.1916 0.0000 -5.4519 0.0000
# 2 13.5343 64.6445 30.9963 0.0000 -9.2744 0.0000
# 3 25.1916 30.9963 113.0514 0.0000 -9.4326 0.0000
# 4 0.0000 0.0000 0.0000 41.5473 0.0000 -15.5712
# 5 -5.4519 -9.2744 -9.4326 0.0000 27.3468 0.0000
# 6 0.0000 0.0000 0.0000 -15.5712 0.0000 19.3667
#
#
#
# Elastic Compliance Matrix: (Units=1/GPa)
#
#
# Indices 1 2 3 4 5 6 
#
# 1 0.024971 -0.002652 -0.004630 0.000000 0.002482 0.000000
# 2 -0.002652 0.018643 -0.004157 0.000000 0.004360 0.000000
# 3 -0.004630 -0.004157 0.011143 0.000000 0.001511 0.000000
# 4 0.000000 0.000000 0.000000 0.034450 0.000000 0.027698
# 5 0.002482 0.004360 0.001511 0.000000 0.039062 0.000000
# 6 0.000000 0.000000 0.000000 0.027698 0.000000 0.073905
#
#
# Mechanical properties :
#
#
# Convention : Reuss Voigt Hill
#
# Bulk Modulus (GPa) = 31.36800 40.42626 35.89713
# Shear Modulus (GPa) = 21.21529 27.96347 24.58938
#
# Velocity S-wave (km/s) = 3.31002 3.80016 3.56353
# Velocity P-wave (km/s) = 5.55047 6.33501 5.95567
#
# Compressibility (1/GPa) = 0.03187963
#
# Stress axis : x y z
#
# Youngs Moduli (GPa) = 40.04571 53.63908 89.74183
#
# Poissons Ratio (x) = 0.14225 0.41553
# Poissons Ratio (y) = 0.10620 0.37304
# Poissons Ratio (z) = 0.18542 0.22297
#
# Static dielectric constant tensor:
#      x y z
#    x 1.749650 0.000000 -0.001790 
#    y 0.000000 1.714830 0.000000 
#    z -0.001790 0.000000 1.696860 
# 
# From -- ./inp_files/7154.got.cif
#   From: 2010.05.17/outbox.cif.g08.bks.cpg/sg3_4_cif.got.tgz:7154.got - 2010.06.03 18:33:08.
