data_PCOD9112596
_publ_section_title
;
Structure prediction by ZEFSAII (Michael W. Deem and Ramdas Pophale) SiO2 
 PCOD9112596
Probable space group: P 2
;
_chemical_formula_sum "Si O2"
_cell_formula_units_Z 15
_cell_length_a 7.868480
_cell_length_b 8.717160
_cell_length_c 19.337989
_cell_angle_alpha 90.000000
_cell_angle_beta 146.163102
_cell_angle_gamma 90.000000
_cell_volume 738.584691
_symmetry_space_group_name_H-M "P 2"
_symmetry_group_IT_number 3
_symmetry_cell_setting 'monoclinic'
loop_
_space_group_symop_operation_xyz
x,y,z
-x,y,-z
loop_
_atom_site_type_symbol
_atom_site_label
_atom_site_fract_x
_atom_site_fract_y
_atom_site_fract_z
Si Si1 0.742278 0.503420 0.023203
Si Si2 0.737909 0.647416 0.226096
Si Si3 0.249531 0.520998 0.294574
Si Si4 0.500000 0.950407 0.500000
Si Si5 0.819991 0.157645 0.723541
Si Si6 0.936394 0.177258 0.054380
Si Si7 0.857856 0.718442 0.522519
Si Si8 0.410313 0.962435 0.893266
O O1 0.763335 0.319808 0.030734
O O2 0.075050 0.554336 0.162669
O O3 0.500000 0.550094 0.000000
O O4 0.582157 0.565357 0.900216
O O5 0.698773 0.823393 0.189832
O O6 0.013241 0.581478 0.272318
O O7 0.861664 0.632839 0.345090
O O8 0.257780 0.337373 0.309355
O O9 0.572227 0.605760 0.410469
O O10 0.731811 0.840240 0.536145
O O11 0.626492 0.057471 0.604456
O O12 0.807768 0.129770 0.802921
O O13 0.160332 0.096594 0.819174
O O14 0.000000 0.238888 0.000000
O O15 0.715303 0.035761 0.967120
O O16 0.000000 0.784977 0.500000
O O17 0.500000 0.904855 0.000000
#
# Coordination Sequence:
#
# PCOD9112596 Si02
#       8
#     2   2   2   1   2   2   2   2
#     4   9  19  37  66  95 119 166 216 262 321 393
#     4  11  20  37  64  95 120 167 212 267 324 383
#     4  10  20  41  66  95 125 166 218 269 326 387
#     4  12  24  46  68  88 128 182 220 274 320 392
#     4  10  22  39  68  91 119 173 220 261 325 389
#     4  10  21  37  58  91 132 161 203 271 328 382
#     4  12  26  43  64  96 136 174 217 271 329 393
#     4  10  18  35  60  89 117 156 210 256 311 386
#
# _framework density 20.309111999999999
#
# number of rings (size 3 to 8) (size 9 to 14) (size 15 to 20)
#    0.000    1.600    2.667    4.000    1.867    4.267 
#    0.000    1.333    0.000    0.000    0.000    0.000 
#    0.000    0.000    0.000    0.000    0.000    0.000 
#
# Total GULP energy -83546.791340 kJ/mol
# GULP energy per Si atom -5569.786089 kJ/mol
# Density = 2.026289 g / cm^3
# Si number density = 20.309112 Si / 1000 Ang^3
#
#
#
# Elastic Constant Matrix: (Units=GPa)
#
#
# Indices 1 2 3 4 5 6 
#
# 1 41.6841 14.2479 24.1084 0.0000 -13.8617 0.0000
# 2 14.2479 89.8312 53.9722 0.0000 4.3030 0.0000
# 3 24.1084 53.9722 176.4165 0.0000 -20.5059 0.0000
# 4 0.0000 0.0000 0.0000 22.3092 0.0000 -3.5839
# 5 -13.8617 4.3030 -20.5059 0.0000 15.6755 0.0000
# 6 0.0000 0.0000 0.0000 -3.5839 0.0000 1.6068
#
#
#
# Elastic Compliance Matrix: (Units=1/GPa)
#
#
# Indices 1 2 3 4 5 6 
#
# 1 0.039365 -0.009506 0.002215 0.000000 0.040317 0.000000
# 2 -0.009506 0.017703 -0.006674 0.000000 -0.021995 0.000000
# 3 0.002215 -0.006674 0.009255 0.000000 0.015898 0.000000
# 4 0.000000 0.000000 0.000000 0.069854 0.000000 0.155805
# 5 0.040317 -0.021995 0.015898 0.000000 0.126280 0.000000
# 6 0.000000 0.000000 0.000000 0.155805 0.000000 0.969854
#
#
# Mechanical properties :
#
#
# Convention : Reuss Voigt Hill
#
# Bulk Modulus (GPa) = 26.04524 54.73210 40.38867
# Shear Modulus (GPa) = 3.92761 22.29185 13.10973
#
# Velocity S-wave (km/s) = 1.39216 3.31664 2.54344
# Velocity P-wave (km/s) = 3.92892 6.45561 5.34375
#
# Compressibility (1/GPa) = 0.03839474
#
# Stress axis : x y z
#
# Youngs Moduli (GPa) = 25.40322 56.48810 108.04589
#
# Poissons Ratio (x) = 0.53695 -0.23931
# Poissons Ratio (y) = 0.24147 0.72105
# Poissons Ratio (z) = -0.05627 0.37698
#
# Static dielectric constant tensor:
#      x y z
#    x 1.755360 0.000000 -0.044680 
#    y 0.000000 1.703230 0.000000 
#    z -0.044680 0.000000 1.804380 
# 
# From -- ./inp_files/15805.got.cif
#   From: 2010.05.17/outbox.cif.g08.bks.cpg/sg3_8_cif.got.tgz:15805.got - 2010.06.03 18:33:08.
