data_PCOD9112672
_publ_section_title
;
Structure prediction by ZEFSAII (Michael W. Deem and Ramdas Pophale) SiO2 
 PCOD9112672
Probable space group: P 2
;
_chemical_formula_sum "Si O2"
_cell_formula_units_Z 16
_cell_length_a 10.336586
_cell_length_b 5.483529
_cell_length_c 20.588659
_cell_angle_alpha 90.000000
_cell_angle_beta 145.382139
_cell_angle_gamma 90.000000
_cell_volume 662.964630
_symmetry_space_group_name_H-M "P 2"
_symmetry_group_IT_number 3
_symmetry_cell_setting 'monoclinic'
loop_
_space_group_symop_operation_xyz
x,y,z
-x,y,-z
loop_
_atom_site_type_symbol
_atom_site_label
_atom_site_fract_x
_atom_site_fract_y
_atom_site_fract_z
Si Si1 0.574598 0.406180 0.336599
Si Si2 0.766342 0.903923 0.363083
Si Si3 0.774779 0.708977 0.953216
Si Si4 0.007984 0.749824 0.814079
Si Si5 0.991372 0.898325 0.319145
Si Si6 0.726425 0.400802 0.550069
Si Si7 0.227580 0.209844 0.050267
Si Si8 0.881387 0.245506 0.797191
O O1 0.613731 0.678592 0.326349
O O2 0.660930 0.391482 0.446717
O O3 0.308799 0.337214 0.231847
O O4 0.688784 0.180345 0.346470
O O5 0.000000 0.869667 0.500000
O O6 0.833699 0.876430 0.316127
O O7 0.642589 0.460004 0.888735
O O8 0.861354 0.721460 0.063425
O O9 0.650565 0.958536 0.886602
O O10 0.000000 0.701383 0.000000
O O11 0.133067 0.846892 0.801457
O O12 0.910778 0.477830 0.762703
O O13 0.827932 0.972982 0.750236
O O14 0.168290 0.671601 0.396479
O O15 0.111097 0.164697 0.369972
O O16 0.500000 0.372593 0.500000
O O17 0.119520 0.212783 0.933549
O O18 0.000000 0.205818 0.000000
#
# Coordination Sequence:
#
# PCOD9112672 Si02
#       8
#     2   2   2   2   2   2   2   2
#     4  12  22  37  54  72  98 133 179 222 253 294
#     4  12  23  40  54  68  93 138 190 224 244 289
#     4   8  14  25  44  68  99 129 152 182 235 310
#     4  10  19  33  49  75 108 128 156 209 262 308
#     4  12  23  36  52  71  98 134 176 215 250 299
#     4  12  23  35  53  74  98 129 167 211 272 308
#     4   8  14  26  45  70 102 130 152 183 239 316
#     4  10  20  33  51  77 108 130 157 211 264 308
#
# _framework density 24.134018000000001
#
# number of rings (size 3 to 8) (size 9 to 14) (size 15 to 20)
#    0.000    1.500    2.500    4.500    0.000    0.000 
#    0.000    0.000    0.000    0.000    0.000    0.000 
#    0.000   96.000    0.000    0.000    0.000    0.000 
#
# Total GULP energy -89343.542895 kJ/mol
# GULP energy per Si atom -5583.971431 kJ/mol
# Density = 2.407909 g / cm^3
# Si number density = 24.134018 Si / 1000 Ang^3
#
#
#
# Elastic Constant Matrix: (Units=GPa)
#
#
# Indices 1 2 3 4 5 6 
#
# 1 124.6142 33.1973 18.0632 0.0000 -37.3587 0.0000
# 2 33.1973 266.3944 19.8172 0.0000 -1.6269 0.0000
# 3 18.0632 19.8172 64.4550 0.0000 -22.4771 0.0000
# 4 0.0000 0.0000 0.0000 23.3575 0.0000 -5.5202
# 5 -37.3587 -1.6269 -22.4771 0.0000 42.1223 0.0000
# 6 0.0000 0.0000 0.0000 -5.5202 0.0000 42.9472
#
#
#
# Elastic Compliance Matrix: (Units=1/GPa)
#
#
# Indices 1 2 3 4 5 6 
#
# 1 0.011447 -0.001431 0.000925 0.000000 0.010591 0.000000
# 2 -0.001431 0.004033 -0.001508 0.000000 -0.001918 0.000000
# 3 0.000925 -0.001508 0.019639 0.000000 0.011242 0.000000
# 4 0.000000 0.000000 0.000000 0.044154 0.000000 0.005675
# 5 0.010591 -0.001918 0.011242 0.000000 0.039058 0.000000
# 6 0.000000 0.000000 0.000000 0.005675 0.000000 0.024014
#
#
# Mechanical properties :
#
#
# Convention : Reuss Voigt Hill
#
# Bulk Modulus (GPa) = 32.16191 66.40210 49.28200
# Shear Modulus (GPa) = 31.90090 47.31112 39.60601
#
# Velocity S-wave (km/s) = 3.63963 4.43239 4.05543
# Velocity P-wave (km/s) = 5.56937 7.33269 6.51100
#
# Compressibility (1/GPa) = 0.03109268
#
# Stress axis : x y z
#
# Youngs Moduli (GPa) = 87.36048 247.98186 50.91809
#
# Poissons Ratio (x) = 0.35477 -0.04711
# Poissons Ratio (y) = 0.12498 0.07677
# Poissons Ratio (z) = -0.08083 0.37386
#
# Static dielectric constant tensor:
#      x y z
#    x 1.905780 0.000000 -0.074490 
#    y 0.000000 1.988070 0.000000 
#    z -0.074490 0.000000 1.954800 
# 
# From -- ./inp_files/8726.got.cif
#   From: 2010.05.17/outbox.cif.g08.bks.cpg/sg3_5_cif.got.tgz:8726.got - 2010.06.03 18:33:08.
