data_PCOD9112462
_publ_section_title
;
Structure prediction by ZEFSAII (Michael W. Deem and Ramdas Pophale) SiO2 
 PCOD9112462
Probable space group: P 2
;
_chemical_formula_sum "Si O2"
_cell_formula_units_Z 14
_cell_length_a 12.813433
_cell_length_b 5.574638
_cell_length_c 11.630582
_cell_angle_alpha 90.000000
_cell_angle_beta 42.473204
_cell_angle_gamma 90.000000
_cell_volume 560.977195
_symmetry_space_group_name_H-M "P 2"
_symmetry_group_IT_number 3
_symmetry_cell_setting 'monoclinic'
loop_
_space_group_symop_operation_xyz
x,y,z
-x,y,-z
loop_
_atom_site_type_symbol
_atom_site_label
_atom_site_fract_x
_atom_site_fract_y
_atom_site_fract_z
Si Si1 0.881798 0.205170 0.987503
Si Si2 0.275726 0.844459 0.168121
Si Si3 0.305717 0.749057 0.528245
Si Si4 0.506583 0.624632 0.820432
Si Si5 0.146044 0.249834 0.588011
Si Si6 0.000000 0.027240 0.500000
Si Si7 0.186750 0.703915 0.878757
Si Si8 0.500000 0.240198 0.000000
O O1 0.783006 0.445193 0.088138
O O2 0.796635 0.949636 0.062649
O O3 0.000000 0.196309 0.000000
O O4 0.988115 0.230849 0.789764
O O5 0.097110 0.858946 0.336142
O O6 0.348536 0.100202 0.082225
O O7 0.366830 0.783058 0.212071
O O8 0.344515 0.674756 0.015452
O O9 0.467427 0.695175 0.331722
O O10 0.210275 0.517162 0.557098
O O11 0.281941 0.726007 0.683511
O O12 0.248588 0.019679 0.545724
O O13 0.547264 0.370097 0.842646
O O14 0.108526 0.194427 0.487074
O O15 0.000000 0.695449 0.000000
#
# Coordination Sequence:
#
# PCOD9112462 Si02
#       8
#     2   2   2   2   2   1   2   1
#     4  10  16  32  50  77 113 146 178 238 292 327
#     4   9  19  37  51  74 110 151 196 231 275 340
#     4  12  20  34  56  86 112 151 187 243 288 341
#     4   9  19  33  56  75 105 150 194 243 279 327
#     4  12  23  34  54  83 123 152 188 229 287 348
#     4  12  24  38  54  86 124 162 190 224 288 354
#     4  10  16  29  52  78 113 136 186 238 299 321
#     4   8  16  36  54  68 102 150 196 236 276 324
#
# _framework density 24.956451000000001
#
# number of rings (size 3 to 8) (size 9 to 14) (size 15 to 20)
#    0.000    2.000    7.143    0.857    2.000    0.571 
#    5.143    0.000    0.000    0.000    0.000    1.000 
#    0.000    0.000    0.000    0.000    0.000    0.000 
#
# Total GULP energy -78167.779988 kJ/mol
# GULP energy per Si atom -5583.412856 kJ/mol
# Density = 2.489965 g / cm^3
# Si number density = 24.956451 Si / 1000 Ang^3
#
#
#
# Elastic Constant Matrix: (Units=GPa)
#
#
# Indices 1 2 3 4 5 6 
#
# 1 61.5599 9.1152 0.7528 0.0000 9.0798 0.0000
# 2 9.1152 139.8263 13.5856 0.0000 -9.7213 0.0000
# 3 0.7528 13.5856 146.1081 0.0000 -6.6502 0.0000
# 4 0.0000 0.0000 0.0000 25.0043 0.0000 6.8288
# 5 9.0798 -9.7213 -6.6502 0.0000 26.1602 0.0000
# 6 0.0000 0.0000 0.0000 6.8288 0.0000 19.5815
#
#
#
# Elastic Compliance Matrix: (Units=1/GPa)
#
#
# Indices 1 2 3 4 5 6 
#
# 1 0.017472 -0.001582 -0.000249 0.000000 -0.006715 0.000000
# 2 -0.001582 0.007531 -0.000546 0.000000 0.003209 0.000000
# 3 -0.000249 -0.000546 0.006972 0.000000 0.001656 0.000000
# 4 0.000000 0.000000 0.000000 0.044203 0.000000 -0.015415
# 5 -0.006715 0.003209 0.001656 0.000000 0.042170 0.000000
# 6 0.000000 0.000000 0.000000 -0.015415 0.000000 0.056445
#
#
# Mechanical properties :
#
#
# Convention : Reuss Voigt Hill
#
# Bulk Modulus (GPa) = 36.73507 43.82239 40.27873
# Shear Modulus (GPa) = 26.50847 35.75192 31.13019
#
# Velocity S-wave (km/s) = 3.26266 3.78904 3.53566
# Velocity P-wave (km/s) = 5.38005 6.06136 5.73084
#
# Compressibility (1/GPa) = 0.02722194
#
# Stress axis : x y z
#
# Youngs Moduli (GPa) = 57.23432 132.78479 143.43784
#
# Poissons Ratio (x) = 0.21003 0.03566
# Poissons Ratio (y) = 0.09053 0.07833
# Poissons Ratio (z) = 0.01423 0.07251
#
# Static dielectric constant tensor:
#      x y z
#    x 2.013140 0.000000 -0.043780 
#    y 0.000000 2.028420 0.000000 
#    z -0.043780 0.000000 2.011510 
# 
# From -- ./inp_files/14201.got.cif
#   From: 2010.05.17/outbox.cif.g08.bks.cpg/sg3_8_cif.got.tgz:14201.got - 2010.06.03 18:33:08.
