data_PCOD9112024
_publ_section_title
;
Structure prediction by ZEFSAII (Michael W. Deem and Ramdas Pophale) SiO2 
 PCOD9112024
Probable space group: P -1
;
_chemical_formula_sum "Si O2"
_cell_formula_units_Z 14
_cell_length_a 11.170879
_cell_length_b 8.519389
_cell_length_c 9.311387
_cell_angle_alpha 46.813276
_cell_angle_beta 106.971212
_cell_angle_gamma 124.895479
_cell_volume 522.540257
_symmetry_space_group_name_H-M "P -1"
_symmetry_group_IT_number 2
_symmetry_cell_setting 'triclinic'
loop_
_space_group_symop_operation_xyz
x,y,z
-x,-y,-z
loop_
_atom_site_type_symbol
_atom_site_label
_atom_site_fract_x
_atom_site_fract_y
_atom_site_fract_z
Si Si1 0.611062 0.008082 0.909432
Si Si2 0.369587 0.136681 0.416165
Si Si3 0.844859 0.543716 0.724411
Si Si4 0.715326 0.383567 0.380613
Si Si5 0.132593 0.927696 0.666926
Si Si6 0.124169 0.076751 0.874711
Si Si7 0.322215 0.556168 0.992266
O O1 0.724554 0.914246 0.037880
O O2 0.487881 0.805093 0.885836
O O3 0.500000 0.000000 0.000000
O O4 0.726874 0.307947 0.733526
O O5 0.543828 0.282529 0.410395
O O6 0.299344 0.025716 0.619394
O O7 0.340330 0.333159 0.202299
O O8 0.287989 0.876560 0.457960
O O9 0.854749 0.810933 0.545800
O O10 0.780044 0.427993 0.932330
O O11 0.020328 0.666212 0.707746
O O12 0.829780 0.642802 0.337768
O O13 0.741540 0.487455 0.160222
O O14 0.077100 0.901675 0.826067
O O15 0.000000 0.000000 0.000000
#
# Coordination Sequence:
#
# PCOD9112024 Si02
#       7
#     2   2   2   2   2   2   2
#     4  10  23  42  68 103 130 179 233 270 350 411
#     4  10  23  40  67  98 129 184 228 273 346 406
#     4   9  21  42  68  97 125 179 227 278 348 399
#     4  11  24  42  66 102 140 177 225 287 348 398
#     4  10  23  44  67  94 138 176 231 285 333 421
#     4  12  27  44  65 106 139 175 229 290 343 408
#     4  10  20  44  67  94 137 175 226 285 333 414
#
# _framework density 26.792193999999999
#
# number of rings (size 3 to 8) (size 9 to 14) (size 15 to 20)
#    0.000    1.714    1.429    1.286    6.000    3.429 
#    0.000    0.714    0.000    0.000    0.000    0.000 
#    0.000    0.000    0.000    0.000    0.000    0.000 
#
# Total GULP energy -78162.671957 kJ/mol
# GULP energy per Si atom -5583.047997 kJ/mol
# Density = 2.673121 g / cm^3
# Si number density = 26.792194 Si / 1000 Ang^3
#
#
#
# Elastic Constant Matrix: (Units=GPa)
#
#
# Indices 1 2 3 4 5 6 
#
# 1 129.8562 15.8183 58.1963 -9.0636 -31.3072 -4.4320
# 2 15.8183 111.8685 32.1837 -52.5651 -11.3214 9.1249
# 3 58.1963 32.1837 165.2410 -40.3700 -17.3899 -2.1565
# 4 -9.0636 -52.5651 -40.3700 56.9220 -0.9071 -5.8270
# 5 -31.3072 -11.3214 -17.3899 -0.9071 49.7617 0.8863
# 6 -4.4320 9.1249 -2.1565 -5.8270 0.8863 30.0258
#
#
#
# Elastic Compliance Matrix: (Units=1/GPa)
#
#
# Indices 1 2 3 4 5 6 
#
# 1 0.010468 -0.000543 -0.003235 -0.000928 0.005294 0.001141
# 2 -0.000543 0.016909 0.001308 0.016310 0.004297 -0.002086
# 3 -0.003235 0.001308 0.008838 0.007096 0.001460 0.001094
# 4 -0.000928 0.016310 0.007096 0.037878 0.006251 0.002582
# 5 0.005294 0.004297 0.001460 0.006251 0.025028 0.000055
# 6 0.001141 -0.002086 0.001094 0.002582 0.000055 0.034685
#
#
# Mechanical properties :
#
#
# Convention : Reuss Voigt Hill
#
# Bulk Modulus (GPa) = 31.97626 68.81803 50.39714
# Shear Modulus (GPa) = 33.51868 47.39307 40.45588
#
# Velocity S-wave (km/s) = 3.54087 4.21041 3.89007
# Velocity P-wave (km/s) = 5.35517 7.02697 6.24725
#
# Compressibility (1/GPa) = 0.03127320
#
# Stress axis : x y z
#
# Youngs Moduli (GPa) = 95.53368 59.14178 113.14645
#
# Poissons Ratio (x) = 0.03209 0.36608
# Poissons Ratio (y) = 0.05183 -0.14794
# Poissons Ratio (z) = 0.30910 -0.07733
#
# Static dielectric constant tensor:
#      x y z
#    x 2.263410 -0.044990 0.068460 
#    y -0.044990 2.137480 0.070190 
#    z 0.068460 0.070190 2.100920 
# 
# From -- ./inp_files/416338.got.cif
#   From: 2010.05.17/outbox.cif.g08.bks.cpg/sg2_209_cif.got.tgz:416338.got - 2010.06.03 11:33:40.
