data_PCOD9112752
_publ_section_title
;
Structure prediction by ZEFSAII (Michael W. Deem and Ramdas Pophale) SiO2 
 PCOD9112752
Probable space group: P 2
;
_chemical_formula_sum "Si O2"
_cell_formula_units_Z 16
_cell_length_a 17.987606
_cell_length_b 5.494015
_cell_length_c 8.666803
_cell_angle_alpha 90.000000
_cell_angle_beta 53.966847
_cell_angle_gamma 90.000000
_cell_volume 692.623286
_symmetry_space_group_name_H-M "P 2"
_symmetry_group_IT_number 3
_symmetry_cell_setting 'monoclinic'
loop_
_space_group_symop_operation_xyz
x,y,z
-x,y,-z
loop_
_atom_site_type_symbol
_atom_site_label
_atom_site_fract_x
_atom_site_fract_y
_atom_site_fract_z
Si Si1 0.321895 0.895260 0.090248
Si Si2 0.421354 0.431471 0.461302
Si Si3 0.774429 0.237379 0.217856
Si Si4 0.229357 0.391392 0.122561
Si Si5 0.488625 0.931292 0.324637
Si Si6 0.926754 0.505053 0.198151
Si Si7 0.925215 0.219706 0.481613
Si Si8 0.221981 0.879949 0.516594
O O1 0.267228 0.668436 0.072768
O O2 0.301146 0.833712 0.294581
O O3 0.294415 0.183317 0.118306
O O4 0.418672 0.893891 0.884634
O O5 0.500000 0.437065 0.500000
O O6 0.317186 0.401118 0.645293
O O7 0.431592 0.687930 0.367560
O O8 0.445724 0.191339 0.334344
O O9 0.874896 0.310138 0.155772
O O10 0.751573 0.004325 0.352803
O O11 0.784894 0.256305 0.022978
O O12 0.136275 0.390824 0.334390
O O13 0.500000 0.943975 0.500000
O O14 0.971424 0.378683 0.291148
O O15 0.839047 0.649914 0.366172
O O16 0.000000 0.639378 0.000000
O O17 0.000000 0.094288 0.500000
O O18 0.852755 0.046626 0.484252
#
# Coordination Sequence:
#
# PCOD9112752 Si02
#       8
#     2   2   2   2   2   2   2   2
#     4  11  22  43  68  98 142 184 238 295 364 422
#     4  10  21  38  64 101 137 174 235 294 348 419
#     4  11  25  42  70 100 145 185 239 301 370 432
#     4  11  22  39  68 102 130 185 236 292 355 425
#     4  10  19  35  63  97 129 170 229 294 342 411
#     4  11  24  44  68  98 140 187 236 295 368 442
#     4  10  22  43  65  96 135 175 241 298 359 428
#     4  10  25  44  66  97 144 193 232 302 375 443
#
# _framework density 23.100580999999998
#
# number of rings (size 3 to 8) (size 9 to 14) (size 15 to 20)
#    0.000    1.500    1.250    4.500    3.500    3.500 
#    2.250    0.625    0.000    0.000    0.000    0.000 
#    0.000    0.000    0.000    0.000    0.000    0.000 
#
# Total GULP energy -89124.197812 kJ/mol
# GULP energy per Si atom -5570.262363 kJ/mol
# Density = 2.304800 g / cm^3
# Si number density = 23.100581 Si / 1000 Ang^3
#
#
#
# Elastic Constant Matrix: (Units=GPa)
#
#
# Indices 1 2 3 4 5 6 
#
# 1 73.4141 12.2716 23.3924 0.0000 5.9993 0.0000
# 2 12.2716 85.8852 8.3513 0.0000 8.3444 0.0000
# 3 23.3924 8.3513 168.6052 0.0000 14.0033 0.0000
# 4 0.0000 0.0000 0.0000 23.2560 0.0000 3.0491
# 5 5.9993 8.3444 14.0033 0.0000 23.0120 0.0000
# 6 0.0000 0.0000 0.0000 3.0491 0.0000 3.0138
#
#
#
# Elastic Compliance Matrix: (Units=1/GPa)
#
#
# Indices 1 2 3 4 5 6 
#
# 1 0.014645 -0.001715 -0.001771 0.000000 -0.002119 0.000000
# 2 -0.001715 0.012279 -0.000040 0.000000 -0.003981 0.000000
# 3 -0.001771 -0.000040 0.006466 0.000000 -0.003459 0.000000
# 4 0.000000 0.000000 0.000000 0.049576 0.000000 -0.050157
# 5 -0.002119 -0.003981 -0.003459 0.000000 0.047556 0.000000
# 6 0.000000 0.000000 0.000000 -0.050157 0.000000 0.382553
#
#
# Mechanical properties :
#
#
# Convention : Reuss Voigt Hill
#
# Bulk Modulus (GPa) = 37.96504 46.21500 42.09002
# Shear Modulus (GPa) = 9.45347 28.78230 19.11789
#
# Velocity S-wave (km/s) = 2.02514 3.53364 2.87991
# Velocity P-wave (km/s) = 4.68387 6.05791 5.41465
#
# Compressibility (1/GPa) = 0.02634002
#
# Stress axis : x y z
#
# Youngs Moduli (GPa) = 68.28081 81.43910 154.65658
#
# Poissons Ratio (x) = 0.13963 0.27390
# Poissons Ratio (y) = 0.11707 0.00613
# Poissons Ratio (z) = 0.12093 0.00323
#
# Static dielectric constant tensor:
#      x y z
#    x 1.893290 0.000000 -0.052770 
#    y 0.000000 1.898050 0.000000 
#    z -0.052770 0.000000 1.923820 
# 
# From -- ./inp_files/8866.got.cif
#   From: 2010.05.17/outbox.cif.g08.bks.cpg/sg3_5_cif.got.tgz:8866.got - 2010.06.03 18:33:08.
