data_PCOD9112726
_publ_section_title
;
Structure prediction by ZEFSAII (Michael W. Deem and Ramdas Pophale) SiO2 
 PCOD9112726
Probable space group: P 2
;
_chemical_formula_sum "Si O2"
_cell_formula_units_Z 16
_cell_length_a 8.184271
_cell_length_b 12.334366
_cell_length_c 8.982060
_cell_angle_alpha 90.000000
_cell_angle_beta 65.161630
_cell_angle_gamma 90.000000
_cell_volume 822.844335
_symmetry_space_group_name_H-M "P 2"
_symmetry_group_IT_number 3
_symmetry_cell_setting 'monoclinic'
loop_
_space_group_symop_operation_xyz
x,y,z
-x,y,-z
loop_
_atom_site_type_symbol
_atom_site_label
_atom_site_fract_x
_atom_site_fract_y
_atom_site_fract_z
Si Si1 0.293589 0.194310 0.306126
Si Si2 0.357149 0.954590 0.183235
Si Si3 0.678299 0.795811 0.527873
Si Si4 0.801289 0.549221 0.503795
Si Si5 0.962028 0.422489 0.179343
Si Si6 0.891886 0.198374 0.316282
Si Si7 0.040958 0.970015 0.663248
Si Si8 0.641391 0.418678 0.824471
O O1 0.244754 0.219102 0.495712
O O2 0.404900 0.294131 0.198313
O O3 0.097506 0.196824 0.300578
O O4 0.374584 0.075129 0.249658
O O5 0.363196 0.861124 0.304597
O O6 0.154773 0.950319 0.195878
O O7 0.500000 0.940971 0.000000
O O8 0.500000 0.794563 0.500000
O O9 0.746599 0.674177 0.522216
O O10 0.833113 0.866543 0.389254
O O11 0.828898 0.494006 0.331938
O O12 0.663202 0.485412 0.663552
O O13 0.000000 0.540355 0.500000
O O14 0.886251 0.298682 0.206645
O O15 0.158212 0.419758 0.182044
O O16 0.000000 0.463537 0.000000
O O17 0.866026 0.071694 0.290962
O O18 0.000000 0.995504 0.500000
O O19 0.500000 0.460577 0.000000
#
# Coordination Sequence:
#
# PCOD9112726 Si02
#       8
#     2   2   2   2   2   2   2   2
#     4   9  14  29  57  87 111 145 189 222 267 333
#     4  10  19  34  61  89 113 146 192 236 270 336
#     4  11  23  39  57  81 111 148 191 241 294 341
#     4  10  21  39  61  78 105 157 200 231 280 343
#     4  10  21  36  58  86 116 147 187 233 289 344
#     4   9  13  29  58  83 108 148 183 222 273 337
#     4   9  16  34  60  81 110 152 189 221 270 343
#     4  10  20  34  58  87 114 146 190 233 272 339
#
# _framework density 19.444747
#
# number of rings (size 3 to 8) (size 9 to 14) (size 15 to 20)
#    0.000    2.250    5.000    1.500    0.000    1.500 
#    0.000    8.125    0.000    0.000    0.000    0.000 
#    0.000    0.000    0.000    0.000    0.000    0.000 
#
# Total GULP energy -89184.848553 kJ/mol
# GULP energy per Si atom -5574.053035 kJ/mol
# Density = 1.940049 g / cm^3
# Si number density = 19.444747 Si / 1000 Ang^3
#
#
#
# Elastic Constant Matrix: (Units=GPa)
#
#
# Indices 1 2 3 4 5 6 
#
# 1 14.0210 12.4654 21.6453 0.0000 -10.4472 0.0000
# 2 12.4654 142.5475 73.8491 0.0000 -6.9854 0.0000
# 3 21.6453 73.8491 151.6931 0.0000 -26.4333 0.0000
# 4 0.0000 0.0000 0.0000 11.3333 0.0000 -2.4829
# 5 -10.4472 -6.9854 -26.4333 0.0000 25.4181 0.0000
# 6 0.0000 0.0000 0.0000 -2.4829 0.0000 3.1813
#
#
#
# Elastic Compliance Matrix: (Units=1/GPa)
#
#
# Indices 1 2 3 4 5 6 
#
# 1 0.115573 -0.004202 -0.007779 0.000000 0.038257 0.000000
# 2 -0.004202 0.009683 -0.004826 0.000000 -0.004085 0.000000
# 3 -0.007779 -0.004826 0.011314 0.000000 0.007242 0.000000
# 4 0.000000 0.000000 0.000000 0.106434 0.000000 0.083068
# 5 0.038257 -0.004085 0.007242 0.000000 0.061475 0.000000
# 6 0.000000 0.000000 0.000000 0.083068 0.000000 0.379170
#
#
# Mechanical properties :
#
#
# Convention : Reuss Voigt Hill
#
# Bulk Modulus (GPa) = 9.71297 58.24238 33.97767
# Shear Modulus (GPa) = 6.65265 21.33998 13.99632
#
# Velocity S-wave (km/s) = 1.85168 3.31640 2.68582
# Velocity P-wave (km/s) = 3.09478 6.68449 5.20865
#
# Compressibility (1/GPa) = 0.10295517
#
# Stress axis : x y z
#
# Youngs Moduli (GPa) = 8.65257 103.27686 88.38816
#
# Poissons Ratio (x) = 0.43393 0.68759
# Poissons Ratio (y) = 0.03635 0.42657
# Poissons Ratio (z) = 0.06731 0.49843
#
# Static dielectric constant tensor:
#      x y z
#    x 1.696050 0.000000 0.013490 
#    y 0.000000 1.707570 0.000000 
#    z 0.013490 0.000000 1.688060 
# 
# From -- ./inp_files/5997.got.cif
#   From: 2010.05.17/outbox.cif.g08.bks.cpg/sg3_3_cif.got.tgz:5997.got - 2010.06.03 18:33:08.
