data_PCOD9112400
_publ_section_title
;
Structure prediction by ZEFSAII (Michael W. Deem and Ramdas Pophale) SiO2 
 PCOD9112400
Probable space group: P -1
;
_chemical_formula_sum "Si O2"
_cell_formula_units_Z 14
_cell_length_a 12.670657
_cell_length_b 5.823827
_cell_length_c 9.192073
_cell_angle_alpha 88.648749
_cell_angle_beta 99.044547
_cell_angle_gamma 116.070046
_cell_volume 600.919198
_symmetry_space_group_name_H-M "P -1"
_symmetry_group_IT_number 2
_symmetry_cell_setting 'triclinic'
loop_
_space_group_symop_operation_xyz
x,y,z
-x,-y,-z
loop_
_atom_site_type_symbol
_atom_site_label
_atom_site_fract_x
_atom_site_fract_y
_atom_site_fract_z
Si Si1 0.291742 0.317037 0.101156
Si Si2 0.866743 0.448846 0.998115
Si Si3 0.709325 0.077836 0.709683
Si Si4 0.978664 0.999871 0.324281
Si Si5 0.741114 0.999534 0.181407
Si Si6 0.067515 0.582870 0.360374
Si Si7 0.509192 0.111872 0.835668
O O1 0.282782 0.184692 0.256020
O O2 0.402644 0.590812 0.128991
O O3 0.168369 0.321385 0.030445
O O4 0.188588 0.708532 0.864100
O O5 0.688460 0.834186 0.026130
O O6 0.000000 0.500000 0.000000
O O7 0.790484 0.260336 0.854907
O O8 0.789790 0.241178 0.592163
O O9 0.577289 0.027182 0.728153
O O10 0.043686 0.304700 0.290325
O O11 0.839551 0.923807 0.269183
O O12 0.000000 0.000000 0.500000
O O13 0.020150 0.785291 0.279190
O O14 0.623317 0.952025 0.243841
O O15 0.000000 0.500000 0.500000
O O16 0.500000 0.000000 0.000000
#
# Coordination Sequence:
#
# PCOD9112400 Si02
#       7
#     2   2   2   2   2   2   2
#     4  10  21  34  54  88 128 168 204 246 311 385
#     4  10  21  32  50  87 129 158 202 245 312 389
#     4  10  22  34  59  86 124 167 199 258 311 380
#     4  10  24  43  66  92 119 160 218 270 318 364
#     4  11  22  34  60  85 124 173 199 254 314 377
#     4  10  23  44  67  90 119 162 215 270 323 363
#     4  11  20  38  52  88 134 167 206 243 309 387
#
# _framework density 23.297640000000001
#
# number of rings (size 3 to 8) (size 9 to 14) (size 15 to 20)
#    0.000    1.714    4.286    1.286   10.000    1.143 
#    0.000    0.000    0.000    6.857    0.000    0.000 
#    0.000    0.000    0.000    0.000    0.000    0.000 
#
# Total GULP energy -78026.098302 kJ/mol
# GULP energy per Si atom -5573.292736 kJ/mol
# Density = 2.324461 g / cm^3
# Si number density = 23.297640 Si / 1000 Ang^3
#
#
#
# Elastic Constant Matrix: (Units=GPa)
#
#
# Indices 1 2 3 4 5 6 
#
# 1 220.4926 52.4324 29.8747 -21.1602 -18.9415 -3.5808
# 2 52.4324 108.7219 18.5961 -33.9407 -2.5218 -7.5147
# 3 29.8747 18.5961 53.6418 -17.9825 -12.5232 3.9004
# 4 -21.1602 -33.9407 -17.9825 35.3870 8.0089 -4.1863
# 5 -18.9415 -2.5218 -12.5232 8.0089 32.5925 -7.4128
# 6 -3.5808 -7.5147 3.9004 -4.1863 -7.4128 40.9776
#
#
#
# Elastic Compliance Matrix: (Units=1/GPa)
#
#
# Indices 1 2 3 4 5 6 
#
# 1 0.005544 -0.002383 -0.001846 -0.000416 0.002578 0.000647
# 2 -0.002383 0.014849 -0.000113 0.013820 -0.002899 0.003413
# 3 -0.001846 -0.000113 0.024381 0.009818 0.005770 -0.000456
# 4 -0.000416 0.013820 0.009818 0.048258 -0.006029 0.005403
# 5 0.002578 -0.002899 0.005770 -0.006029 0.036835 0.005192
# 6 0.000647 0.003413 -0.000456 0.005403 0.005192 0.026621
#
#
# Mechanical properties :
#
#
# Convention : Reuss Voigt Hill
#
# Bulk Modulus (GPa) = 27.70809 64.96251 46.33530
# Shear Modulus (GPa) = 28.21628 40.58830 34.40229
#
# Velocity S-wave (km/s) = 3.48389 4.17845 3.84688
# Velocity P-wave (km/s) = 5.30116 7.15706 6.29785
#
# Compressibility (1/GPa) = 0.03609054
#
# Stress axis : x y z
#
# Youngs Moduli (GPa) = 180.36838 67.34310 41.01575
#
# Poissons Ratio (x) = 0.16049 0.07572
# Poissons Ratio (y) = 0.42986 0.00462
# Poissons Ratio (z) = 0.33298 0.00758
#
# Static dielectric constant tensor:
#      x y z
#    x 1.992390 -0.064910 -0.052010 
#    y -0.064910 1.987280 0.004870 
#    z -0.052010 0.004870 2.001550 
# 
# From -- ./inp_files/410066.got.cif
#   From: 2010.05.17/outbox.cif.g08.bks.cpg/sg2_206_cif.got.tgz:410066.got - 2010.06.03 11:33:40.
