data_PCOD9112700
_publ_section_title
;
Structure prediction by ZEFSAII (Michael W. Deem and Ramdas Pophale) SiO2 
 PCOD9112700
Probable space group: P 2
;
_chemical_formula_sum "Si O2"
_cell_formula_units_Z 13
_cell_length_a 9.460584
_cell_length_b 9.953962
_cell_length_c 7.608965
_cell_angle_alpha 90.000000
_cell_angle_beta 51.288487
_cell_angle_gamma 90.000000
_cell_volume 559.118374
_symmetry_space_group_name_H-M "P 2"
_symmetry_group_IT_number 3
_symmetry_cell_setting 'monoclinic'
loop_
_space_group_symop_operation_xyz
x,y,z
-x,y,-z
loop_
_atom_site_type_symbol
_atom_site_label
_atom_site_fract_x
_atom_site_fract_y
_atom_site_fract_z
Si Si1 0.340343 0.600320 0.979029
Si Si2 0.159806 0.880907 0.126324
Si Si3 0.280725 0.137934 0.171137
Si Si4 0.500000 0.711134 0.500000
Si Si5 0.248891 0.939825 0.660165
Si Si6 0.692821 0.243754 0.499166
Si Si7 0.726106 0.327837 0.115492
O O1 0.413887 0.625738 0.723050
O O2 0.243571 0.457833 0.026544
O O3 0.500000 0.591468 0.000000
O O4 0.212731 0.727332 0.120808
O O5 0.951509 0.911723 0.252178
O O6 0.227339 0.983086 0.221808
O O7 0.253514 0.921942 0.868285
O O8 0.215890 0.227272 0.383687
O O9 0.500000 0.143764 0.000000
O O10 0.208600 0.200458 0.046695
O O11 0.365633 0.813894 0.506439
O O12 0.316708 0.087502 0.556234
O O13 0.790337 0.324009 0.266935
O O14 0.492841 0.304984 0.689893
#
# Coordination Sequence:
#
# PCOD9112700 Si02
#       7
#     2   2   2   1   2   2   2
#     4  11  23  39  63  94 130 172 212 256 319 391
#     4  10  22  39  60  93 134 164 209 263 328 383
#     4  10  20  34  61  94 123 159 208 261 318 372
#     4  10  22  38  62  88 122 162 216 256 314 376
#     4  10  21  38  63  93 124 165 209 271 321 371
#     4  10  19  33  63  89 121 160 210 263 308 363
#     4  10  20  37  60  93 124 159 212 260 305 380
#
# _framework density 23.250889999999998
#
# number of rings (size 3 to 8) (size 9 to 14) (size 15 to 20)
#    0.000    1.846    1.538    3.692    8.615    0.615 
#    0.000    0.000   16.923    0.000    4.000    0.000 
#    0.000    0.000    0.000    0.000    0.000    0.000 
#
# Total GULP energy -72620.825400 kJ/mol
# GULP energy per Si atom -5586.217338 kJ/mol
# Density = 2.319797 g / cm^3
# Si number density = 23.250890 Si / 1000 Ang^3
#
#
#
# Elastic Constant Matrix: (Units=GPa)
#
#
# Indices 1 2 3 4 5 6 
#
# 1 74.2379 20.8045 23.6198 0.0000 12.9471 0.0000
# 2 20.8045 140.5026 13.5658 0.0000 7.4889 0.0000
# 3 23.6198 13.5658 46.7994 0.0000 14.3149 0.0000
# 4 0.0000 0.0000 0.0000 22.1498 0.0000 15.2969
# 5 12.9471 7.4889 14.3149 0.0000 30.2935 0.0000
# 6 0.0000 0.0000 0.0000 15.2969 0.0000 23.7467
#
#
#
# Elastic Compliance Matrix: (Units=1/GPa)
#
#
# Indices 1 2 3 4 5 6 
#
# 1 0.016731 -0.001625 -0.006907 0.000000 -0.003485 0.000000
# 2 -0.001625 0.007503 -0.001169 0.000000 -0.000608 0.000000
# 3 -0.006907 -0.001169 0.028290 0.000000 -0.010127 0.000000
# 4 0.000000 0.000000 0.000000 0.081327 0.000000 -0.052388
# 5 -0.003485 -0.000608 -0.010127 0.000000 0.039436 0.000000
# 6 0.000000 0.000000 0.000000 -0.052388 0.000000 0.075858
#
#
# Mechanical properties :
#
#
# Convention : Reuss Voigt Hill
#
# Bulk Modulus (GPa) = 30.19071 41.94670 36.06870
# Shear Modulus (GPa) = 17.88345 28.80798 23.34571
#
# Velocity S-wave (km/s) = 2.77637 3.52377 3.17216
# Velocity P-wave (km/s) = 4.82603 5.88524 5.38175
#
# Compressibility (1/GPa) = 0.03312277
#
# Stress axis : x y z
#
# Youngs Moduli (GPa) = 59.76956 133.27721 35.34761
#
# Poissons Ratio (x) = 0.21654 0.24415
# Poissons Ratio (y) = 0.09711 0.04132
# Poissons Ratio (z) = 0.41284 0.15579
#
# Static dielectric constant tensor:
#      x y z
#    x 1.967520 0.000000 -0.052300 
#    y 0.000000 1.831970 0.000000 
#    z -0.052300 0.000000 1.986350 
# 
# From -- ./inp_files/5490.got.cif
#   From: 2010.05.17/outbox.cif.g08.bks.cpg/sg3_3_cif.got.tgz:5490.got - 2010.06.03 18:33:08.
