data_PCOD9112438
_publ_section_title
;
Structure prediction by ZEFSAII (Michael W. Deem and Ramdas Pophale) SiO2 
 PCOD9112438
Probable space group: P -1
;
_chemical_formula_sum "Si O2"
_cell_formula_units_Z 12
_cell_length_a 9.077268
_cell_length_b 16.416451
_cell_length_c 8.138000
_cell_angle_alpha 138.039868
_cell_angle_beta 47.863606
_cell_angle_gamma 132.214914
_cell_volume 563.466020
_symmetry_space_group_name_H-M "P -1"
_symmetry_group_IT_number 2
_symmetry_cell_setting 'triclinic'
loop_
_space_group_symop_operation_xyz
x,y,z
-x,-y,-z
loop_
_atom_site_type_symbol
_atom_site_label
_atom_site_fract_x
_atom_site_fract_y
_atom_site_fract_z
Si Si1 0.750613 0.730048 0.894675
Si Si2 0.876344 0.681738 0.380589
Si Si3 0.268765 0.497748 0.221364
Si Si4 0.693620 0.378696 0.065100
Si Si5 0.040386 0.145093 0.740864
Si Si6 0.194310 0.678405 0.770508
O O1 0.847602 0.755330 0.677605
O O2 0.779513 0.594850 0.721563
O O3 0.503139 0.701390 0.016500
O O4 0.837316 0.819097 0.122806
O O5 0.723479 0.530765 0.258336
O O6 0.857801 0.762966 0.355029
O O7 0.103021 0.660299 0.188018
O O8 0.271697 0.638091 0.482468
O O9 0.049921 0.426213 0.177797
O O10 0.500000 0.500000 0.000000
O O11 0.658183 0.339109 0.222654
O O12 0.832553 0.183379 0.990385
O O13 0.000000 0.000000 0.500000
#
# Coordination Sequence:
#
# PCOD9112438 Si02
#       6
#     2   2   2   2   2   2
#     4  11  23  36  65  95 121 162 206 250 320 379
#     4  10  22  40  61  92 132 157 195 267 313 368
#     4  10  21  32  59  95 126 154 194 250 321 374
#     4  10  21  35  62  99 127 150 198 261 331 370
#     4  10  24  44  63  86 125 177 218 248 296 368
#     4   9  20  38  56  89 129 154 198 257 309 363
#
# _framework density 21.296759000000002
#
# number of rings (size 3 to 8) (size 9 to 14) (size 15 to 20)
#    0.000    2.000    1.667    0.500    9.333    0.667 
#    0.000    5.000    0.000   21.000    0.000    0.000 
#    0.000    0.000    0.000    0.000    0.000    0.000 
#
# Total GULP energy -66894.681717 kJ/mol
# GULP energy per Si atom -5574.556810 kJ/mol
# Density = 2.124829 g / cm^3
# Si number density = 21.296759 Si / 1000 Ang^3
#
#
#
# Elastic Constant Matrix: (Units=GPa)
#
#
# Indices 1 2 3 4 5 6 
#
# 1 135.1783 35.6412 56.9808 5.9600 23.5045 6.8098
# 2 35.6412 43.0690 56.6066 7.0054 6.4028 -4.9628
# 3 56.9808 56.6066 174.0849 17.0600 15.5759 2.4739
# 4 5.9600 7.0054 17.0600 37.9546 -2.5917 -0.7964
# 5 23.5045 6.4028 15.5759 -2.5917 39.0116 -7.0894
# 6 6.8098 -4.9628 2.4739 -0.7964 -7.0894 18.1222
#
#
#
# Elastic Compliance Matrix: (Units=1/GPa)
#
#
# Indices 1 2 3 4 5 6 
#
# 1 0.011773 -0.010098 0.000328 -0.000857 -0.007477 -0.010197
# 2 -0.010098 0.052583 -0.014745 -0.000494 0.007510 0.023124
# 3 0.000328 -0.014745 0.011137 -0.002742 -0.003725 -0.007259
# 4 -0.000857 -0.000494 -0.002742 0.028164 0.004188 0.003437
# 5 -0.007477 0.007510 -0.003725 0.004188 0.034106 0.018901
# 6 -0.010197 0.023124 -0.007259 0.003437 0.018901 0.073881
#
#
# Mechanical properties :
#
#
# Convention : Reuss Voigt Hill
#
# Bulk Modulus (GPa) = 37.78857 72.30994 55.04926
# Shear Modulus (GPa) = 18.55311 32.55791 25.55551
#
# Velocity S-wave (km/s) = 2.95476 3.91419 3.46782
# Velocity P-wave (km/s) = 5.42431 7.37937 6.47604
#
# Compressibility (1/GPa) = 0.02646302
#
# Stress axis : x y z
#
# Youngs Moduli (GPa) = 84.93720 19.01745 89.79049
#
# Poissons Ratio (x) = 0.19203 -0.02942
# Poissons Ratio (y) = 0.85766 1.32400
# Poissons Ratio (z) = -0.02783 0.28042
#
# Static dielectric constant tensor:
#      x y z
#    x 1.836940 -0.023470 0.038140 
#    y -0.023470 1.814680 -0.057660 
#    z 0.038140 -0.057660 1.836600 
# 
# From -- ./inp_files/213726.got.cif
#   From: 2010.05.17/outbox.cif.g08.bks.cpg/sg2_107_cif.got.tgz:213726.got - 2010.06.03 11:33:40.
