data_PCOD9112490
_publ_section_title
;
Structure prediction by ZEFSAII (Michael W. Deem and Ramdas Pophale) SiO2 
 PCOD9112490
Probable space group: P 2
;
_chemical_formula_sum "Si O2"
_cell_formula_units_Z 16
_cell_length_a 7.286504
_cell_length_b 7.879957
_cell_length_c 20.502213
_cell_angle_alpha 90.000000
_cell_angle_beta 145.611149
_cell_angle_gamma 90.000000
_cell_volume 664.880252
_symmetry_space_group_name_H-M "P 2"
_symmetry_group_IT_number 3
_symmetry_cell_setting 'monoclinic'
loop_
_space_group_symop_operation_xyz
x,y,z
-x,y,-z
loop_
_atom_site_type_symbol
_atom_site_label
_atom_site_fract_x
_atom_site_fract_y
_atom_site_fract_z
Si Si1 0.756262 0.185450 0.514815
Si Si2 0.165917 0.553829 0.445975
Si Si3 0.029502 0.887275 0.668229
Si Si4 0.376025 0.746775 0.337749
Si Si5 0.375103 0.077156 0.278007
Si Si6 0.179961 0.497799 0.867830
Si Si7 0.306930 0.139603 0.851451
Si Si8 0.007961 0.250533 0.076609
O O1 0.500000 0.189002 0.500000
O O2 0.949149 0.361925 0.578845
O O3 0.588009 0.174311 0.394733
O O4 0.953894 0.014747 0.586630
O O5 0.500000 0.543567 0.500000
O O6 0.322762 0.628216 0.557755
O O7 0.929631 0.694660 0.345486
O O8 0.717279 0.858522 0.625474
O O9 0.266578 0.998134 0.783361
O O10 0.055277 0.638238 0.229425
O O11 0.453071 0.879612 0.304233
O O12 0.002852 0.090356 0.195436
O O13 0.328699 0.151525 0.192843
O O14 0.253372 0.348543 0.835515
O O15 0.003912 0.402209 0.875633
O O16 0.500000 0.562307 0.000000
O O17 0.676727 0.138726 0.984378
O O18 0.000000 0.308008 0.000000
#
# Coordination Sequence:
#
# PCOD9112490 Si02
#       8
#     2   2   2   2   2   2   2   2
#     4  11  16  28  48  80 117 147 170 218 278 332
#     4   9  17  23  40  72 114 147 170 204 271 329
#     4  10  18  28  45  82 120 139 173 219 276 335
#     4  10  17  28  46  80 115 141 176 222 279 329
#     4  10  18  31  55  80 113 140 182 231 277 329
#     4   9  19  33  52  80 109 145 185 240 283 328
#     4   9  18  32  53  77 113 141 181 233 281 327
#     4  10  21  38  55  75 106 152 199 229 280 337
#
# _framework density 24.064482999999999
#
# number of rings (size 3 to 8) (size 9 to 14) (size 15 to 20)
#    0.000    2.250    3.750    3.000    3.500    2.000 
#    0.000    0.625    0.000    0.750    0.000    0.000 
#    0.000    0.000    0.000    0.000    0.000    0.000 
#
# Total GULP energy -89183.022532 kJ/mol
# GULP energy per Si atom -5573.938908 kJ/mol
# Density = 2.400971 g / cm^3
# Si number density = 24.064483 Si / 1000 Ang^3
#
#
#
# Elastic Constant Matrix: (Units=GPa)
#
#
# Indices 1 2 3 4 5 6 
#
# 1 52.4755 31.1085 27.6217 0.0000 3.2120 0.0000
# 2 31.1085 165.2643 80.1494 0.0000 -19.9522 0.0000
# 3 27.6217 80.1494 116.5468 0.0000 -22.7813 0.0000
# 4 0.0000 0.0000 0.0000 38.7325 0.0000 -7.6725
# 5 3.2120 -19.9522 -22.7813 0.0000 33.3287 0.0000
# 6 0.0000 0.0000 0.0000 -7.6725 0.0000 17.7546
#
#
#
# Elastic Compliance Matrix: (Units=1/GPa)
#
#
# Indices 1 2 3 4 5 6 
#
# 1 0.023967 -0.002931 -0.005147 0.000000 -0.007582 0.000000
# 2 -0.002931 0.009490 -0.005386 0.000000 0.002282 0.000000
# 3 -0.005147 -0.005386 0.014971 0.000000 0.007505 0.000000
# 4 0.000000 0.000000 0.000000 0.028235 0.000000 0.012202
# 5 -0.007582 0.002282 0.007505 0.000000 0.037231 0.000000
# 6 0.000000 0.000000 0.000000 0.012202 0.000000 0.061596
#
#
# Mechanical properties :
#
#
# Convention : Reuss Voigt Hill
#
# Bulk Modulus (GPa) = 46.50830 68.00507 57.25669
# Shear Modulus (GPa) = 23.85681 30.99031 27.42356
#
# Velocity S-wave (km/s) = 3.15202 3.59249 3.37944
# Velocity P-wave (km/s) = 5.71099 6.74751 6.25077
#
# Compressibility (1/GPa) = 0.02150154
#
# Stress axis : x y z
#
# Youngs Moduli (GPa) = 41.72370 105.37399 66.79720
#
# Poissons Ratio (x) = 0.30883 0.34380
# Poissons Ratio (y) = 0.12228 0.35974
# Poissons Ratio (z) = 0.21475 0.56750
#
# Static dielectric constant tensor:
#      x y z
#    x 2.101820 0.000000 -0.020670 
#    y 0.000000 1.935020 0.000000 
#    z -0.020670 0.000000 1.930060 
# 
# From -- ./inp_files/16259.got.cif
#   From: 2010.05.17/outbox.cif.g08.bks.cpg/sg3_9_cif.got.tgz:16259.got - 2010.06.03 18:33:08.
