data_PCOD9112252
_publ_section_title
;
Structure prediction by ZEFSAII (Michael W. Deem and Ramdas Pophale) SiO2 
 PCOD9112252
Probable space group: P -1
;
_chemical_formula_sum "Si O2"
_cell_formula_units_Z 16
_cell_length_a 14.286277
_cell_length_b 9.165701
_cell_length_c 9.021412
_cell_angle_alpha 43.987924
_cell_angle_beta 84.855661
_cell_angle_gamma 109.565696
_cell_volume 667.136231
_symmetry_space_group_name_H-M "P -1"
_symmetry_group_IT_number 2
_symmetry_cell_setting 'triclinic'
loop_
_space_group_symop_operation_xyz
x,y,z
-x,-y,-z
loop_
_atom_site_type_symbol
_atom_site_label
_atom_site_fract_x
_atom_site_fract_y
_atom_site_fract_z
Si Si1 0.221825 0.445775 0.464306
Si Si2 0.510988 0.236493 0.246658
Si Si3 0.037284 0.896901 0.203213
Si Si4 0.748220 0.939502 0.090544
Si Si5 0.409694 0.018138 0.094507
Si Si6 0.170651 0.801253 0.811745
Si Si7 0.678594 0.693613 0.721458
Si Si8 0.951214 0.786258 0.792494
O O1 0.087068 0.326295 0.549617
O O2 0.294119 0.731055 0.307973
O O3 0.275777 0.408598 0.335499
O O4 0.239140 0.283970 0.699304
O O5 0.436913 0.318533 0.281366
O O6 0.500000 0.000000 0.500000
O O7 0.455644 0.125684 0.172072
O O8 0.637575 0.496374 0.008017
O O9 0.131475 0.857985 0.158985
O O10 0.101050 0.120069 0.152679
O O11 0.000000 0.000000 0.000000
O O12 0.633042 0.830917 0.095851
O O13 0.749936 0.069405 0.149983
O O14 0.500000 0.000000 0.000000
O O15 0.057037 0.799793 0.847560
O O16 0.229821 0.995306 0.521184
O O17 0.132307 0.512303 0.017469
O O18 0.000000 0.000000 0.500000
#
# Coordination Sequence:
#
# PCOD9112252 Si02
#       8
#     2   2   2   2   2   2   2   2
#     4  10  22  43  74 101 143 185 232 289 349 425
#     4  11  27  46  70 105 141 179 239 309 349 419
#     4  10  20  45  70 103 144 185 227 289 352 408
#     4  10  24  44  71 102 144 184 235 298 340 421
#     4  12  27  45  72 105 132 190 246 281 360 424
#     4  10  23  43  69 102 141 196 231 284 356 416
#     4  10  22  45  71  98 140 184 235 285 363 414
#     4  11  23  39  68 106 144 187 236 280 344 432
#
# _framework density 23.983108999999999
#
# number of rings (size 3 to 8) (size 9 to 14) (size 15 to 20)
#    0.000    1.500    5.000    0.000    5.250    7.000 
#    0.000    0.000    0.000    0.000    0.000    0.000 
#    0.000    0.000    0.000    0.000    0.000    0.000 
#
# Total GULP energy -89324.886457 kJ/mol
# GULP energy per Si atom -5582.805404 kJ/mol
# Density = 2.392852 g / cm^3
# Si number density = 23.983109 Si / 1000 Ang^3
#
#
#
# Elastic Constant Matrix: (Units=GPa)
#
#
# Indices 1 2 3 4 5 6 
#
# 1 120.3622 9.5007 40.2731 14.1642 -0.0690 3.5623
# 2 9.5007 76.7049 41.5502 -8.3853 9.9466 7.3131
# 3 40.2731 41.5502 133.6236 -15.2433 2.2075 -17.4879
# 4 14.1642 -8.3853 -15.2433 41.5498 -6.1372 3.4061
# 5 -0.0690 9.9466 2.2075 -6.1372 43.3347 2.0302
# 6 3.5623 7.3131 -17.4879 3.4061 2.0302 31.6688
#
#
#
# Elastic Compliance Matrix: (Units=1/GPa)
#
#
# Indices 1 2 3 4 5 6 
#
# 1 0.010352 0.000942 -0.004372 -0.004750 -0.000497 -0.003253
# 2 0.000942 0.017809 -0.006677 0.000985 -0.003241 -0.007804
# 3 -0.004372 -0.006677 0.012433 0.004178 0.001091 0.008380
# 4 -0.004750 0.000985 0.004178 0.027993 0.003547 -0.000624
# 5 -0.000497 -0.003241 0.001091 0.003547 0.024291 -0.000532
# 6 -0.003253 -0.007804 0.008380 -0.000624 -0.000532 0.038474
#
#
# Mechanical properties :
#
#
# Convention : Reuss Voigt Hill
#
# Bulk Modulus (GPa) = 49.07042 57.03761 53.05401
# Shear Modulus (GPa) = 31.57364 39.26842 35.42103
#
# Velocity S-wave (km/s) = 3.63229 4.05079 3.84724
# Velocity P-wave (km/s) = 6.17221 6.76111 6.47336
#
# Compressibility (1/GPa) = 0.02037888
#
# Stress axis : x y z
#
# Youngs Moduli (GPa) = 96.60168 56.15100 80.43115
#
# Poissons Ratio (x) = -0.05287 0.35166
# Poissons Ratio (y) = -0.09096 0.53704
# Poissons Ratio (z) = 0.42236 0.37492
#
# Static dielectric constant tensor:
#      x y z
#    x 1.927210 0.032960 -0.014830 
#    y 0.032960 1.992400 -0.029570 
#    z -0.014830 -0.029570 2.040330 
# 
# From -- ./inp_files/297449.got.cif
#   From: 2010.05.17/outbox.cif.g08.bks.cpg/sg2_149_cif.got.tgz:297449.got - 2010.06.03 11:33:40.
