data_PCOD9112017
_publ_section_title
;
Structure prediction by ZEFSAII (Michael W. Deem and Ramdas Pophale) SiO2 
 PCOD9112017
Probable space group: P -1
;
_chemical_formula_sum "Si O2"
_cell_formula_units_Z 16
_cell_length_a 9.132906
_cell_length_b 15.820956
_cell_length_c 15.901416
_cell_angle_alpha 35.554626
_cell_angle_beta 47.853449
_cell_angle_gamma 75.338893
_cell_volume 727.024411
_symmetry_space_group_name_H-M "P -1"
_symmetry_group_IT_number 2
_symmetry_cell_setting 'triclinic'
loop_
_space_group_symop_operation_xyz
x,y,z
-x,-y,-z
loop_
_atom_site_type_symbol
_atom_site_label
_atom_site_fract_x
_atom_site_fract_y
_atom_site_fract_z
Si Si1 0.316127 0.250615 0.616587
Si Si2 0.253701 0.681809 0.046129
Si Si3 0.855587 0.047990 0.575327
Si Si4 0.198990 0.477749 0.906626
Si Si5 0.073800 0.194624 0.920065
Si Si6 0.703996 0.500718 0.970186
Si Si7 0.816859 0.827379 0.914089
Si Si8 0.188407 0.477541 0.398650
O O1 0.611529 0.387032 0.353221
O O2 0.311595 0.294803 0.679843
O O3 0.150049 0.293239 0.594877
O O4 0.167224 0.024145 0.846977
O O5 0.281181 0.639175 0.974862
O O6 0.176773 0.511417 0.276912
O O7 0.030630 0.693905 0.127039
O O8 0.541922 0.886675 0.801776
O O9 0.006977 0.274946 0.321345
O O10 0.000000 0.000000 0.500000
O O11 0.901611 0.012781 0.680985
O O12 0.068715 0.258769 0.108309
O O13 0.387635 0.551621 0.855823
O O14 0.000000 0.500000 0.000000
O O15 0.126732 0.160441 0.019918
O O16 0.500000 0.500000 0.000000
O O17 0.496523 0.658584 0.160662
O O18 0.000000 0.500000 0.500000
#
# Coordination Sequence:
#
# PCOD9112017 Si02
#       8
#     2   2   2   2   2   2   2   2
#     4  10  24  43  68  91 141 173 221 280 341 402
#     4  11  24  42  68 102 133 181 227 277 340 408
#     4  11  22  42  65  97 140 176 225 282 332 403
#     4  11  24  42  63  96 130 174 223 274 338 404
#     4  11  24  44  66  99 134 177 224 280 348 396
#     4  12  23  41  68  99 133 179 228 273 342 399
#     4  10  23  41  66  97 133 170 222 280 340 398
#     4  10  20  44  67  91 128 175 225 273 332 396
#
# _framework density 22.007512999999999
#
# number of rings (size 3 to 8) (size 9 to 14) (size 15 to 20)
#    0.000    1.250    3.750    2.250    5.250    2.000 
#    2.250    2.500    0.000    0.000    0.000    0.000 
#    0.000    0.000    0.000    0.000    0.000    0.000 
#
# Total GULP energy -89428.722801 kJ/mol
# GULP energy per Si atom -5589.295175 kJ/mol
# Density = 2.195742 g / cm^3
# Si number density = 22.007513 Si / 1000 Ang^3
#
#
#
# Elastic Constant Matrix: (Units=GPa)
#
#
# Indices 1 2 3 4 5 6 
#
# 1 80.2410 38.1193 14.1135 15.7988 12.7044 11.4983
# 2 38.1193 118.1695 23.9921 19.8905 1.1372 4.0177
# 3 14.1135 23.9921 58.4827 12.9816 8.3172 -0.0766
# 4 15.7988 19.8905 12.9816 36.3558 1.9370 3.6598
# 5 12.7044 1.1372 8.3172 1.9370 23.3727 8.7414
# 6 11.4983 4.0177 -0.0766 3.6598 8.7414 48.2644
#
#
#
# Elastic Compliance Matrix: (Units=1/GPa)
#
#
# Indices 1 2 3 4 5 6 
#
# 1 0.017040 -0.004614 -0.000163 -0.004207 -0.007911 -0.001924
# 2 -0.004614 0.011102 -0.003253 -0.003070 0.003464 -0.000225
# 3 -0.000163 -0.003253 0.020729 -0.005365 -0.007471 0.002102
# 4 -0.004207 -0.003070 -0.005365 0.032977 0.002231 -0.001655
# 5 -0.007911 0.003464 -0.007471 0.002231 0.052411 -0.008077
# 6 -0.001924 -0.000225 0.002102 -0.001655 -0.008077 0.022788
#
#
# Mechanical properties :
#
#
# Convention : Reuss Voigt Hill
#
# Bulk Modulus (GPa) = 30.47668 45.48255 37.97961
# Shear Modulus (GPa) = 27.16754 33.64312 30.40533
#
# Velocity S-wave (km/s) = 3.51731 3.91411 3.72101
# Velocity P-wave (km/s) = 5.51123 6.41395 5.97965
#
# Compressibility (1/GPa) = 0.03281198
#
# Stress axis : x y z
#
# Youngs Moduli (GPa) = 58.68689 90.07258 48.24168
#
# Poissons Ratio (x) = 0.41559 0.00785
# Poissons Ratio (y) = 0.27078 0.15691
# Poissons Ratio (z) = 0.00955 0.29297
#
# Static dielectric constant tensor:
#      x y z
#    x 1.845310 0.005910 0.036250 
#    y 0.005910 1.801610 0.006360 
#    z 0.036250 0.006360 1.838580 
# 
# From -- ./inp_files/398504.got.cif
#   From: 2010.05.17/outbox.cif.g08.bks.cpg/sg2_200_cif.got.tgz:398504.got - 2010.06.03 11:33:40.
