data_PCOD9112480
_publ_section_title
;
Structure prediction by ZEFSAII (Michael W. Deem and Ramdas Pophale) SiO2 
 PCOD9112480
Probable space group: P 2
;
_chemical_formula_sum "Si O2"
_cell_formula_units_Z 10
_cell_length_a 6.967951
_cell_length_b 8.745867
_cell_length_c 7.740284
_cell_angle_alpha 90.000000
_cell_angle_beta 105.640121
_cell_angle_gamma 90.000000
_cell_volume 454.233775
_symmetry_space_group_name_H-M "P 2"
_symmetry_group_IT_number 3
_symmetry_cell_setting 'monoclinic'
loop_
_space_group_symop_operation_xyz
x,y,z
-x,y,-z
loop_
_atom_site_type_symbol
_atom_site_label
_atom_site_fract_x
_atom_site_fract_y
_atom_site_fract_z
Si Si1 0.343464 0.150790 0.304342
Si Si2 0.393551 0.843227 0.142150
Si Si3 0.000000 0.648628 0.000000
Si Si4 0.614633 0.541917 0.287567
Si Si5 0.819231 0.446884 0.666382
Si Si6 0.500000 0.315391 0.000000
O O1 0.500000 0.169314 0.500000
O O2 0.160702 0.262970 0.312966
O O3 0.414453 0.214518 0.134694
O O4 0.326081 0.970187 0.263848
O O5 0.196652 0.752514 0.035547
O O6 0.556064 0.718561 0.247843
O O7 0.500000 0.912435 0.000000
O O8 0.040373 0.545412 0.177874
O O9 0.786807 0.506801 0.465209
O O10 0.403463 0.478273 0.309759
O O11 0.647518 0.437138 0.127265
#
# Coordination Sequence:
#
# PCOD9112480 Si02
#       6
#     2   2   1   2   2   1
#     4  11  21  35  65  99 129 174 220 272 334 391
#     4  11  23  39  65  98 132 173 214 277 338 385
#     4  10  24  40  64  96 132 178 220 272 324 396
#     4   9  17  34  63  89 121 168 226 260 313 400
#     4   9  18  37  59  91 125 170 222 261 324 389
#     4  10  16  34  60  96 120 162 230 264 308 398
#
# _framework density 22.015097000000001
#
# number of rings (size 3 to 8) (size 9 to 14) (size 15 to 20)
#    0.000    2.000    6.000    0.000    5.600    0.800 
#    0.000    1.000    0.000    0.000    0.000    0.000 
#    0.000    0.000    0.000    0.000    0.000    0.000 
#
# Total GULP energy -55719.219659 kJ/mol
# GULP energy per Si atom -5571.921966 kJ/mol
# Density = 2.196499 g / cm^3
# Si number density = 22.015097 Si / 1000 Ang^3
#
#
#
# Elastic Constant Matrix: (Units=GPa)
#
#
# Indices 1 2 3 4 5 6 
#
# 1 66.7755 16.5159 34.4021 0.0000 17.2784 0.0000
# 2 16.5159 161.4197 73.6286 0.0000 12.0551 0.0000
# 3 34.4021 73.6286 188.6916 0.0000 8.7140 0.0000
# 4 0.0000 0.0000 0.0000 31.8002 0.0000 -0.0690
# 5 17.2784 12.0551 8.7140 0.0000 23.7822 0.0000
# 6 0.0000 0.0000 0.0000 -0.0690 0.0000 17.1172
#
#
#
# Elastic Compliance Matrix: (Units=1/GPa)
#
#
# Indices 1 2 3 4 5 6 
#
# 1 0.020033 0.000420 -0.003188 0.000000 -0.013599 0.000000
# 2 0.000420 0.007732 -0.002948 0.000000 -0.003144 0.000000
# 3 -0.003188 -0.002948 0.006973 0.000000 0.001256 0.000000
# 4 0.000000 0.000000 0.000000 0.031447 0.000000 0.000127
# 5 -0.013599 -0.003144 0.001256 0.000000 0.053062 0.000000
# 6 0.000000 0.000000 0.000000 0.000127 0.000000 0.058421
#
#
# Mechanical properties :
#
#
# Convention : Reuss Voigt Hill
#
# Bulk Modulus (GPa) = 42.90881 73.99776 58.45328
# Shear Modulus (GPa) = 25.39751 34.02927 29.71339
#
# Velocity S-wave (km/s) = 3.40021 3.93584 3.67779
# Velocity P-wave (km/s) = 5.91170 7.37154 6.68161
#
# Compressibility (1/GPa) = 0.02330524
#
# Stress axis : x y z
#
# Youngs Moduli (GPa) = 49.91730 129.33783 143.40156
#
# Poissons Ratio (x) = -0.05435 0.45722
# Poissons Ratio (y) = -0.02098 0.42280
# Poissons Ratio (z) = 0.15915 0.38133
#
# Static dielectric constant tensor:
#      x y z
#    x 1.883050 0.000000 -0.055320 
#    y 0.000000 1.892850 0.000000 
#    z -0.055320 0.000000 1.859120 
# 
# From -- ./inp_files/4995.got.cif
#   From: 2010.05.17/outbox.cif.g08.bks.cpg/sg3_3_cif.got.tgz:4995.got - 2010.06.03 18:33:08.
