data_PCOD9112113
_publ_section_title
;
Structure prediction by ZEFSAII (Michael W. Deem and Ramdas Pophale) SiO2 
 PCOD9112113
Probable space group: P -1
;
_chemical_formula_sum "Si O2"
_cell_formula_units_Z 14
_cell_length_a 11.945288
_cell_length_b 10.130805
_cell_length_c 10.325215
_cell_angle_alpha 137.584413
_cell_angle_beta 117.486041
_cell_angle_gamma 58.356524
_cell_volume 711.481647
_symmetry_space_group_name_H-M "P -1"
_symmetry_group_IT_number 2
_symmetry_cell_setting 'triclinic'
loop_
_space_group_symop_operation_xyz
x,y,z
-x,-y,-z
loop_
_atom_site_type_symbol
_atom_site_label
_atom_site_fract_x
_atom_site_fract_y
_atom_site_fract_z
Si Si1 0.484294 0.295765 0.411880
Si Si2 0.747178 0.163203 0.578356
Si Si3 0.179667 0.403068 0.401708
Si Si4 0.830540 0.182078 0.165428
Si Si5 0.698988 0.985201 0.163952
Si Si6 0.868575 0.993192 0.787008
Si Si7 0.130210 0.470168 0.134155
O O1 0.500000 0.500000 0.500000
O O2 0.587010 0.252216 0.554891
O O3 0.334962 0.325040 0.390018
O O4 0.548541 0.098640 0.211315
O O5 0.809951 0.346302 0.729758
O O6 0.777455 0.032331 0.366580
O O7 0.800327 0.040593 0.646936
O O8 0.164011 0.597643 0.626111
O O9 0.139821 0.221790 0.317256
O O10 0.102836 0.467435 0.271560
O O11 0.977038 0.024046 0.154836
O O12 0.730801 0.109056 0.149302
O O13 0.804825 0.161589 0.985255
O O14 0.757199 0.745139 0.993650
O O15 0.000000 0.500000 0.000000
#
# Coordination Sequence:
#
# PCOD9112113 Si02
#       7
#     2   2   2   2   2   2   2
#     4  10  20  44  70  91 125 169 223 259 318 371
#     4  10  24  44  64  94 131 162 216 276 302 381
#     4  12  23  43  66  94 132 170 210 267 317 386
#     4  11  22  42  65  92 134 172 205 259 331 385
#     4  10  22  42  70  95 121 177 211 267 318 368
#     4  11  26  40  62  98 132 168 211 259 333 380
#     4  12  24  37  68 101 125 166 221 259 317 384
#
# _framework density 19.677246
#
# number of rings (size 3 to 8) (size 9 to 14) (size 15 to 20)
#    0.857    0.286    5.714    1.286    4.000    3.429 
#    2.571    0.714    0.000    0.000    0.000    0.000 
#    0.000    0.000    0.000    0.000    0.000    0.000 
#
# Total GULP energy -78173.334388 kJ/mol
# GULP energy per Si atom -5583.809599 kJ/mol
# Density = 1.963246 g / cm^3
# Si number density = 19.677246 Si / 1000 Ang^3
#
#
#
# Elastic Constant Matrix: (Units=GPa)
#
#
# Indices 1 2 3 4 5 6 
#
# 1 46.0976 -7.0275 8.4457 12.5967 -3.4769 -3.9386
# 2 -7.0275 53.4690 20.9548 16.9781 3.0447 5.5831
# 3 8.4457 20.9548 90.5352 2.9768 -23.0520 14.9798
# 4 12.5967 16.9781 2.9768 8.3221 -13.8872 13.3793
# 5 -3.4769 3.0447 -23.0520 -13.8872 30.3783 4.4568
# 6 -3.9386 5.5831 14.9798 13.3793 4.4568 19.0790
#
#
#
# Elastic Compliance Matrix: (Units=1/GPa)
#
#
# Indices 1 2 3 4 5 6 
#
# 1 0.017423 -0.002527 0.003090 0.012390 0.011650 -0.009500
# 2 -0.002527 0.014944 0.001165 0.013594 0.007831 -0.017172
# 3 0.003090 0.001165 0.010450 -0.016501 0.000089 0.003643
# 4 0.012390 0.013594 -0.016501 -0.023658 -0.028380 0.034756
# 5 0.011650 0.007831 0.000089 -0.028380 0.018260 0.015680
# 6 -0.009500 -0.017172 0.003643 0.034756 0.015680 0.024582
#
#
# Mechanical properties :
#
#
# Convention : Reuss Voigt Hill
#
# Bulk Modulus (GPa) = 21.61028 26.09421 23.85224
# Shear Modulus (GPa) = 67.59657 22.73779 45.16718
#
# Velocity S-wave (km/s) = 5.86747 3.40301 4.79623
# Velocity P-wave (km/s) = 7.54382 5.36008 6.54369
#
# Compressibility (1/GPa) = 0.04627427
#
# Stress axis : x y z
#
# Youngs Moduli (GPa) = 57.39479 66.91548 95.69494
#
# Poissons Ratio (x) = 0.16907 -0.29571
# Poissons Ratio (y) = 0.14501 -0.11148
# Poissons Ratio (z) = -0.17736 -0.07795
#
# Static dielectric constant tensor:
#      x y z
#    x 1.688000 -0.027740 -0.007750 
#    y -0.027740 1.663410 -0.000130 
#    z -0.007750 -0.000130 1.733240 
# 
# From -- ./inp_files/241576.got.cif
#   From: 2010.05.17/outbox.cif.g08.bks.cpg/sg2_121_cif.got.tgz:241576.got - 2010.06.03 11:33:40.
