data_PCOD9112181
_publ_section_title
;
Structure prediction by ZEFSAII (Michael W. Deem and Ramdas Pophale) SiO2 
 PCOD9112181
Probable space group: P -1
;
_chemical_formula_sum "Si O2"
_cell_formula_units_Z 16
_cell_length_a 12.696657
_cell_length_b 9.706433
_cell_length_c 9.800978
_cell_angle_alpha 108.227023
_cell_angle_beta 103.935408
_cell_angle_gamma 32.260731
_cell_volume 611.708593
_symmetry_space_group_name_H-M "P -1"
_symmetry_group_IT_number 2
_symmetry_cell_setting 'triclinic'
loop_
_space_group_symop_operation_xyz
x,y,z
-x,-y,-z
loop_
_atom_site_type_symbol
_atom_site_label
_atom_site_fract_x
_atom_site_fract_y
_atom_site_fract_z
Si Si1 0.567612 0.161357 0.043631
Si Si2 0.474796 0.000074 0.770049
Si Si3 0.915741 0.466746 0.746885
Si Si4 0.830543 0.294176 0.205925
Si Si5 0.105643 0.471002 0.640836
Si Si6 0.993440 0.810093 0.054340
Si Si7 0.481174 0.532899 0.282076
Si Si8 0.171959 0.929296 0.532591
O O1 0.771582 0.006169 0.012644
O O2 0.603951 0.024697 0.149042
O O3 0.438129 0.440563 0.146287
O O4 0.497266 0.125992 0.898122
O O5 0.691164 0.706786 0.701978
O O6 0.707275 0.201712 0.612243
O O7 0.990939 0.544823 0.764620
O O8 0.914879 0.411073 0.884503
O O9 0.065289 0.193969 0.630938
O O10 0.600117 0.515795 0.223267
O O11 0.670533 0.821515 0.346071
O O12 0.953362 0.009774 0.176878
O O13 0.882790 0.291387 0.071039
O O14 0.106027 0.640595 0.663829
O O15 0.000000 0.500000 0.500000
O O16 0.651625 0.301051 0.374677
O O17 0.000000 0.000000 0.500000
#
# Coordination Sequence:
#
# PCOD9112181 Si02
#       8
#     2   2   2   2   2   2   2   2
#     4  10  20  44  73 118 156 196 273 333 393 482
#     4  11  25  43  78 114 159 206 267 338 403 494
#     4  12  25  47  79 115 155 214 270 328 405 491
#     4  10  23  46  77 116 160 212 264 337 407 472
#     4  12  29  52  74 110 166 215 269 333 412 491
#     4  10  21  45  82 115 162 206 269 336 409 480
#     4  10  22  47  70 112 162 212 273 323 394 480
#     4  11  23  42  78 108 157 216 273 322 382 487
#
# _framework density 26.156244000000001
#
# number of rings (size 3 to 8) (size 9 to 14) (size 15 to 20)
#    0.000    1.250    3.750    1.500    5.250    2.500 
#    2.250    3.750    2.750    0.750    0.000    0.000 
#    0.000    0.125    0.000    0.000    0.000    0.000 
#
# Total GULP energy -89727.972881 kJ/mol
# GULP energy per Si atom -5607.998305 kJ/mol
# Density = 2.609671 g / cm^3
# Si number density = 26.156244 Si / 1000 Ang^3
#
#
#
# Elastic Constant Matrix: (Units=GPa)
#
#
# Indices 1 2 3 4 5 6 
#
# 1 163.3479 47.5693 61.2536 15.5188 -2.9224 9.3989
# 2 47.5693 108.1559 36.1033 11.9008 -0.3498 -22.2042
# 3 61.2536 36.1033 110.0044 24.6075 -2.7814 -10.9600
# 4 15.5188 11.9008 24.6075 48.0751 -4.2070 -1.7654
# 5 -2.9224 -0.3498 -2.7814 -4.2070 66.4161 4.7925
# 6 9.3989 -22.2042 -10.9600 -1.7654 4.7925 58.6149
#
#
#
# Elastic Compliance Matrix: (Units=1/GPa)
#
#
# Indices 1 2 3 4 5 6 
#
# 1 0.008833 -0.003188 -0.004205 0.000002 0.000445 -0.003446
# 2 -0.003188 0.012284 -0.001539 -0.001094 -0.000562 0.004890
# 3 -0.004205 -0.001539 0.013292 -0.004987 -0.000128 0.002437
# 4 0.000002 -0.001094 -0.004987 0.023714 0.001341 -0.000743
# 5 0.000445 -0.000562 -0.000128 0.001341 0.015262 -0.001516
# 6 -0.003446 0.004890 0.002437 -0.000743 -0.001516 0.020023
#
#
# Mechanical properties :
#
#
# Convention : Reuss Voigt Hill
#
# Bulk Modulus (GPa) = 60.43748 74.59563 67.51655
# Shear Modulus (GPa) = 42.81321 50.39335 46.60328
#
# Velocity S-wave (km/s) = 4.05016 4.39410 4.22563
# Velocity P-wave (km/s) = 6.71031 7.37057 7.04817
#
# Compressibility (1/GPa) = 0.01654602
#
# Stress axis : x y z
#
# Youngs Moduli (GPa) = 113.21103 81.40646 75.23183
#
# Poissons Ratio (x) = 0.25950 0.31635
# Poissons Ratio (y) = 0.36088 0.11578
# Poissons Ratio (z) = 0.47605 0.12528
#
# Static dielectric constant tensor:
#      x y z
#    x 2.045070 0.016270 -0.005360 
#    y 0.016270 2.059840 -0.036520 
#    z -0.005360 -0.036520 2.089740 
# 
# From -- ./inp_files/415210.got.cif
#   From: 2010.05.17/outbox.cif.g08.bks.cpg/sg2_208_cif.got.tgz:415210.got - 2010.06.03 11:33:40.
