data_PCOD9112903
_publ_section_title
;
Structure prediction by ZEFSAII (Michael W. Deem and Ramdas Pophale) SiO2 
 PCOD9112903
Probable space group: P 2
;
_chemical_formula_sum "Si O2"
_cell_formula_units_Z 14
_cell_length_a 7.771869
_cell_length_b 16.673369
_cell_length_c 9.154933
_cell_angle_alpha 90.000000
_cell_angle_beta 146.631735
_cell_angle_gamma 90.000000
_cell_volume 652.500883
_symmetry_space_group_name_H-M "P 2"
_symmetry_group_IT_number 3
_symmetry_cell_setting 'monoclinic'
loop_
_space_group_symop_operation_xyz
x,y,z
-x,y,-z
loop_
_atom_site_type_symbol
_atom_site_label
_atom_site_fract_x
_atom_site_fract_y
_atom_site_fract_z
Si Si1 0.186516 0.575420 0.372275
Si Si2 0.817089 0.895192 0.026186
Si Si3 0.680294 0.988108 0.470910
Si Si4 0.857318 0.732989 0.238687
Si Si5 0.369252 0.324218 0.243405
Si Si6 0.627021 0.147797 0.753592
Si Si7 0.558019 0.486330 0.870623
O O1 0.500000 0.572892 0.500000
O O2 0.304832 0.541938 0.611287
O O3 0.056585 0.664580 0.300434
O O4 0.909367 0.521979 0.107039
O O5 0.847073 0.813244 0.134904
O O6 0.972233 0.965185 0.235381
O O7 0.467223 0.919748 0.735262
O O8 0.000000 0.889940 0.000000
O O9 0.500000 0.985823 0.500000
O O10 0.575938 0.073504 0.330820
O O11 0.000000 0.747272 0.500000
O O12 0.500000 0.703675 0.000000
O O13 0.500000 0.330912 0.500000
O O14 0.426297 0.235515 0.216129
O O15 0.476557 0.398826 0.224446
O O16 0.000000 0.329406 0.000000
O O17 0.500000 0.158030 0.500000
O O18 0.000000 0.129502 0.000000
O O19 0.500000 0.482713 0.000000
#
# Coordination Sequence:
#
# PCOD9112903 Si02
#       7
#     2   2   2   2   2   2   2
#     4  12  26  44  66  89 116 154 203 250 295 353
#     4  10  21  36  58  86 115 151 197 243 288 345
#     4   9  16  30  53  84 117 148 191 246 293 333
#     4  12  26  44  63  88 124 159 196 243 304 363
#     4  10  20  35  57  86 119 156 201 246 291 347
#     4   9  16  28  50  83 118 151 193 248 297 336
#     4  12  24  41  63  90 124 159 196 242 303 361
#
# _framework density 21.455908999999998
#
# number of rings (size 3 to 8) (size 9 to 14) (size 15 to 20)
#    0.000    1.429    0.000    8.143    0.000    4.000 
#    0.000    0.000    0.000    2.571    0.000    0.000 
#    0.000    0.000    0.000    0.000    0.000    0.000 
#
# Total GULP energy -78235.315937 kJ/mol
# GULP energy per Si atom -5588.236853 kJ/mol
# Density = 2.140707 g / cm^3
# Si number density = 21.455909 Si / 1000 Ang^3
#
#
#
# Elastic Constant Matrix: (Units=GPa)
#
#
# Indices 1 2 3 4 5 6 
#
# 1 55.4920 25.9607 19.6893 0.0000 -1.0734 0.0000
# 2 25.9607 143.1063 27.3246 0.0000 -12.0062 0.0000
# 3 19.6893 27.3246 136.0494 0.0000 -0.1358 0.0000
# 4 0.0000 0.0000 0.0000 35.4624 0.0000 -12.6580
# 5 -1.0734 -12.0062 -0.1358 0.0000 27.9196 0.0000
# 6 0.0000 0.0000 0.0000 -12.6580 0.0000 -70.0009
#
#
#
# Elastic Compliance Matrix: (Units=1/GPa)
#
#
# Indices 1 2 3 4 5 6 
#
# 1 0.020368 -0.003314 -0.002283 0.000000 -0.000653 0.000000
# 2 -0.003314 0.008088 -0.001141 0.000000 0.003345 0.000000
# 3 -0.002283 -0.001141 0.007909 0.000000 -0.000540 0.000000
# 4 0.000000 0.000000 0.000000 0.026489 0.000000 -0.004790
# 5 -0.000653 0.003345 -0.000540 0.000000 0.037228 0.000000
# 6 0.000000 0.000000 0.000000 -0.004790 0.000000 -0.013419
#
#
# Mechanical properties :
#
#
# Convention : Reuss Voigt Hill
#
# Bulk Modulus (GPa) = 43.68917 53.39966 48.54442
# Shear Modulus (GPa) = 46.39569 16.12109 31.25839
#
# Velocity S-wave (km/s) = 4.65518 2.74407 3.82103
# Velocity P-wave (km/s) = 7.02145 5.91456 6.49164
#
# Compressibility (1/GPa) = 0.02288897
#
# Stress axis : x y z
#
# Youngs Moduli (GPa) = 49.09591 123.64682 126.43264
#
# Poissons Ratio (x) = 0.40975 0.28862
# Poissons Ratio (y) = 0.16270 0.14431
# Poissons Ratio (z) = 0.11208 0.14113
#
# Static dielectric constant tensor:
#      x y z
#    x 1.774140 0.000000 0.002750 
#    y 0.000000 1.838350 0.000000 
#    z 0.002750 0.000000 1.746570 
# 
# From -- ./inp_files/6247.got.cif
#   From: 2010.05.17/outbox.cif.g08.bks.cpg/sg3_4_cif.got.tgz:6247.got - 2010.06.03 18:33:08.
