data_PCOD9112648
_publ_section_title
;
Structure prediction by ZEFSAII (Michael W. Deem and Ramdas Pophale) SiO2 
 PCOD9112648
Probable space group: P 2
;
_chemical_formula_sum "Si O2"
_cell_formula_units_Z 12
_cell_length_a 7.807760
_cell_length_b 7.496511
_cell_length_c 10.815719
_cell_angle_alpha 90.000000
_cell_angle_beta 121.285170
_cell_angle_gamma 90.000000
_cell_volume 541.004032
_symmetry_space_group_name_H-M "P 2"
_symmetry_group_IT_number 3
_symmetry_cell_setting 'monoclinic'
loop_
_space_group_symop_operation_xyz
x,y,z
-x,y,-z
loop_
_atom_site_type_symbol
_atom_site_label
_atom_site_fract_x
_atom_site_fract_y
_atom_site_fract_z
Si Si1 0.350258 0.685530 0.563752
Si Si2 0.708915 0.854619 0.806375
Si Si3 0.263406 0.816446 0.914053
Si Si4 0.272255 0.317431 0.458406
Si Si5 0.031847 0.504091 0.146939
Si Si6 0.080583 0.970517 0.354755
O O1 0.500000 0.680594 0.500000
O O2 0.475971 0.802065 0.707194
O O3 0.295656 0.479970 0.564689
O O4 0.156769 0.794147 0.451647
O O5 0.814510 0.663969 0.825235
O O6 0.789504 0.974803 0.725258
O O7 0.771875 0.910597 0.965895
O O8 0.160403 0.619396 0.879150
O O9 0.146166 0.936596 0.770929
O O10 0.500000 0.798395 0.000000
O O11 0.500000 0.275947 0.500000
O O12 0.136651 0.390564 0.293194
O O13 0.157708 0.141040 0.457130
O O14 0.000000 0.414439 0.000000
#
# Coordination Sequence:
#
# PCOD9112648 Si02
#       6
#     2   2   2   2   2   2
#     4   9  15  30  50  80 108 128 164 220 266 313
#     4   9  16  33  53  77 108 133 174 227 264 312
#     4  10  20  35  53  74 105 149 186 215 258 311
#     4  11  17  29  55  86 108 131 165 221 279 314
#     4   9  17  30  51  77 105 131 173 223 261 309
#     4  10  19  31  54  82 107 133 173 218 266 316
#
# _framework density 22.180980999999999
#
# number of rings (size 3 to 8) (size 9 to 14) (size 15 to 20)
#    0.000    2.333    6.667    3.000    0.000    1.333 
#    0.000    1.667    0.000    0.000    8.667    0.000 
#    0.000    0.000    0.000    0.000    0.000    0.000 
#
# Total GULP energy -66903.856524 kJ/mol
# GULP energy per Si atom -5575.321377 kJ/mol
# Density = 2.213050 g / cm^3
# Si number density = 22.180981 Si / 1000 Ang^3
#
#
#
# Elastic Constant Matrix: (Units=GPa)
#
#
# Indices 1 2 3 4 5 6 
#
# 1 64.5687 20.7085 33.3108 0.0000 21.2287 0.0000
# 2 20.7085 70.0168 21.8308 0.0000 17.4698 0.0000
# 3 33.3108 21.8308 120.6190 0.0000 39.7823 0.0000
# 4 0.0000 0.0000 0.0000 33.3363 0.0000 8.1916
# 5 21.2287 17.4698 39.7823 0.0000 33.1141 0.0000
# 6 0.0000 0.0000 0.0000 8.1916 0.0000 -1.5448
#
#
#
# Elastic Compliance Matrix: (Units=1/GPa)
#
#
# Indices 1 2 3 4 5 6 
#
# 1 0.020549 -0.003184 -0.002166 0.000000 -0.008892 0.000000
# 2 -0.003184 0.016943 0.000145 0.000000 -0.007072 0.000000
# 3 -0.002166 0.000145 0.013962 0.000000 -0.015461 0.000000
# 4 0.000000 0.000000 0.000000 0.013025 0.000000 0.069069
# 5 -0.008892 -0.007072 -0.015461 0.000000 0.058205 0.000000
# 6 0.000000 0.000000 0.000000 0.069069 0.000000 -0.281082
#
#
# Mechanical properties :
#
#
# Convention : Reuss Voigt Hill
#
# Bulk Modulus (GPa) = 24.36354 45.21164 34.78759
# Shear Modulus (GPa) = -37.22830 24.93808 -6.14511
#
# Velocity S-wave (km/s) = -4.10126 3.35670 -1.66627
# Velocity P-wave (km/s) = 3.37924 5.95403 3.46636
#
# Compressibility (1/GPa) = 0.04104493
#
# Stress axis : x y z
#
# Youngs Moduli (GPa) = 48.66320 59.02074 71.62323
#
# Poissons Ratio (x) = 0.18791 0.15515
# Poissons Ratio (y) = 0.15494 -0.01040
# Poissons Ratio (z) = 0.10541 -0.00857
#
# Static dielectric constant tensor:
#      x y z
#    x 1.926670 0.000000 -0.048040 
#    y 0.000000 1.816960 0.000000 
#    z -0.048040 0.000000 1.899240 
# 
# From -- ./inp_files/7042.got.cif
#   From: 2010.05.17/outbox.cif.g08.bks.cpg/sg3_4_cif.got.tgz:7042.got - 2010.06.03 18:33:08.
