data_PCOD9112096
_publ_section_title
;
Structure prediction by ZEFSAII (Michael W. Deem and Ramdas Pophale) SiO2 
 PCOD9112096
Probable space group: P -1
;
_chemical_formula_sum "Si O2"
_cell_formula_units_Z 13
_cell_length_a 10.254068
_cell_length_b 9.887913
_cell_length_c 10.229787
_cell_angle_alpha 44.293937
_cell_angle_beta 89.085798
_cell_angle_gamma 61.236510
_cell_volume 535.813401
_symmetry_space_group_name_H-M "P -1"
_symmetry_group_IT_number 2
_symmetry_cell_setting 'triclinic'
loop_
_space_group_symop_operation_xyz
x,y,z
-x,-y,-z
loop_
_atom_site_type_symbol
_atom_site_label
_atom_site_fract_x
_atom_site_fract_y
_atom_site_fract_z
Si Si1 0.635448 0.702642 0.161513
Si Si2 0.000000 0.000000 0.000000
Si Si3 0.717323 0.566187 0.545865
Si Si4 0.062927 0.905515 0.784783
Si Si5 0.648090 0.970274 0.443491
Si Si6 0.450183 0.521539 0.168528
Si Si7 0.024143 0.664756 0.718469
O O1 0.691106 0.562750 0.396966
O O2 0.550122 0.617763 0.135285
O O3 0.804769 0.615248 0.142622
O O4 0.500000 0.000000 0.000000
O O5 0.088813 0.695322 0.232975
O O6 0.944496 0.998505 0.850274
O O7 0.679789 0.827103 0.406043
O O8 0.589520 0.558530 0.641618
O O9 0.066792 0.719565 0.817881
O O10 0.253060 0.751975 0.957024
O O11 0.008853 0.134418 0.530955
O O12 0.833029 0.761382 0.659594
O O13 0.500000 0.000000 0.500000
O O14 0.572160 0.263575 0.253967
#
# Coordination Sequence:
#
# PCOD9112096 Si02
#       7
#     2   1   2   2   2   2   2
#     4  12  27  44  71 115 149 195 248 312 372 438
#     4  10  20  44  70 100 150 186 250 298 368 428
#     4  10  23  44  71 103 147 196 251 301 372 439
#     4  10  22  41  72 109 137 201 244 301 373 441
#     4  10  24  46  71 104 144 196 244 310 370 446
#     4  10  23  45  73  99 149 201 244 305 370 446
#     4  11  24  42  71 103 151 186 251 305 368 440
#
# _framework density 24.262177999999999
#
# number of rings (size 3 to 8) (size 9 to 14) (size 15 to 20)
#    0.000    1.538    1.538    2.308    4.308    4.308 
#    2.769    6.923    0.000    0.000    0.000    0.000 
#    0.000    0.000    0.000    0.000    0.000    0.000 
#
# Total GULP energy -72428.982802 kJ/mol
# GULP energy per Si atom -5571.460216 kJ/mol
# Density = 2.420696 g / cm^3
# Si number density = 24.262178 Si / 1000 Ang^3
#
#
#
# Elastic Constant Matrix: (Units=GPa)
#
#
# Indices 1 2 3 4 5 6 
#
# 1 95.1774 22.3519 1.5916 -9.5195 17.3588 14.3656
# 2 22.3519 108.6189 25.1864 -9.4332 12.4150 14.3991
# 3 1.5916 25.1864 97.2144 -2.6106 9.1171 15.1471
# 4 -9.5195 -9.4332 -2.6106 61.5699 -3.3284 2.5798
# 5 17.3588 12.4150 9.1171 -3.3284 28.4912 4.3291
# 6 14.3656 14.3991 15.1471 2.5798 4.3291 27.8636
#
#
#
# Elastic Compliance Matrix: (Units=1/GPa)
#
#
# Indices 1 2 3 4 5 6 
#
# 1 0.013154 -0.001368 0.001787 0.001787 -0.006847 -0.006148
# 2 -0.001368 0.010824 -0.001951 0.001375 -0.002557 -0.003557
# 3 0.001787 -0.001951 0.012005 0.000571 -0.003100 -0.006011
# 4 0.001787 0.001375 0.000571 0.016940 0.000657 -0.003613
# 5 -0.006847 -0.002557 -0.003100 0.000657 0.041448 0.000037
# 6 -0.006148 -0.003557 -0.006011 -0.003613 0.000037 0.044493
#
#
# Mechanical properties :
#
#
# Convention : Reuss Voigt Hill
#
# Bulk Modulus (GPa) = 30.37807 44.36339 37.37073
# Shear Modulus (GPa) = 32.70106 40.37701 36.53904
#
# Velocity S-wave (km/s) = 3.67525 4.08388 3.88494
# Velocity P-wave (km/s) = 5.52792 6.36884 5.96322
#
# Compressibility (1/GPa) = 0.03291848
#
# Stress axis : x y z
#
# Youngs Moduli (GPa) = 76.02502 92.38964 83.29644
#
# Poissons Ratio (x) = 0.12643 -0.14886
# Poissons Ratio (y) = 0.10403 0.16249
# Poissons Ratio (z) = -0.13587 0.18023
#
# Static dielectric constant tensor:
#      x y z
#    x 2.049490 -0.115120 -0.058880 
#    y -0.115120 2.017010 -0.035480 
#    z -0.058880 -0.035480 2.031030 
# 
# From -- ./inp_files/236677.got.cif
#   From: 2010.05.17/outbox.cif.g08.bks.cpg/sg2_119_cif.got.tgz:236677.got - 2010.06.03 11:33:40.
