data_PCOD9112744
_publ_section_title
;
Structure prediction by ZEFSAII (Michael W. Deem and Ramdas Pophale) SiO2 
 PCOD9112744
Probable space group: P 2
;
_chemical_formula_sum "Si O2"
_cell_formula_units_Z 16
_cell_length_a 8.804842
_cell_length_b 17.347300
_cell_length_c 8.300279
_cell_angle_alpha 90.000000
_cell_angle_beta 146.790638
_cell_angle_gamma 90.000000
_cell_volume 694.366630
_symmetry_space_group_name_H-M "P 2"
_symmetry_group_IT_number 3
_symmetry_cell_setting 'monoclinic'
loop_
_space_group_symop_operation_xyz
x,y,z
-x,y,-z
loop_
_atom_site_type_symbol
_atom_site_label
_atom_site_fract_x
_atom_site_fract_y
_atom_site_fract_z
Si Si1 0.196667 0.976110 0.313250
Si Si2 0.000509 0.149834 0.826242
Si Si3 0.555867 0.737414 0.856582
Si Si4 0.397453 0.387050 0.094589
Si Si5 0.200055 0.882652 0.811144
Si Si6 0.053992 0.641909 0.354452
Si Si7 0.471306 0.216216 0.785956
Si Si8 0.864744 0.471970 0.700823
O O1 0.500000 0.964528 0.500000
O O2 0.034683 0.940281 0.325256
O O3 0.146691 0.067636 0.289597
O O4 0.000000 0.945984 0.000000
O O5 0.832643 0.199250 0.548796
O O6 0.324659 0.146067 0.077809
O O7 0.000000 0.188741 0.000000
O O8 0.277683 0.709769 0.526199
O O9 0.500000 0.736788 0.000000
O O10 0.689045 0.821713 0.957384
O O11 0.776545 0.670691 0.023510
O O12 0.419464 0.298928 0.174857
O O13 0.574385 0.436578 0.380944
O O14 0.500000 0.391988 0.000000
O O15 0.088758 0.418992 0.809266
O O16 0.000000 0.841550 0.500000
O O17 0.500000 0.911679 0.000000
O O18 0.140387 0.559873 0.363628
O O19 0.000000 0.634497 0.500000
O O20 0.500000 0.220532 0.000000
O O21 0.000000 0.471059 0.000000
#
# Coordination Sequence:
#
# PCOD9112744 Si02
#       8
#     2   2   2   2   2   2   2   2
#     4  11  24  43  64  93 135 180 220 266 332 410
#     4  11  23  41  64  90 127 173 218 261 323 403
#     4   9  18  34  59  90 119 154 206 262 315 379
#     4  11  24  43  64  89 126 171 216 262 326 400
#     4  11  22  39  66  99 129 165 221 285 333 386
#     4  10  19  35  60  85 118 164 206 250 317 393
#     4  11  24  41  64  94 126 163 216 280 330 382
#     4  12  25  40  62  96 131 164 212 274 325 383
#
# _framework density 23.042580999999998
#
# number of rings (size 3 to 8) (size 9 to 14) (size 15 to 20)
#    0.000    1.250    0.000    7.875    0.000    7.500 
#    0.000    0.625    0.000    6.000    0.000    0.000 
#    0.000    0.000    0.000    0.000    0.000    0.000 
#
# Total GULP energy -89151.953475 kJ/mol
# GULP energy per Si atom -5571.997092 kJ/mol
# Density = 2.299014 g / cm^3
# Si number density = 23.042581 Si / 1000 Ang^3
#
#
#
# Elastic Constant Matrix: (Units=GPa)
#
#
# Indices 1 2 3 4 5 6 
#
# 1 51.3483 30.2582 19.3257 0.0000 10.4334 0.0000
# 2 30.2582 64.6162 6.6861 0.0000 3.5816 0.0000
# 3 19.3257 6.6861 97.2986 0.0000 8.1729 0.0000
# 4 0.0000 0.0000 0.0000 21.4255 0.0000 6.7965
# 5 10.4334 3.5816 8.1729 0.0000 41.3340 0.0000
# 6 0.0000 0.0000 0.0000 6.7965 0.0000 5.6542
#
#
#
# Elastic Compliance Matrix: (Units=1/GPa)
#
#
# Indices 1 2 3 4 5 6 
#
# 1 0.030216 -0.013364 -0.004617 0.000000 -0.005556 0.000000
# 2 -0.013364 0.021552 0.001065 0.000000 0.001295 0.000000
# 3 -0.004617 0.001065 0.011218 0.000000 -0.001145 0.000000
# 4 0.000000 0.000000 0.000000 0.075437 0.000000 -0.090678
# 5 -0.005556 0.001295 -0.001145 0.000000 0.025710 0.000000
# 6 0.000000 0.000000 0.000000 -0.090678 0.000000 0.285857
#
#
# Mechanical properties :
#
#
# Convention : Reuss Voigt Hill
#
# Bulk Modulus (GPa) = 34.30045 36.20035 35.25040
# Shear Modulus (GPa) = 10.13089 24.14896 17.13992
#
# Velocity S-wave (km/s) = 2.09908 3.24082 2.73030
# Velocity P-wave (km/s) = 4.55992 5.45419 5.02698
#
# Compressibility (1/GPa) = 0.02915414
#
# Stress axis : x y z
#
# Youngs Moduli (GPa) = 33.09462 46.39934 89.14544
#
# Poissons Ratio (x) = 0.62008 0.41155
# Poissons Ratio (y) = 0.44227 -0.09490
# Poissons Ratio (z) = 0.15279 -0.04940
#
# Static dielectric constant tensor:
#      x y z
#    x 2.242850 0.000000 0.021320 
#    y 0.000000 1.904100 0.000000 
#    z 0.021320 0.000000 1.815190 
# 
# From -- ./inp_files/6305.got.cif
#   From: 2010.05.17/outbox.cif.g08.bks.cpg/sg3_4_cif.got.tgz:6305.got - 2010.06.03 18:33:08.
