data_PCOD9112225
_publ_section_title
;
Structure prediction by ZEFSAII (Michael W. Deem and Ramdas Pophale) SiO2 
 PCOD9112225
Probable space group: P -1
;
_chemical_formula_sum "Si O2"
_cell_formula_units_Z 16
_cell_length_a 19.045804
_cell_length_b 6.570042
_cell_length_c 7.424974
_cell_angle_alpha 88.114142
_cell_angle_beta 96.974185
_cell_angle_gamma 135.983835
_cell_volume 638.821557
_symmetry_space_group_name_H-M "P -1"
_symmetry_group_IT_number 2
_symmetry_cell_setting 'triclinic'
loop_
_space_group_symop_operation_xyz
x,y,z
-x,-y,-z
loop_
_atom_site_type_symbol
_atom_site_label
_atom_site_fract_x
_atom_site_fract_y
_atom_site_fract_z
Si Si1 0.557711 0.169863 0.260288
Si Si2 0.755196 0.742920 0.345772
Si Si3 0.018174 0.695989 0.725176
Si Si4 0.598382 0.563620 0.548653
Si Si5 0.166075 0.429288 0.358985
Si Si6 0.427835 0.157540 0.958498
Si Si7 0.923731 0.128770 0.873702
Si Si8 0.266650 0.981058 0.135491
O O1 0.662939 0.481152 0.193900
O O2 0.567435 0.282387 0.460406
O O3 0.463273 0.075644 0.130031
O O4 0.558752 0.935074 0.220897
O O5 0.699457 0.802389 0.445254
O O6 0.775488 0.579949 0.473302
O O7 0.866726 0.037151 0.310357
O O8 0.931089 0.643318 0.598432
O O9 0.985636 0.393347 0.741812
O O10 0.012936 0.769665 0.927816
O O11 0.500000 0.500000 0.500000
O O12 0.646604 0.700970 0.752828
O O13 0.237669 0.733317 0.263820
O O14 0.122464 0.165482 0.220094
O O15 0.313142 0.989732 0.966915
O O16 0.500000 0.500000 0.000000
O O17 0.831558 0.083605 0.908889
#
# Coordination Sequence:
#
# PCOD9112225 Si02
#       8
#     2   2   2   2   2   2   2   2
#     4   9  23  43  62  99 132 168 229 273 330 399
#     4  10  22  43  66  98 134 176 223 275 333 402
#     4  10  23  41  65  97 134 171 227 278 332 402
#     4  10  20  45  64  95 135 173 224 277 328 398
#     4  11  23  41  66  96 133 177 223 270 342 396
#     4  11  24  42  65  99 132 176 224 281 334 395
#     4  10  22  43  65  99 132 178 217 281 336 402
#     4  11  23  41  68  96 135 177 225 274 338 402
#
# _framework density 25.046116999999999
#
# number of rings (size 3 to 8) (size 9 to 14) (size 15 to 20)
#    0.750    1.000    2.500    0.750    3.500    2.500 
#    2.250    1.875    0.000    0.000    0.000    0.000 
#    0.000    0.000    0.000    0.000    0.000    0.000 
#
# Total GULP energy -89416.422485 kJ/mol
# GULP energy per Si atom -5588.526405 kJ/mol
# Density = 2.498911 g / cm^3
# Si number density = 25.046117 Si / 1000 Ang^3
#
#
#
# Elastic Constant Matrix: (Units=GPa)
#
#
# Indices 1 2 3 4 5 6 
#
# 1 160.7633 58.3203 28.0995 -16.5794 -4.4567 19.5982
# 2 58.3203 120.7252 21.5224 4.4070 -21.7641 -2.9011
# 3 28.0995 21.5224 64.1655 14.7732 -1.2629 -18.4343
# 4 -16.5794 4.4070 14.7732 38.2735 -6.8089 -7.6224
# 5 -4.4567 -21.7641 -1.2629 -6.8089 45.6452 10.8475
# 6 19.5982 -2.9011 -18.4343 -7.6224 10.8475 41.0456
#
#
#
# Elastic Compliance Matrix: (Units=1/GPa)
#
#
# Indices 1 2 3 4 5 6 
#
# 1 0.010519 -0.003950 -0.006943 0.006472 0.001741 -0.007678
# 2 -0.003950 0.011363 -0.001495 -0.001515 0.004644 0.000509
# 3 -0.006943 -0.001495 0.025600 -0.010902 -0.005679 0.014183
# 4 0.006472 -0.001515 -0.010902 0.033622 0.005402 -0.003278
# 5 0.001741 0.004644 -0.005679 0.005402 0.027132 -0.009221
# 6 -0.007678 0.000509 0.014183 -0.003278 -0.009221 0.036263
#
#
# Mechanical properties :
#
#
# Convention : Reuss Voigt Hill
#
# Bulk Modulus (GPa) = 44.04380 62.39316 53.21848
# Shear Modulus (GPa) = 28.27346 40.84030 34.55688
#
# Velocity S-wave (km/s) = 3.36349 4.04245 3.71850
# Velocity P-wave (km/s) = 5.71903 6.83769 6.30323
#
# Compressibility (1/GPa) = 0.02270467
#
# Stress axis : x y z
#
# Youngs Moduli (GPa) = 95.06796 88.00579 39.06314
#
# Poissons Ratio (x) = 0.34767 0.27122
# Poissons Ratio (y) = 0.37557 0.05839
# Poissons Ratio (z) = 0.66006 0.13155
#
# Static dielectric constant tensor:
#      x y z
#    x 1.963630 0.012060 -0.026770 
#    y 0.012060 2.055540 -0.015820 
#    z -0.026770 -0.015820 2.019480 
# 
# From -- ./inp_files/323729.got.cif
#   From: 2010.05.17/outbox.cif.g08.bks.cpg/sg2_162_cif.got.tgz:323729.got - 2010.06.03 11:33:40.
