data_PCOD9112960
_publ_section_title
;
Structure prediction by ZEFSAII (Michael W. Deem and Ramdas Pophale) SiO2 
 PCOD9112960
Probable space group: P 2
;
_chemical_formula_sum "Si O2"
_cell_formula_units_Z 13
_cell_length_a 9.786084
_cell_length_b 10.709813
_cell_length_c 7.601541
_cell_angle_alpha 90.000000
_cell_angle_beta 132.418773
_cell_angle_gamma 90.000000
_cell_volume 588.148139
_symmetry_space_group_name_H-M "P 2"
_symmetry_group_IT_number 3
_symmetry_cell_setting 'monoclinic'
loop_
_space_group_symop_operation_xyz
x,y,z
-x,y,-z
loop_
_atom_site_type_symbol
_atom_site_label
_atom_site_fract_x
_atom_site_fract_y
_atom_site_fract_z
Si Si1 0.196537 0.705580 0.203584
Si Si2 0.811763 0.134327 0.534202
Si Si3 0.697471 0.896903 0.978041
Si Si4 0.221370 0.321152 0.205550
Si Si5 0.500000 0.524043 0.500000
Si Si6 0.248109 0.183363 0.897009
Si Si7 0.261627 0.849920 0.599508
O O1 0.367763 0.622458 0.283843
O O2 0.210439 0.740722 0.420975
O O3 0.204703 0.834492 0.102240
O O4 0.000000 0.643191 0.000000
O O5 0.744289 0.194646 0.655108
O O6 0.702924 0.184861 0.267378
O O7 0.024082 0.177731 0.704980
O O8 0.809255 0.985018 0.526913
O O9 0.787492 0.844083 0.236627
O O10 0.697561 0.046357 0.986332
O O11 0.483528 0.859459 0.786908
O O12 0.335730 0.427744 0.406641
O O13 0.296818 0.293641 0.074089
O O14 0.000000 0.344147 0.000000
#
# Coordination Sequence:
#
# PCOD9112960 Si02
#       7
#     2   2   2   2   1   2   2
#     4  12  24  42  64  85 119 162 202 250 301 349
#     4   9  18  34  59  92 122 149 186 233 296 367
#     4  10  20  36  62  96 127 154 190 240 303 369
#     4  10  22  40  60  83 117 158 196 244 297 343
#     4  12  26  44  60  82 112 158 218 258 282 338
#     4   9  18  34  59  92 122 149 186 233 296 367
#     4  10  20  36  62  96 127 154 190 240 303 369
#
# _framework density 22.103275
#
# number of rings (size 3 to 8) (size 9 to 14) (size 15 to 20)
#    0.000    1.846    1.538    2.308    2.154    3.077 
#    0.000    3.077    0.000    3.692    0.000    0.000 
#    0.000    0.000    0.000    0.000    0.000    0.000 
#
# Total GULP energy -72483.409571 kJ/mol
# GULP energy per Si atom -5575.646890 kJ/mol
# Density = 2.205297 g / cm^3
# Si number density = 22.103275 Si / 1000 Ang^3
#
#
#
# Elastic Constant Matrix: (Units=GPa)
#
#
# Indices 1 2 3 4 5 6 
#
# 1 56.2123 9.4077 27.9658 0.0000 -4.6986 0.0000
# 2 9.4077 50.4229 33.9593 0.0000 -4.9812 0.0000
# 3 27.9658 33.9593 104.2068 0.0000 8.7551 0.0000
# 4 0.0000 0.0000 0.0000 20.0751 0.0000 18.3570
# 5 -4.6986 -4.9812 8.7551 0.0000 31.2853 0.0000
# 6 0.0000 0.0000 0.0000 18.3570 0.0000 8.3288
#
#
#
# Elastic Compliance Matrix: (Units=1/GPa)
#
#
# Indices 1 2 3 4 5 6 
#
# 1 0.021268 0.000862 -0.006419 0.000000 0.005128 0.000000
# 2 0.000862 0.026811 -0.009563 0.000000 0.007074 0.000000
# 3 -0.006419 -0.009563 0.014997 0.000000 -0.006683 0.000000
# 4 0.000000 0.000000 0.000000 -0.049057 0.000000 0.108123
# 5 0.005128 0.007074 -0.006683 0.000000 0.035731 0.000000
# 6 0.000000 0.000000 0.000000 0.108123 0.000000 -0.118243
#
#
# Mechanical properties :
#
#
# Convention : Reuss Voigt Hill
#
# Bulk Modulus (GPa) = 30.45543 39.27862 34.86703
# Shear Modulus (GPa) = -183.09755 21.23843 -80.92956
#
# Velocity S-wave (km/s) = -9.11137 3.10316 -6.05754
# Velocity P-wave (km/s) = 9.84281 5.53611 5.75467
#
# Compressibility (1/GPa) = 0.03283487
#
# Stress axis : x y z
#
# Youngs Moduli (GPa) = 47.01976 37.29834 66.68027
#
# Poissons Ratio (x) = -0.03214 0.42804
# Poissons Ratio (y) = -0.04052 0.63766
# Poissons Ratio (z) = 0.30183 0.35668
#
# Static dielectric constant tensor:
#      x y z
#    x 1.839030 0.000000 0.020580 
#    y 0.000000 1.804870 0.000000 
#    z 0.020580 0.000000 1.875600 
# 
# From -- ./inp_files/7555.got.cif
#   From: 2010.05.17/outbox.cif.g08.bks.cpg/sg3_4_cif.got.tgz:7555.got - 2010.06.03 18:33:08.
