data_PCOD9112713
_publ_section_title
;
Structure prediction by ZEFSAII (Michael W. Deem and Ramdas Pophale) SiO2 
 PCOD9112713
Probable space group: P 2
;
_chemical_formula_sum "Si O2"
_cell_formula_units_Z 10
_cell_length_a 7.727768
_cell_length_b 12.235007
_cell_length_c 7.754255
_cell_angle_alpha 90.000000
_cell_angle_beta 38.202257
_cell_angle_gamma 90.000000
_cell_volume 453.414592
_symmetry_space_group_name_H-M "P 2"
_symmetry_group_IT_number 3
_symmetry_cell_setting 'monoclinic'
loop_
_space_group_symop_operation_xyz
x,y,z
-x,y,-z
loop_
_atom_site_type_symbol
_atom_site_label
_atom_site_fract_x
_atom_site_fract_y
_atom_site_fract_z
Si Si1 0.313483 0.400160 0.817574
Si Si2 0.320162 0.161893 0.813580
Si Si3 0.391732 0.638197 0.890430
Si Si4 0.680903 0.973324 0.698855
Si Si5 0.883441 0.765518 0.392829
O O1 0.500000 0.409936 0.500000
O O2 0.358241 0.281739 0.870314
O O3 0.333177 0.511170 0.908228
O O4 0.000000 0.392636 0.000000
O O5 0.500000 0.168282 0.500000
O O6 0.470480 0.068363 0.805864
O O7 0.000000 0.141677 0.000000
O O8 0.640006 0.677024 0.573859
O O9 0.500000 0.648671 0.000000
O O10 0.133091 0.722102 0.079740
O O11 0.000000 0.010071 0.500000
O O12 0.744779 0.885329 0.497320
O O13 0.500000 0.920994 0.000000
O O14 0.000000 0.765568 0.500000
#
# Coordination Sequence:
#
# PCOD9112713 Si02
#       5
#     2   2   2   2   2
#     4  10  21  38  57  80 115 154 189 234 293 345
#     4  10  22  40  59  83 121 160 191 237 301 351
#     4  10  19  34  57  81 108 145 189 232 280 342
#     4  11  21  37  62  89 117 152 199 243 284 348
#     4   9  18  33  54  81 112 145 180 232 293 334
#
# _framework density 22.054870000000001
#
# number of rings (size 3 to 8) (size 9 to 14) (size 15 to 20)
#    0.000    2.000    0.000    5.400    0.000    0.800 
#    0.000    7.000    0.000    0.000    0.000    0.000 
#    0.000    0.000    0.000    0.000    0.000    0.000 
#
# Total GULP energy -55761.059089 kJ/mol
# GULP energy per Si atom -5576.105909 kJ/mol
# Density = 2.200467 g / cm^3
# Si number density = 22.054870 Si / 1000 Ang^3
#
#
#
# Elastic Constant Matrix: (Units=GPa)
#
#
# Indices 1 2 3 4 5 6 
#
# 1 55.3199 44.2793 16.3970 0.0000 -13.8474 0.0000
# 2 44.2793 176.3240 18.3860 0.0000 -29.0448 0.0000
# 3 16.3970 18.3860 118.4875 0.0000 -41.4914 0.0000
# 4 0.0000 0.0000 0.0000 32.6943 0.0000 -7.0259
# 5 -13.8474 -29.0448 -41.4914 0.0000 24.8182 0.0000
# 6 0.0000 0.0000 0.0000 -7.0259 0.0000 83.1123
#
#
#
# Elastic Compliance Matrix: (Units=1/GPa)
#
#
# Indices 1 2 3 4 5 6 
#
# 1 0.023786 -0.004597 0.000447 0.000000 0.008638 0.000000
# 2 -0.004597 0.008966 0.004875 0.000000 0.016078 0.000000
# 3 0.000447 0.004875 0.023413 0.000000 0.045097 0.000000
# 4 0.000000 0.000000 0.000000 0.031152 0.000000 0.002633
# 5 0.008638 0.016078 0.045097 0.000000 0.139323 0.000000
# 6 0.000000 0.000000 0.000000 0.002633 0.000000 0.012255
#
#
# Mechanical properties :
#
#
# Convention : Reuss Voigt Hill
#
# Bulk Modulus (GPa) = 17.35663 56.47290 36.91476
# Shear Modulus (GPa) = 19.48173 46.19625 32.83899
#
# Velocity S-wave (km/s) = 2.97531 4.58165 3.86290
# Velocity P-wave (km/s) = 4.43736 7.32461 6.05558
#
# Compressibility (1/GPa) = 0.05761488
#
# Stress axis : x y z
#
# Youngs Moduli (GPa) = 42.04143 111.53396 42.71068
#
# Poissons Ratio (x) = 0.51271 -0.01908
# Poissons Ratio (y) = 0.19326 -0.20822
# Poissons Ratio (z) = -0.01878 -0.54373
#
# Static dielectric constant tensor:
#      x y z
#    x 1.794900 0.000000 -0.004140 
#    y 0.000000 1.927310 0.000000 
#    z -0.004140 0.000000 1.789820 
# 
# From -- ./inp_files/4167.got.cif
#   From: 2010.05.17/outbox.cif.g08.bks.cpg/sg3_3_cif.got.tgz:4167.got - 2010.06.03 18:33:08.
