data_PCOD9112692
_publ_section_title
;
Structure prediction by ZEFSAII (Michael W. Deem and Ramdas Pophale) SiO2 
 PCOD9112692
Probable space group: P 2
;
_chemical_formula_sum "Si O2"
_cell_formula_units_Z 15
_cell_length_a 13.124337
_cell_length_b 10.815545
_cell_length_c 5.366126
_cell_angle_alpha 90.000000
_cell_angle_beta 74.141814
_cell_angle_gamma 90.000000
_cell_volume 732.714992
_symmetry_space_group_name_H-M "P 2"
_symmetry_group_IT_number 3
_symmetry_cell_setting 'monoclinic'
loop_
_space_group_symop_operation_xyz
x,y,z
-x,y,-z
loop_
_atom_site_type_symbol
_atom_site_label
_atom_site_fract_x
_atom_site_fract_y
_atom_site_fract_z
Si Si1 0.371916 0.735700 0.059241
Si Si2 0.937081 0.498677 0.291575
Si Si3 0.020285 0.224728 0.235172
Si Si4 0.500000 0.146993 0.500000
Si Si5 0.302645 0.602142 0.598019
Si Si6 0.616871 0.018177 0.045968
Si Si7 0.263608 0.263448 0.019492
Si Si8 0.364489 0.347965 0.429205
O O1 0.322234 0.694419 0.355035
O O2 0.500000 0.722687 0.000000
O O3 0.327404 0.659871 0.851518
O O4 0.347649 0.879921 0.022897
O O5 0.816747 0.546184 0.347941
O O6 0.000000 0.539272 0.500000
O O7 0.946378 0.347739 0.291993
O O8 0.000000 0.536429 0.000000
O O9 0.139135 0.270991 0.133310
O O10 0.000000 0.153253 0.500000
O O11 0.000000 0.150010 0.000000
O O12 0.590844 0.055334 0.348601
O O13 0.459133 0.249390 0.330924
O O14 0.382297 0.487508 0.498543
O O15 0.500000 0.029195 0.000000
O O16 0.697268 0.126970 0.921841
O O17 0.309938 0.354193 0.197036
O O18 0.300773 0.292785 0.712835
#
# Coordination Sequence:
#
# PCOD9112692 Si02
#       8
#     2   2   2   1   2   2   2   2
#     4  11  27  42  65  86 130 181 226 256 301 370
#     4  10  19  35  62  89 122 161 201 251 317 391
#     4  10  19  33  57  87 119 154 194 244 316 379
#     4  10  22  36  62  88 124 162 206 252 316 364
#     4  12  24  42  62  97 131 171 212 264 318 385
#     4  10  22  42  64  89 124 170 221 252 301 368
#     4  11  21  38  64  95 122 161 203 262 312 380
#     4  11  22  35  59  90 131 152 199 250 321 373
#
# _framework density 20.471806999999998
#
# number of rings (size 3 to 8) (size 9 to 14) (size 15 to 20)
#    0.000    1.333    1.333    6.000    5.600    0.000 
#    0.000    0.000    0.000    4.800    0.000    0.000 
#    0.000    0.000    0.000    0.000    0.000    0.000 
#
# Total GULP energy -83610.301486 kJ/mol
# GULP energy per Si atom -5574.020099 kJ/mol
# Density = 2.042521 g / cm^3
# Si number density = 20.471807 Si / 1000 Ang^3
#
#
#
# Elastic Constant Matrix: (Units=GPa)
#
#
# Indices 1 2 3 4 5 6 
#
# 1 89.4700 18.9425 25.2045 0.0000 9.2878 0.0000
# 2 18.9425 104.3999 18.9219 0.0000 -0.5700 0.0000
# 3 25.2045 18.9219 124.6862 0.0000 13.4022 0.0000
# 4 0.0000 0.0000 0.0000 24.3142 0.0000 13.8699
# 5 9.2878 -0.5700 13.4022 0.0000 34.5492 0.0000
# 6 0.0000 0.0000 0.0000 13.8699 0.0000 -47.7002
#
#
#
# Elastic Compliance Matrix: (Units=1/GPa)
#
#
# Indices 1 2 3 4 5 6 
#
# 1 0.012398 -0.001913 -0.001935 0.000000 -0.002614 0.000000
# 2 -0.001913 0.010165 -0.001283 0.000000 0.001180 0.000000
# 3 -0.001935 -0.001283 0.008924 0.000000 -0.002963 0.000000
# 4 0.000000 0.000000 0.000000 0.035277 0.000000 0.010258
# 5 -0.002614 0.001180 -0.002963 0.000000 0.030816 0.000000
# 6 0.000000 0.000000 0.000000 0.010258 0.000000 -0.017982
#
#
# Mechanical properties :
#
#
# Convention : Reuss Voigt Hill
#
# Bulk Modulus (GPa) = 47.11206 49.41043 48.26124
# Shear Modulus (GPa) = 51.58085 19.26511 35.42298
#
# Velocity S-wave (km/s) = 5.02501 3.07099 4.16424
# Velocity P-wave (km/s) = 7.53198 6.06324 6.83716
#
# Compressibility (1/GPa) = 0.02122599
#
# Stress axis : x y z
#
# Youngs Moduli (GPa) = 80.65535 98.38082 112.05247
#
# Poissons Ratio (x) = 0.18822 0.21682
# Poissons Ratio (y) = 0.15431 0.14372
# Poissons Ratio (z) = 0.15606 0.12618
#
# Static dielectric constant tensor:
#      x y z
#    x 1.832920 0.000000 0.072060 
#    y 0.000000 1.695780 0.000000 
#    z 0.072060 0.000000 1.890920 
# 
# From -- ./inp_files/3176.got.cif
#   From: 2010.05.17/outbox.cif.g08.bks.cpg/sg3_2_cif.got.tgz:3176.got - 2010.06.03 18:33:08.
