data_PCOD9112341
_publ_section_title
;
Structure prediction by ZEFSAII (Michael W. Deem and Ramdas Pophale) SiO2 
 PCOD9112341
Probable space group: P -1
;
_chemical_formula_sum "Si O2"
_cell_formula_units_Z 10
_cell_length_a 11.012598
_cell_length_b 9.085065
_cell_length_c 5.846468
_cell_angle_alpha 83.756123
_cell_angle_beta 78.406539
_cell_angle_gamma 53.020978
_cell_volume 457.694438
_symmetry_space_group_name_H-M "P -1"
_symmetry_group_IT_number 2
_symmetry_cell_setting 'triclinic'
loop_
_space_group_symop_operation_xyz
x,y,z
-x,-y,-z
loop_
_atom_site_type_symbol
_atom_site_label
_atom_site_fract_x
_atom_site_fract_y
_atom_site_fract_z
Si Si1 0.072955 0.790360 0.961400
Si Si2 0.137319 0.508463 0.361439
Si Si3 0.138492 0.290967 0.048701
Si Si4 0.370793 0.479829 0.642933
Si Si5 0.441346 0.099269 0.755804
O O1 0.248354 0.649886 0.827925
O O2 0.951387 0.793210 0.838143
O O3 0.072534 0.690555 0.206594
O O4 0.000000 0.000000 0.000000
O O5 0.224499 0.326749 0.200329
O O6 0.255862 0.494609 0.493598
O O7 0.000000 0.500000 0.500000
O O8 0.259889 0.183843 0.820422
O O9 0.000000 0.500000 0.000000
O O10 0.500000 0.500000 0.500000
O O11 0.451487 0.271749 0.735944
O O12 0.500000 0.000000 0.500000
O O13 0.500000 0.000000 0.000000
#
# Coordination Sequence:
#
# PCOD9112341 Si02
#       5
#     2   2   2   2   2
#     4  11  25  44  71 108 141 188 251 310 375 449
#     4  11  21  46  78  96 141 197 252 306 371 445
#     4  10  20  46  75 100 137 195 255 301 362 445
#     4  12  27  48  67 107 153 194 238 322 387 442
#     4  12  27  47  75 111 148 202 257 313 379 460
#
# _framework density 21.848638000000001
#
# number of rings (size 3 to 8) (size 9 to 14) (size 15 to 20)
#    0.000    0.800    6.000    2.400    2.800    3.200 
#    0.000    0.000    0.000    0.000    0.000    0.000 
#    0.000    0.000    0.000    0.000    0.000    0.000 
#
# Total GULP energy -55696.982548 kJ/mol
# GULP energy per Si atom -5569.698255 kJ/mol
# Density = 2.179891 g / cm^3
# Si number density = 21.848638 Si / 1000 Ang^3
#
#
#
# Elastic Constant Matrix: (Units=GPa)
#
#
# Indices 1 2 3 4 5 6 
#
# 1 137.9078 68.9807 67.4528 -5.3848 -28.5450 10.4592
# 2 68.9807 185.0294 95.6733 8.5044 -18.5544 23.7512
# 3 67.4528 95.6733 143.0326 7.2201 -24.3843 -6.7472
# 4 -5.3848 8.5044 7.2201 51.9698 -9.9853 -8.5396
# 5 -28.5450 -18.5544 -24.3843 -9.9853 54.7272 2.2394
# 6 10.4592 23.7512 -6.7472 -8.5396 2.2394 41.4925
#
#
#
# Elastic Compliance Matrix: (Units=1/GPa)
#
#
# Indices 1 2 3 4 5 6 
#
# 1 0.010914 -0.001651 -0.003570 0.002326 0.004054 -0.002127
# 2 -0.001651 0.010264 -0.006360 -0.002167 -0.000327 -0.006922
# 3 -0.003570 -0.006360 0.013537 0.000232 0.001782 0.006693
# 4 0.002326 -0.002167 0.000232 0.021431 0.004293 0.004871
# 5 0.004054 -0.000327 0.001782 0.004293 0.021888 -0.000843
# 6 -0.002127 -0.006922 0.006693 0.004871 -0.000843 0.030735
#
#
# Mechanical properties :
#
#
# Convention : Reuss Voigt Hill
#
# Bulk Modulus (GPa) = 86.54605 103.35371 94.94988
# Shear Modulus (GPa) = 36.82459 45.22878 41.02669
#
# Velocity S-wave (km/s) = 4.10987 4.55477 4.33802
# Velocity P-wave (km/s) = 7.88790 8.66420 8.28515
#
# Compressibility (1/GPa) = 0.01155454
#
# Stress axis : x y z
#
# Youngs Moduli (GPa) = 91.62554 97.43158 73.87416
#
# Poissons Ratio (x) = 0.16081 0.26370
# Poissons Ratio (y) = 0.15123 0.46982
# Poissons Ratio (z) = 0.32706 0.61964
#
# Static dielectric constant tensor:
#      x y z
#    x 1.814920 0.079030 0.049590 
#    y 0.079030 1.680700 0.086550 
#    z 0.049590 0.086550 2.019790 
# 
# From -- ./inp_files/32415.got.cif
#   From: 2010.05.17/outbox.cif.g08.bks.cpg/sg2_17_cif.got.tgz:32415.got - 2010.06.03 11:33:40.
