data_PCOD9112003
_publ_section_title
;
Structure prediction by ZEFSAII (Michael W. Deem and Ramdas Pophale) SiO2 
 PCOD9112003
Probable space group: P -1
;
_chemical_formula_sum "Si O2"
_cell_formula_units_Z 12
_cell_length_a 9.252178
_cell_length_b 10.892531
_cell_length_c 12.654384
_cell_angle_alpha 41.116748
_cell_angle_beta 36.056688
_cell_angle_gamma 41.444020
_cell_volume 459.912876
_symmetry_space_group_name_H-M "P -1"
_symmetry_group_IT_number 2
_symmetry_cell_setting 'triclinic'
loop_
_space_group_symop_operation_xyz
x,y,z
-x,-y,-z
loop_
_atom_site_type_symbol
_atom_site_label
_atom_site_fract_x
_atom_site_fract_y
_atom_site_fract_z
Si Si1 0.860172 0.239206 0.943819
Si Si2 0.780866 0.550906 0.475162
Si Si3 0.140544 0.438945 0.800184
Si Si4 0.834079 0.112333 0.760325
Si Si5 0.394956 0.821518 0.692388
Si Si6 0.294041 0.204591 0.080136
O O1 0.580635 0.254824 0.150251
O O2 0.989998 0.352221 0.711583
O O3 0.947259 0.335595 0.933568
O O4 0.000000 0.000000 0.000000
O O5 0.671138 0.597807 0.389226
O O6 0.881200 0.312879 0.575053
O O7 0.554882 0.648182 0.630188
O O8 0.945341 0.665511 0.789613
O O9 0.256198 0.337230 0.908178
O O10 0.731658 0.005501 0.796689
O O11 0.598718 0.164636 0.953969
O O12 0.099103 0.943239 0.749321
O O13 0.500000 0.000000 0.500000
#
# Coordination Sequence:
#
# PCOD9112003 Si02
#       6
#     2   2   2   2   2   2
#     4  10  20  44  66  95 132 175 222 269 334 388
#     4  10  24  42  67 101 131 171 230 268 334 398
#     4   9  20  42  67  96 132 182 212 272 338 382
#     4  11  24  41  65 106 127 177 226 272 336 390
#     4  12  23  46  70  92 138 179 220 280 334 392
#     4  10  21  43  69  95 141 175 220 277 326 404
#
# _framework density 26.091896999999999
#
# number of rings (size 3 to 8) (size 9 to 14) (size 15 to 20)
#    1.000    0.667    3.333    1.000    2.333    2.000 
#    9.000    0.833    0.000    0.000    0.000    0.000 
#    0.000    0.000    0.000    0.000    0.000    0.000 
#
# Total GULP energy -66901.189399 kJ/mol
# GULP energy per Si atom -5575.099117 kJ/mol
# Density = 2.603251 g / cm^3
# Si number density = 26.091897 Si / 1000 Ang^3
#
#
#
# Elastic Constant Matrix: (Units=GPa)
#
#
# Indices 1 2 3 4 5 6 
#
# 1 34.6828 5.2071 5.5710 11.0201 10.0048 -10.7166
# 2 5.2071 188.0813 61.9204 5.0166 13.0200 10.6860
# 3 5.5710 61.9204 119.4087 -1.1816 15.4646 8.8444
# 4 11.0201 5.0166 -1.1816 67.5953 15.7828 -4.5756
# 5 10.0048 13.0200 15.4646 15.7828 35.6187 8.8015
# 6 -10.7166 10.6860 8.8444 -4.5756 8.8015 37.1092
#
#
#
# Elastic Compliance Matrix: (Units=1/GPa)
#
#
# Indices 1 2 3 4 5 6 
#
# 1 0.037674 -0.000625 -0.000881 -0.002271 -0.012407 0.013932
# 2 -0.000625 0.006496 -0.003212 -0.000455 -0.000288 -0.001273
# 3 -0.000881 -0.003212 0.010621 0.001345 -0.003576 -0.000847
# 4 -0.002271 -0.000455 0.001345 0.017377 -0.008286 0.003262
# 5 -0.012407 -0.000288 -0.003576 -0.008286 0.040149 -0.013192
# 6 0.013932 -0.001273 -0.000847 0.003262 -0.013192 0.035070
#
#
# Mechanical properties :
#
#
# Convention : Reuss Voigt Hill
#
# Bulk Modulus (GPa) = 22.04897 54.17444 38.11171
# Shear Modulus (GPa) = 29.07951 46.02960 37.55455
#
# Velocity S-wave (km/s) = 3.34204 4.20472 3.79795
# Velocity P-wave (km/s) = 4.83334 6.66190 5.81988
#
# Compressibility (1/GPa) = 0.04535359
#
# Stress axis : x y z
#
# Youngs Moduli (GPa) = 26.54370 153.93699 94.15556
#
# Poissons Ratio (x) = 0.09622 0.08296
# Poissons Ratio (y) = 0.01659 0.30246
# Poissons Ratio (z) = 0.02339 0.49451
#
# Static dielectric constant tensor:
#      x y z
#    x 2.313120 -0.019350 0.060920 
#    y -0.019350 2.004940 0.071910 
#    z 0.060920 0.071910 2.416090 
# 
# From -- ./inp_files/517557.got.cif
#   From: 2010.05.17/outbox.cif.g08.bks.cpg/sg2_259_cif.got.tgz:517557.got - 2010.06.03 11:33:40.
