data_PCOD9112612
_publ_section_title
;
Structure prediction by ZEFSAII (Michael W. Deem and Ramdas Pophale) SiO2 
 PCOD9112612
Probable space group: P 2
;
_chemical_formula_sum "Si O2"
_cell_formula_units_Z 16
_cell_length_a 21.212215
_cell_length_b 7.667480
_cell_length_c 8.906194
_cell_angle_alpha 90.000000
_cell_angle_beta 28.851186
_cell_angle_gamma 90.000000
_cell_volume 698.973726
_symmetry_space_group_name_H-M "P 2"
_symmetry_group_IT_number 3
_symmetry_cell_setting 'monoclinic'
loop_
_space_group_symop_operation_xyz
x,y,z
-x,y,-z
loop_
_atom_site_type_symbol
_atom_site_label
_atom_site_fract_x
_atom_site_fract_y
_atom_site_fract_z
Si Si1 0.635504 0.546940 0.234399
Si Si2 0.176121 0.788753 0.729169
Si Si3 0.306381 0.218677 0.731633
Si Si4 0.934305 0.169021 0.985758
Si Si5 0.889156 0.711494 0.831231
Si Si6 0.548803 0.920497 0.742690
Si Si7 0.712947 0.722110 0.801805
Si Si8 0.147468 0.029933 0.301698
O O1 0.500000 0.648985 0.500000
O O2 0.606865 0.381450 0.397755
O O3 0.749878 0.637329 0.086006
O O4 0.693858 0.552994 0.944719
O O5 0.195909 0.694750 0.531767
O O6 0.322691 0.808996 0.487641
O O7 0.087527 0.702711 0.041551
O O8 0.124109 0.986388 0.826878
O O9 0.399979 0.064154 0.480254
O O10 0.191084 0.248886 0.846102
O O11 0.235480 0.172835 0.036810
O O12 0.044158 0.122241 0.629654
O O13 0.000000 0.252842 0.000000
O O14 0.884736 0.911525 0.781794
O O15 0.000000 0.622864 0.500000
O O16 0.500000 0.008856 0.000000
O O17 0.428404 0.798943 0.948036
O O18 0.779534 0.881398 0.754470
#
# Coordination Sequence:
#
# PCOD9112612 Si02
#       8
#     2   2   2   2   2   2   2   2
#     4  11  27  44  60  95 138 180 222 270 334 409
#     4  10  18  36  63  97 130 167 216 279 329 379
#     4  11  24  41  63  92 135 180 214 272 338 400
#     4  11  20  37  65 100 131 163 223 284 329 387
#     4  11  20  38  67  97 129 177 221 273 327 392
#     4   9  19  36  64  97 126 169 228 277 324 384
#     4  10  22  37  64  97 128 169 222 277 326 392
#     4  11  20  34  66  98 126 165 218 273 326 389
#
# _framework density 22.890703999999999
#
# number of rings (size 3 to 8) (size 9 to 14) (size 15 to 20)
#    0.000    1.500    5.000    1.125    3.500    1.000 
#    0.000    2.500    0.000    0.750    0.000    0.000 
#    0.000    0.000    0.000    0.000    0.000    0.000 
#
# Total GULP energy -89128.973884 kJ/mol
# GULP energy per Si atom -5570.560868 kJ/mol
# Density = 2.283860 g / cm^3
# Si number density = 22.890704 Si / 1000 Ang^3
#
#
#
# Elastic Constant Matrix: (Units=GPa)
#
#
# Indices 1 2 3 4 5 6 
#
# 1 115.0825 22.9006 54.3840 0.0000 17.3313 0.0000
# 2 22.9006 14.9955 5.9348 0.0000 3.8859 0.0000
# 3 54.3840 5.9348 108.7806 0.0000 16.6308 0.0000
# 4 0.0000 0.0000 0.0000 15.5267 0.0000 8.9791
# 5 17.3313 3.8859 16.6308 0.0000 44.0381 0.0000
# 6 0.0000 0.0000 0.0000 8.9791 0.0000 37.6686
#
#
#
# Elastic Compliance Matrix: (Units=1/GPa)
#
#
# Indices 1 2 3 4 5 6 
#
# 1 0.016609 -0.022156 -0.006786 0.000000 -0.002019 0.000000
# 2 -0.022156 0.098722 0.006038 0.000000 -0.002272 0.000000
# 3 -0.006786 0.006038 0.012660 0.000000 -0.002643 0.000000
# 4 0.000000 0.000000 0.000000 0.074703 0.000000 -0.017807
# 5 -0.002019 -0.002272 -0.002643 0.000000 0.024701 0.000000
# 6 0.000000 0.000000 0.000000 -0.017807 0.000000 0.030792
#
#
# Mechanical properties :
#
#
# Convention : Reuss Voigt Hill
#
# Bulk Modulus (GPa) = 12.16801 45.03305 28.60053
# Shear Modulus (GPa) = 15.08797 29.82263 22.45530
#
# Velocity S-wave (km/s) = 2.57014 3.61339 3.13546
# Velocity P-wave (km/s) = 3.75962 6.09299 5.06257
#
# Compressibility (1/GPa) = 0.08218269
#
# Stress axis : x y z
#
# Youngs Moduli (GPa) = 60.20715 10.12947 78.98753
#
# Poissons Ratio (x) = 0.22443 0.53603
# Poissons Ratio (y) = 1.33396 -0.47694
# Poissons Ratio (z) = 0.40858 -0.06116
#
# Static dielectric constant tensor:
#      x y z
#    x 1.787420 0.000000 0.028050 
#    y 0.000000 1.870490 0.000000 
#    z 0.028050 0.000000 1.932320 
# 
# From -- ./inp_files/9417.got.cif
#   From: 2010.05.17/outbox.cif.g08.bks.cpg/sg3_5_cif.got.tgz:9417.got - 2010.06.03 18:33:08.
