data_PCOD9112100
_publ_section_title
;
Structure prediction by ZEFSAII (Michael W. Deem and Ramdas Pophale) SiO2 
 PCOD9112100
Probable space group: P -1
;
_chemical_formula_sum "Si O2"
_cell_formula_units_Z 14
_cell_length_a 5.116065
_cell_length_b 23.358498
_cell_length_c 11.010359
_cell_angle_alpha 147.715816
_cell_angle_beta 108.043496
_cell_angle_gamma 89.239670
_cell_volume 582.695480
_symmetry_space_group_name_H-M "P -1"
_symmetry_group_IT_number 2
_symmetry_cell_setting 'triclinic'
loop_
_space_group_symop_operation_xyz
x,y,z
-x,-y,-z
loop_
_atom_site_type_symbol
_atom_site_label
_atom_site_fract_x
_atom_site_fract_y
_atom_site_fract_z
Si Si1 0.849207 0.314265 0.830293
Si Si2 0.590835 0.258456 0.291007
Si Si3 0.453296 0.111547 0.236101
Si Si4 0.226629 0.463941 0.797201
Si Si5 0.458365 0.499477 0.348643
Si Si6 0.726552 0.982297 0.334892
Si Si7 0.714939 0.901273 0.550747
O O1 0.771084 0.219769 0.540655
O O2 0.540116 0.242646 0.741333
O O3 0.893135 0.441402 0.013325
O O4 0.159448 0.364208 0.042245
O O5 0.393312 0.181194 0.241256
O O6 0.558081 0.375097 0.455029
O O7 0.954902 0.323106 0.501880
O O8 0.487081 0.158801 0.990316
O O9 0.228573 0.068405 0.243942
O O10 0.500000 0.000000 0.000000
O O11 0.319927 0.491745 0.717470
O O12 0.500000 0.500000 0.000000
O O13 0.500000 0.500000 0.500000
O O14 0.485989 0.035185 0.417002
O O15 0.000000 0.000000 0.500000
O O16 0.959957 0.057581 0.393661
#
# Coordination Sequence:
#
# PCOD9112100 Si02
#       7
#     2   2   2   2   2   2   2
#     4   9  23  42  69 102 140 187 249 305 378 443
#     4  11  25  43  69 106 141 189 249 304 372 456
#     4  10  20  44  70 102 145 183 247 304 383 439
#     4  11  24  44  73 103 145 192 249 322 376 442
#     4  11  26  43  69 101 144 197 243 307 379 450
#     4  12  27  47  72 108 151 200 249 308 376 453
#     4  10  26  45  74 105 145 197 243 309 379 442
#
# _framework density 24.026274999999998
#
# number of rings (size 3 to 8) (size 9 to 14) (size 15 to 20)
#    0.857    0.571    1.429    2.143    6.000    6.286 
#    0.000    0.000    0.000    0.000    0.000    0.000 
#    0.000    0.000    0.000    0.000    0.000    0.000 
#
# Total GULP energy -78036.889415 kJ/mol
# GULP energy per Si atom -5574.063530 kJ/mol
# Density = 2.397159 g / cm^3
# Si number density = 24.026275 Si / 1000 Ang^3
#
#
#
# Elastic Constant Matrix: (Units=GPa)
#
#
# Indices 1 2 3 4 5 6 
#
# 1 52.4310 12.1934 12.0900 1.4106 -0.6994 5.5182
# 2 12.1934 135.4629 32.6304 -18.1276 -9.1371 -0.2277
# 3 12.0900 32.6304 162.0221 0.1247 7.4085 -8.1462
# 4 1.4106 -18.1276 0.1247 44.3676 0.9503 2.7222
# 5 -0.6994 -9.1371 7.4085 0.9503 31.8997 8.3002
# 6 5.5182 -0.2277 -8.1462 2.7222 8.3002 42.0022
#
#
#
# Elastic Compliance Matrix: (Units=1/GPa)
#
#
# Indices 1 2 3 4 5 6 
#
# 1 0.020124 -0.001550 -0.001396 -0.001105 0.001156 -0.003080
# 2 -0.001550 0.008636 -0.001810 0.003576 0.002994 -0.000924
# 3 -0.001396 -0.001810 0.006868 -0.000785 -0.002662 0.002083
# 4 -0.001105 0.003576 -0.000785 0.024124 0.000914 -0.001732
# 5 0.001156 0.002994 -0.002662 0.000914 0.034796 -0.007588
# 6 -0.003080 -0.000924 0.002083 -0.001732 -0.007588 0.026223
#
#
# Mechanical properties :
#
#
# Convention : Reuss Voigt Hill
#
# Bulk Modulus (GPa) = 38.29063 51.52706 44.90884
# Shear Modulus (GPa) = 35.97368 43.18737 39.58053
#
# Velocity S-wave (km/s) = 3.87365 4.24430 4.06320
# Velocity P-wave (km/s) = 5.99820 6.74622 6.38318
#
# Compressibility (1/GPa) = 0.02611605
#
# Stress axis : x y z
#
# Youngs Moduli (GPa) = 49.69072 115.78832 145.60858
#
# Poissons Ratio (x) = 0.17950 0.20332
# Poissons Ratio (y) = 0.07703 0.26352
# Poissons Ratio (z) = 0.06938 0.20955
#
# Static dielectric constant tensor:
#      x y z
#    x 2.068780 0.045650 0.057210 
#    y 0.045650 2.186050 -0.149330 
#    z 0.057210 -0.149330 2.048990 
# 
# From -- ./inp_files/371365.got.cif
#   From: 2010.05.17/outbox.cif.g08.bks.cpg/sg2_186_cif.got.tgz:371365.got - 2010.06.03 11:33:40.
