data_PCOD9112061
_publ_section_title
;
Structure prediction by ZEFSAII (Michael W. Deem and Ramdas Pophale) SiO2 
 PCOD9112061
Probable space group: P -1
;
_chemical_formula_sum "Si O2"
_cell_formula_units_Z 16
_cell_length_a 5.535446
_cell_length_b 21.826349
_cell_length_c 13.211162
_cell_angle_alpha 156.978131
_cell_angle_beta 82.462060
_cell_angle_gamma 96.486262
_cell_volume 618.708999
_symmetry_space_group_name_H-M "P -1"
_symmetry_group_IT_number 2
_symmetry_cell_setting 'triclinic'
loop_
_space_group_symop_operation_xyz
x,y,z
-x,-y,-z
loop_
_atom_site_type_symbol
_atom_site_label
_atom_site_fract_x
_atom_site_fract_y
_atom_site_fract_z
Si Si1 0.100013 0.825377 0.247569
Si Si2 0.035246 0.454243 0.078905
Si Si3 0.375976 0.883107 0.130393
Si Si4 0.911660 0.988491 0.839657
Si Si5 0.853560 0.313816 0.416884
Si Si6 0.612219 0.628265 0.612646
Si Si7 0.311499 0.339626 0.692057
Si Si8 0.335125 0.826066 0.454842
O O1 0.292015 0.799309 0.108366
O O2 0.205944 0.811253 0.332467
O O3 0.925283 0.678619 0.039052
O O4 0.000000 0.000000 0.500000
O O5 0.164181 0.603190 0.347528
O O6 0.764124 0.529623 0.186886
O O7 0.124262 0.378641 0.853890
O O8 0.166116 0.905317 0.092726
O O9 0.448277 0.059815 0.414885
O O10 0.593238 0.787288 0.921124
O O11 0.168046 0.913611 0.679681
O O12 0.891100 0.124072 0.131416
O O13 0.738787 0.834693 0.617882
O O14 0.107004 0.380899 0.455289
O O15 0.599506 0.350825 0.429137
O O16 0.500000 0.500000 0.500000
O O17 0.552706 0.322709 0.720674
#
# Coordination Sequence:
#
# PCOD9112061 Si02
#       8
#     2   2   2   2   2   2   2   2
#     4  12  22  38  65 101 135 177 226 284 342 424
#     4  11  25  46  65 102 138 173 235 293 351 414
#     4  10  21  36  63  96 134 173 228 278 345 411
#     4  10  20  44  68  96 132 179 229 279 344 418
#     4  11  25  44  70 101 143 181 239 291 350 418
#     4  11  23  41  63  97 143 193 223 283 351 422
#     4  10  24  46  69  94 134 182 229 292 353 406
#     4  11  20  40  69  95 128 180 230 281 342 421
#
# _framework density 25.860298
#
# number of rings (size 3 to 8) (size 9 to 14) (size 15 to 20)
#    0.000    1.250    3.750    2.250    0.000    5.000 
#    2.250    0.625    0.000    0.000    0.000    0.000 
#    0.000    0.000    0.000    0.000    0.000    0.000 
#
# Total GULP energy -89336.335480 kJ/mol
# GULP energy per Si atom -5583.520967 kJ/mol
# Density = 2.580144 g / cm^3
# Si number density = 25.860298 Si / 1000 Ang^3
#
#
#
# Elastic Constant Matrix: (Units=GPa)
#
#
# Indices 1 2 3 4 5 6 
#
# 1 71.9697 20.3767 7.9466 7.2577 -7.9588 -4.2959
# 2 20.3767 97.8805 38.9229 24.4665 -7.0732 9.0361
# 3 7.9466 38.9229 132.8990 6.8705 2.2972 -16.0224
# 4 7.2577 24.4665 6.8705 41.9178 -1.1583 -7.4894
# 5 -7.9588 -7.0732 2.2972 -1.1583 40.6070 2.8166
# 6 -4.2959 9.0361 -16.0224 -7.4894 2.8166 31.9008
#
#
#
# Elastic Compliance Matrix: (Units=1/GPa)
#
#
# Indices 1 2 3 4 5 6 
#
# 1 0.015252 -0.003447 0.000431 -0.000098 0.002151 0.003034
# 2 -0.003447 0.016897 -0.005559 -0.010183 0.003034 -0.010701
# 3 0.000431 -0.005559 0.009910 0.002823 -0.001880 0.007439
# 4 -0.000098 -0.010183 0.002823 0.031416 -0.001877 0.011830
# 5 0.002151 0.003034 -0.001880 -0.001877 0.025924 -0.004243
# 6 0.003034 -0.010701 0.007439 0.011830 -0.004243 0.041675
#
#
# Mechanical properties :
#
#
# Convention : Reuss Voigt Hill
#
# Bulk Modulus (GPa) = 40.14384 48.58240 44.36312
# Shear Modulus (GPa) = 30.02557 38.58533 34.30545
#
# Velocity S-wave (km/s) = 3.41114 3.86692 3.64616
# Velocity P-wave (km/s) = 5.57419 6.22613 5.90916
#
# Compressibility (1/GPa) = 0.02491043
#
# Stress axis : x y z
#
# Youngs Moduli (GPa) = 65.56584 59.18263 100.90690
#
# Poissons Ratio (x) = 0.20398 -0.04350
# Poissons Ratio (y) = 0.22598 0.56091
# Poissons Ratio (z) = -0.02826 0.32898
#
# Static dielectric constant tensor:
#      x y z
#    x 2.139490 0.002500 0.115710 
#    y 0.002500 2.019040 0.000430 
#    z 0.115710 0.000430 2.191790 
# 
# From -- ./inp_files/371489.got.cif
#   From: 2010.05.17/outbox.cif.g08.bks.cpg/sg2_186_cif.got.tgz:371489.got - 2010.06.03 11:33:40.
