data_PCOD9112810
_publ_section_title
;
Structure prediction by ZEFSAII (Michael W. Deem and Ramdas Pophale) SiO2 
 PCOD9112810
Probable space group: P 2
;
_chemical_formula_sum "Si O2"
_cell_formula_units_Z 14
_cell_length_a 8.730968
_cell_length_b 8.016360
_cell_length_c 13.093853
_cell_angle_alpha 90.000000
_cell_angle_beta 46.647540
_cell_angle_gamma 90.000000
_cell_volume 666.388976
_symmetry_space_group_name_H-M "P 2"
_symmetry_group_IT_number 3
_symmetry_cell_setting 'monoclinic'
loop_
_space_group_symop_operation_xyz
x,y,z
-x,y,-z
loop_
_atom_site_type_symbol
_atom_site_label
_atom_site_fract_x
_atom_site_fract_y
_atom_site_fract_z
Si Si1 0.821740 0.008120 0.500959
Si Si2 0.626677 0.982017 0.185104
Si Si3 0.716967 0.106007 0.345534
Si Si4 0.338062 0.292919 0.980857
Si Si5 0.119254 0.438400 0.766688
Si Si6 0.302418 0.650709 0.513479
Si Si7 0.389635 0.596390 0.806427
O O1 0.600916 0.030327 0.661890
O O2 0.862792 0.109774 0.378273
O O3 0.000000 0.038720 0.500000
O O4 0.814131 0.819169 0.463257
O O5 0.769037 0.994650 0.223581
O O6 0.621820 0.789621 0.151842
O O7 0.678543 0.123555 0.078995
O O8 0.500000 0.053810 0.500000
O O9 0.705144 0.292789 0.310102
O O10 0.103401 0.349302 0.120230
O O11 0.500000 0.268122 0.000000
O O12 0.410177 0.452516 0.880518
O O13 0.149377 0.532286 0.646522
O O14 0.183944 0.557593 0.830568
O O15 0.500000 0.682662 0.500000
O O16 0.411601 0.584905 0.361278
#
# Coordination Sequence:
#
# PCOD9112810 Si02
#       7
#     2   2   2   2   2   2   2
#     4  10  21  36  63 103 132 166 219 273 341 400
#     4  10  23  44  68  91 135 179 220 277 328 396
#     4  10  19  37  66  96 123 162 215 275 324 382
#     4  12  28  45  60  96 144 178 220 270 336 405
#     4  11  22  40  66 100 124 169 226 275 326 388
#     4   9  19  39  69  98 127 164 221 281 329 391
#     4  10  21  45  70  94 127 173 226 278 331 387
#
# _framework density 21.008751
#
# number of rings (size 3 to 8) (size 9 to 14) (size 15 to 20)
#    0.000    1.714    1.429    4.714    4.000    2.857 
#    7.714    0.714    0.000    0.000    0.000    0.000 
#    0.000    0.000    0.000    0.000    0.000    0.000 
#
# Total GULP energy -78095.809214 kJ/mol
# GULP energy per Si atom -5578.272087 kJ/mol
# Density = 2.096093 g / cm^3
# Si number density = 21.008751 Si / 1000 Ang^3
#
#
#
# Elastic Constant Matrix: (Units=GPa)
#
#
# Indices 1 2 3 4 5 6 
#
# 1 92.0446 29.4914 31.3217 0.0000 21.9302 0.0000
# 2 29.4914 129.3878 70.5733 0.0000 15.1265 0.0000
# 3 31.3217 70.5733 102.8271 0.0000 11.3645 0.0000
# 4 0.0000 0.0000 0.0000 25.0617 0.0000 9.3258
# 5 21.9302 15.1265 11.3645 0.0000 25.8379 0.0000
# 6 0.0000 0.0000 0.0000 9.3258 0.0000 18.8286
#
#
#
# Elastic Compliance Matrix: (Units=1/GPa)
#
#
# Indices 1 2 3 4 5 6 
#
# 1 0.014588 -0.000461 -0.002931 0.000000 -0.010823 0.000000
# 2 -0.000461 0.012710 -0.008203 0.000000 -0.003442 0.000000
# 3 -0.002931 -0.008203 0.016231 0.000000 0.000151 0.000000
# 4 0.000000 0.000000 0.000000 0.048917 0.000000 -0.024229
# 5 -0.010823 -0.003442 0.000151 0.000000 0.049837 0.000000
# 6 0.000000 0.000000 0.000000 -0.024229 0.000000 0.065111
#
#
# Mechanical properties :
#
#
# Convention : Reuss Voigt Hill
#
# Bulk Modulus (GPa) = 49.16486 65.22581 57.19534
# Shear Modulus (GPa) = 21.06471 26.80385 23.93428
#
# Velocity S-wave (km/s) = 3.16992 3.57577 3.37894
# Velocity P-wave (km/s) = 6.07048 6.93992 6.51971
#
# Compressibility (1/GPa) = 0.02033973
#
# Stress axis : x y z
#
# Youngs Moduli (GPa) = 68.54961 78.67706 61.61115
#
# Poissons Ratio (x) = 0.03628 0.18058
# Poissons Ratio (y) = 0.03161 0.50537
# Poissons Ratio (z) = 0.20092 0.64535
#
# Static dielectric constant tensor:
#      x y z
#    x 1.835970 0.000000 -0.001200 
#    y 0.000000 1.762110 0.000000 
#    z -0.001200 0.000000 1.813670 
# 
# From -- ./inp_files/10687.got.cif
#   From: 2010.05.17/outbox.cif.g08.bks.cpg/sg3_6_cif.got.tgz:10687.got - 2010.06.03 18:33:08.
