data_PCOD9112774
_publ_section_title
;
Structure prediction by ZEFSAII (Michael W. Deem and Ramdas Pophale) SiO2 
 PCOD9112774
Probable space group: P 2
;
_chemical_formula_sum "Si O2"
_cell_formula_units_Z 16
_cell_length_a 12.144217
_cell_length_b 9.340947
_cell_length_c 9.706475
_cell_angle_alpha 90.000000
_cell_angle_beta 55.120934
_cell_angle_gamma 90.000000
_cell_volume 903.289374
_symmetry_space_group_name_H-M "P 2"
_symmetry_group_IT_number 3
_symmetry_cell_setting 'monoclinic'
loop_
_space_group_symop_operation_xyz
x,y,z
-x,y,-z
loop_
_atom_site_type_symbol
_atom_site_label
_atom_site_fract_x
_atom_site_fract_y
_atom_site_fract_z
Si Si1 0.654151 0.481640 0.047355
Si Si2 0.108105 0.298257 0.545161
Si Si3 0.356611 0.478308 0.268596
Si Si4 0.081803 0.804374 0.082479
Si Si5 0.088536 0.967084 0.574218
Si Si6 0.644598 0.771933 0.229715
Si Si7 0.944700 0.471193 0.885041
Si Si8 0.341470 0.772135 0.451255
O O1 0.507129 0.414206 0.173578
O O2 0.647632 0.616952 0.154647
O O3 0.660552 0.520585 0.880202
O O4 0.794670 0.405404 0.980582
O O5 0.245239 0.365957 0.392789
O O6 0.000000 0.306171 0.500000
O O7 0.047202 0.391579 0.712335
O O8 0.124362 0.132568 0.571953
O O9 0.338904 0.618860 0.376447
O O10 0.073343 0.639446 0.141981
O O11 0.007942 0.908309 0.238286
O O12 0.233417 0.848854 0.935526
O O13 0.000000 0.803003 0.000000
O O14 0.223198 0.871516 0.478662
O O15 0.000000 0.954319 0.500000
O O16 0.493648 0.830023 0.321231
O O17 0.675235 0.757328 0.370857
O O18 0.000000 0.466063 0.000000
#
# Coordination Sequence:
#
# PCOD9112774 Si02
#       8
#     2   2   2   2   2   2   2   2
#     4   9  19  35  57  91 113 138 185 233 285 329
#     4  11  23  40  55  80 114 155 190 231 278 330
#     4  10  20  35  63  83 113 147 186 234 282 331
#     4  10  19  36  60  87 109 142 187 232 281 333
#     4  11  25  38  55  80 117 150 193 232 276 332
#     4   9  19  35  60  87 118 138 182 234 286 328
#     4  10  21  36  60  86 112 140 188 237 284 336
#     4  10  20  37  60  86 114 148 183 233 280 333
#
# _framework density 17.713039999999999
#
# number of rings (size 3 to 8) (size 9 to 14) (size 15 to 20)
#    0.000    2.000    2.500    0.750    7.000    1.500 
#    0.000    1.250    2.750    0.000    0.000    0.000 
#    0.000    0.000    0.000    0.000    0.000    0.000 
#
# Total GULP energy -89164.411034 kJ/mol
# GULP energy per Si atom -5572.775690 kJ/mol
# Density = 1.767272 g / cm^3
# Si number density = 17.713040 Si / 1000 Ang^3
#
#
#
# Elastic Constant Matrix: (Units=GPa)
#
#
# Indices 1 2 3 4 5 6 
#
# 1 107.3598 41.6683 48.0727 0.0000 -25.8990 0.0000
# 2 41.6683 78.0589 63.7462 0.0000 -10.4445 0.0000
# 3 48.0727 63.7462 109.1654 0.0000 -25.9760 0.0000
# 4 0.0000 0.0000 0.0000 10.2289 0.0000 5.9598
# 5 -25.8990 -10.4445 -25.9760 0.0000 35.9205 0.0000
# 6 0.0000 0.0000 0.0000 5.9598 0.0000 1.3185
#
#
#
# Elastic Compliance Matrix: (Units=1/GPa)
#
#
# Indices 1 2 3 4 5 6 
#
# 1 0.013725 -0.005442 -0.001073 0.000000 0.007538 0.000000
# 2 -0.005442 0.027105 -0.015085 0.000000 -0.006952 0.000000
# 3 -0.001073 -0.015085 0.020792 0.000000 0.009876 0.000000
# 4 0.000000 0.000000 0.000000 -0.059840 0.000000 0.270496
# 5 0.007538 -0.006952 0.009876 0.000000 0.038395 0.000000
# 6 0.000000 0.000000 0.000000 0.270496 0.000000 -0.464257
#
#
# Mechanical properties :
#
#
# Convention : Reuss Voigt Hill
#
# Bulk Modulus (GPa) = 54.28315 66.83985 60.56150
# Shear Modulus (GPa) = -13.34259 18.90003 2.77872
#
# Velocity S-wave (km/s) = -2.74754 3.27006 1.25385
# Velocity P-wave (km/s) = 4.54391 7.21626 6.02999
#
# Compressibility (1/GPa) = 0.01842192
#
# Stress axis : x y z
#
# Youngs Moduli (GPa) = 72.85750 36.89338 48.09611
#
# Poissons Ratio (x) = 0.20078 0.05159
# Poissons Ratio (y) = 0.39650 0.72555
# Poissons Ratio (z) = 0.07815 0.55655
#
# Static dielectric constant tensor:
#      x y z
#    x 1.643840 0.000000 -0.024910 
#    y 0.000000 1.576010 0.000000 
#    z -0.024910 0.000000 1.600460 
# 
# From -- ./inp_files/7444.got.cif
#   From: 2010.05.17/outbox.cif.g08.bks.cpg/sg3_4_cif.got.tgz:7444.got - 2010.06.03 18:33:08.
