data_PCOD9112792
_publ_section_title
;
Structure prediction by ZEFSAII (Michael W. Deem and Ramdas Pophale) SiO2 
 PCOD9112792
Probable space group: P 2
;
_chemical_formula_sum "Si O2"
_cell_formula_units_Z 13
_cell_length_a 9.915168
_cell_length_b 9.233459
_cell_length_c 8.296225
_cell_angle_alpha 90.000000
_cell_angle_beta 134.882916
_cell_angle_gamma 90.000000
_cell_volume 538.165306
_symmetry_space_group_name_H-M "P 2"
_symmetry_group_IT_number 3
_symmetry_cell_setting 'monoclinic'
loop_
_space_group_symop_operation_xyz
x,y,z
-x,y,-z
loop_
_atom_site_type_symbol
_atom_site_label
_atom_site_fract_x
_atom_site_fract_y
_atom_site_fract_z
Si Si1 0.266055 0.139950 0.308780
Si Si2 0.696864 0.443187 0.761337
Si Si3 0.706396 0.452860 0.138673
Si Si4 0.728975 0.154218 0.336076
Si Si5 0.105180 0.754710 0.749472
Si Si6 0.000000 0.692656 0.000000
Si Si7 0.696631 0.017845 0.994826
O O1 0.500000 0.141023 0.500000
O O2 0.205756 0.306779 0.240555
O O3 0.196200 0.103757 0.427904
O O4 0.218184 0.049102 0.109734
O O5 0.500000 0.465823 0.500000
O O6 0.684472 0.393701 0.937559
O O7 0.817451 0.588191 0.857158
O O8 0.738494 0.326257 0.298564
O O9 0.849582 0.586109 0.246728
O O10 0.500000 0.518111 0.000000
O O11 0.807298 0.087935 0.237911
O O12 0.510979 0.092910 0.169534
O O13 0.000000 0.806563 0.500000
O O14 0.292454 0.848421 0.952154
O O15 0.986433 0.769097 0.815378
#
# Coordination Sequence:
#
# PCOD9112792 Si02
#       7
#     2   2   2   2   2   1   2
#     4   9  17  33  65  97 130 170 221 285 348 402
#     4  10  20  38  69 102 137 180 226 293 362 409
#     4  11  20  39  69 108 133 172 235 296 344 427
#     4  10  19  36  69 101 131 161 231 300 340 407
#     4  11  28  45  66  94 148 195 226 281 367 432
#     4  10  26  48  62  98 146 182 246 290 340 446
#     4  10  20  40  60  97 137 175 224 279 344 423
#
# _framework density 24.156144999999999
#
# number of rings (size 3 to 8) (size 9 to 14) (size 15 to 20)
#    0.000    1.846    3.077    1.846    6.462    1.231 
#    0.000   12.308    0.000    0.000    0.000    0.000 
#    0.000    0.000    0.000    0.000    0.000    0.000 
#
# Total GULP energy -72490.100008 kJ/mol
# GULP energy per Si atom -5576.161539 kJ/mol
# Density = 2.410116 g / cm^3
# Si number density = 24.156145 Si / 1000 Ang^3
#
#
#
# Elastic Constant Matrix: (Units=GPa)
#
#
# Indices 1 2 3 4 5 6 
#
# 1 129.2668 23.5091 68.3511 0.0000 -45.5817 0.0000
# 2 23.5091 104.4252 45.9036 0.0000 -17.2808 0.0000
# 3 68.3511 45.9036 147.0690 0.0000 -50.0191 0.0000
# 4 0.0000 0.0000 0.0000 26.9977 0.0000 -9.1043
# 5 -45.5817 -17.2808 -50.0191 0.0000 56.8553 0.0000
# 6 0.0000 0.0000 0.0000 -9.1043 0.0000 -4.5219
#
#
#
# Elastic Compliance Matrix: (Units=1/GPa)
#
#
# Indices 1 2 3 4 5 6 
#
# 1 0.011770 -0.000162 -0.003178 0.000000 0.006591 0.000000
# 2 -0.000162 0.011110 -0.003265 0.000000 0.000374 0.000000
# 3 -0.003178 -0.003265 0.011546 0.000000 0.006618 0.000000
# 4 0.000000 0.000000 0.000000 0.022062 0.000000 -0.044418
# 5 0.006591 0.000374 0.006618 0.000000 0.028809 0.000000
# 6 0.000000 0.000000 0.000000 -0.044418 0.000000 -0.131716
#
#
# Mechanical properties :
#
#
# Convention : Reuss Voigt Hill
#
# Bulk Modulus (GPa) = 47.13367 72.92097 60.02732
# Shear Modulus (GPa) = -191.29576 32.06602 -79.61487
#
# Velocity S-wave (km/s) = -8.90861 3.64737 -5.74717
# Velocity P-wave (km/s) = 9.28780 6.92752 4.37451
#
# Compressibility (1/GPa) = 0.02121626
#
# Stress axis : x y z
#
# Youngs Moduli (GPa) = 84.96283 90.00967 86.60769
#
# Poissons Ratio (x) = 0.01459 0.27523
# Poissons Ratio (y) = 0.01377 0.28277
# Poissons Ratio (z) = 0.27000 0.29388
#
# Static dielectric constant tensor:
#      x y z
#    x 1.956870 0.000000 -0.023260 
#    y 0.000000 1.932020 0.000000 
#    z -0.023260 0.000000 2.030610 
# 
# From -- ./inp_files/7552.got.cif
#   From: 2010.05.17/outbox.cif.g08.bks.cpg/sg3_4_cif.got.tgz:7552.got - 2010.06.03 18:33:08.
