data_PCOD9112316
_publ_section_title
;
Structure prediction by ZEFSAII (Michael W. Deem and Ramdas Pophale) SiO2 
 PCOD9112316
Probable space group: P -1
;
_chemical_formula_sum "Si O2"
_cell_formula_units_Z 16
_cell_length_a 10.859553
_cell_length_b 10.914036
_cell_length_c 11.850931
_cell_angle_alpha 133.520674
_cell_angle_beta 60.381870
_cell_angle_gamma 83.762142
_cell_volume 621.511974
_symmetry_space_group_name_H-M "P -1"
_symmetry_group_IT_number 2
_symmetry_cell_setting 'triclinic'
loop_
_space_group_symop_operation_xyz
x,y,z
-x,-y,-z
loop_
_atom_site_type_symbol
_atom_site_label
_atom_site_fract_x
_atom_site_fract_y
_atom_site_fract_z
Si Si1 0.506639 0.319627 0.947394
Si Si2 0.701771 0.948664 0.445462
Si Si3 0.988970 0.214585 0.130857
Si Si4 0.716389 0.962078 0.793637
Si Si5 0.576249 0.687342 0.381599
Si Si6 0.573887 0.097967 0.183326
Si Si7 0.876059 0.341695 0.503228
Si Si8 0.065766 0.807479 0.113445
O O1 0.320521 0.467418 0.211507
O O2 0.500000 0.500000 0.000000
O O3 0.523267 0.163394 0.744574
O O4 0.709549 0.104371 0.788243
O O5 0.629016 0.092475 0.451366
O O6 0.704385 0.746994 0.332603
O O7 0.922990 0.837169 0.287534
O O8 0.845902 0.387725 0.411404
O O9 0.943437 0.278348 0.060300
O O10 0.201669 0.120801 0.006942
O O11 0.000000 0.000000 0.000000
O O12 0.568116 0.941660 0.802742
O O13 0.625028 0.119401 0.049061
O O14 0.936996 0.707720 0.564551
O O15 0.527195 0.708411 0.549282
O O16 0.699767 0.424624 0.112560
O O17 0.972162 0.072535 0.307262
#
# Coordination Sequence:
#
# PCOD9112316 Si02
#       8
#     2   2   2   2   2   2   2   2
#     4  12  25  43  70  94 140 185 218 284 332 406
#     4  11  24  45  61  99 137 173 232 269 343 399
#     4   9  20  42  69 101 139 169 222 286 331 403
#     4  10  24  44  67  99 136 182 228 275 335 407
#     4  11  24  41  68  97 131 181 218 285 332 404
#     4  10  20  46  68  97 141 172 229 282 334 397
#     4  10  24  43  64 103 134 173 229 272 338 399
#     4  11  22  41  69  97 133 178 223 277 338 395
#
# _framework density 25.743672
#
# number of rings (size 3 to 8) (size 9 to 14) (size 15 to 20)
#    0.000    1.500    3.750    0.375    3.500    1.500 
#    6.750    3.750    0.000    0.000    0.000    0.000 
#    0.000    0.000    0.000    0.000    0.000    0.000 
#
# Total GULP energy -89384.265339 kJ/mol
# GULP energy per Si atom -5586.516584 kJ/mol
# Density = 2.568508 g / cm^3
# Si number density = 25.743672 Si / 1000 Ang^3
#
#
#
# Elastic Constant Matrix: (Units=GPa)
#
#
# Indices 1 2 3 4 5 6 
#
# 1 63.4093 15.3402 11.7380 -6.9279 5.6979 0.2468
# 2 15.3402 85.9632 25.9419 -1.0930 8.9975 -12.5645
# 3 11.7380 25.9419 169.4250 -24.0444 4.3506 -1.8778
# 4 -6.9279 -1.0930 -24.0444 42.3983 1.5274 10.3260
# 5 5.6979 8.9975 4.3506 1.5274 30.4650 -1.6540
# 6 0.2468 -12.5645 -1.8778 10.3260 -1.6540 39.9331
#
#
#
# Elastic Compliance Matrix: (Units=1/GPa)
#
#
# Indices 1 2 3 4 5 6 
#
# 1 0.017114 -0.002962 -0.000241 0.003156 -0.002557 -0.001971
# 2 -0.002962 0.013759 -0.002114 -0.002382 -0.002831 0.004747
# 3 -0.000241 -0.002114 0.006831 0.004153 -0.000593 -0.001441
# 4 0.003156 -0.002382 0.004153 0.028433 -0.002341 -0.008023
# 5 -0.002557 -0.002831 -0.000593 -0.002341 0.034402 0.001128
# 6 -0.001971 0.004747 -0.001441 -0.008023 0.001128 0.028601
#
#
# Mechanical properties :
#
#
# Convention : Reuss Voigt Hill
#
# Bulk Modulus (GPa) = 36.93972 47.20421 42.07197
# Shear Modulus (GPa) = 33.60261 40.27777 36.94019
#
# Velocity S-wave (km/s) = 3.61678 3.95976 3.79215
# Velocity P-wave (km/s) = 5.64107 6.26756 5.96255
#
# Compressibility (1/GPa) = 0.02707113
#
# Stress axis : x y z
#
# Youngs Moduli (GPa) = 58.43232 72.67825 146.38507
#
# Poissons Ratio (x) = 0.21525 0.03521
# Poissons Ratio (y) = 0.17306 0.30952
# Poissons Ratio (z) = 0.01405 0.15367
#
# Static dielectric constant tensor:
#      x y z
#    x 2.163710 -0.021710 -0.017450 
#    y -0.021710 2.005570 0.003170 
#    z -0.017450 0.003170 1.994000 
# 
# From -- ./inp_files/428883.got.cif
#   From: 2010.05.17/outbox.cif.g08.bks.cpg/sg2_215_cif.got.tgz:428883.got - 2010.06.03 11:33:40.
