data_PCOD9112179
_publ_section_title
;
Structure prediction by ZEFSAII (Michael W. Deem and Ramdas Pophale) SiO2 
 PCOD9112179
Probable space group: P -1
;
_chemical_formula_sum "Si O2"
_cell_formula_units_Z 15
_cell_length_a 8.837053
_cell_length_b 10.266586
_cell_length_c 17.991095
_cell_angle_alpha 36.468680
_cell_angle_beta 141.311569
_cell_angle_gamma 119.174446
_cell_volume 561.592272
_symmetry_space_group_name_H-M "P -1"
_symmetry_group_IT_number 2
_symmetry_cell_setting 'triclinic'
loop_
_space_group_symop_operation_xyz
x,y,z
-x,-y,-z
loop_
_atom_site_type_symbol
_atom_site_label
_atom_site_fract_x
_atom_site_fract_y
_atom_site_fract_z
Si Si1 0.472878 0.008289 0.360919
Si Si2 0.031968 0.633835 0.332395
Si Si3 0.780373 0.639484 0.765897
Si Si4 0.520643 0.006111 0.898673
Si Si5 0.721424 0.329225 0.109576
Si Si6 0.000000 0.000000 0.500000
Si Si7 0.750258 0.160386 0.783286
Si Si8 0.685181 0.505600 0.341633
O O1 0.291464 0.966492 0.248067
O O2 0.644837 0.765556 0.580032
O O3 0.684583 0.090803 0.364739
O O4 0.300089 0.170388 0.285999
O O5 0.182200 0.630574 0.469305
O O6 0.893323 0.443816 0.381689
O O7 0.219355 0.602341 0.346145
O O8 0.603235 0.488167 0.784771
O O9 0.090684 0.552699 0.911207
O O10 0.404161 0.806911 0.930834
O O11 0.530931 0.149602 0.761299
O O12 0.352367 0.223210 0.784634
O O13 0.804086 0.871315 0.105013
O O14 0.500000 0.500000 0.000000
O O15 0.910860 0.125573 0.328214
O O16 0.000000 0.000000 0.000000
#
# Coordination Sequence:
#
# PCOD9112179 Si02
#       8
#     2   2   2   2   2   1   2   2
#     4  10  20  44  73 107 146 192 251 298 382 427
#     4  10  24  43  71 101 147 184 242 305 357 443
#     4  10  24  43  75 110 149 190 248 311 364 453
#     4  11  25  45  70 105 143 192 245 305 366 444
#     4  11  26  46  71 109 147 195 247 303 376 442
#     4  10  22  44  74 100 146 196 240 306 360 448
#     4  10  21  42  71 103 142 191 239 305 358 440
#     4  11  24  46  71 108 139 195 245 298 378 428
#
# _framework density 26.709769000000001
#
# number of rings (size 3 to 8) (size 9 to 14) (size 15 to 20)
#    0.000    1.600    2.667    0.400    1.867    9.067 
#    0.000    1.333    0.000    0.000    0.000    0.000 
#    0.000    0.000    0.000    0.000    0.000    0.000 
#
# Total GULP energy -83546.322091 kJ/mol
# GULP energy per Si atom -5569.754806 kJ/mol
# Density = 2.664898 g / cm^3
# Si number density = 26.709769 Si / 1000 Ang^3
#
#
#
# Elastic Constant Matrix: (Units=GPa)
#
#
# Indices 1 2 3 4 5 6 
#
# 1 177.9201 74.3938 31.8396 6.9250 -17.7040 54.8476
# 2 74.3938 141.3173 35.4310 21.1320 18.4777 17.4370
# 3 31.8396 35.4310 107.9058 25.6164 -12.4890 2.3341
# 4 6.9250 21.1320 25.6164 39.8818 8.3727 -3.5150
# 5 -17.7040 18.4777 -12.4890 8.3727 68.8539 4.8723
# 6 54.8476 17.4370 2.3341 -3.5150 4.8723 54.1587
#
#
#
# Elastic Compliance Matrix: (Units=1/GPa)
#
#
# Indices 1 2 3 4 5 6 
#
# 1 0.011817 -0.005264 -0.000729 -0.000831 0.005181 -0.010761
# 2 -0.005264 0.011071 -0.002063 -0.002488 -0.004545 0.002102
# 3 -0.000729 -0.002063 0.012326 -0.007426 0.003500 0.000074
# 4 -0.000831 -0.002488 -0.007426 0.032800 -0.005204 0.004560
# 5 0.005181 -0.004545 0.003500 -0.005204 0.018765 -0.005961
# 6 -0.010761 0.002102 0.000074 0.004560 -0.005961 0.029515
#
#
# Mechanical properties :
#
#
# Convention : Reuss Voigt Hill
#
# Bulk Modulus (GPa) = 52.34621 78.94133 65.64377
# Shear Modulus (GPa) = 36.03001 51.61082 43.82041
#
# Velocity S-wave (km/s) = 3.67678 4.40054 4.05484
# Velocity P-wave (km/s) = 6.13724 7.44574 6.82293
#
# Compressibility (1/GPa) = 0.01910358
#
# Stress axis : x y z
#
# Youngs Moduli (GPa) = 84.62294 90.32375 81.12896
#
# Poissons Ratio (x) = 0.47542 0.05913
# Poissons Ratio (y) = 0.44542 0.16738
# Poissons Ratio (z) = 0.06168 0.18635
#
# Static dielectric constant tensor:
#      x y z
#    x 2.309160 0.137700 0.042880 
#    y 0.137700 2.129470 -0.014800 
#    z 0.042880 -0.014800 2.072960 
# 
# From -- ./inp_files/589419.got.cif
#   From: 2010.05.17/outbox.cif.g08.bks.cpg/sg2_295_cif.got.tgz:589419.got - 2010.06.03 11:33:40.
