data_PCOD9112750
_publ_section_title
;
Structure prediction by ZEFSAII (Michael W. Deem and Ramdas Pophale) SiO2 
 PCOD9112750
Probable space group: P 2
;
_chemical_formula_sum "Si O2"
_cell_formula_units_Z 16
_cell_length_a 17.294718
_cell_length_b 8.725423
_cell_length_c 7.597636
_cell_angle_alpha 90.000000
_cell_angle_beta 142.988172
_cell_angle_gamma 90.000000
_cell_volume 690.176922
_symmetry_space_group_name_H-M "P 2"
_symmetry_group_IT_number 3
_symmetry_cell_setting 'monoclinic'
loop_
_space_group_symop_operation_xyz
x,y,z
-x,y,-z
loop_
_atom_site_type_symbol
_atom_site_label
_atom_site_fract_x
_atom_site_fract_y
_atom_site_fract_z
Si Si1 0.160445 0.467490 0.483696
Si Si2 0.594142 0.429301 0.521685
Si Si3 0.490004 0.103658 0.196973
Si Si4 0.222528 0.110992 0.599897
Si Si5 0.635798 0.657343 0.284737
Si Si6 0.276564 0.935910 0.350518
Si Si7 0.044340 0.075695 0.776375
Si Si8 0.115649 0.419486 0.988719
O O1 0.202496 0.292287 0.595681
O O2 0.279101 0.584745 0.717365
O O3 0.020520 0.495297 0.316144
O O4 0.137726 0.468008 0.230807
O O5 0.500000 0.492458 0.500000
O O6 0.539712 0.261187 0.373876
O O7 0.590945 0.523577 0.334978
O O8 0.745490 0.434449 0.852306
O O9 0.579132 0.973403 0.443636
O O10 0.500000 0.118972 0.000000
O O11 0.338842 0.068213 0.940235
O O12 0.087734 0.024348 0.375205
O O13 0.257605 0.067477 0.464803
O O14 0.723569 0.775503 0.551106
O O15 0.500000 0.740029 0.000000
O O16 0.161789 0.960252 0.007801
O O17 0.084542 0.238893 0.929222
O O18 0.000000 0.107466 0.500000
#
# Coordination Sequence:
#
# PCOD9112750 Si02
#       8
#     2   2   2   2   2   2   2   2
#     4   9  17  34  64  88 125 151 204 260 308 350
#     4  11  22  37  62  89 131 164 207 248 318 375
#     4  10  19  35  63  93 119 153 206 263 304 361
#     4  10  19  35  62  93 120 150 202 261 311 358
#     4  11  22  40  63  93 123 164 216 257 310 371
#     4  11  21  40  61  89 121 163 207 260 306 361
#     4  11  22  37  59  89 126 160 199 253 314 374
#     4   9  17  36  58  89 120 161 197 251 309 367
#
# _framework density 23.182462999999998
#
# number of rings (size 3 to 8) (size 9 to 14) (size 15 to 20)
#    0.000    1.750    2.500    4.875    1.750    0.000 
#    9.000    3.125    0.000    3.000    0.000    0.000 
#    0.000    0.000    0.000    0.000    0.000    0.000 
#
# Total GULP energy -89220.700051 kJ/mol
# GULP energy per Si atom -5576.293753 kJ/mol
# Density = 2.312970 g / cm^3
# Si number density = 23.182463 Si / 1000 Ang^3
#
#
#
# Elastic Constant Matrix: (Units=GPa)
#
#
# Indices 1 2 3 4 5 6 
#
# 1 77.5317 -3.5120 41.8763 0.0000 34.6455 0.0000
# 2 -3.5120 45.2939 36.2063 0.0000 5.4224 0.0000
# 3 41.8763 36.2063 114.9495 0.0000 49.1835 0.0000
# 4 0.0000 0.0000 0.0000 12.2586 0.0000 9.3097
# 5 34.6455 5.4224 49.1835 0.0000 41.5573 0.0000
# 6 0.0000 0.0000 0.0000 9.3097 0.0000 -3.3373
#
#
#
# Elastic Compliance Matrix: (Units=1/GPa)
#
#
# Indices 1 2 3 4 5 6 
#
# 1 0.021671 0.006357 -0.003671 0.000000 -0.014552 0.000000
# 2 0.006357 0.036410 -0.019213 0.000000 0.012689 0.000000
# 3 -0.003671 -0.019213 0.027768 0.000000 -0.027296 0.000000
# 4 0.000000 0.000000 0.000000 0.026158 0.000000 0.072971
# 5 -0.014552 0.012689 -0.027296 0.000000 0.066844 0.000000
# 6 0.000000 0.000000 0.000000 0.072971 0.000000 -0.096085
#
#
# Mechanical properties :
#
#
# Convention : Reuss Voigt Hill
#
# Bulk Modulus (GPa) = 18.94144 42.99069 30.96606
# Shear Modulus (GPa) = 37.47593 20.97602 29.22598
#
# Velocity S-wave (km/s) = 4.02501 3.01129 3.55448
# Velocity P-wave (km/s) = 5.45796 5.53852 5.49839
#
# Compressibility (1/GPa) = 0.05279430
#
# Stress axis : x y z
#
# Youngs Moduli (GPa) = 46.14449 27.46482 36.01317
#
# Poissons Ratio (x) = -0.17458 0.13219
# Poissons Ratio (y) = -0.29332 0.69193
# Poissons Ratio (z) = 0.16938 0.52769
#
# Static dielectric constant tensor:
#      x y z
#    x 2.284340 0.000000 0.108640 
#    y 0.000000 1.830570 0.000000 
#    z 0.108640 0.000000 1.996540 
# 
# From -- ./inp_files/9485.got.cif
#   From: 2010.05.17/outbox.cif.g08.bks.cpg/sg3_5_cif.got.tgz:9485.got - 2010.06.03 18:33:08.
