data_PCOD9112995
_publ_section_title
;
Structure prediction by ZEFSAII (Michael W. Deem and Ramdas Pophale) SiO2 
 PCOD9112995
Probable space group: P 2
;
_chemical_formula_sum "Si O2"
_cell_formula_units_Z 14
_cell_length_a 13.543541
_cell_length_b 6.544151
_cell_length_c 8.531242
_cell_angle_alpha 90.000000
_cell_angle_beta 114.767700
_cell_angle_gamma 90.000000
_cell_volume 686.578576
_symmetry_space_group_name_H-M "P 2"
_symmetry_group_IT_number 3
_symmetry_cell_setting 'monoclinic'
loop_
_space_group_symop_operation_xyz
x,y,z
-x,y,-z
loop_
_atom_site_type_symbol
_atom_site_label
_atom_site_fract_x
_atom_site_fract_y
_atom_site_fract_z
Si Si1 0.723341 0.163420 0.026247
Si Si2 0.500000 0.843802 0.500000
Si Si3 0.888960 0.890521 0.258013
Si Si4 0.394021 0.513486 0.647799
Si Si5 0.167636 0.475510 0.658083
Si Si6 0.681987 0.177042 0.652555
Si Si7 0.500000 0.264973 0.000000
Si Si8 0.887968 0.109024 0.582095
O O1 0.787023 0.321682 0.179564
O O2 0.793798 0.956752 0.077621
O O3 0.709618 0.252031 0.844282
O O4 0.604674 0.134787 0.021626
O O5 0.455641 0.702111 0.610558
O O6 0.598209 0.991265 0.614751
O O7 0.898463 0.651442 0.297611
O O8 0.857968 0.976810 0.409382
O O9 0.999116 0.010580 0.286924
O O10 0.276535 0.563822 0.646339
O O11 0.369958 0.348046 0.494745
O O12 0.464594 0.404815 0.829714
O O13 0.106962 0.338704 0.486177
O O14 0.792565 0.104781 0.643264
#
# Coordination Sequence:
#
# PCOD9112995 Si02
#       8
#     2   1   2   2   2   2   1   2
#     4  10  22  36  58  86 119 156 193 241 297 348
#     4  12  22  36  60  86 116 158 198 240 292 352
#     4  10  20  37  63  88 112 153 205 242 286 350
#     4  10  22  38  59  87 118 156 196 240 297 349
#     4   9  20  40  61  86 116 153 200 246 289 348
#     4  11  23  40  59  87 125 157 191 241 298 355
#     4  10  20  40  60  82 120 154 194 248 294 344
#     4   9  21  39  61  86 118 154 194 247 299 343
#
# _framework density 20.390965999999999
#
# number of rings (size 3 to 8) (size 9 to 14) (size 15 to 20)
#    0.000    2.000    0.000    3.857    0.000    9.714 
#    0.000    1.429    0.000    6.857    0.000    0.000 
#    0.000    0.000    0.000    0.000    0.000    0.000 
#
# Total GULP energy -78169.661707 kJ/mol
# GULP energy per Si atom -5583.547265 kJ/mol
# Density = 2.034456 g / cm^3
# Si number density = 20.390966 Si / 1000 Ang^3
#
#
#
# Elastic Constant Matrix: (Units=GPa)
#
#
# Indices 1 2 3 4 5 6 
#
# 1 129.0976 51.3193 24.1375 0.0000 14.3924 0.0000
# 2 51.3193 80.6190 11.3333 0.0000 21.1874 0.0000
# 3 24.1375 11.3333 70.9762 0.0000 11.2197 0.0000
# 4 0.0000 0.0000 0.0000 13.3134 0.0000 -3.0328
# 5 14.3924 21.1874 11.2197 0.0000 28.1784 0.0000
# 6 0.0000 0.0000 0.0000 -3.0328 0.0000 33.1106
#
#
#
# Elastic Compliance Matrix: (Units=1/GPa)
#
#
# Indices 1 2 3 4 5 6 
#
# 1 0.010841 -0.006665 -0.002710 0.000000 0.000554 0.000000
# 2 -0.006665 0.019587 0.000991 0.000000 -0.011718 0.000000
# 3 -0.002710 0.000991 0.015742 0.000000 -0.005629 0.000000
# 4 0.000000 0.000000 0.000000 0.076713 0.000000 0.007027
# 5 0.000554 -0.011718 -0.005629 0.000000 0.046258 0.000000
# 6 0.000000 0.000000 0.000000 0.007027 0.000000 0.030845
#
#
# Mechanical properties :
#
#
# Convention : Reuss Voigt Hill
#
# Bulk Modulus (GPa) = 34.01056 50.47479 42.24267
# Shear Modulus (GPa) = 22.06972 27.84732 24.95852
#
# Velocity S-wave (km/s) = 3.29344 3.69951 3.50236
# Velocity P-wave (km/s) = 5.58371 6.56168 6.09235
#
# Compressibility (1/GPa) = 0.02940263
#
# Stress axis : x y z
#
# Youngs Moduli (GPa) = 92.24534 51.05372 63.52284
#
# Poissons Ratio (x) = 0.34029 0.17214
# Poissons Ratio (y) = 0.61485 -0.06298
# Poissons Ratio (z) = 0.24997 -0.05062
#
# Static dielectric constant tensor:
#      x y z
#    x 1.743710 0.000000 0.029690 
#    y 0.000000 1.757130 0.000000 
#    z 0.029690 0.000000 1.723450 
# 
# From -- ./inp_files/8096.got.cif
#   From: 2010.05.17/outbox.cif.g08.bks.cpg/sg3_5_cif.got.tgz:8096.got - 2010.06.03 18:33:08.
