data_PCOD9112791
_publ_section_title
;
Structure prediction by ZEFSAII (Michael W. Deem and Ramdas Pophale) SiO2 
 PCOD9112791
Probable space group: P 2
;
_chemical_formula_sum "Si O2"
_cell_formula_units_Z 14
_cell_length_a 7.362725
_cell_length_b 5.331676
_cell_length_c 17.376715
_cell_angle_alpha 90.000000
_cell_angle_beta 126.149135
_cell_angle_gamma 90.000000
_cell_volume 550.812898
_symmetry_space_group_name_H-M "P 2"
_symmetry_group_IT_number 3
_symmetry_cell_setting 'monoclinic'
loop_
_space_group_symop_operation_xyz
x,y,z
-x,y,-z
loop_
_atom_site_type_symbol
_atom_site_label
_atom_site_fract_x
_atom_site_fract_y
_atom_site_fract_z
Si Si1 0.940171 0.858250 0.899923
Si Si2 0.664529 0.710650 0.242899
Si Si3 0.727702 0.854826 0.430765
Si Si4 0.322928 0.041823 0.892397
Si Si5 0.038486 0.397185 0.284013
Si Si6 0.210495 0.343873 0.492624
Si Si7 0.697814 0.362762 0.796943
O O1 0.160104 0.865054 0.901904
O O2 0.844908 0.577429 0.876670
O O3 0.776022 0.078943 0.828732
O O4 0.000000 0.938060 0.000000
O O5 0.661063 0.836191 0.325248
O O6 0.567854 0.874934 0.148545
O O7 0.918331 0.654296 0.279969
O O8 0.545500 0.443549 0.232505
O O9 0.672239 0.611180 0.466952
O O10 0.000000 0.871678 0.500000
O O11 0.640109 0.112119 0.443432
O O12 0.154654 0.241685 0.810386
O O13 0.500000 0.146282 0.000000
O O14 0.117206 0.287461 0.384830
O O15 0.242194 0.427744 0.276041
O O16 0.000000 0.362924 0.500000
#
# Coordination Sequence:
#
# PCOD9112791 Si02
#       7
#     2   2   2   2   2   2   2
#     4  11  24  47  65  99 143 183 235 305 343 413
#     4  12  24  43  73  99 141 186 236 292 353 426
#     4  10  20  36  65 101 126 176 224 280 344 410
#     4  11  25  42  72 102 138 191 243 283 358 428
#     4  11  24  45  68 101 143 185 231 300 351 418
#     4  10  19  36  67  94 132 173 223 277 350 404
#     4  11  27  43  69 101 139 185 234 287 363 412
#
# _framework density 25.416979999999999
#
# number of rings (size 3 to 8) (size 9 to 14) (size 15 to 20)
#    0.000    1.143    4.286    3.000    4.000    0.571 
#    0.000    0.714    0.000    3.429    0.000    0.000 
#    0.000    0.000    0.000    0.000    0.000    0.000 
#
# Total GULP energy -78312.244872 kJ/mol
# GULP energy per Si atom -5593.731777 kJ/mol
# Density = 2.535913 g / cm^3
# Si number density = 25.416980 Si / 1000 Ang^3
#
#
#
# Elastic Constant Matrix: (Units=GPa)
#
#
# Indices 1 2 3 4 5 6 
#
# 1 97.8297 9.5665 41.6985 0.0000 -17.2586 0.0000
# 2 9.5665 108.4068 29.8669 0.0000 3.3689 0.0000
# 3 41.6985 29.8669 168.8629 0.0000 -19.8797 0.0000
# 4 0.0000 0.0000 0.0000 79.6941 0.0000 -20.4745
# 5 -17.2586 3.3689 -19.8797 0.0000 39.6098 0.0000
# 6 0.0000 0.0000 0.0000 -20.4745 0.0000 33.4418
#
#
#
# Elastic Compliance Matrix: (Units=1/GPa)
#
#
# Indices 1 2 3 4 5 6 
#
# 1 0.012013 -0.000528 -0.002393 0.000000 0.004078 0.000000
# 2 -0.000528 0.009841 -0.001845 0.000000 -0.001993 0.000000
# 3 -0.002393 -0.001845 0.007158 0.000000 0.002707 0.000000
# 4 0.000000 0.000000 0.000000 0.014890 0.000000 0.009116
# 5 0.004078 -0.001993 0.002707 0.000000 0.028551 0.000000
# 6 0.000000 0.000000 0.000000 0.009116 0.000000 0.035484
#
#
# Mechanical properties :
#
#
# Convention : Reuss Voigt Hill
#
# Bulk Modulus (GPa) = 51.33218 59.70702 55.51960
# Shear Modulus (GPa) = 40.33493 50.14698 45.24096
#
# Velocity S-wave (km/s) = 3.98795 4.44663 4.22352
# Velocity P-wave (km/s) = 6.43777 7.06437 6.75834
#
# Compressibility (1/GPa) = 0.01948096
#
# Stress axis : x y z
#
# Youngs Moduli (GPa) = 83.24420 101.61249 139.70654
#
# Poissons Ratio (x) = 0.05360 0.33432
# Poissons Ratio (y) = 0.04391 0.25776
# Poissons Ratio (z) = 0.19920 0.18747
#
# Static dielectric constant tensor:
#      x y z
#    x 1.317810 0.000000 0.455840 
#    y 0.000000 2.073480 0.000000 
#    z 0.455840 0.000000 1.749060 
# 
# From -- ./inp_files/13265.got.cif
#   From: 2010.05.17/outbox.cif.g08.bks.cpg/sg3_7_cif.got.tgz:13265.got - 2010.06.03 18:33:08.
