data_PCOD9112623
_publ_section_title
;
Structure prediction by ZEFSAII (Michael W. Deem and Ramdas Pophale) SiO2 
 PCOD9112623
Probable space group: P 2
;
_chemical_formula_sum "Si O2"
_cell_formula_units_Z 15
_cell_length_a 18.179565
_cell_length_b 8.743571
_cell_length_c 5.561626
_cell_angle_alpha 90.000000
_cell_angle_beta 129.846110
_cell_angle_gamma 90.000000
_cell_volume 678.741168
_symmetry_space_group_name_H-M "P 2"
_symmetry_group_IT_number 3
_symmetry_cell_setting 'monoclinic'
loop_
_space_group_symop_operation_xyz
x,y,z
-x,y,-z
loop_
_atom_site_type_symbol
_atom_site_label
_atom_site_fract_x
_atom_site_fract_y
_atom_site_fract_z
Si Si1 0.391241 0.940020 0.273227
Si Si2 0.061791 0.146909 0.379529
Si Si3 0.000000 0.585754 0.500000
Si Si4 0.382594 0.097237 0.754161
Si Si5 0.842982 0.574831 0.858373
Si Si6 0.752629 0.344022 0.318825
Si Si7 0.870393 0.800696 0.553357
Si Si8 0.305671 0.634750 0.058676
O O1 0.500000 0.993185 0.500000
O O2 0.389227 0.755652 0.274555
O O3 0.351997 0.011189 0.441993
O O4 0.356193 0.003789 0.942493
O O5 0.163336 0.239377 0.619854
O O6 0.000000 0.155092 0.500000
O O7 0.098938 0.972827 0.418393
O O8 0.000000 0.183591 0.000000
O O9 0.937075 0.692600 0.534683
O O10 0.924622 0.495465 0.185963
O O11 0.318355 0.248375 0.658499
O O12 0.500000 0.119485 0.000000
O O13 0.818565 0.463539 0.596329
O O14 0.879523 0.739049 0.843255
O O15 0.748301 0.606746 0.806487
O O16 0.686570 0.463078 0.028146
O O17 0.766001 0.742969 0.248586
#
# Coordination Sequence:
#
# PCOD9112623 Si02
#       8
#     2   2   1   2   2   2   2   2
#     4  10  23  46  75 107 136 179 235 292 348 424
#     4  12  28  44  66  97 137 183 238 291 349 414
#     4  10  18  38  64  88 126 170 236 284 340 392
#     4  10  24  48  78 107 141 185 233 290 361 426
#     4  10  23  39  63  94 131 183 229 287 350 421
#     4  11  27  45  65 102 145 188 229 292 363 429
#     4  10  21  41  64  91 125 176 241 292 339 397
#     4  10  24  42  68  97 136 181 234 285 358 416
#
# _framework density 22.099734999999999
#
# number of rings (size 3 to 8) (size 9 to 14) (size 15 to 20)
#    0.000    1.600    0.667    2.000   11.200    3.200 
#    7.200    0.000    0.000    0.000    0.000    0.000 
#    0.000    0.000    0.000    0.000    0.000    0.000 
#
# Total GULP energy -83531.008422 kJ/mol
# GULP energy per Si atom -5568.733895 kJ/mol
# Density = 2.204944 g / cm^3
# Si number density = 22.099735 Si / 1000 Ang^3
#
#
#
# Elastic Constant Matrix: (Units=GPa)
#
#
# Indices 1 2 3 4 5 6 
#
# 1 95.3379 61.8396 42.8250 0.0000 -15.9672 0.0000
# 2 61.8396 135.6519 29.8369 0.0000 -13.2632 0.0000
# 3 42.8250 29.8369 64.6683 0.0000 -12.9825 0.0000
# 4 0.0000 0.0000 0.0000 22.3275 0.0000 3.5325
# 5 -15.9672 -13.2632 -12.9825 0.0000 34.9964 0.0000
# 6 0.0000 0.0000 0.0000 3.5325 0.0000 -34.6155
#
#
#
# Elastic Compliance Matrix: (Units=1/GPa)
#
#
# Indices 1 2 3 4 5 6 
#
# 1 0.019338 -0.006501 -0.009217 0.000000 0.002940 0.000000
# 2 -0.006501 0.010501 -0.000364 0.000000 0.000879 0.000000
# 3 -0.009217 -0.000364 0.022542 0.000000 0.004019 0.000000
# 4 0.000000 0.000000 0.000000 0.044076 0.000000 0.004498
# 5 0.002940 0.000879 0.004019 0.000000 0.031740 0.000000
# 6 0.000000 0.000000 0.000000 0.004498 0.000000 -0.028430
#
#
# Mechanical properties :
#
#
# Convention : Reuss Voigt Hill
#
# Bulk Modulus (GPa) = 49.45859 62.74012 56.09935
# Shear Modulus (GPa) = 36.05693 15.28544 25.67119
#
# Velocity S-wave (km/s) = 4.04363 2.63279 3.41193
# Velocity P-wave (km/s) = 6.65053 6.13949 6.40011
#
# Compressibility (1/GPa) = 0.02021893
#
# Stress axis : x y z
#
# Youngs Moduli (GPa) = 51.71101 95.22604 44.36242
#
# Poissons Ratio (x) = 0.61907 0.40887
# Poissons Ratio (y) = 0.33618 0.01613
# Poissons Ratio (z) = 0.47660 0.03462
#
# Static dielectric constant tensor:
#      x y z
#    x 1.805780 0.000000 -0.015920 
#    y 0.000000 1.844750 0.000000 
#    z -0.015920 0.000000 2.074320 
# 
# From -- ./inp_files/3744.got.cif
#   From: 2010.05.17/outbox.cif.g08.bks.cpg/sg3_2_cif.got.tgz:3744.got - 2010.06.03 18:33:08.
