data_PCOD9112830
_publ_section_title
;
Structure prediction by ZEFSAII (Michael W. Deem and Ramdas Pophale) SiO2 
 PCOD9112830
Probable space group: P 2
;
_chemical_formula_sum "Si O2"
_cell_formula_units_Z 15
_cell_length_a 8.147940
_cell_length_b 9.805319
_cell_length_c 7.083734
_cell_angle_alpha 90.000000
_cell_angle_beta 103.935043
_cell_angle_gamma 90.000000
_cell_volume 549.285806
_symmetry_space_group_name_H-M "P 2"
_symmetry_group_IT_number 3
_symmetry_cell_setting 'monoclinic'
loop_
_space_group_symop_operation_xyz
x,y,z
-x,y,-z
loop_
_atom_site_type_symbol
_atom_site_label
_atom_site_fract_x
_atom_site_fract_y
_atom_site_fract_z
Si Si1 0.745997 0.424580 0.792001
Si Si2 0.875840 0.465482 0.248789
Si Si3 0.193185 0.883413 0.029162
Si Si4 0.818353 0.180654 0.356647
Si Si5 0.434680 0.673270 0.197664
Si Si6 0.330213 0.152678 0.075669
Si Si7 0.000000 0.721598 0.500000
Si Si8 0.295637 0.894193 0.618869
O O1 0.927030 0.435753 0.743099
O O2 0.601085 0.532957 0.705790
O O3 0.685500 0.269315 0.775669
O O4 0.780694 0.456910 0.024283
O O5 0.794415 0.345625 0.356472
O O6 0.889634 0.614965 0.344277
O O7 0.234836 0.886422 0.819826
O O8 0.308704 0.002260 0.148776
O O9 0.250127 0.739554 0.123023
O O10 0.000000 0.910840 0.000000
O O11 0.815798 0.165231 0.126220
O O12 0.000000 0.153210 0.500000
O O13 0.697057 0.059402 0.402453
O O14 0.550101 0.787670 0.329073
O O15 0.500000 0.654685 0.000000
O O16 0.500000 0.168005 0.000000
O O17 0.857730 0.824987 0.539851
#
# Coordination Sequence:
#
# PCOD9112830 Si02
#       8
#     2   2   2   2   2   2   1   2
#     4  10  22  38  64  92 128 159 213 269 322 378
#     4  10  22  37  62  96 125 167 214 268 319 388
#     4  10  21  34  61  94 122 161 213 273 314 371
#     4  10  19  39  62  89 123 168 213 259 311 387
#     4  10  20  38  58  91 128 163 208 263 324 374
#     4  10  21  37  63  94 124 166 213 269 323 381
#     4  12  22  38  60  90 124 174 220 248 332 394
#     4  10  22  37  62  86 123 171 217 258 316 389
#
# _framework density 27.308188000000001
#
# number of rings (size 3 to 8) (size 9 to 14) (size 15 to 20)
#    0.000    1.867    1.333    4.000    9.333    1.067 
#    0.000    0.667    0.000    0.000    0.000    0.000 
#    0.000    0.000    0.000    0.000    0.000    0.000 
#
# Total GULP energy -83887.525477 kJ/mol
# GULP energy per Si atom -5592.501698 kJ/mol
# Density = 2.724603 g / cm^3
# Si number density = 27.308188 Si / 1000 Ang^3
#
#
#
# Elastic Constant Matrix: (Units=GPa)
#
#
# Indices 1 2 3 4 5 6 
#
# 1 108.1173 50.4732 5.4412 0.0000 3.6826 0.0000
# 2 50.4732 226.3374 22.4243 0.0000 6.9845 0.0000
# 3 5.4412 22.4243 89.2112 0.0000 4.5534 0.0000
# 4 0.0000 0.0000 0.0000 10.3895 0.0000 8.8357
# 5 3.6826 6.9845 4.5534 0.0000 34.7467 0.0000
# 6 0.0000 0.0000 0.0000 8.8357 0.0000 27.6787
#
#
#
# Elastic Compliance Matrix: (Units=1/GPa)
#
#
# Indices 1 2 3 4 5 6 
#
# 1 0.010338 -0.002283 -0.000024 0.000000 -0.000633 0.000000
# 2 -0.002283 0.005056 -0.001099 0.000000 -0.000630 0.000000
# 3 -0.000024 -0.001099 0.011553 0.000000 -0.001290 0.000000
# 4 0.000000 0.000000 0.000000 0.132119 0.000000 -0.042175
# 5 -0.000633 -0.000630 -0.001290 0.000000 0.029143 0.000000
# 6 0.000000 0.000000 0.000000 -0.042175 0.000000 0.049592
#
#
# Mechanical properties :
#
#
# Convention : Reuss Voigt Hill
#
# Bulk Modulus (GPa) = 49.67045 64.48258 57.07652
# Shear Modulus (GPa) = 19.89453 37.58480 28.73966
#
# Velocity S-wave (km/s) = 2.70204 3.71390 3.24762
# Velocity P-wave (km/s) = 5.28801 6.48498 5.91684
#
# Compressibility (1/GPa) = 0.02013269
#
# Stress axis : x y z
#
# Youngs Moduli (GPa) = 96.73055 197.79442 86.55729
#
# Poissons Ratio (x) = 0.45165 0.00210
# Poissons Ratio (y) = 0.22088 0.09516
# Poissons Ratio (z) = 0.00234 0.21745
#
# Static dielectric constant tensor:
#      x y z
#    x 2.066910 0.000000 -0.034640 
#    y 0.000000 2.154400 0.000000 
#    z -0.034640 0.000000 2.345650 
# 
# From -- ./inp_files/10602.got.cif
#   From: 2010.05.17/outbox.cif.g08.bks.cpg/sg3_6_cif.got.tgz:10602.got - 2010.06.03 18:33:08.
