data_PCOD9112028
_publ_section_title
;
Structure prediction by ZEFSAII (Michael W. Deem and Ramdas Pophale) SiO2 
 PCOD9112028
Probable space group: P -1
;
_chemical_formula_sum "Si O2"
_cell_formula_units_Z 14
_cell_length_a 8.629417
_cell_length_b 18.081518
_cell_length_c 5.989537
_cell_angle_alpha 83.115058
_cell_angle_beta 61.153242
_cell_angle_gamma 46.035736
_cell_volume 553.865275
_symmetry_space_group_name_H-M "P -1"
_symmetry_group_IT_number 2
_symmetry_cell_setting 'triclinic'
loop_
_space_group_symop_operation_xyz
x,y,z
-x,-y,-z
loop_
_atom_site_type_symbol
_atom_site_label
_atom_site_fract_x
_atom_site_fract_y
_atom_site_fract_z
Si Si1 0.252913 0.372035 0.376880
Si Si2 0.141430 0.628031 0.308039
Si Si3 0.921630 0.852542 0.263152
Si Si4 0.543370 0.760352 0.134242
Si Si5 0.547524 0.047198 0.764744
Si Si6 0.252614 0.758319 0.678091
Si Si7 0.860739 0.377933 0.185666
O O1 0.142872 0.323504 0.514131
O O2 0.447808 0.347063 0.424308
O O3 0.000000 0.500000 0.500000
O O4 0.420843 0.309759 0.062484
O O5 0.091100 0.731911 0.287955
O O6 0.242316 0.572560 0.506995
O O7 0.257250 0.569748 0.001943
O O8 0.677907 0.889360 0.289727
O O9 0.805797 0.943405 0.493013
O O10 0.087048 0.843992 0.962985
O O11 0.461959 0.871308 0.132670
O O12 0.314291 0.796760 0.429077
O O13 0.852402 0.674077 0.013038
O O14 0.500000 0.000000 0.000000
O O15 0.127729 0.715289 0.762622
#
# Coordination Sequence:
#
# PCOD9112028 Si02
#       7
#     2   2   2   2   2   2   2
#     4  11  25  44  70 102 139 181 236 294 352 415
#     4  10  20  44  67  96 139 184 221 288 354 402
#     4  10  23  38  69  98 139 181 232 281 342 427
#     4  11  23  43  68  96 142 189 223 297 346 412
#     4  11  21  40  68 101 135 185 231 282 348 415
#     4  11  23  43  69 100 136 185 232 281 354 415
#     4  10  21  40  71  94 136 182 233 279 347 412
#
# _framework density 25.276906
#
# number of rings (size 3 to 8) (size 9 to 14) (size 15 to 20)
#    0.000    1.429    4.286    1.714    4.000    2.286 
#    0.000    7.143    0.000    0.000    0.000    0.000 
#    0.000    0.000    0.000    0.000    0.000    0.000 
#
# Total GULP energy -78035.912229 kJ/mol
# GULP energy per Si atom -5573.993731 kJ/mol
# Density = 2.521937 g / cm^3
# Si number density = 25.276906 Si / 1000 Ang^3
#
#
#
# Elastic Constant Matrix: (Units=GPa)
#
#
# Indices 1 2 3 4 5 6 
#
# 1 90.1809 25.5403 18.2107 -6.4957 -3.0899 -11.4683
# 2 25.5403 65.0542 34.1757 6.1679 13.3200 13.6256
# 3 18.2107 34.1757 215.0075 0.9453 -1.9532 -2.8550
# 4 -6.4957 6.1679 0.9453 37.5732 -7.3876 4.1677
# 5 -3.0899 13.3200 -1.9532 -7.3876 50.1532 -6.1141
# 6 -11.4683 13.6256 -2.8550 4.1677 -6.1141 28.4556
#
#
#
# Elastic Compliance Matrix: (Units=1/GPa)
#
#
# Indices 1 2 3 4 5 6 
#
# 1 0.016180 -0.010926 0.000568 0.004390 0.006088 0.012475
# 2 -0.010926 0.029165 -0.004061 -0.006682 -0.012046 -0.020386
# 3 0.000568 -0.004061 0.005301 0.000650 0.001781 0.002993
# 4 0.004390 -0.006682 0.000650 0.029530 0.006681 0.002144
# 5 0.006088 -0.012046 0.001781 0.006681 0.026157 0.013042
# 6 0.012475 -0.020386 0.002993 0.002144 0.013042 0.052720
#
#
# Mechanical properties :
#
#
# Convention : Reuss Voigt Hill
#
# Bulk Modulus (GPa) = 45.85608 58.45512 52.15560
# Shear Modulus (GPa) = 25.61992 42.72412 34.17202
#
# Velocity S-wave (km/s) = 3.18712 4.11572 3.68082
# Velocity P-wave (km/s) = 5.63245 6.76473 6.22439
#
# Compressibility (1/GPa) = 0.02180736
#
# Stress axis : x y z
#
# Youngs Moduli (GPa) = 61.80562 34.28802 188.62701
#
# Poissons Ratio (x) = 0.37464 -0.10714
# Poissons Ratio (y) = 0.67530 0.76603
# Poissons Ratio (z) = -0.03511 0.13925
#
# Static dielectric constant tensor:
#      x y z
#    x 2.180550 -0.057200 0.154550 
#    y -0.057200 2.007400 -0.054170 
#    z 0.154550 -0.054170 2.096360 
# 
# From -- ./inp_files/47324.got.cif
#   From: 2010.05.17/outbox.cif.g08.bks.cpg/sg2_24_cif.got.tgz:47324.got - 2010.06.03 11:33:40.
