data_PCOD9112745
_publ_section_title
;
Structure prediction by ZEFSAII (Michael W. Deem and Ramdas Pophale) SiO2 
 PCOD9112745
Probable space group: P 2
;
_chemical_formula_sum "Si O2"
_cell_formula_units_Z 15
_cell_length_a 19.944024
_cell_length_b 4.952689
_cell_length_c 5.734555
_cell_angle_alpha 90.000000
_cell_angle_beta 85.859864
_cell_angle_gamma 90.000000
_cell_volume 564.961399
_symmetry_space_group_name_H-M "P 2"
_symmetry_group_IT_number 3
_symmetry_cell_setting 'monoclinic'
loop_
_space_group_symop_operation_xyz
x,y,z
-x,y,-z
loop_
_atom_site_type_symbol
_atom_site_label
_atom_site_fract_x
_atom_site_fract_y
_atom_site_fract_z
Si Si1 0.500000 0.969260 0.500000
Si Si2 0.829062 0.386993 0.229974
Si Si3 0.626052 0.979111 0.685209
Si Si4 0.247915 0.018563 0.113793
Si Si5 0.067857 0.566499 0.127048
Si Si6 0.886986 0.045226 0.606608
Si Si7 0.303328 0.612640 0.718035
Si Si8 0.565572 0.581736 0.093682
O O1 0.561750 0.129563 0.596111
O O2 0.533637 0.778945 0.296753
O O3 0.789190 0.217567 0.049509
O O4 0.872917 0.607606 0.080376
O O5 0.879463 0.198786 0.363644
O O6 0.763646 0.490923 0.385180
O O7 0.664147 0.817046 0.473516
O O8 0.595890 0.770141 0.881392
O O9 0.685483 0.143724 0.788314
O O10 0.273118 0.771361 0.948962
O O11 0.189868 0.963282 0.314461
O O12 0.072819 0.775741 0.339513
O O13 0.081921 0.271348 0.229340
O O14 0.000000 0.585703 0.000000
O O15 0.368673 0.448302 0.799487
O O16 0.500000 0.432139 0.000000
#
# Coordination Sequence:
#
# PCOD9112745 Si02
#       8
#     1   2   2   2   2   2   2   2
#     4   8  14  28  48  90 122 174 230 280 346 422
#     4  11  25  41  69 102 139 180 237 288 360 436
#     4   9  17  29  58  86 130 173 230 287 350 411
#     4  10  21  38  59  95 133 177 226 292 354 420
#     4  11  26  50  74 107 145 190 237 297 359 438
#     4  11  25  43  76 103 145 187 237 294 359 428
#     4  10  19  35  60  91 129 175 234 287 351 429
#     4   8  15  28  51  85 124 173 226 282 349 414
#
# _framework density 26.550487
#
# number of rings (size 3 to 8) (size 9 to 14) (size 15 to 20)
#    0.000    2.133    1.333    1.200    3.733    1.600 
#    0.000    1.333    0.000    9.600    0.000   41.067 
#    0.000    0.000    0.000    0.000    0.000    0.000 
#
# Total GULP energy -83844.045692 kJ/mol
# GULP energy per Si atom -5589.603046 kJ/mol
# Density = 2.649006 g / cm^3
# Si number density = 26.550487 Si / 1000 Ang^3
#
#
#
# Elastic Constant Matrix: (Units=GPa)
#
#
# Indices 1 2 3 4 5 6 
#
# 1 198.6936 33.0364 35.9429 0.0000 47.6021 0.0000
# 2 33.0364 69.2650 18.5005 0.0000 6.7123 0.0000
# 3 35.9429 18.5005 65.7027 0.0000 14.6709 0.0000
# 4 0.0000 0.0000 0.0000 -116.4254 0.0000 -66.5627
# 5 47.6021 6.7123 14.6709 0.0000 53.5385 0.0000
# 6 0.0000 0.0000 0.0000 -66.5627 0.0000 -6.5442
#
#
#
# Elastic Compliance Matrix: (Units=1/GPa)
#
#
# Indices 1 2 3 4 5 6 
#
# 1 0.007090 -0.002316 -0.002006 0.000000 -0.005464 0.000000
# 2 -0.002316 0.016400 -0.003570 0.000000 0.000981 0.000000
# 3 -0.002006 -0.003570 0.017921 0.000000 -0.002679 0.000000
# 4 0.000000 0.000000 0.000000 0.001784 0.000000 -0.018144
# 5 -0.005464 0.000981 -0.002679 0.000000 0.024147 0.000000
# 6 0.000000 0.000000 0.000000 -0.018144 0.000000 0.031735
#
#
# Mechanical properties :
#
#
# Convention : Reuss Voigt Hill
#
# Bulk Modulus (GPa) = 39.02255 56.51343 47.76799
# Shear Modulus (GPa) = 40.51708 2.52588 21.52148
#
# Velocity S-wave (km/s) = 3.91069 0.97643 2.85017
# Velocity P-wave (km/s) = 5.92628 4.75423 5.37231
#
# Compressibility (1/GPa) = 0.02562621
#
# Stress axis : x y z
#
# Youngs Moduli (GPa) = 141.04653 60.97386 55.79982
#
# Poissons Ratio (x) = 0.14123 0.11196
# Poissons Ratio (y) = 0.32669 0.19921
# Poissons Ratio (z) = 0.28299 0.21768
#
# Static dielectric constant tensor:
#      x y z
#    x 2.162190 0.000000 -0.000920 
#    y 0.000000 2.109190 0.000000 
#    z -0.000920 0.000000 2.182330 
# 
# From -- ./inp_files/3901.got.cif
#   From: 2010.05.17/outbox.cif.g08.bks.cpg/sg3_2_cif.got.tgz:3901.got - 2010.06.03 18:33:08.
