data_PCOD9112373
_publ_section_title
;
Structure prediction by ZEFSAII (Michael W. Deem and Ramdas Pophale) SiO2 
 PCOD9112373
Probable space group: P -1
;
_chemical_formula_sum "Si O2"
_cell_formula_units_Z 14
_cell_length_a 8.904451
_cell_length_b 8.214271
_cell_length_c 18.826724
_cell_angle_alpha 132.098073
_cell_angle_beta 37.431618
_cell_angle_gamma 114.768154
_cell_volume 601.092738
_symmetry_space_group_name_H-M "P -1"
_symmetry_group_IT_number 2
_symmetry_cell_setting 'triclinic'
loop_
_space_group_symop_operation_xyz
x,y,z
-x,-y,-z
loop_
_atom_site_type_symbol
_atom_site_label
_atom_site_fract_x
_atom_site_fract_y
_atom_site_fract_z
Si Si1 0.123599 0.929051 0.632828
Si Si2 0.187741 0.939027 0.844482
Si Si3 0.588509 0.748767 0.926831
Si Si4 0.380135 0.896078 0.194428
Si Si5 0.933089 0.291037 0.926218
Si Si6 0.174714 0.589372 0.635690
Si Si7 0.908655 0.862501 0.431353
O O1 0.243964 0.722246 0.579697
O O2 0.841418 0.911067 0.705846
O O3 0.064125 0.165906 0.768989
O O4 0.246701 0.975260 0.525143
O O5 0.242912 0.692311 0.714968
O O6 0.445634 0.010707 0.789001
O O7 0.022965 0.090019 0.889382
O O8 0.000000 0.000000 0.000000
O O9 0.868552 0.648750 0.765352
O O10 0.565978 0.770503 0.026608
O O11 0.367915 0.634377 0.952252
O O12 0.500000 0.000000 0.000000
O O13 0.188432 0.757344 0.258654
O O14 0.000000 0.500000 0.000000
O O15 0.236088 0.318857 0.540302
O O16 0.000000 0.000000 0.500000
#
# Coordination Sequence:
#
# PCOD9112373 Si02
#       7
#     2   2   2   2   2   2   2
#     4   8  20  39  54  82 117 145 194 231 279 345
#     4  11  20  31  52  91 119 149 182 220 298 355
#     4  11  16  35  51  83 120 151 177 222 292 363
#     4   9  19  35  55  81 122 140 188 243 270 349
#     4  10  21  29  50  80 122 150 169 225 283 348
#     4  11  21  35  62  83 118 156 181 238 296 344
#     4  10  23  41  61  81 107 156 212 242 273 326
#
# _framework density 23.290917
#
# number of rings (size 3 to 8) (size 9 to 14) (size 15 to 20)
#    0.857    1.143    5.714    0.000    4.000    1.143 
#    0.000    0.714    0.000    3.429    0.000    0.000 
#    0.000    0.000    0.000    0.000    0.000    0.000 
#
# Total GULP energy -78027.739539 kJ/mol
# GULP energy per Si atom -5573.409967 kJ/mol
# Density = 2.323791 g / cm^3
# Si number density = 23.290917 Si / 1000 Ang^3
#
#
#
# Elastic Constant Matrix: (Units=GPa)
#
#
# Indices 1 2 3 4 5 6 
#
# 1 123.5574 36.7021 35.4175 9.9967 22.2042 15.8197
# 2 36.7021 114.2787 37.8548 11.6776 21.7967 0.2449
# 3 35.4175 37.8548 53.8666 -4.4992 15.5308 -13.5629
# 4 9.9967 11.6776 -4.4992 18.2466 9.0008 10.9064
# 5 22.2042 21.7967 15.5308 9.0008 45.6954 -5.8002
# 6 15.8197 0.2449 -13.5629 10.9064 -5.8002 42.3416
#
#
#
# Elastic Compliance Matrix: (Units=1/GPa)
#
#
# Indices 1 2 3 4 5 6 
#
# 1 0.012586 0.000084 -0.009542 -0.003348 -0.003184 -0.007333
# 2 0.000084 0.013324 -0.010176 -0.009977 -0.001093 -0.000948
# 3 -0.009542 -0.010176 0.037637 0.017447 -0.005412 0.010444
# 4 -0.003348 -0.009977 0.017447 0.087723 -0.019149 -0.018322
# 5 -0.003184 -0.001093 -0.005412 -0.019149 0.030655 0.008594
# 6 -0.007333 -0.000948 0.010444 -0.018322 0.008594 0.035605
#
#
# Mechanical properties :
#
#
# Convention : Reuss Voigt Hill
#
# Bulk Modulus (GPa) = 41.18771 56.85016 49.01894
# Shear Modulus (GPa) = 18.87579 33.37195 26.12387
#
# Velocity S-wave (km/s) = 2.84990 3.78938 3.35271
# Velocity P-wave (km/s) = 5.34338 6.60361 6.00663
#
# Compressibility (1/GPa) = 0.02427909
#
# Stress axis : x y z
#
# Youngs Moduli (GPa) = 79.45575 75.05126 26.56982
#
# Poissons Ratio (x) = -0.00629 0.25353
# Poissons Ratio (y) = -0.00666 0.27036
# Poissons Ratio (z) = 0.75817 0.76368
#
# Static dielectric constant tensor:
#      x y z
#    x 1.929480 -0.019490 -0.001260 
#    y -0.019490 2.028610 0.040330 
#    z -0.001260 0.040330 1.969140 
# 
# From -- ./inp_files/351681.got.cif
#   From: 2010.05.17/outbox.cif.g08.bks.cpg/sg2_176_cif.got.tgz:351681.got - 2010.06.03 11:33:40.
