data_PCOD9112499
_publ_section_title
;
Structure prediction by ZEFSAII (Michael W. Deem and Ramdas Pophale) SiO2 
 PCOD9112499
Probable space group: P 2
;
_chemical_formula_sum "Si O2"
_cell_formula_units_Z 14
_cell_length_a 8.994372
_cell_length_b 7.093715
_cell_length_c 13.953547
_cell_angle_alpha 90.000000
_cell_angle_beta 138.854427
_cell_angle_gamma 90.000000
_cell_volume 585.784953
_symmetry_space_group_name_H-M "P 2"
_symmetry_group_IT_number 3
_symmetry_cell_setting 'monoclinic'
loop_
_space_group_symop_operation_xyz
x,y,z
-x,y,-z
loop_
_atom_site_type_symbol
_atom_site_label
_atom_site_fract_x
_atom_site_fract_y
_atom_site_fract_z
Si Si1 0.122912 0.051920 0.160411
Si Si2 0.243932 0.997253 0.863508
Si Si3 0.062631 0.602102 0.772136
Si Si4 0.966146 0.271592 0.370532
Si Si5 0.647955 0.649147 0.671035
Si Si6 0.571742 0.130722 0.427493
Si Si7 0.214776 0.754124 0.535924
O O1 0.339738 0.189739 0.264986
O O2 0.932820 0.087456 0.147547
O O3 0.244426 0.854485 0.249511
O O4 0.000000 0.037590 0.000000
O O5 0.155049 0.077076 0.718444
O O6 0.232213 0.771871 0.878619
O O7 0.500000 0.058693 0.000000
O O8 0.154476 0.434128 0.750515
O O9 0.886529 0.540534 0.769786
O O10 0.897420 0.716019 0.620693
O O11 0.000000 0.726434 0.500000
O O12 0.225347 0.274938 0.459816
O O13 0.000000 0.300098 0.500000
O O14 0.500000 0.636641 0.500000
O O15 0.445988 0.629396 0.652573
O O16 0.500000 0.072804 0.500000
O O17 0.690058 0.966007 0.423603
#
# Coordination Sequence:
#
# PCOD9112499 Si02
#       7
#     2   2   2   2   2   2   2
#     4  10  20  36  63  97 131 179 238 276 333 427
#     4  11  25  45  70  96 142 193 224 287 368 415
#     4  10  21  41  63  94 132 177 229 280 349 414
#     4  12  26  41  69 108 137 175 241 298 354 420
#     4   8  17  35  59  88 129 175 221 279 339 405
#     4  11  20  39  63  93 135 183 228 287 347 414
#     4  10  17  30  59  92 130 163 216 281 334 396
#
# _framework density 23.899554999999999
#
# number of rings (size 3 to 8) (size 9 to 14) (size 15 to 20)
#    0.000    1.714    2.857    4.286    2.000    4.000 
#    0.000    0.000    0.000    3.429    0.000    0.000 
#    0.000    0.000    0.000    0.000    0.000    0.000 
#
# Total GULP energy -77934.436727 kJ/mol
# GULP energy per Si atom -5566.745481 kJ/mol
# Density = 2.384516 g / cm^3
# Si number density = 23.899555 Si / 1000 Ang^3
#
#
#
# Elastic Constant Matrix: (Units=GPa)
#
#
# Indices 1 2 3 4 5 6 
#
# 1 176.8455 17.8692 43.9691 0.0000 14.0811 0.0000
# 2 17.8692 78.6922 4.5838 0.0000 2.2337 0.0000
# 3 43.9691 4.5838 98.1410 0.0000 15.3914 0.0000
# 4 0.0000 0.0000 0.0000 8.7590 0.0000 0.0690
# 5 14.0811 2.2337 15.3914 0.0000 42.9706 0.0000
# 6 0.0000 0.0000 0.0000 0.0690 0.0000 21.4153
#
#
#
# Elastic Compliance Matrix: (Units=1/GPa)
#
#
# Indices 1 2 3 4 5 6 
#
# 1 0.006545 -0.001298 -0.002697 0.000000 -0.001111 0.000000
# 2 -0.001298 0.013009 0.000014 0.000000 -0.000256 0.000000
# 3 -0.002697 0.000014 0.011929 0.000000 -0.003390 0.000000
# 4 0.000000 0.000000 0.000000 0.114171 0.000000 -0.000368
# 5 -0.001111 -0.000256 -0.003390 0.000000 0.024863 0.000000
# 6 0.000000 0.000000 0.000000 -0.000368 0.000000 0.046697
#
#
# Mechanical properties :
#
#
# Convention : Reuss Voigt Hill
#
# Bulk Modulus (GPa) = 42.51616 54.05810 48.28713
# Shear Modulus (GPa) = 21.45777 33.77942 27.61860
#
# Velocity S-wave (km/s) = 2.99963 3.76359 3.40312
# Velocity P-wave (km/s) = 5.46125 6.44625 5.97408
#
# Compressibility (1/GPa) = 0.02352047
#
# Stress axis : x y z
#
# Youngs Moduli (GPa) = 152.79118 76.87082 83.83048
#
# Poissons Ratio (x) = 0.09974 0.22612
# Poissons Ratio (y) = 0.19825 -0.00116
# Poissons Ratio (z) = 0.41214 -0.00107
#
# Static dielectric constant tensor:
#      x y z
#    x 2.054960 0.000000 -0.009820 
#    y 0.000000 2.061830 0.000000 
#    z -0.009820 0.000000 1.884890 
# 
# From -- ./inp_files/10791.got.cif
#   From: 2010.05.17/outbox.cif.g08.bks.cpg/sg3_6_cif.got.tgz:10791.got - 2010.06.03 18:33:08.
