data_PCOD9112141
_publ_section_title
;
Structure prediction by ZEFSAII (Michael W. Deem and Ramdas Pophale) SiO2 
 PCOD9112141
Probable space group: P -1
;
_chemical_formula_sum "Si O2"
_cell_formula_units_Z 10
_cell_length_a 7.314204
_cell_length_b 9.726958
_cell_length_c 9.422117
_cell_angle_alpha 99.839377
_cell_angle_beta 88.625464
_cell_angle_gamma 47.568564
_cell_volume 478.462521
_symmetry_space_group_name_H-M "P -1"
_symmetry_group_IT_number 2
_symmetry_cell_setting 'triclinic'
loop_
_space_group_symop_operation_xyz
x,y,z
-x,-y,-z
loop_
_atom_site_type_symbol
_atom_site_label
_atom_site_fract_x
_atom_site_fract_y
_atom_site_fract_z
Si Si1 0.992669 0.922727 0.632785
Si Si2 0.040201 0.865416 0.099066
Si Si3 0.516416 0.715179 0.191313
Si Si4 0.747218 0.773118 0.958380
Si Si5 0.063180 0.572688 0.639718
O O1 0.112852 0.974593 0.745790
O O2 0.700677 0.061716 0.714909
O O3 0.000000 0.000000 0.500000
O O4 0.095678 0.712936 0.603562
O O5 0.322577 0.704077 0.128017
O O6 0.952226 0.765733 0.025321
O O7 0.000000 0.000000 0.000000
O O8 0.686776 0.591313 0.301091
O O9 0.681262 0.685997 0.053887
O O10 0.844670 0.682125 0.784599
O O11 0.500000 0.000000 0.000000
O O12 0.000000 0.500000 0.500000
#
# Coordination Sequence:
#
# PCOD9112141 Si02
#       5
#     2   2   2   2   2
#     4  10  24  47  67 102 145 187 230 284 360 410
#     4  10  20  44  71  98 135 186 237 277 343 420
#     4  10  25  45  71 104 136 188 234 292 343 417
#     4  12  21  46  76 100 136 189 235 287 348 416
#     4  12  27  44  70 111 142 182 237 290 358 416
#
# _framework density 20.900278
#
# number of rings (size 3 to 8) (size 9 to 14) (size 15 to 20)
#    1.200    0.000    6.000    0.600    2.800    4.000 
#    0.000    0.000    0.000    0.000    0.000    0.000 
#    0.000    0.000    0.000    0.000    0.000    0.000 
#
# Total GULP energy -55699.456617 kJ/mol
# GULP energy per Si atom -5569.945662 kJ/mol
# Density = 2.085271 g / cm^3
# Si number density = 20.900278 Si / 1000 Ang^3
#
#
#
# Elastic Constant Matrix: (Units=GPa)
#
#
# Indices 1 2 3 4 5 6 
#
# 1 95.1652 24.9685 50.6834 -0.7203 21.4505 -1.9393
# 2 24.9685 96.8041 35.8041 -5.8066 21.1712 -5.0957
# 3 50.6834 35.8041 171.8800 -5.7946 27.7448 12.3968
# 4 -0.7203 -5.8066 -5.7946 35.8705 2.0732 3.1272
# 5 21.4505 21.1712 27.7448 2.0732 25.6532 -11.3927
# 6 -1.9393 -5.0957 12.3968 3.1272 -11.3927 37.6860
#
#
#
# Elastic Compliance Matrix: (Units=1/GPa)
#
#
# Indices 1 2 3 4 5 6 
#
# 1 0.014019 -0.000781 -0.002375 0.000424 -0.009170 -0.001410
# 2 -0.000781 0.013115 -0.000644 0.002722 -0.010316 -0.001399
# 3 -0.002375 -0.000644 0.008807 0.002402 -0.010014 -0.006333
# 4 0.000424 0.002722 0.002402 0.029829 -0.010264 -0.005978
# 5 -0.009170 -0.010316 -0.010014 -0.010264 0.078354 0.025966
# 6 -0.001410 -0.001399 -0.006333 -0.005978 0.025966 0.036702
#
#
# Mechanical properties :
#
#
# Convention : Reuss Voigt Hill
#
# Bulk Modulus (GPa) = 35.28375 65.19572 50.23973
# Shear Modulus (GPa) = 25.26868 36.66816 30.96842
#
# Velocity S-wave (km/s) = 3.48086 4.19314 3.85349
# Velocity P-wave (km/s) = 5.75098 7.39626 6.62489
#
# Compressibility (1/GPa) = 0.02834166
#
# Stress axis : x y z
#
# Youngs Moduli (GPa) = 71.33048 76.24623 113.55101
#
# Poissons Ratio (x) = 0.05953 0.26969
# Poissons Ratio (y) = 0.05570 0.07312
# Poissons Ratio (z) = 0.16942 0.04910
#
# Static dielectric constant tensor:
#      x y z
#    x 1.776320 -0.031530 -0.043330 
#    y -0.031530 1.767770 0.118950 
#    z -0.043330 0.118950 1.517550 
# 
# From -- ./inp_files/152152.got.cif
#   From: 2010.05.17/outbox.cif.g08.bks.cpg/sg2_77_cif.got.tgz:152152.got - 2010.06.03 11:33:40.
