data_PCOD9112838
_publ_section_title
;
Structure prediction by ZEFSAII (Michael W. Deem and Ramdas Pophale) SiO2 
 PCOD9112838
Probable space group: P 2
;
_chemical_formula_sum "Si O2"
_cell_formula_units_Z 16
_cell_length_a 10.620254
_cell_length_b 11.365098
_cell_length_c 7.523408
_cell_angle_alpha 90.000000
_cell_angle_beta 128.714700
_cell_angle_gamma 90.000000
_cell_volume 708.545256
_symmetry_space_group_name_H-M "P 2"
_symmetry_group_IT_number 3
_symmetry_cell_setting 'monoclinic'
loop_
_space_group_symop_operation_xyz
x,y,z
-x,y,-z
loop_
_atom_site_type_symbol
_atom_site_label
_atom_site_fract_x
_atom_site_fract_y
_atom_site_fract_z
Si Si1 0.810168 0.920310 0.803150
Si Si2 0.311995 0.341272 0.700588
Si Si3 0.377936 0.878452 0.031576
Si Si4 0.191861 0.662869 0.703576
Si Si5 0.345106 0.454231 0.066617
Si Si6 0.378809 0.710834 0.531750
Si Si7 0.334197 0.140889 0.462368
Si Si8 0.831965 0.367874 0.769976
O O1 0.747358 0.792777 0.685763
O O2 0.748040 0.014571 0.604809
O O3 0.718432 0.951374 0.906536
O O4 0.000000 0.921608 0.000000
O O5 0.269793 0.354606 0.868007
O O6 0.354710 0.211251 0.665810
O O7 0.174266 0.385553 0.445954
O O8 0.466807 0.423404 0.792454
O O9 0.248924 0.792483 0.820721
O O10 0.500000 0.938839 0.000000
O O11 0.500122 0.795556 0.251353
O O12 0.272093 0.572817 0.916459
O O13 0.280225 0.642921 0.593268
O O14 0.000000 0.655046 0.500000
O O15 0.296465 0.437251 0.225801
O O16 0.500000 0.649668 0.500000
O O17 0.500000 0.135036 0.500000
O O18 0.215803 0.230690 0.253381
O O19 0.000000 0.398761 0.000000
#
# Coordination Sequence:
#
# PCOD9112838 Si02
#       8
#     2   2   2   2   2   2   2   2
#     4  11  21  38  68  95 128 171 210 270 336 380
#     4   9  22  40  66  92 124 168 222 270 315 395
#     4   9  20  40  61  92 126 170 213 262 316 395
#     4  11  24  39  63  95 135 167 217 280 325 384
#     4  11  22  42  66  91 128 179 216 263 335 386
#     4   9  20  41  62  90 126 168 217 265 315 398
#     4  10  19  40  62  92 124 166 220 261 322 397
#     4  10  21  40  61  93 134 162 217 281 326 384
#
# _framework density 22.581481
#
# number of rings (size 3 to 8) (size 9 to 14) (size 15 to 20)
#    0.750    1.250    1.250    2.625    7.000    0.000 
#    4.500    5.000    2.750    0.000    0.000    0.000 
#    0.000    0.000    0.000    0.000    0.000    0.000 
#
# Total GULP energy -89238.129700 kJ/mol
# GULP energy per Si atom -5577.383106 kJ/mol
# Density = 2.253008 g / cm^3
# Si number density = 22.581481 Si / 1000 Ang^3
#
#
#
# Elastic Constant Matrix: (Units=GPa)
#
#
# Indices 1 2 3 4 5 6 
#
# 1 82.3347 9.1480 11.8643 0.0000 3.5963 0.0000
# 2 9.1480 69.7936 12.1617 0.0000 7.3643 0.0000
# 3 11.8643 12.1617 84.2715 0.0000 11.6679 0.0000
# 4 0.0000 0.0000 0.0000 41.7478 0.0000 -7.5042
# 5 3.5963 7.3643 11.6679 0.0000 39.4018 0.0000
# 6 0.0000 0.0000 0.0000 -7.5042 0.0000 28.3166
#
#
#
# Elastic Compliance Matrix: (Units=1/GPa)
#
#
# Indices 1 2 3 4 5 6 
#
# 1 0.012531 -0.001332 -0.001510 0.000000 -0.000448 0.000000
# 2 -0.001332 0.015026 -0.001678 0.000000 -0.002190 0.000000
# 3 -0.001510 -0.001678 0.012783 0.000000 -0.003334 0.000000
# 4 0.000000 0.000000 0.000000 0.025151 0.000000 0.006665
# 5 -0.000448 -0.002190 -0.003334 0.000000 0.026817 0.000000
# 6 0.000000 0.000000 0.000000 0.006665 0.000000 0.037081
#
#
# Mechanical properties :
#
#
# Convention : Reuss Voigt Hill
#
# Bulk Modulus (GPa) = 31.94900 33.63865 32.79382
# Shear Modulus (GPa) = 33.58815 35.44162 34.51488
#
# Velocity S-wave (km/s) = 3.86089 3.96599 3.91379
# Velocity P-wave (km/s) = 5.83561 5.99174 5.91419
#
# Compressibility (1/GPa) = 0.03129988
#
# Stress axis : x y z
#
# Youngs Moduli (GPa) = 79.80410 66.55135 78.23070
#
# Poissons Ratio (x) = 0.08865 0.11812
# Poissons Ratio (y) = 0.10631 0.13125
# Poissons Ratio (z) = 0.12050 0.11165
#
# Static dielectric constant tensor:
#      x y z
#    x 1.850120 0.000000 -0.025670 
#    y 0.000000 1.856800 0.000000 
#    z -0.025670 0.000000 1.852080 
# 
# From -- ./inp_files/7776.got.cif
#   From: 2010.05.17/outbox.cif.g08.bks.cpg/sg3_4_cif.got.tgz:7776.got - 2010.06.03 18:33:08.
