data_PCOD9112562
_publ_section_title
;
Structure prediction by ZEFSAII (Michael W. Deem and Ramdas Pophale) SiO2 
 PCOD9112562
Probable space group: P 2
;
_chemical_formula_sum "Si O2"
_cell_formula_units_Z 16
_cell_length_a 16.863185
_cell_length_b 5.384832
_cell_length_c 8.962087
_cell_angle_alpha 90.000000
_cell_angle_beta 63.506524
_cell_angle_gamma 90.000000
_cell_volume 728.344347
_symmetry_space_group_name_H-M "P 2"
_symmetry_group_IT_number 3
_symmetry_cell_setting 'monoclinic'
loop_
_space_group_symop_operation_xyz
x,y,z
-x,y,-z
loop_
_atom_site_type_symbol
_atom_site_label
_atom_site_fract_x
_atom_site_fract_y
_atom_site_fract_z
Si Si1 0.385948 0.477000 0.986838
Si Si2 0.980430 0.629355 0.838108
Si Si3 0.242236 0.359538 0.660483
Si Si4 0.947961 0.126788 0.201802
Si Si5 0.619233 0.313149 0.668152
Si Si6 0.636836 0.081224 0.230026
Si Si7 0.776537 0.701789 0.042779
Si Si8 0.483682 0.795763 0.294217
O O1 0.408882 0.256846 0.852428
O O2 0.287283 0.547490 0.013334
O O3 0.451088 0.707575 0.898120
O O4 0.390794 0.379361 0.148785
O O5 0.007972 0.361745 0.752914
O O6 0.877499 0.693659 0.908640
O O7 0.038614 0.860444 0.734212
O O8 0.000000 0.602789 0.000000
O O9 0.153331 0.198277 0.742679
O O10 0.277894 0.367539 0.462754
O O11 0.328367 0.230722 0.659994
O O12 0.226865 0.591594 0.784566
O O13 0.000000 0.101174 0.000000
O O14 0.567959 0.541883 0.629171
O O15 0.581811 0.030832 0.677496
O O16 0.726816 0.963677 0.089518
O O17 0.564377 0.878670 0.334718
#
# Coordination Sequence:
#
# PCOD9112562 Si02
#       8
#     2   2   2   2   2   2   2   2
#     4  10  24  43  68  92 123 176 225 264 308 388
#     4  10  18  32  60  95 118 161 208 248 306 373
#     4  11  24  42  61 102 137 162 209 270 340 374
#     4  10  19  34  61  91 123 166 202 250 302 396
#     4  12  28  42  68  94 128 176 214 276 321 377
#     4  10  22  42  65  92 129 167 215 267 317 384
#     4  10  21  39  66  99 131 163 214 271 317 386
#     4  11  25  45  64  90 125 173 224 259 313 385
#
# _framework density 21.967628000000001
#
# number of rings (size 3 to 8) (size 9 to 14) (size 15 to 20)
#    0.000    1.500    3.750    1.875    8.750    0.500 
#    4.500    0.000    0.000    0.750    0.000    0.000 
#    0.000    0.000    0.000    0.000    0.000    0.000 
#
# Total GULP energy -89194.067499 kJ/mol
# GULP energy per Si atom -5574.629219 kJ/mol
# Density = 2.191763 g / cm^3
# Si number density = 21.967628 Si / 1000 Ang^3
#
#
#
# Elastic Constant Matrix: (Units=GPa)
#
#
# Indices 1 2 3 4 5 6 
#
# 1 72.5161 14.5621 19.1036 0.0000 -20.2264 0.0000
# 2 14.5621 119.1318 8.9283 0.0000 4.0039 0.0000
# 3 19.1036 8.9283 55.7691 0.0000 -14.6836 0.0000
# 4 0.0000 0.0000 0.0000 14.0820 0.0000 -5.3463
# 5 -20.2264 4.0039 -14.6836 0.0000 16.8176 0.0000
# 6 0.0000 0.0000 0.0000 -5.3463 0.0000 31.6979
#
#
#
# Elastic Compliance Matrix: (Units=1/GPa)
#
#
# Indices 1 2 3 4 5 6 
#
# 1 0.022220 -0.003677 0.000317 0.000000 0.027876 0.000000
# 2 -0.003677 0.009336 -0.002577 0.000000 -0.008894 0.000000
# 3 0.000317 -0.002577 0.024018 0.000000 0.021965 0.000000
# 4 0.000000 0.000000 0.000000 0.075871 0.000000 0.012797
# 5 0.027876 -0.008894 0.021965 0.000000 0.114283 0.000000
# 6 0.000000 0.000000 0.000000 0.012797 0.000000 0.033706
#
#
# Mechanical properties :
#
#
# Convention : Reuss Voigt Hill
#
# Bulk Modulus (GPa) = 22.88327 36.95612 29.91969
# Shear Modulus (GPa) = 16.34652 26.17436 21.26044
#
# Velocity S-wave (km/s) = 2.73081 3.45555 3.11434
# Velocity P-wave (km/s) = 4.51470 5.72544 5.15573
#
# Compressibility (1/GPa) = 0.04370005
#
# Stress axis : x y z
#
# Youngs Moduli (GPa) = 45.00422 107.11748 41.63476
#
# Poissons Ratio (x) = 0.39384 -0.01318
# Poissons Ratio (y) = 0.16547 0.10729
# Poissons Ratio (z) = -0.01425 0.27604
#
# Static dielectric constant tensor:
#      x y z
#    x 1.819270 0.000000 0.035340 
#    y 0.000000 1.896030 0.000000 
#    z 0.035340 0.000000 1.891970 
# 
# From -- ./inp_files/8892.got.cif
#   From: 2010.05.17/outbox.cif.g08.bks.cpg/sg3_5_cif.got.tgz:8892.got - 2010.06.03 18:33:08.
