data_PCOD9112025
_publ_section_title
;
Structure prediction by ZEFSAII (Michael W. Deem and Ramdas Pophale) SiO2 
 PCOD9112025
Probable space group: P -1
;
_chemical_formula_sum "Si O2"
_cell_formula_units_Z 16
_cell_length_a 16.091664
_cell_length_b 12.491951
_cell_length_c 24.428417
_cell_angle_alpha 158.478764
_cell_angle_beta 21.882142
_cell_angle_gamma 156.140340
_cell_volume 622.364300
_symmetry_space_group_name_H-M "P -1"
_symmetry_group_IT_number 2
_symmetry_cell_setting 'triclinic'
loop_
_space_group_symop_operation_xyz
x,y,z
-x,-y,-z
loop_
_atom_site_type_symbol
_atom_site_label
_atom_site_fract_x
_atom_site_fract_y
_atom_site_fract_z
Si Si1 0.775736 0.781030 0.904466
Si Si2 0.256568 0.221146 0.342693
Si Si3 0.772116 0.284610 0.222524
Si Si4 0.845297 0.325484 0.460296
Si Si5 0.260972 0.304692 0.734384
Si Si6 0.777783 0.234868 0.934785
Si Si7 0.752225 0.966171 0.576934
Si Si8 0.248335 0.546655 0.117997
O O1 0.765884 0.609072 0.887130
O O2 0.978941 0.755692 0.728739
O O3 0.506683 0.610229 0.963672
O O4 0.803436 0.134580 0.073951
O O5 0.262215 0.439573 0.389810
O O6 0.519207 0.426228 0.303284
O O7 0.207771 0.863210 0.183532
O O8 0.008860 0.200859 0.511006
O O9 0.751743 0.623052 0.402132
O O10 0.507668 0.053610 0.296050
O O11 0.010163 0.324722 0.128818
O O12 0.000000 0.500000 0.500000
O O13 0.674704 0.995540 0.433867
O O14 0.009625 0.193887 0.802077
O O15 0.217910 0.456852 0.889862
O O16 0.500000 0.000000 0.000000
O O17 0.752375 0.102213 0.702632
#
# Coordination Sequence:
#
# PCOD9112025 Si02
#       8
#     2   2   2   2   2   2   2   2
#     4  10  23  42  65  96 131 169 220 275 322 400
#     4  11  22  42  62  95 131 176 214 273 323 392
#     4  10  22  42  68  98 129 170 214 275 333 396
#     4  12  24  45  65  95 136 178 224 276 326 389
#     4  10  22  41  64  90 127 175 220 267 324 383
#     4   9  20  41  64  86 125 169 217 270 315 379
#     4  10  22  40  66  99 136 159 219 271 329 401
#     4  10  20  44  67  96 131 167 216 268 340 389
#
# _framework density 25.708417000000001
#
# number of rings (size 3 to 8) (size 9 to 14) (size 15 to 20)
#    0.000    1.750    2.500    1.125    1.750    1.000 
#   11.250    0.000    0.000    0.000    0.000    0.000 
#    0.000    0.000    0.000    0.000    0.000    0.000 
#
# Total GULP energy -89247.957076 kJ/mol
# GULP energy per Si atom -5577.997317 kJ/mol
# Density = 2.564990 g / cm^3
# Si number density = 25.708417 Si / 1000 Ang^3
#
#
#
# Elastic Constant Matrix: (Units=GPa)
#
#
# Indices 1 2 3 4 5 6 
#
# 1 65.9691 49.5505 14.6142 -10.6514 -15.7654 28.7424
# 2 49.5505 161.9756 44.4038 -15.5780 -4.9016 33.4060
# 3 14.6142 44.4038 103.8611 1.0800 4.5278 9.7798
# 4 -10.6514 -15.5780 1.0800 63.8069 0.6298 -7.5181
# 5 -15.7654 -4.9016 4.5278 0.6298 37.9538 -3.8859
# 6 28.7424 33.4060 9.7798 -7.5181 -3.8859 49.0115
#
#
#
# Elastic Compliance Matrix: (Units=1/GPa)
#
#
# Indices 1 2 3 4 5 6 
#
# 1 0.026457 -0.005157 -0.000925 0.001809 0.009298 -0.010801
# 2 -0.005157 0.009157 -0.002924 0.001135 -0.000889 -0.002530
# 3 -0.000925 -0.002924 0.011110 -0.001036 -0.002071 -0.000005
# 4 0.001809 0.001135 -0.001036 0.016373 0.000847 0.000951
# 5 0.009298 -0.000889 -0.002071 0.000847 0.030132 -0.001915
# 6 -0.010801 -0.002530 -0.000005 0.000951 -0.001915 0.028457
#
#
# Mechanical properties :
#
#
# Convention : Reuss Voigt Hill
#
# Bulk Modulus (GPa) = 34.82865 60.99365 47.91115
# Shear Modulus (GPa) = 33.49644 45.03693 39.26668
#
# Velocity S-wave (km/s) = 3.61354 4.19003 3.91242
# Velocity P-wave (km/s) = 5.56661 6.86915 6.25189
#
# Compressibility (1/GPa) = 0.02871200
#
# Stress axis : x y z
#
# Youngs Moduli (GPa) = 37.79662 109.20575 90.00883
#
# Poissons Ratio (x) = 0.56318 0.08327
# Poissons Ratio (y) = 0.19492 0.26319
# Poissons Ratio (z) = 0.03497 0.31933
#
# Static dielectric constant tensor:
#      x y z
#    x 2.149310 -0.017230 -0.077620 
#    y -0.017230 2.145800 -0.018130 
#    z -0.077620 -0.018130 2.058690 
# 
# From -- ./inp_files/620486.got.cif
#   From: 2010.05.17/outbox.cif.g08.bks.cpg/sg2_311_cif.got.tgz:620486.got - 2010.06.03 11:33:40.
