data_PCOD9112549
_publ_section_title
;
Structure prediction by ZEFSAII (Michael W. Deem and Ramdas Pophale) SiO2 
 PCOD9112549
Probable space group: P 2
;
_chemical_formula_sum "Si O2"
_cell_formula_units_Z 12
_cell_length_a 6.960196
_cell_length_b 7.513940
_cell_length_c 9.579601
_cell_angle_alpha 90.000000
_cell_angle_beta 118.954395
_cell_angle_gamma 90.000000
_cell_volume 438.376541
_symmetry_space_group_name_H-M "P 2"
_symmetry_group_IT_number 3
_symmetry_cell_setting 'monoclinic'
loop_
_space_group_symop_operation_xyz
x,y,z
-x,y,-z
loop_
_atom_site_type_symbol
_atom_site_label
_atom_site_fract_x
_atom_site_fract_y
_atom_site_fract_z
Si Si1 0.399579 0.115080 0.828869
Si Si2 0.776252 0.172831 0.496632
Si Si3 0.801960 0.745695 0.533334
Si Si4 0.990388 0.200834 0.835458
Si Si5 0.874605 0.607385 0.131790
Si Si6 0.524538 0.718581 0.805574
O O1 0.390797 0.225606 0.684555
O O2 0.154009 0.077533 0.800530
O O3 0.518503 0.931274 0.835244
O O4 0.500000 0.204823 0.000000
O O5 0.000000 0.236744 0.500000
O O6 0.779048 0.218586 0.659733
O O7 0.772838 0.957898 0.502224
O O8 0.572825 0.678942 0.383203
O O9 0.000000 0.688114 0.500000
O O10 0.910826 0.698881 0.720581
O O11 0.079620 0.399687 0.862993
O O12 0.000000 0.141969 0.000000
O O13 0.670240 0.643725 0.164542
O O14 0.761422 0.659099 0.944478
#
# Coordination Sequence:
#
# PCOD9112549 Si02
#       6
#     2   2   2   2   2   2
#     4  10  19  37  66  92 110 148 212 266 288 347
#     4   8  17  34  58  86 111 149 207 247 290 350
#     4   8  15  30  55  84 111 145 193 260 299 331
#     4  11  24  38  53  90 132 165 193 236 319 381
#     4  10  18  32  53  82 120 154 190 241 298 357
#     4   9  18  33  59  92 110 138 211 265 290 334
#
# _framework density 27.373725
#
# number of rings (size 3 to 8) (size 9 to 14) (size 15 to 20)
#    0.000    2.667    1.667    3.000    2.333    6.000 
#    0.000    4.167    0.000    0.000    0.000    0.000 
#    0.000    0.000    0.000    0.000    0.000    0.000 
#
# Total GULP energy -66955.758920 kJ/mol
# GULP energy per Si atom -5579.646577 kJ/mol
# Density = 2.731142 g / cm^3
# Si number density = 27.373725 Si / 1000 Ang^3
#
#
#
# Elastic Constant Matrix: (Units=GPa)
#
#
# Indices 1 2 3 4 5 6 
#
# 1 92.0581 6.1460 80.8994 0.0000 13.5310 0.0000
# 2 6.1460 66.2771 21.1213 0.0000 20.1475 0.0000
# 3 80.8994 21.1213 366.0335 0.0000 33.2888 0.0000
# 4 0.0000 0.0000 0.0000 -101.1821 0.0000 -250.9032
# 5 13.5310 20.1475 33.2888 0.0000 57.9551 0.0000
# 6 0.0000 0.0000 0.0000 -250.9032 0.0000 -525.9886
#
#
#
# Elastic Compliance Matrix: (Units=1/GPa)
#
#
# Indices 1 2 3 4 5 6 
#
# 1 0.013609 0.000132 -0.002872 0.000000 -0.001573 0.000000
# 2 0.000132 0.016947 -0.000494 0.000000 -0.005638 0.000000
# 3 -0.002872 -0.000494 0.003502 0.000000 -0.001169 0.000000
# 4 0.000000 0.000000 0.000000 0.054048 0.000000 -0.025782
# 5 -0.001573 -0.005638 -0.001169 0.000000 0.020254 0.000000
# 6 0.000000 0.000000 0.000000 -0.025782 0.000000 0.010397
#
#
# Mechanical properties :
#
#
# Convention : Reuss Voigt Hill
#
# Bulk Modulus (GPa) = 36.24694 82.30023 59.27359
# Shear Modulus (GPa) = 37.19580 -86.09630 -24.45025
#
# Velocity S-wave (km/s) = 3.69021 -5.61431 -2.99189
# Velocity P-wave (km/s) = 5.60599 3.44914 3.12494
#
# Compressibility (1/GPa) = 0.02758853
#
# Stress axis : x y z
#
# Youngs Moduli (GPa) = 73.47867 59.00576 285.57877
#
# Poissons Ratio (x) = -0.00777 0.82030
# Poissons Ratio (y) = -0.00967 0.14114
# Poissons Ratio (z) = 0.21106 0.02916
#
# Static dielectric constant tensor:
#      x y z
#    x 2.285190 0.000000 0.060420 
#    y 0.000000 2.024160 0.000000 
#    z 0.060420 0.000000 2.722980 
# 
# From -- ./inp_files/5168.got.cif
#   From: 2010.05.17/outbox.cif.g08.bks.cpg/sg3_3_cif.got.tgz:5168.got - 2010.06.03 18:33:08.
