data_PCOD9112094
_publ_section_title
;
Structure prediction by ZEFSAII (Michael W. Deem and Ramdas Pophale) SiO2 
 PCOD9112094
Probable space group: P -1
;
_chemical_formula_sum "Si O2"
_cell_formula_units_Z 16
_cell_length_a 17.148004
_cell_length_b 26.067303
_cell_length_c 14.600977
_cell_angle_alpha 158.947135
_cell_angle_beta 162.532911
_cell_angle_gamma 21.664275
_cell_volume 655.724530
_symmetry_space_group_name_H-M "P -1"
_symmetry_group_IT_number 2
_symmetry_cell_setting 'triclinic'
loop_
_space_group_symop_operation_xyz
x,y,z
-x,-y,-z
loop_
_atom_site_type_symbol
_atom_site_label
_atom_site_fract_x
_atom_site_fract_y
_atom_site_fract_z
Si Si1 0.037312 0.694067 0.787454
Si Si2 0.438850 0.890701 0.390341
Si Si3 0.951628 0.596672 0.730407
Si Si4 0.328701 0.434951 0.271859
Si Si5 0.518939 0.387151 0.108588
Si Si6 0.830853 0.911462 0.220735
Si Si7 0.512340 0.171613 0.908946
Si Si8 0.886153 0.003372 0.631494
O O1 0.939511 0.653359 0.707719
O O2 0.764194 0.789276 0.582085
O O3 0.197530 0.529747 0.645416
O O4 0.162802 0.822419 0.162895
O O5 0.380152 0.959775 0.541414
O O6 0.369514 0.048376 0.521495
O O7 0.302462 0.764709 0.003857
O O8 0.264213 0.493211 0.939160
O O9 0.868971 0.745214 0.947551
O O10 0.500000 0.500000 0.500000
O O11 0.370812 0.493689 0.517675
O O12 0.419333 0.260295 0.048917
O O13 0.000000 0.500000 0.000000
O O14 0.449747 0.295562 0.964632
O O15 0.922794 0.903534 0.416144
O O16 0.000000 0.000000 0.500000
O O17 0.500000 0.000000 0.000000
O O18 0.843665 0.078583 0.138485
#
# Coordination Sequence:
#
# PCOD9112094 Si02
#       8
#     2   2   2   2   2   2   2   2
#     4   9  20  42  67  99 140 176 232 285 356 408
#     4  10  22  41  69 100 138 186 232 290 349 414
#     4  10  20  44  70 100 138 182 229 292 348 418
#     4  10  23  45  68  94 136 180 229 290 342 403
#     4  10  22  44  66 104 136 185 240 282 348 424
#     4  12  26  47  74 105 140 181 239 292 352 428
#     4  10  23  42  69  97 139 184 231 290 345 416
#     4  11  23  42  69 100 141 183 229 291 352 411
#
# _framework density 24.400490000000001
#
# number of rings (size 3 to 8) (size 9 to 14) (size 15 to 20)
#    0.000    1.750    1.250    1.875    5.250    0.500 
#   18.000    3.750    0.000    0.000    0.000    0.000 
#    0.000    0.000    0.000    0.000    0.000    0.000 
#
# Total GULP energy -89202.662782 kJ/mol
# GULP energy per Si atom -5575.166424 kJ/mol
# Density = 2.434495 g / cm^3
# Si number density = 24.400490 Si / 1000 Ang^3
#
#
#
# Elastic Constant Matrix: (Units=GPa)
#
#
# Indices 1 2 3 4 5 6 
#
# 1 63.6648 21.7553 32.4504 14.6438 -23.4969 -10.3581
# 2 21.7553 116.4452 52.5589 28.2378 -2.0507 -9.2283
# 3 32.4504 52.5589 90.3989 32.4792 -26.0810 -15.6003
# 4 14.6438 28.2378 32.4792 64.2461 -9.2745 -16.4999
# 5 -23.4969 -2.0507 -26.0810 -9.2745 46.1640 1.3769
# 6 -10.3581 -9.2283 -15.6003 -16.4999 1.3769 36.4656
#
#
#
# Elastic Compliance Matrix: (Units=1/GPa)
#
#
# Indices 1 2 3 4 5 6 
#
# 1 0.022197 -0.002129 -0.003378 -0.000082 0.009161 0.003938
# 2 -0.002129 0.012778 -0.007554 -0.002457 -0.005232 -0.001517
# 3 -0.003378 -0.007554 0.021602 -0.004487 0.009129 0.003995
# 4 -0.000082 -0.002457 -0.004487 0.020875 0.001304 0.006832
# 5 0.009161 -0.005232 0.009129 0.001304 0.031375 0.004589
# 6 0.003938 -0.001517 0.003995 0.006832 0.004589 0.032785
#
#
# Mechanical properties :
#
#
# Convention : Reuss Voigt Hill
#
# Bulk Modulus (GPa) = 32.83434 53.78204 43.30819
# Shear Modulus (GPa) = 28.10788 40.29143 34.19965
#
# Velocity S-wave (km/s) = 3.39771 4.06797 3.74785
# Velocity P-wave (km/s) = 5.37384 6.64483 6.04284
#
# Compressibility (1/GPa) = 0.03045592
#
# Stress axis : x y z
#
# Youngs Moduli (GPa) = 45.05036 78.25669 46.29262
#
# Poissons Ratio (x) = 0.16661 0.15639
# Poissons Ratio (y) = 0.09591 0.34968
# Poissons Ratio (z) = 0.15219 0.59112
#
# Static dielectric constant tensor:
#      x y z
#    x 2.236940 -0.139450 0.316260 
#    y -0.139450 2.000210 -0.127590 
#    z 0.316260 -0.127590 2.585860 
# 
# From -- ./inp_files/539426.got.cif
#   From: 2010.05.17/outbox.cif.g08.bks.cpg/sg2_270_cif.got.tgz:539426.got - 2010.06.03 11:33:40.
