data_PCOD9112249
_publ_section_title
;
Structure prediction by ZEFSAII (Michael W. Deem and Ramdas Pophale) SiO2 
 PCOD9112249
Probable space group: P -1
;
_chemical_formula_sum "Si O2"
_cell_formula_units_Z 14
_cell_length_a 10.710245
_cell_length_b 12.371530
_cell_length_c 5.301339
_cell_angle_alpha 68.584139
_cell_angle_beta 60.066936
_cell_angle_gamma 70.156770
_cell_volume 555.839960
_symmetry_space_group_name_H-M "P -1"
_symmetry_group_IT_number 2
_symmetry_cell_setting 'triclinic'
loop_
_space_group_symop_operation_xyz
x,y,z
-x,-y,-z
loop_
_atom_site_type_symbol
_atom_site_label
_atom_site_fract_x
_atom_site_fract_y
_atom_site_fract_z
Si Si1 0.664207 0.509931 0.073822
Si Si2 0.445170 0.897599 0.401103
Si Si3 0.119240 0.339895 0.057770
Si Si4 0.935565 0.350915 0.742463
Si Si5 0.741114 0.930581 0.956181
Si Si6 0.200153 0.850530 0.060963
Si Si7 0.411052 0.684109 0.308775
O O1 0.519133 0.605536 0.065861
O O2 0.617444 0.406008 0.371686
O O3 0.752563 0.586221 0.098112
O O4 0.780984 0.443988 0.811840
O O5 0.483892 0.788114 0.259588
O O6 0.342085 0.002480 0.260227
O O7 0.345487 0.853460 0.748970
O O8 0.603418 0.925093 0.287520
O O9 0.028330 0.354102 0.396125
O O10 0.178759 0.200048 0.077171
O O11 0.020676 0.380680 0.878606
O O12 0.909536 0.216057 0.916983
O O13 0.840743 0.018200 0.896561
O O14 0.256738 0.756827 0.304469
#
# Coordination Sequence:
#
# PCOD9112249 Si02
#       7
#     2   2   2   2   2   2   2
#     4  11  23  48  72 103 144 182 238 296 353 419
#     4  10  20  45  69 106 136 173 230 306 365 410
#     4  12  28  48  71 105 144 196 237 285 343 432
#     4  12  28  47  70 101 149 197 239 279 344 419
#     4  10  24  42  73 102 140 178 235 294 366 414
#     4  11  24  43  73 103 141 181 236 297 355 425
#     4  10  22  43  74 107 136 178 233 302 368 408
#
# _framework density 25.187106
#
# number of rings (size 3 to 8) (size 9 to 14) (size 15 to 20)
#    0.000    1.143    2.857    2.143    4.000    4.000 
#    2.571    0.000    0.000    0.000    0.000    0.000 
#    0.000    0.000    0.000    0.000    0.000    0.000 
#
# Total GULP energy -78392.917382 kJ/mol
# GULP energy per Si atom -5599.494099 kJ/mol
# Density = 2.512978 g / cm^3
# Si number density = 25.187106 Si / 1000 Ang^3
#
#
#
# Elastic Constant Matrix: (Units=GPa)
#
#
# Indices 1 2 3 4 5 6 
#
# 1 66.3756 25.7134 11.5218 -6.3787 -5.6561 18.0718
# 2 25.7134 170.3585 9.8342 -10.7475 -2.3390 -6.2173
# 3 11.5218 9.8342 81.3938 0.7430 9.1289 -13.8752
# 4 -6.3787 -10.7475 0.7430 40.6788 9.1247 -12.3337
# 5 -5.6561 -2.3390 9.1289 9.1247 20.1058 -1.9708
# 6 18.0718 -6.2173 -13.8752 -12.3337 -1.9708 52.6408
#
#
#
# Elastic Compliance Matrix: (Units=1/GPa)
#
#
# Indices 1 2 3 4 5 6 
#
# 1 0.019852 -0.003054 -0.004714 -0.001863 0.007374 -0.008579
# 2 -0.003054 0.006532 0.000120 0.002151 -0.000903 0.002322
# 3 -0.004714 0.000120 0.014898 0.002767 -0.008756 0.005880
# 4 -0.001863 0.002151 0.002767 0.030583 -0.014602 0.008242
# 5 0.007374 -0.000903 -0.008756 -0.014602 0.061715 -0.006057
# 6 -0.008579 0.002322 0.005880 0.008242 -0.006057 0.025470
#
#
# Mechanical properties :
#
#
# Convention : Reuss Voigt Hill
#
# Bulk Modulus (GPa) = 38.47949 45.80742 42.14346
# Shear Modulus (GPa) = 27.32145 40.75564 34.03855
#
# Velocity S-wave (km/s) = 3.29711 4.02694 3.68016
# Velocity P-wave (km/s) = 5.45942 6.31253 5.90141
#
# Compressibility (1/GPa) = 0.02598787
#
# Stress axis : x y z
#
# Youngs Moduli (GPa) = 50.37263 153.09275 67.12424
#
# Poissons Ratio (x) = 0.46750 0.31640
# Poissons Ratio (y) = 0.15382 -0.00808
# Poissons Ratio (z) = 0.23744 -0.01844
#
# Static dielectric constant tensor:
#      x y z
#    x 2.058900 0.065070 -0.018340 
#    y 0.065070 1.997710 0.029610 
#    z -0.018340 0.029610 1.964450 
# 
# From -- ./inp_files/28278.got.cif
#   From: 2010.05.17/outbox.cif.g08.bks.cpg/sg2_15_cif.got.tgz:28278.got - 2010.06.03 11:33:40.
