data_PCOD9112601
_publ_section_title
;
Structure prediction by ZEFSAII (Michael W. Deem and Ramdas Pophale) SiO2 
 PCOD9112601
Probable space group: P 2
;
_chemical_formula_sum "Si O2"
_cell_formula_units_Z 13
_cell_length_a 11.115830
_cell_length_b 8.700410
_cell_length_c 14.145977
_cell_angle_alpha 90.000000
_cell_angle_beta 28.616631
_cell_angle_gamma 90.000000
_cell_volume 655.242012
_symmetry_space_group_name_H-M "P 2"
_symmetry_group_IT_number 3
_symmetry_cell_setting 'monoclinic'
loop_
_space_group_symop_operation_xyz
x,y,z
-x,y,-z
loop_
_atom_site_type_symbol
_atom_site_label
_atom_site_fract_x
_atom_site_fract_y
_atom_site_fract_z
Si Si1 0.411350 0.072140 0.956043
Si Si2 0.267014 0.626817 0.955119
Si Si3 0.749703 0.283413 0.106379
Si Si4 0.736070 0.852442 0.605218
Si Si5 0.208625 0.771567 0.174690
Si Si6 0.489950 0.041260 0.618204
Si Si7 0.000000 0.845530 0.000000
O O1 0.278535 0.186139 0.972795
O O2 0.647930 0.987748 0.739392
O O3 0.500000 0.129346 0.000000
O O4 0.220492 0.932884 0.109742
O O5 0.282205 0.459638 0.900260
O O6 0.534536 0.715892 0.761076
O O7 0.166639 0.632424 0.131605
O O8 0.070757 0.732885 0.035399
O O9 0.529882 0.209303 0.321915
O O10 0.000000 0.270612 0.000000
O O11 0.015353 0.786595 0.393772
O O12 0.685353 0.934937 0.538702
O O13 0.500000 0.753303 0.000000
O O14 0.500000 0.049756 0.500000
O O15 0.232058 0.954563 0.820638
#
# Coordination Sequence:
#
# PCOD9112601 Si02
#       7
#     2   2   2   2   2   2   1
#     4   9  21  39  64  90 122 163 206 258 312 363
#     4  10  21  37  56  85 125 162 197 247 310 361
#     4  11  22  39  59  90 133 169 203 251 304 375
#     4   9  20  38  61  93 116 154 214 259 303 366
#     4  10  21  39  66  90 115 156 207 264 307 362
#     4  10  20  34  60  86 120 160 205 254 305 357
#     4  10  18  36  56  82 114 156 202 254 294 354
#
# _framework density 19.839997
#
# number of rings (size 3 to 8) (size 9 to 14) (size 15 to 20)
#    0.000    2.154    1.538    1.846    2.154    6.154 
#    2.769    0.769    0.000    7.385    0.000    0.000 
#    0.000    0.000    0.000    0.000    0.000    0.000 
#
# Total GULP energy -72376.345766 kJ/mol
# GULP energy per Si atom -5567.411213 kJ/mol
# Density = 1.979484 g / cm^3
# Si number density = 19.839997 Si / 1000 Ang^3
#
#
#
# Elastic Constant Matrix: (Units=GPa)
#
#
# Indices 1 2 3 4 5 6 
#
# 1 124.2665 44.0577 41.6255 0.0000 20.8316 0.0000
# 2 44.0577 96.8285 5.0908 0.0000 8.6645 0.0000
# 3 41.6255 5.0908 89.8821 0.0000 6.9440 0.0000
# 4 0.0000 0.0000 0.0000 62.3358 0.0000 12.3111
# 5 20.8316 8.6645 6.9440 0.0000 43.1078 0.0000
# 6 0.0000 0.0000 0.0000 12.3111 0.0000 30.7537
#
#
#
# Elastic Compliance Matrix: (Units=1/GPa)
#
#
# Indices 1 2 3 4 5 6 
#
# 1 0.012156 -0.004901 -0.005037 0.000000 -0.004078 0.000000
# 2 -0.004901 0.012510 0.001592 0.000000 -0.000402 0.000000
# 3 -0.005037 0.001592 0.013371 0.000000 -0.000040 0.000000
# 4 0.000000 0.000000 0.000000 0.017419 0.000000 -0.006973
# 5 -0.004078 -0.000402 -0.000040 0.000000 0.025255 0.000000
# 6 0.000000 0.000000 0.000000 -0.006973 0.000000 0.035308
#
#
# Mechanical properties :
#
#
# Convention : Reuss Voigt Hill
#
# Bulk Modulus (GPa) = 46.84839 54.72500 50.78669
# Shear Modulus (GPa) = 35.75876 41.91968 38.83922
#
# Velocity S-wave (km/s) = 4.25002 4.60160 4.42930
# Velocity P-wave (km/s) = 6.90999 7.47503 7.19806
#
# Compressibility (1/GPa) = 0.02134545
#
# Stress axis : x y z
#
# Youngs Moduli (GPa) = 82.26626 79.93656 74.78761
#
# Poissons Ratio (x) = 0.39179 0.37669
# Poissons Ratio (y) = 0.40320 -0.11909
# Poissons Ratio (z) = 0.41436 -0.12729
#
# Static dielectric constant tensor:
#      x y z
#    x 1.106160 0.000000 -0.087340 
#    y 0.000000 1.681040 0.000000 
#    z -0.087340 0.000000 1.707510 
# 
# From -- ./inp_files/13741.got.cif
#   From: 2010.05.17/outbox.cif.g08.bks.cpg/sg3_7_cif.got.tgz:13741.got - 2010.06.03 18:33:08.
