data_PCOD9112588
_publ_section_title
;
Structure prediction by ZEFSAII (Michael W. Deem and Ramdas Pophale) SiO2 
 PCOD9112588
Probable space group: P 2
;
_chemical_formula_sum "Si O2"
_cell_formula_units_Z 15
_cell_length_a 8.865634
_cell_length_b 7.796087
_cell_length_c 11.369576
_cell_angle_alpha 90.000000
_cell_angle_beta 79.454437
_cell_angle_gamma 90.000000
_cell_volume 772.560885
_symmetry_space_group_name_H-M "P 2"
_symmetry_group_IT_number 3
_symmetry_cell_setting 'monoclinic'
loop_
_space_group_symop_operation_xyz
x,y,z
-x,y,-z
loop_
_atom_site_type_symbol
_atom_site_label
_atom_site_fract_x
_atom_site_fract_y
_atom_site_fract_z
Si Si1 0.500000 0.922010 0.000000
Si Si2 0.340692 0.322818 0.697569
Si Si3 0.584579 0.632458 0.661086
Si Si4 0.151329 0.546037 0.557420
Si Si5 0.097052 0.757423 0.795994
Si Si6 0.243156 0.673425 0.120964
Si Si7 0.397151 0.968562 0.758224
Si Si8 0.835327 0.421547 0.056148
O O1 0.356778 0.796461 0.036245
O O2 0.528394 0.007851 0.123388
O O3 0.468206 0.471862 0.676693
O O4 0.212117 0.380578 0.621794
O O5 0.266328 0.316537 0.839108
O O6 0.406945 0.133802 0.673707
O O7 0.703631 0.613938 0.537682
O O8 0.688816 0.633129 0.762135
O O9 0.485071 0.805899 0.688313
O O10 0.111391 0.686675 0.661665
O O11 0.000000 0.514174 0.500000
O O12 0.219609 0.907554 0.796728
O O13 0.140291 0.598965 0.874957
O O14 0.917331 0.774853 0.847124
O O15 0.232912 0.492347 0.054793
O O16 0.000000 0.343119 0.000000
#
# Coordination Sequence:
#
# PCOD9112588 Si02
#       8
#     1   2   2   2   2   2   2   2
#     4  10  20  36  58  98 136 160 206 256 310 388
#     4  11  24  42  63  95 127 168 214 260 321 381
#     4  11  22  41  67  92 127 167 208 266 323 377
#     4  11  22  44  67  89 121 169 217 269 318 367
#     4  10  19  38  63  89 124 165 210 256 312 372
#     4  10  18  34  67  94 123 170 210 253 316 381
#     4  11  23  41  64  98 131 169 211 260 320 388
#     4   9  17  34  60  90 122 162 205 252 309 365
#
# _framework density 19.415942999999999
#
# number of rings (size 3 to 8) (size 9 to 14) (size 15 to 20)
#    0.000    1.600    5.333    1.200    0.000    1.067 
#    7.200    3.333    0.000    0.000    0.000    0.000 
#    0.000    0.000    0.000    0.000    0.000    0.000 
#
# Total GULP energy -83647.122466 kJ/mol
# GULP energy per Si atom -5576.474831 kJ/mol
# Density = 1.937175 g / cm^3
# Si number density = 19.415943 Si / 1000 Ang^3
#
#
#
# Elastic Constant Matrix: (Units=GPa)
#
#
# Indices 1 2 3 4 5 6 
#
# 1 114.4226 44.3410 33.9490 0.0000 -3.0765 0.0000
# 2 44.3410 84.1259 23.4060 0.0000 3.9295 0.0000
# 3 33.9490 23.4060 85.7466 0.0000 -12.8385 0.0000
# 4 0.0000 0.0000 0.0000 7.7481 0.0000 7.4610
# 5 -3.0765 3.9295 -12.8385 0.0000 43.3551 0.0000
# 6 0.0000 0.0000 0.0000 7.4610 0.0000 10.5102
#
#
#
# Elastic Compliance Matrix: (Units=1/GPa)
#
#
# Indices 1 2 3 4 5 6 
#
# 1 0.011749 -0.005338 -0.003136 0.000000 0.000389 0.000000
# 2 -0.005338 0.015514 -0.002499 0.000000 -0.002525 0.000000
# 3 -0.003136 -0.002499 0.014217 0.000000 0.004214 0.000000
# 4 0.000000 0.000000 0.000000 0.407885 0.000000 -0.289550
# 5 0.000389 -0.002525 0.004214 0.000000 0.024570 0.000000
# 6 0.000000 0.000000 0.000000 -0.289550 0.000000 0.300692
#
#
# Mechanical properties :
#
#
# Convention : Reuss Voigt Hill
#
# Bulk Modulus (GPa) = 51.19698 54.18748 52.69223
# Shear Modulus (GPa) = 6.22598 24.49594 15.36096
#
# Velocity S-wave (km/s) = 1.79265 3.55581 2.81579
# Velocity P-wave (km/s) = 5.54171 6.69535 6.14566
#
# Compressibility (1/GPa) = 0.01953240
#
# Stress axis : x y z
#
# Youngs Moduli (GPa) = 85.11182 64.45799 70.33724
#
# Poissons Ratio (x) = 0.34410 0.22061
# Poissons Ratio (y) = 0.45435 0.17579
# Poissons Ratio (z) = 0.26694 0.16110
#
# Static dielectric constant tensor:
#      x y z
#    x 1.710340 0.000000 0.005420 
#    y 0.000000 1.654320 0.000000 
#    z 0.005420 0.000000 1.730500 
# 
# From -- ./inp_files/10429.got.cif
#   From: 2010.05.17/outbox.cif.g08.bks.cpg/sg3_6_cif.got.tgz:10429.got - 2010.06.03 18:33:08.
