data_PCOD9112323
_publ_section_title
;
Structure prediction by ZEFSAII (Michael W. Deem and Ramdas Pophale) SiO2 
 PCOD9112323
Probable space group: P -1
;
_chemical_formula_sum "Si O2"
_cell_formula_units_Z 13
_cell_length_a 9.280917
_cell_length_b 16.184872
_cell_length_c 11.228249
_cell_angle_alpha 144.427456
_cell_angle_beta 38.664103
_cell_angle_gamma 118.718102
_cell_volume 554.750954
_symmetry_space_group_name_H-M "P -1"
_symmetry_group_IT_number 2
_symmetry_cell_setting 'triclinic'
loop_
_space_group_symop_operation_xyz
x,y,z
-x,-y,-z
loop_
_atom_site_type_symbol
_atom_site_label
_atom_site_fract_x
_atom_site_fract_y
_atom_site_fract_z
Si Si1 0.000000 0.000000 0.500000
Si Si2 0.567443 0.863217 0.699514
Si Si3 0.222118 0.724726 0.845297
Si Si4 0.881333 0.383725 0.979858
Si Si5 0.880228 0.685699 0.810405
Si Si6 0.102607 0.087897 0.127509
Si Si7 0.686653 0.214324 0.751144
O O1 0.256675 0.891373 0.291044
O O2 0.117333 0.885711 0.174909
O O3 0.484660 0.724972 0.627957
O O4 0.868826 0.791454 0.392181
O O5 0.500000 0.000000 0.000000
O O6 0.382320 0.957237 0.824209
O O7 0.035948 0.726809 0.861234
O O8 0.219910 0.602593 0.804394
O O9 0.687802 0.372393 0.993972
O O10 0.000000 0.500000 0.000000
O O11 0.000000 0.500000 0.500000
O O12 0.901335 0.762578 0.762304
O O13 0.576591 0.753222 0.105791
O O14 0.918705 0.144657 0.426696
O O15 0.000000 0.000000 0.000000
#
# Coordination Sequence:
#
# PCOD9112323 Si02
#       7
#     1   2   2   2   2   2   2
#     4  10  20  46  70 106 130 174 240 310 352 404
#     4  12  24  45  73 106 142 182 251 307 362 433
#     4  11  25  47  71 105 144 187 243 306 366 429
#     4  11  28  45  72 105 144 197 240 303 370 435
#     4  12  31  47  70 106 156 201 236 296 380 454
#     4  12  26  45  73 107 140 193 244 303 362 438
#     4  11  26  46  73 104 146 183 245 301 367 429
#
# _framework density 23.433938999999999
#
# number of rings (size 3 to 8) (size 9 to 14) (size 15 to 20)
#    0.000    0.615    4.615    0.923   15.077    2.462 
#    0.000    0.000    0.000    0.000    0.000    0.000 
#    0.000    0.000    0.000    0.000    0.000    0.000 
#
# Total GULP energy -72481.460205 kJ/mol
# GULP energy per Si atom -5575.496939 kJ/mol
# Density = 2.338060 g / cm^3
# Si number density = 23.433939 Si / 1000 Ang^3
#
#
#
# Elastic Constant Matrix: (Units=GPa)
#
#
# Indices 1 2 3 4 5 6 
#
# 1 138.6393 27.3775 28.5869 -21.4547 -12.5946 -1.2982
# 2 27.3775 143.6644 21.4760 -13.6192 -12.6462 -11.7242
# 3 28.5869 21.4760 92.1065 -13.2281 -18.6292 -2.8345
# 4 -21.4547 -13.6192 -13.2281 40.6052 7.8736 -8.4625
# 5 -12.5946 -12.6462 -18.6292 7.8736 32.0896 -9.0134
# 6 -1.2982 -11.7242 -2.8345 -8.4625 -9.0134 32.3838
#
#
#
# Elastic Compliance Matrix: (Units=1/GPa)
#
#
# Indices 1 2 3 4 5 6 
#
# 1 0.008404 -0.000780 -0.001546 0.003644 0.001567 0.001307
# 2 -0.000780 0.008052 -0.000506 0.002411 0.003207 0.004362
# 3 -0.001546 -0.000506 0.013453 0.002738 0.007371 0.003699
# 4 0.003644 0.002411 0.002738 0.030296 -0.000962 0.008908
# 5 0.001567 0.003207 0.007371 -0.000962 0.041234 0.013094
# 6 0.001307 0.004362 0.003699 0.008908 0.013094 0.038807
#
#
# Mechanical properties :
#
#
# Convention : Reuss Voigt Hill
#
# Bulk Modulus (GPa) = 41.24823 58.81012 50.02918
# Shear Modulus (GPa) = 32.46903 40.81370 36.64137
#
# Velocity S-wave (km/s) = 3.72634 4.17783 3.95853
# Velocity P-wave (km/s) = 6.01285 6.95866 6.50297
#
# Compressibility (1/GPa) = 0.02424346
#
# Stress axis : x y z
#
# Youngs Moduli (GPa) = 118.98635 124.19552 74.33476
#
# Poissons Ratio (x) = 0.09693 0.11493
# Poissons Ratio (y) = 0.09286 0.03763
# Poissons Ratio (z) = 0.18396 0.06286
#
# Static dielectric constant tensor:
#      x y z
#    x 1.906470 -0.023230 -0.129050 
#    y -0.023230 1.646790 -0.138530 
#    z -0.129050 -0.138530 1.920620 
# 
# From -- ./inp_files/400655.got.cif
#   From: 2010.05.17/outbox.cif.g08.bks.cpg/sg2_201_cif.got.tgz:400655.got - 2010.06.03 11:33:40.
