data_PCOD9112112
_publ_section_title
;
Structure prediction by ZEFSAII (Michael W. Deem and Ramdas Pophale) SiO2 
 PCOD9112112
Probable space group: P -1
;
_chemical_formula_sum "Si O2"
_cell_formula_units_Z 15
_cell_length_a 15.107661
_cell_length_b 11.801716
_cell_length_c 8.462025
_cell_angle_alpha 36.147518
_cell_angle_beta 46.665748
_cell_angle_gamma 53.150699
_cell_volume 643.662963
_symmetry_space_group_name_H-M "P -1"
_symmetry_group_IT_number 2
_symmetry_cell_setting 'triclinic'
loop_
_space_group_symop_operation_xyz
x,y,z
-x,-y,-z
loop_
_atom_site_type_symbol
_atom_site_label
_atom_site_fract_x
_atom_site_fract_y
_atom_site_fract_z
Si Si1 0.556644 0.985970 0.218471
Si Si2 0.934730 0.878076 0.504556
Si Si3 0.430693 0.613154 0.102551
Si Si4 0.645812 0.893868 0.875902
Si Si5 0.249134 0.362677 0.528856
Si Si6 0.100522 0.393813 0.382516
Si Si7 0.008951 0.707247 0.924584
Si Si8 0.500000 0.500000 0.500000
O O1 0.615633 0.016221 0.936757
O O2 0.639917 0.798918 0.386048
O O3 0.564078 0.159236 0.137017
O O4 0.416720 0.985876 0.331854
O O5 0.954576 0.794718 0.400480
O O6 0.008856 0.745282 0.695195
O O7 0.963028 0.093739 0.254135
O O8 0.790633 0.865582 0.718896
O O9 0.291954 0.565303 0.301540
O O10 0.481491 0.526801 0.303222
O O11 0.500000 0.500000 0.000000
O O12 0.587664 0.689825 0.182558
O O13 0.219719 0.357425 0.384369
O O14 0.127765 0.325557 0.815346
O O15 0.000000 0.500000 0.500000
O O16 0.104193 0.536440 0.067974
#
# Coordination Sequence:
#
# PCOD9112112 Si02
#       8
#     2   2   2   2   2   2   2   1
#     4  10  22  43  67  98 140 183 219 288 353 414
#     4  11  22  44  72 101 135 175 241 284 341 433
#     4  11  25  42  68 104 139 186 235 283 353 430
#     4  10  21  43  69 105 133 182 230 283 354 421
#     4  11  23  46  65 100 140 181 228 286 353 413
#     4  10  25  43  66  96 140 180 226 289 350 402
#     4  10  23  45  70  99 131 180 234 290 348 402
#     4  10  20  44  70  90 150 180 220 292 342 408
#
# _framework density 23.304120000000001
#
# number of rings (size 3 to 8) (size 9 to 14) (size 15 to 20)
#    0.000    1.600    2.667    0.400    3.733    5.867 
#   12.000    0.000    0.000    0.000    0.000    0.000 
#    0.000    0.000    0.000    0.000    0.000    0.000 
#
# Total GULP energy -83553.867431 kJ/mol
# GULP energy per Si atom -5570.257829 kJ/mol
# Density = 2.325108 g / cm^3
# Si number density = 23.304120 Si / 1000 Ang^3
#
#
#
# Elastic Constant Matrix: (Units=GPa)
#
#
# Indices 1 2 3 4 5 6 
#
# 1 145.1057 35.5902 27.3683 -11.4498 15.8230 18.7378
# 2 35.5902 84.4946 8.6629 3.1422 -9.4076 27.6885
# 3 27.3683 8.6629 65.2769 -5.8293 -17.2553 2.6020
# 4 -11.4498 3.1422 -5.8293 16.5694 -2.3644 -1.4164
# 5 15.8230 -9.4076 -17.2553 -2.3644 41.3086 -12.0162
# 6 18.7378 27.6885 2.6020 -1.4164 -12.0162 50.8605
#
#
#
# Elastic Compliance Matrix: (Units=1/GPa)
#
#
# Indices 1 2 3 4 5 6 
#
# 1 0.010496 -0.003862 -0.005410 0.004692 -0.007824 -0.003206
# 2 -0.003862 0.016275 -0.000057 -0.005968 0.002802 -0.006939
# 3 -0.005410 -0.000057 0.021248 0.005869 0.012446 0.004041
# 4 0.004692 -0.005968 0.005869 0.067770 0.004379 0.004142
# 5 -0.007824 0.002802 0.012446 0.004379 0.036012 0.009350
# 6 -0.003206 -0.006939 0.004041 0.004142 0.009350 0.026738
#
#
# Mechanical properties :
#
#
# Convention : Reuss Voigt Hill
#
# Bulk Modulus (GPa) = 34.05524 48.68001 41.36763
# Shear Modulus (GPa) = 24.15656 36.63142 30.39399
#
# Velocity S-wave (km/s) = 3.22309 3.96900 3.61533
# Velocity P-wave (km/s) = 5.33818 6.47598 5.93441
#
# Compressibility (1/GPa) = 0.02936405
#
# Stress axis : x y z
#
# Youngs Moduli (GPa) = 95.27209 61.44331 47.06330
#
# Poissons Ratio (x) = 0.23727 0.25459
# Poissons Ratio (y) = 0.36790 0.00266
# Poissons Ratio (z) = 0.51538 0.00347
#
# Static dielectric constant tensor:
#      x y z
#    x 1.845080 -0.112600 0.224040 
#    y -0.112600 1.749280 0.354510 
#    z 0.224040 0.354510 1.229340 
# 
# From -- ./inp_files/302045.got.cif
#   From: 2010.05.17/outbox.cif.g08.bks.cpg/sg2_152_cif.got.tgz:302045.got - 2010.06.03 11:33:40.
