data_PCOD9112759
_publ_section_title
;
Structure prediction by ZEFSAII (Michael W. Deem and Ramdas Pophale) SiO2 
 PCOD9112759
Probable space group: P 2
;
_chemical_formula_sum "Si O2"
_cell_formula_units_Z 9
_cell_length_a 6.541112
_cell_length_b 3.404885
_cell_length_c 11.767066
_cell_angle_alpha 90.000000
_cell_angle_beta 73.722177
_cell_angle_gamma 90.000000
_cell_volume 251.567471
_symmetry_space_group_name_H-M "P 2"
_symmetry_group_IT_number 3
_symmetry_cell_setting 'monoclinic'
loop_
_space_group_symop_operation_xyz
x,y,z
-x,y,-z
loop_
_atom_site_type_symbol
_atom_site_label
_atom_site_fract_x
_atom_site_fract_y
_atom_site_fract_z
Si Si1 0.500000 0.052860 0.500000
Si Si2 0.604700 0.027303 0.727012
Si Si3 0.290629 0.246643 0.953137
Si Si4 0.948201 0.487442 0.384632
Si Si5 0.099849 0.742937 0.132753
O O1 0.277115 0.275434 0.560279
O O2 0.544163 0.848880 0.614843
O O3 0.686479 0.775511 0.822351
O O4 0.392616 0.225846 0.811447
O O5 0.828769 0.249429 0.666304
O O6 0.915196 0.242412 0.905064
O O7 0.214835 0.742608 0.973529
O O8 0.500000 0.253821 0.000000
O O9 0.934464 0.708124 0.264326
O O10 0.000000 0.681282 0.500000
#
# Coordination Sequence:
#
# PCOD9112759 Si02
#       5
#     1   2   2   2   2
#     4  10  24  48  70 108 152 188 244 298 352 432
#     4  10  22  41  76 105 145 187 239 293 370 419
#     4  10  19  35  74 104 134 179 235 286 357 421
#     4  10  22  42  70 101 143 193 235 289 352 430
#     4  11  20  40  74 104 132 187 235 287 354 424
#
# _framework density 35.775699000000003
#
# number of rings (size 3 to 8) (size 9 to 14) (size 15 to 20)
#    0.000    1.778    4.444    2.000    0.000    2.667 
#    0.000   11.111    4.889    0.000    0.000    0.000 
#    0.000    0.000    0.000    0.000    0.000    0.000 
#
# Total GULP energy -50212.609675 kJ/mol
# GULP energy per Si atom -5579.178853 kJ/mol
# Density = 3.569427 g / cm^3
# Si number density = 35.775699 Si / 1000 Ang^3
#
#
#
# Elastic Constant Matrix: (Units=GPa)
#
#
# Indices 1 2 3 4 5 6 
#
# 1 273.9557 119.2337 114.6399 0.0000 -51.8241 0.0000
# 2 119.2337 226.7885 155.9437 0.0000 -41.4286 0.0000
# 3 114.6399 155.9437 381.2636 0.0000 -63.6002 0.0000
# 4 0.0000 0.0000 0.0000 131.3925 0.0000 -22.2635
# 5 -51.8241 -41.4286 -63.6002 0.0000 97.0085 0.0000
# 6 0.0000 0.0000 0.0000 -22.2635 0.0000 132.1143
#
#
#
# Elastic Compliance Matrix: (Units=1/GPa)
#
#
# Indices 1 2 3 4 5 6 
#
# 1 0.005012 -0.002080 -0.000402 0.000000 0.001526 0.000000
# 2 -0.002080 0.007103 -0.002200 0.000000 0.000480 0.000000
# 3 -0.000402 -0.002200 0.003875 0.000000 0.001386 0.000000
# 4 0.000000 0.000000 0.000000 0.007834 0.000000 0.001320
# 5 0.001526 0.000480 0.001386 0.000000 0.012237 0.000000
# 6 0.000000 0.000000 0.000000 0.001320 0.000000 0.007792
#
#
# Mechanical properties :
#
#
# Convention : Reuss Voigt Hill
#
# Bulk Modulus (GPa) = 150.90255 184.62693 167.76474
# Shear Modulus (GPa) = 90.20925 104.91577 97.56251
#
# Velocity S-wave (km/s) = 5.02692 5.42122 5.22779
# Velocity P-wave (km/s) = 8.71579 9.53441 9.13428
#
# Compressibility (1/GPa) = 0.00662679
#
# Stress axis : x y z
#
# Youngs Moduli (GPa) = 199.50565 140.77694 258.08656
#
# Poissons Ratio (x) = 0.29285 0.10368
# Poissons Ratio (y) = 0.41502 0.56775
# Poissons Ratio (z) = 0.08015 0.30969
#
# Static dielectric constant tensor:
#      x y z
#    x 2.619870 0.000000 -0.073220 
#    y 0.000000 3.882680 0.000000 
#    z -0.073220 0.000000 2.573080 
# 
# From -- ./inp_files/9679.got.cif
#   From: 2010.05.17/outbox.cif.g08.bks.cpg/sg3_5_cif.got.tgz:9679.got - 2010.06.03 18:33:08.
