data_PCOD9112683
_publ_section_title
;
Structure prediction by ZEFSAII (Michael W. Deem and Ramdas Pophale) SiO2 
 PCOD9112683
Probable space group: P 2
;
_chemical_formula_sum "Si O2"
_cell_formula_units_Z 14
_cell_length_a 7.689639
_cell_length_b 5.059425
_cell_length_c 24.462408
_cell_angle_alpha 90.000000
_cell_angle_beta 35.077468
_cell_angle_gamma 90.000000
_cell_volume 546.934124
_symmetry_space_group_name_H-M "P 2"
_symmetry_group_IT_number 3
_symmetry_cell_setting 'monoclinic'
loop_
_space_group_symop_operation_xyz
x,y,z
-x,y,-z
loop_
_atom_site_type_symbol
_atom_site_label
_atom_site_fract_x
_atom_site_fract_y
_atom_site_fract_z
Si Si1 0.549431 0.107760 0.880270
Si Si2 0.990622 0.831544 0.704195
Si Si3 0.347130 0.872002 0.729746
Si Si4 0.271507 0.337376 0.604176
Si Si5 0.196710 0.614739 0.996421
Si Si6 0.332464 0.372023 0.388731
Si Si7 0.134172 0.243788 0.106070
O O1 0.316475 0.345664 0.936442
O O2 0.826955 0.266019 0.838719
O O3 0.668390 0.968251 0.795768
O O4 0.442030 0.846412 0.942512
O O5 0.151550 0.835292 0.723183
O O6 0.175363 0.037161 0.620065
O O7 0.994976 0.540040 0.679863
O O8 0.610335 0.090450 0.654148
O O9 0.109021 0.007309 0.834065
O O10 0.527468 0.596587 0.686894
O O11 0.500000 0.433236 0.500000
O O12 0.453194 0.356554 0.613534
O O13 0.056976 0.490188 0.087515
O O14 0.000000 0.748652 0.000000
O O15 0.000000 0.417784 0.500000
O O16 0.500000 0.223645 0.000000
#
# Coordination Sequence:
#
# PCOD9112683 Si02
#       7
#     2   2   2   2   2   2   2
#     4  10  21  39  61  84 115 164 211 246 294 370
#     4   9  18  34  56  80 109 145 193 243 285 344
#     4   9  19  34  56  82 109 144 192 242 286 339
#     4  10  19  33  54  81 109 141 185 242 296 344
#     4  11  23  39  59  89 128 160 192 251 320 368
#     4  10  20  36  55  77 110 149 187 233 291 349
#     4   9  21  37  62  89 114 153 207 253 294 358
#
# _framework density 25.597231000000001
#
# number of rings (size 3 to 8) (size 9 to 14) (size 15 to 20)
#    0.000    2.286    0.000    2.143    0.000   14.286 
#    0.000    4.286    0.000    0.000    0.000    0.000 
#    0.000    0.000    0.000    0.000    0.000    0.000 
#
# Total GULP energy -77984.729955 kJ/mol
# GULP energy per Si atom -5570.337854 kJ/mol
# Density = 2.553897 g / cm^3
# Si number density = 25.597231 Si / 1000 Ang^3
#
#
#
# Elastic Constant Matrix: (Units=GPa)
#
#
# Indices 1 2 3 4 5 6 
#
# 1 48.8718 9.5317 -1.8148 0.0000 -5.6679 0.0000
# 2 9.5317 146.8963 27.1218 0.0000 3.7737 0.0000
# 3 -1.8148 27.1218 106.2921 0.0000 -3.0699 0.0000
# 4 0.0000 0.0000 0.0000 57.3057 0.0000 7.0450
# 5 -5.6679 3.7737 -3.0699 0.0000 20.9261 0.0000
# 6 0.0000 0.0000 0.0000 7.0450 0.0000 14.7189
#
#
#
# Elastic Compliance Matrix: (Units=1/GPa)
#
#
# Indices 1 2 3 4 5 6 
#
# 1 0.021570 -0.001745 0.000996 0.000000 0.006303 0.000000
# 2 -0.001745 0.007337 -0.001962 0.000000 -0.002084 0.000000
# 3 0.000996 -0.001962 0.009986 0.000000 0.002088 0.000000
# 4 0.000000 0.000000 0.000000 0.018541 0.000000 -0.008874
# 5 0.006303 -0.002084 0.002088 0.000000 0.050177 0.000000
# 6 0.000000 0.000000 0.000000 -0.008874 0.000000 0.072187
#
#
# Mechanical properties :
#
#
# Convention : Reuss Voigt Hill
#
# Bulk Modulus (GPa) = 29.87818 41.30417 35.59118
# Shear Modulus (GPa) = 25.46115 36.40491 30.93303
#
# Velocity S-wave (km/s) = 3.15728 3.77533 3.48005
# Velocity P-wave (km/s) = 4.99890 5.93088 5.48472
#
# Compressibility (1/GPa) = 0.03346924
#
# Stress axis : x y z
#
# Youngs Moduli (GPa) = 46.36046 136.30378 100.14035
#
# Poissons Ratio (x) = 0.23790 -0.09971
# Poissons Ratio (y) = 0.08092 0.19647
# Poissons Ratio (z) = -0.04616 0.26743
#
# Static dielectric constant tensor:
#      x y z
#    x 2.059570 0.000000 0.158600 
#    y 0.000000 1.982330 0.000000 
#    z 0.158600 0.000000 2.024290 
# 
# From -- ./inp_files/15676.got.cif
#   From: 2010.05.17/outbox.cif.g08.bks.cpg/sg3_8_cif.got.tgz:15676.got - 2010.06.03 18:33:08.
