data_PCOD9112184
_publ_section_title
;
Structure prediction by ZEFSAII (Michael W. Deem and Ramdas Pophale) SiO2 
 PCOD9112184
Probable space group: P -1
;
_chemical_formula_sum "Si O2"
_cell_formula_units_Z 14
_cell_length_a 12.617502
_cell_length_b 9.212769
_cell_length_c 17.886860
_cell_angle_alpha 29.275642
_cell_angle_beta 140.948240
_cell_angle_gamma 133.839022
_cell_volume 639.794449
_symmetry_space_group_name_H-M "P -1"
_symmetry_group_IT_number 2
_symmetry_cell_setting 'triclinic'
loop_
_space_group_symop_operation_xyz
x,y,z
-x,-y,-z
loop_
_atom_site_type_symbol
_atom_site_label
_atom_site_fract_x
_atom_site_fract_y
_atom_site_fract_z
Si Si1 0.749559 0.564374 0.776843
Si Si2 0.978809 0.339374 0.352615
Si Si3 0.138526 0.483903 0.645463
Si Si4 0.751202 0.693292 0.953694
Si Si5 0.313042 0.635197 0.336193
Si Si6 0.504183 0.357314 0.853772
Si Si7 0.017210 0.123063 0.141829
O O1 0.748046 0.468141 0.733854
O O2 0.574817 0.518746 0.744632
O O3 0.848296 0.868631 0.719914
O O4 0.866124 0.330169 0.987281
O O5 0.167352 0.500649 0.373602
O O6 0.887309 0.294078 0.402710
O O7 0.000000 0.000000 0.500000
O O8 0.852902 0.511457 0.152163
O O9 0.318738 0.456833 0.722310
O O10 0.000000 0.500000 0.500000
O O11 0.080680 0.181552 0.792285
O O12 0.613096 0.480475 0.929639
O O13 0.882539 0.781157 0.920164
O O14 0.683447 0.004841 0.809600
O O15 0.500000 0.500000 0.500000
O O16 0.500000 0.000000 0.000000
#
# Coordination Sequence:
#
# PCOD9112184 Si02
#       7
#     2   2   2   2   2   2   2
#     4  10  22  40  73  99 135 180 240 286 352 420
#     4  12  29  48  74 108 146 191 240 307 367 420
#     4  12  28  44  68 104 151 185 237 292 368 425
#     4  11  25  50  76 101 144 194 249 292 361 434
#     4  12  27  45  74 107 144 186 245 298 359 432
#     4  11  26  43  71 106 140 190 238 297 359 423
#     4  10  20  44  73  99 131 192 237 288 347 436
#
# _framework density 21.882027999999998
#
# number of rings (size 3 to 8) (size 9 to 14) (size 15 to 20)
#    0.000    0.857    4.286    1.286    8.000    0.571 
#    0.000    2.857    0.000    0.000    0.000    0.000 
#    0.000    0.000    0.000    0.000    0.000    0.000 
#
# Total GULP energy -78075.576008 kJ/mol
# GULP energy per Si atom -5576.826858 kJ/mol
# Density = 2.183222 g / cm^3
# Si number density = 21.882028 Si / 1000 Ang^3
#
#
#
# Elastic Constant Matrix: (Units=GPa)
#
#
# Indices 1 2 3 4 5 6 
#
# 1 145.6304 25.9491 39.1529 16.1896 35.8606 -8.5129
# 2 25.9491 81.1074 29.9376 -3.0057 20.7502 -5.6610
# 3 39.1529 29.9376 95.8046 -0.3826 33.8068 -0.8222
# 4 16.1896 -3.0057 -0.3826 37.2371 -1.8153 9.7859
# 5 35.8606 20.7502 33.8068 -1.8153 39.5505 2.2455
# 6 -8.5129 -5.6610 -0.8222 9.7859 2.2455 46.7241
#
#
#
# Elastic Compliance Matrix: (Units=1/GPa)
#
#
# Indices 1 2 3 4 5 6 
#
# 1 0.010184 -0.000715 -0.000924 -0.005798 -0.008527 0.003377
# 2 -0.000715 0.014952 -0.002579 0.000795 -0.005052 0.001712
# 3 -0.000924 -0.002579 0.015555 -0.000292 -0.011141 0.000390
# 4 -0.005798 0.000795 -0.000292 0.031875 0.007006 -0.007978
# 5 -0.008527 -0.005052 -0.011141 0.007006 0.045853 -0.006033
# 6 0.003377 0.001712 0.000390 -0.007978 -0.006033 0.024193
#
#
# Mechanical properties :
#
#
# Convention : Reuss Voigt Hill
#
# Bulk Modulus (GPa) = 31.00351 56.95794 43.98073
# Shear Modulus (GPa) = 30.90254 39.86919 35.38587
#
# Velocity S-wave (km/s) = 3.76205 4.27313 4.02571
# Velocity P-wave (km/s) = 5.75064 7.10156 6.46151
#
# Compressibility (1/GPa) = 0.03225441
#
# Stress axis : x y z
#
# Youngs Moduli (GPa) = 98.19158 66.88244 64.28872
#
# Poissons Ratio (x) = 0.04782 0.05939
# Poissons Ratio (y) = 0.07020 0.16583
# Poissons Ratio (z) = 0.09071 0.17252
#
# Static dielectric constant tensor:
#      x y z
#    x 2.434790 -1.339310 0.614510 
#    y -1.339310 4.825990 -1.421010 
#    z 0.614510 -1.421010 2.489670 
# 
# From -- ./inp_files/184476.got.cif
#   From: 2010.05.17/outbox.cif.g08.bks.cpg/sg2_93_cif.got.tgz:184476.got - 2010.06.03 11:33:40.
