data_PCOD9112171
_publ_section_title
;
Structure prediction by ZEFSAII (Michael W. Deem and Ramdas Pophale) SiO2 
 PCOD9112171
Probable space group: P -1
;
_chemical_formula_sum "Si O2"
_cell_formula_units_Z 15
_cell_length_a 13.544054
_cell_length_b 9.557337
_cell_length_c 10.919982
_cell_angle_alpha 100.685045
_cell_angle_beta 73.249075
_cell_angle_gamma 151.616175
_cell_volume 636.195543
_symmetry_space_group_name_H-M "P -1"
_symmetry_group_IT_number 2
_symmetry_cell_setting 'triclinic'
loop_
_space_group_symop_operation_xyz
x,y,z
-x,-y,-z
loop_
_atom_site_type_symbol
_atom_site_label
_atom_site_fract_x
_atom_site_fract_y
_atom_site_fract_z
Si Si1 0.169296 0.358992 0.088747
Si Si2 0.531791 0.244114 0.589361
Si Si3 0.500000 0.500000 0.000000
Si Si4 0.463415 0.934866 0.199573
Si Si5 0.000276 0.840893 0.422825
Si Si6 0.175068 0.393252 0.811577
Si Si7 0.690722 0.748718 0.246511
Si Si8 0.212626 0.829671 0.426405
O O1 0.346970 0.700523 0.098574
O O2 0.307680 0.388263 0.077166
O O3 0.096100 0.269048 0.957922
O O4 0.947650 0.102649 0.204996
O O5 0.504071 0.135779 0.712009
O O6 0.772675 0.513055 0.503083
O O7 0.451742 0.310011 0.640536
O O8 0.388295 0.009924 0.494496
O O9 0.406272 0.369231 0.873638
O O10 0.286415 0.839244 0.280068
O O11 0.683501 0.292504 0.174494
O O12 0.993325 0.808529 0.272942
O O13 0.177887 0.953438 0.434109
O O14 0.000000 0.000000 0.500000
O O15 0.314145 0.420493 0.733401
O O16 0.000000 0.500000 0.500000
#
# Coordination Sequence:
#
# PCOD9112171 Si02
#       8
#     2   2   1   2   2   2   2   2
#     4  11  25  48  73 106 139 192 242 287 362 427
#     4  12  25  46  72 103 144 187 239 294 355 432
#     4  10  20  44  72  98 136 182 236 294 338 416
#     4  12  24  46  71 105 146 185 235 295 366 417
#     4  12  28  45  72 108 143 190 242 293 360 424
#     4  11  25  46  70 105 147 177 238 302 347 425
#     4  11  25  44  76 101 140 186 244 289 357 421
#     4  12  24  44  70 100 143 189 230 292 359 430
#
# _framework density 23.577656999999999
#
# number of rings (size 3 to 8) (size 9 to 14) (size 15 to 20)
#    0.000    0.533    4.000    4.800    3.733    2.133 
#    4.800    1.333    0.000    0.000    0.000    0.000 
#    0.000    0.000    0.000    0.000    0.000    0.000 
#
# Total GULP energy -83618.547719 kJ/mol
# GULP energy per Si atom -5574.569848 kJ/mol
# Density = 2.352399 g / cm^3
# Si number density = 23.577657 Si / 1000 Ang^3
#
#
#
# Elastic Constant Matrix: (Units=GPa)
#
#
# Indices 1 2 3 4 5 6 
#
# 1 115.5453 17.3710 18.8803 11.5482 6.1388 1.9203
# 2 17.3710 83.2298 6.2085 17.0949 17.8755 -6.3025
# 3 18.8803 6.2085 59.4391 22.6936 11.7811 3.4251
# 4 11.5482 17.0949 22.6936 37.8780 4.1948 -5.1604
# 5 6.1388 17.8755 11.7811 4.1948 41.3549 1.9365
# 6 1.9203 -6.3025 3.4251 -5.1604 1.9365 34.0309
#
#
#
# Elastic Compliance Matrix: (Units=1/GPa)
#
#
# Indices 1 2 3 4 5 6 
#
# 1 0.009399 -0.001723 -0.002539 -0.000682 0.000175 -0.000707
# 2 -0.001723 0.015141 0.002816 -0.007017 -0.006469 0.001922
# 3 -0.002539 0.002816 0.024491 -0.015000 -0.006121 -0.003726
# 4 -0.000682 -0.007017 -0.015000 0.039234 0.003146 0.006019
# 5 0.000175 -0.006469 -0.006121 0.003146 0.028457 -0.001734
# 6 -0.000707 0.001922 -0.003726 0.006019 -0.001734 0.031167
#
#
# Mechanical properties :
#
#
# Convention : Reuss Voigt Hill
#
# Bulk Modulus (GPa) = 21.67348 38.12598 29.89973
# Shear Modulus (GPa) = 30.09125 37.03639 33.56382
#
# Velocity S-wave (km/s) = 3.57636 3.96766 3.77708
# Velocity P-wave (km/s) = 5.12505 6.09880 5.63300
#
# Compressibility (1/GPa) = 0.04613933
#
# Stress axis : x y z
#
# Youngs Moduli (GPa) = 106.39158 66.04702 40.83098
#
# Poissons Ratio (x) = 0.11382 0.10367
# Poissons Ratio (y) = 0.18335 -0.11500
# Poissons Ratio (z) = 0.27013 -0.18602
#
# Static dielectric constant tensor:
#      x y z
#    x 1.864620 -0.073770 -0.010800 
#    y -0.073770 1.969300 -0.002860 
#    z -0.010800 -0.002860 1.899960 
# 
# From -- ./inp_files/77377.got.cif
#   From: 2010.05.17/outbox.cif.g08.bks.cpg/sg2_39_cif.got.tgz:77377.got - 2010.06.03 11:33:40.
