data_PCOD9112874
_publ_section_title
;
Structure prediction by ZEFSAII (Michael W. Deem and Ramdas Pophale) SiO2 
 PCOD9112874
Probable space group: P 2
;
_chemical_formula_sum "Si O2"
_cell_formula_units_Z 15
_cell_length_a 19.638863
_cell_length_b 4.882095
_cell_length_c 9.616414
_cell_angle_alpha 90.000000
_cell_angle_beta 141.842657
_cell_angle_gamma 90.000000
_cell_volume 569.639237
_symmetry_space_group_name_H-M "P 2"
_symmetry_group_IT_number 3
_symmetry_cell_setting 'monoclinic'
loop_
_space_group_symop_operation_xyz
x,y,z
-x,y,-z
loop_
_atom_site_type_symbol
_atom_site_label
_atom_site_fract_x
_atom_site_fract_y
_atom_site_fract_z
Si Si1 0.711059 0.627460 0.468004
Si Si2 0.646292 0.118745 0.204831
Si Si3 0.550937 0.189671 0.762509
Si Si4 0.949739 0.636081 0.706393
Si Si5 0.111587 0.128790 0.546377
Si Si6 0.500000 0.653081 0.500000
Si Si7 0.211347 0.354209 0.971704
Si Si8 0.817774 0.851574 0.898870
O O1 0.668847 0.326774 0.367314
O O2 0.836837 0.652589 0.610950
O O3 0.725828 0.751801 0.643838
O O4 0.635888 0.820462 0.252387
O O5 0.763913 0.126509 0.313078
O O6 0.559302 0.179407 0.943310
O O7 0.466843 0.413909 0.562452
O O8 0.668146 0.309289 0.897551
O O9 0.543012 0.887324 0.680228
O O10 0.956211 0.325522 0.665831
O O11 0.931847 0.824452 0.541766
O O12 0.060012 0.757352 0.950819
O O13 0.124029 0.247563 0.719106
O O14 0.199516 0.670597 0.990400
O O15 0.196919 0.166365 0.085347
#
# Coordination Sequence:
#
# PCOD9112874 Si02
#       8
#     2   2   2   2   2   1   2   2
#     4  10  20  35  51  75 103 147 197 231 253 287
#     4   9  18  34  57  75 105 137 177 225 260 300
#     4  10  20  38  59  91 112 130 162 211 267 325
#     4  10  20  34  51  71 103 140 195 248 261 287
#     4   9  19  34  51  72  99 143 180 225 282 308
#     4  10  20  34  64  94 112 126 156 204 278 328
#     4  11  23  36  52  77 114 141 172 214 268 341
#     4  12  23  33  50  76 107 152 186 220 272 305
#
# _framework density 26.332459
#
# number of rings (size 3 to 8) (size 9 to 14) (size 15 to 20)
#    0.000    1.867    0.000    4.400    0.000    7.467 
#    0.000    5.333    0.000    0.000    0.000   65.333 
#    0.000    0.000    0.000    0.000    0.000    0.000 
#
# Total GULP energy -83839.866933 kJ/mol
# GULP energy per Si atom -5589.324462 kJ/mol
# Density = 2.627253 g / cm^3
# Si number density = 26.332459 Si / 1000 Ang^3
#
#
#
# Elastic Constant Matrix: (Units=GPa)
#
#
# Indices 1 2 3 4 5 6 
#
# 1 64.5152 -8.0014 14.0724 0.0000 31.7154 0.0000
# 2 -8.0014 102.8044 3.7941 0.0000 4.6511 0.0000
# 3 14.0724 3.7941 129.5050 0.0000 -9.5112 0.0000
# 4 0.0000 0.0000 0.0000 28.4452 0.0000 2.0096
# 5 31.7154 4.6511 -9.5112 0.0000 34.2228 0.0000
# 6 0.0000 0.0000 0.0000 2.0096 0.0000 21.9207
#
#
#
# Elastic Compliance Matrix: (Units=1/GPa)
#
#
# Indices 1 2 3 4 5 6 
#
# 1 0.034155 0.004431 -0.006340 0.000000 -0.034017 0.000000
# 2 0.004431 0.010382 -0.001216 0.000000 -0.005855 0.000000
# 3 -0.006340 -0.001216 0.009075 0.000000 0.008562 0.000000
# 4 0.000000 0.000000 0.000000 0.035385 0.000000 -0.003244
# 5 -0.034017 -0.005855 0.008562 0.000000 0.063920 0.000000
# 6 0.000000 0.000000 0.000000 -0.003244 0.000000 0.045916
#
#
# Mechanical properties :
#
#
# Convention : Reuss Voigt Hill
#
# Bulk Modulus (GPa) = 21.11302 35.17276 28.14289
# Shear Modulus (GPa) = 22.63787 36.04838 29.34312
#
# Velocity S-wave (km/s) = 2.93524 3.70398 3.34178
# Velocity P-wave (km/s) = 4.41846 5.62839 5.05972
#
# Compressibility (1/GPa) = 0.04736414
#
# Stress axis : x y z
#
# Youngs Moduli (GPa) = 29.27821 96.32162 110.19218
#
# Poissons Ratio (x) = -0.42683 0.69857
# Poissons Ratio (y) = -0.12974 0.13396
# Poissons Ratio (z) = 0.18561 0.11710
#
# Static dielectric constant tensor:
#      x y z
#    x 2.188720 0.000000 0.030300 
#    y 0.000000 1.914390 0.000000 
#    z 0.030300 0.000000 2.091310 
# 
# From -- ./inp_files/9552.got.cif
#   From: 2010.05.17/outbox.cif.g08.bks.cpg/sg3_5_cif.got.tgz:9552.got - 2010.06.03 18:33:08.
