data_PCOD9112219
_publ_section_title
;
Structure prediction by ZEFSAII (Michael W. Deem and Ramdas Pophale) SiO2 
 PCOD9112219
Probable space group: P -1
;
_chemical_formula_sum "Si O2"
_cell_formula_units_Z 14
_cell_length_a 7.177370
_cell_length_b 18.025504
_cell_length_c 12.543509
_cell_angle_alpha 28.997119
_cell_angle_beta 93.264171
_cell_angle_gamma 74.751101
_cell_volume 599.310146
_symmetry_space_group_name_H-M "P -1"
_symmetry_group_IT_number 2
_symmetry_cell_setting 'triclinic'
loop_
_space_group_symop_operation_xyz
x,y,z
-x,-y,-z
loop_
_atom_site_type_symbol
_atom_site_label
_atom_site_fract_x
_atom_site_fract_y
_atom_site_fract_z
Si Si1 0.726026 0.146584 0.758789
Si Si2 0.840293 0.937238 0.382464
Si Si3 0.904492 0.559884 0.301535
Si Si4 0.791058 0.423152 0.293841
Si Si5 0.664072 0.988496 0.747141
Si Si6 0.387967 0.886342 0.633712
Si Si7 0.566528 0.291091 0.791562
O O1 0.687018 0.332507 0.468902
O O2 0.694795 0.038818 0.802194
O O3 0.555131 0.216801 0.768852
O O4 0.000000 0.000000 0.000000
O O5 0.601695 0.953660 0.336324
O O6 0.068523 0.718263 0.625716
O O7 0.819241 0.000388 0.424510
O O8 0.810133 0.098773 0.098409
O O9 0.983355 0.408204 0.399046
O O10 0.629494 0.649647 0.201489
O O11 0.000000 0.500000 0.500000
O O12 0.875577 0.751010 0.029683
O O13 0.590139 0.653812 0.963781
O O14 0.677877 0.098571 0.511258
O O15 0.500000 0.000000 0.500000
O O16 0.500000 0.500000 0.500000
#
# Coordination Sequence:
#
# PCOD9112219 Si02
#       7
#     2   2   2   2   2   2   2
#     4  12  24  40  63  93 129 166 211 260 321 382
#     4  10  22  39  67  94 123 167 218 259 313 380
#     4  11  23  38  61  94 127 165 213 258 317 381
#     4  12  22  40  67  94 125 172 213 259 319 378
#     4  10  24  42  62  90 129 167 206 270 314 370
#     4  10  20  45  63  90 132 163 213 267 315 368
#     4  11  21  39  61  89 132 170 198 263 329 365
#
# _framework density 23.360194
#
# number of rings (size 3 to 8) (size 9 to 14) (size 15 to 20)
#    0.000    1.143    7.143    0.857    2.000    4.000 
#    0.000    0.714    0.000    0.000    0.000    0.000 
#    0.000    0.000    0.000    0.000    0.000    0.000 
#
# Total GULP energy -78155.017232 kJ/mol
# GULP energy per Si atom -5582.501231 kJ/mol
# Density = 2.330703 g / cm^3
# Si number density = 23.360194 Si / 1000 Ang^3
#
#
#
# Elastic Constant Matrix: (Units=GPa)
#
#
# Indices 1 2 3 4 5 6 
#
# 1 34.7930 21.6474 8.4207 0.3250 -8.5599 5.8273
# 2 21.6474 175.5418 37.5786 5.4542 0.7314 -1.5259
# 3 8.4207 37.5786 128.4076 4.9433 -18.8114 -11.0453
# 4 0.3250 5.4542 4.9433 44.3925 0.5180 -0.0063
# 5 -8.5599 0.7314 -18.8114 0.5180 25.4319 5.1520
# 6 5.8273 -1.5259 -11.0453 -0.0063 5.1520 39.1439
#
#
#
# Elastic Compliance Matrix: (Units=1/GPa)
#
#
# Indices 1 2 3 4 5 6 
#
# 1 0.036258 -0.004689 0.000433 0.000096 0.014140 -0.007319
# 2 -0.004689 0.006760 -0.002088 -0.000523 -0.003475 0.000830
# 3 0.000433 -0.002088 0.009566 -0.000893 0.006969 0.001636
# 4 0.000096 -0.000523 -0.000893 0.022701 -0.001046 -0.000145
# 5 0.014140 -0.003475 0.006969 -0.001046 0.050765 -0.006956
# 6 -0.007319 0.000830 0.001636 -0.000145 -0.006956 0.028046
#
#
# Mechanical properties :
#
#
# Convention : Reuss Voigt Hill
#
# Bulk Modulus (GPa) = 25.06619 52.67065 38.86842
# Shear Modulus (GPa) = 27.76471 39.86670 33.81571
#
# Velocity S-wave (km/s) = 3.45127 4.13559 3.80883
# Velocity P-wave (km/s) = 5.16094 6.73797 6.00148
#
# Compressibility (1/GPa) = 0.03989437
#
# Stress axis : x y z
#
# Youngs Moduli (GPa) = 27.58008 147.93044 104.53169
#
# Poissons Ratio (x) = 0.69371 -0.04523
# Poissons Ratio (y) = 0.12933 0.21830
# Poissons Ratio (z) = -0.01193 0.30893
#
# Static dielectric constant tensor:
#      x y z
#    x 2.049520 0.033070 0.079580 
#    y 0.033070 1.891520 -0.027280 
#    z 0.079580 -0.027280 1.981660 
# 
# From -- ./inp_files/179721.got.cif
#   From: 2010.05.17/outbox.cif.g08.bks.cpg/sg2_90_cif.got.tgz:179721.got - 2010.06.03 11:33:40.
