data_PCOD9112552
_publ_section_title
;
Structure prediction by ZEFSAII (Michael W. Deem and Ramdas Pophale) SiO2 
 PCOD9112552
Probable space group: P 2
;
_chemical_formula_sum "Si O2"
_cell_formula_units_Z 16
_cell_length_a 8.690263
_cell_length_b 12.629806
_cell_length_c 8.405878
_cell_angle_alpha 90.000000
_cell_angle_beta 116.137182
_cell_angle_gamma 90.000000
_cell_volume 828.255202
_symmetry_space_group_name_H-M "P 2"
_symmetry_group_IT_number 3
_symmetry_cell_setting 'monoclinic'
loop_
_space_group_symop_operation_xyz
x,y,z
-x,y,-z
loop_
_atom_site_type_symbol
_atom_site_label
_atom_site_fract_x
_atom_site_fract_y
_atom_site_fract_z
Si Si1 0.803615 0.970680 0.470833
Si Si2 0.196292 0.736861 0.535046
Si Si3 0.813024 0.191630 0.341024
Si Si4 0.495625 0.582720 0.692591
Si Si5 0.513431 0.339125 0.316236
Si Si6 0.805386 0.968651 0.852815
Si Si7 0.808265 0.728342 0.850747
Si Si8 0.664788 0.167734 0.959378
O O1 0.733714 0.855009 0.392070
O O2 0.796790 0.978200 0.658158
O O3 0.000000 0.967286 0.500000
O O4 0.734437 0.078969 0.364824
O O5 0.324715 0.648034 0.657737
O O6 0.189832 0.730691 0.340508
O O7 0.000000 0.725551 0.500000
O O8 0.690754 0.285322 0.342692
O O9 0.818998 0.186983 0.153074
O O10 0.000000 0.201986 0.500000
O O11 0.500000 0.583942 0.500000
O O12 0.494776 0.460632 0.741750
O O13 0.662985 0.644541 0.830399
O O14 0.500000 0.335667 0.500000
O O15 0.367453 0.265458 0.172461
O O16 0.760247 0.848157 0.879430
O O17 0.000000 0.984655 0.000000
O O18 0.692203 0.058931 0.880348
O O19 0.000000 0.705330 0.000000
O O20 0.500000 0.163576 0.000000
#
# Coordination Sequence:
#
# PCOD9112552 Si02
#       8
#     2   2   2   2   2   2   2   2
#     4   9  17  30  53  84 114 142 177 221 272 332
#     4   9  18  34  57  84 111 141 178 221 271 328
#     4  10  20  36  56  78 110 144 178 226 276 325
#     4   9  19  37  57  77 106 145 185 225 271 324
#     4  10  21  38  56  76 106 144 188 231 273 323
#     4  10  18  32  56  83 112 144 179 221 274 331
#     4   9  19  36  55  80 112 143 178 222 271 326
#     4  10  22  37  54  80 115 145 181 229 275 327
#
# _framework density 19.317716000000001
#
# number of rings (size 3 to 8) (size 9 to 14) (size 15 to 20)
#    0.000    2.500    0.000    2.250    0.000    3.500 
#    0.000   12.500    0.000    0.000    0.000    0.000 
#    0.000    0.000    0.000    0.000    0.000    0.000 
#
# Total GULP energy -89260.167536 kJ/mol
# GULP energy per Si atom -5578.760471 kJ/mol
# Density = 1.927375 g / cm^3
# Si number density = 19.317716 Si / 1000 Ang^3
#
#
#
# Elastic Constant Matrix: (Units=GPa)
#
#
# Indices 1 2 3 4 5 6 
#
# 1 57.4572 66.3068 21.5370 0.0000 6.7488 0.0000
# 2 66.3068 200.5501 60.3993 0.0000 17.2917 0.0000
# 3 21.5370 60.3993 86.4181 0.0000 17.0204 0.0000
# 4 0.0000 0.0000 0.0000 34.9799 0.0000 10.1963
# 5 6.7488 17.2917 17.0204 0.0000 28.4894 0.0000
# 6 0.0000 0.0000 0.0000 10.1963 0.0000 30.8950
#
#
#
# Elastic Compliance Matrix: (Units=1/GPa)
#
#
# Indices 1 2 3 4 5 6 
#
# 1 0.028189 -0.009096 -0.000499 0.000000 -0.000859 0.000000
# 2 -0.009096 0.009297 -0.004017 0.000000 -0.001089 0.000000
# 3 -0.000499 -0.004017 0.015867 0.000000 -0.006923 0.000000
# 4 0.000000 0.000000 0.000000 0.031631 0.000000 -0.010439
# 5 -0.000859 -0.001089 -0.006923 0.000000 0.040101 0.000000
# 6 0.000000 0.000000 0.000000 -0.010439 0.000000 0.035813
#
#
# Mechanical properties :
#
#
# Convention : Reuss Voigt Hill
#
# Bulk Modulus (GPa) = 38.26987 71.21239 54.74113
# Shear Modulus (GPa) = 25.40269 31.95169 28.67719
#
# Velocity S-wave (km/s) = 3.63022 4.07136 3.85710
# Velocity P-wave (km/s) = 6.11761 7.68408 6.94515
#
# Compressibility (1/GPa) = 0.02613022
#
# Stress axis : x y z
#
# Youngs Moduli (GPa) = 35.47535 107.56084 63.02424
#
# Poissons Ratio (x) = 0.97832 0.03144
# Poissons Ratio (y) = 0.32267 0.25315
# Poissons Ratio (z) = 0.01770 0.43204
#
# Static dielectric constant tensor:
#      x y z
#    x 1.664640 0.000000 0.006830 
#    y 0.000000 1.679880 0.000000 
#    z 0.006830 0.000000 1.692150 
# 
# From -- ./inp_files/5986.got.cif
#   From: 2010.05.17/outbox.cif.g08.bks.cpg/sg3_3_cif.got.tgz:5986.got - 2010.06.03 18:33:08.
