data_PCOD9112332
_publ_section_title
;
Structure prediction by ZEFSAII (Michael W. Deem and Ramdas Pophale) SiO2 
 PCOD9112332
Probable space group: P -1
;
_chemical_formula_sum "Si O2"
_cell_formula_units_Z 13
_cell_length_a 10.440836
_cell_length_b 9.564180
_cell_length_c 5.002498
_cell_angle_alpha 103.420939
_cell_angle_beta 90.077213
_cell_angle_gamma 93.957747
_cell_volume 484.661348
_symmetry_space_group_name_H-M "P -1"
_symmetry_group_IT_number 2
_symmetry_cell_setting 'triclinic'
loop_
_space_group_symop_operation_xyz
x,y,z
-x,-y,-z
loop_
_atom_site_type_symbol
_atom_site_label
_atom_site_fract_x
_atom_site_fract_y
_atom_site_fract_z
Si Si1 0.215012 0.375249 0.963014
Si Si2 0.168194 0.699253 0.147940
Si Si3 0.089313 0.869299 0.743779
Si Si4 0.813955 0.826823 0.617437
Si Si5 0.443720 0.777007 0.906206
Si Si6 0.500000 0.500000 0.000000
Si Si7 0.654124 0.983476 0.304159
O O1 0.154580 0.526829 0.084599
O O2 0.215968 0.278690 0.183985
O O3 0.158931 0.278690 0.677409
O O4 0.359638 0.423931 0.897322
O O5 0.136954 0.773959 0.456652
O O6 0.314317 0.747870 0.072940
O O7 0.081812 0.763156 0.947654
O O8 0.948784 0.918909 0.707029
O O9 0.206702 0.990204 0.827213
O O10 0.699107 0.922472 0.560898
O O11 0.551298 0.872516 0.113728
O O12 0.487748 0.618377 0.802741
O O13 0.407396 0.864563 0.681941
#
# Coordination Sequence:
#
# PCOD9112332 Si02
#       7
#     2   2   2   2   2   1   2
#     4  11  25  43  70 102 140 177 232 281 349 398
#     4  10  23  44  67 104 132 186 227 289 338 401
#     4  11  24  43  69  95 144 181 234 273 338 406
#     4  12  25  43  67 104 136 186 226 281 333 419
#     4   9  20  43  73  99 139 176 233 283 344 402
#     4  10  20  46  72 102 136 176 224 288 340 406
#     4  10  22  44  67 104 139 184 224 283 343 407
#
# _framework density 26.822856000000002
#
# number of rings (size 3 to 8) (size 9 to 14) (size 15 to 20)
#    0.000    1.538    1.538    2.308    0.000    7.385 
#    8.308    5.385    0.000    0.000    0.000    0.000 
#    0.000    0.000    0.000    0.000    0.000    0.000 
#
# Total GULP energy -72612.291482 kJ/mol
# GULP energy per Si atom -5585.560883 kJ/mol
# Density = 2.676181 g / cm^3
# Si number density = 26.822856 Si / 1000 Ang^3
#
#
#
# Elastic Constant Matrix: (Units=GPa)
#
#
# Indices 1 2 3 4 5 6 
#
# 1 136.5016 31.8417 36.5614 4.3305 33.2398 26.6699
# 2 31.8417 197.2968 77.6273 -50.2736 10.5706 -12.4508
# 3 36.5614 77.6273 159.3156 -29.5506 10.7535 -1.7720
# 4 4.3305 -50.2736 -29.5506 37.7253 -6.0374 -4.3253
# 5 33.2398 10.5706 10.7535 -6.0374 57.9278 7.5455
# 6 26.6699 -12.4508 -1.7720 -4.3253 7.5455 45.9072
#
#
#
# Elastic Compliance Matrix: (Units=1/GPa)
#
#
# Indices 1 2 3 4 5 6 
#
# 1 0.012301 -0.003839 -0.002585 -0.010446 -0.005885 -0.008304
# 2 -0.003839 0.010038 -0.001524 0.013512 0.001287 0.005955
# 3 -0.002585 -0.001524 0.008579 0.005273 0.000479 0.001838
# 4 -0.010446 0.013512 0.005273 0.052425 0.006209 0.013856
# 5 -0.005885 0.001287 0.000479 0.006209 0.020840 0.000946
# 6 -0.008304 0.005955 0.001838 0.013856 0.000946 0.029443
#
#
# Mechanical properties :
#
#
# Convention : Reuss Voigt Hill
#
# Bulk Modulus (GPa) = 66.57434 87.24164 76.90799
# Shear Modulus (GPa) = 32.35638 51.45097 41.90368
#
# Velocity S-wave (km/s) = 3.47695 4.38445 3.95680
# Velocity P-wave (km/s) = 6.40256 7.63066 7.04343
#
# Compressibility (1/GPa) = 0.01502080
#
# Stress axis : x y z
#
# Youngs Moduli (GPa) = 81.29574 99.62564 116.56360
#
# Poissons Ratio (x) = 0.38243 0.30135
# Poissons Ratio (y) = 0.31206 0.17768
# Poissons Ratio (z) = 0.21017 0.15186
#
# Static dielectric constant tensor:
#      x y z
#    x 2.149350 -0.162350 -0.031650 
#    y -0.162350 1.189950 -0.141780 
#    z -0.031650 -0.141780 2.046420 
# 
# From -- ./inp_files/59274.got.cif
#   From: 2010.05.17/outbox.cif.g08.bks.cpg/sg2_30_cif.got.tgz:59274.got - 2010.06.03 11:33:40.
