data_PCOD9112927
_publ_section_title
;
Structure prediction by ZEFSAII (Michael W. Deem and Ramdas Pophale) SiO2 
 PCOD9112927
Probable space group: P 2
;
_chemical_formula_sum "Si O2"
_cell_formula_units_Z 13
_cell_length_a 18.393945
_cell_length_b 5.821231
_cell_length_c 4.876907
_cell_angle_alpha 90.000000
_cell_angle_beta 76.337215
_cell_angle_gamma 90.000000
_cell_volume 507.420047
_symmetry_space_group_name_H-M "P 2"
_symmetry_group_IT_number 3
_symmetry_cell_setting 'monoclinic'
loop_
_space_group_symop_operation_xyz
x,y,z
-x,y,-z
loop_
_atom_site_type_symbol
_atom_site_label
_atom_site_fract_x
_atom_site_fract_y
_atom_site_fract_z
Si Si1 0.929087 0.748710 0.177342
Si Si2 0.703643 0.586924 0.672160
Si Si3 0.647046 0.191636 0.313895
Si Si4 0.000000 0.129104 0.500000
Si Si5 0.792100 0.968082 0.251385
Si Si6 0.149113 0.365512 0.395868
Si Si7 0.585326 0.941171 0.892983
O O1 0.862831 0.847429 0.045419
O O2 0.887113 0.578590 0.414475
O O3 0.967568 0.959619 0.299219
O O4 0.000000 0.616859 0.000000
O O5 0.667078 0.416367 0.476777
O O6 0.748725 0.781940 0.469050
O O7 0.770499 0.461042 0.783414
O O8 0.640232 0.723210 0.896915
O O9 0.726318 0.084045 0.144011
O O10 0.605930 0.027230 0.570803
O O11 0.599015 0.160011 0.082329
O O12 0.073672 0.264992 0.322320
O O13 0.824337 0.166859 0.418483
O O14 0.500000 0.869070 0.000000
#
# Coordination Sequence:
#
# PCOD9112927 Si02
#       7
#     2   2   2   1   2   2   2
#     4  10  20  36  57  88 123 172 223 279 350 402
#     4   9  20  42  71  95 137 185 233 284 359 428
#     4  10  22  43  68 102 139 185 236 293 354 429
#     4  10  20  36  58  86 132 168 230 290 342 398
#     4   8  18  39  61  86 130 169 225 286 343 416
#     4   9  18  37  63  89 130 175 229 288 343 415
#     4  11  24  44  72 107 146 184 236 297 360 431
#
# _framework density 25.619800999999999
#
# number of rings (size 3 to 8) (size 9 to 14) (size 15 to 20)
#    0.000    2.462    0.000    0.923    0.000    5.538 
#   19.385    3.077   10.154    0.000    0.000    0.000 
#    0.000    0.000    0.000    0.000    0.000    0.000 
#
# Total GULP energy -72541.092073 kJ/mol
# GULP energy per Si atom -5580.084006 kJ/mol
# Density = 2.556149 g / cm^3
# Si number density = 25.619801 Si / 1000 Ang^3
#
#
#
# Elastic Constant Matrix: (Units=GPa)
#
#
# Indices 1 2 3 4 5 6 
#
# 1 189.6938 74.0036 45.6714 0.0000 -37.5589 0.0000
# 2 74.0036 110.6772 30.0647 0.0000 -15.9047 0.0000
# 3 45.6714 30.0647 74.4362 0.0000 -10.3140 0.0000
# 4 0.0000 0.0000 0.0000 -91.5857 0.0000 -156.2305
# 5 -37.5589 -15.9047 -10.3140 0.0000 27.2087 0.0000
# 6 0.0000 0.0000 0.0000 -156.2305 0.0000 -148.0952
#
#
#
# Elastic Compliance Matrix: (Units=1/GPa)
#
#
# Indices 1 2 3 4 5 6 
#
# 1 0.009479 -0.004204 -0.002792 0.000000 0.009568 0.000000
# 2 -0.004204 0.012596 -0.002419 0.000000 0.000642 0.000000
# 3 -0.002792 -0.002419 0.016248 0.000000 0.000891 0.000000
# 4 0.000000 0.000000 0.000000 0.013656 0.000000 -0.014406
# 5 0.009568 0.000642 0.000891 0.000000 0.050674 0.000000
# 6 0.000000 0.000000 0.000000 -0.014406 0.000000 0.008445
#
#
# Mechanical properties :
#
#
# Convention : Reuss Voigt Hill
#
# Bulk Modulus (GPa) = 51.30258 74.92072 63.11165
# Shear Modulus (GPa) = 36.65016 -27.48994 4.58011
#
# Velocity S-wave (km/s) = 3.78635 -3.27922 1.33851
# Velocity P-wave (km/s) = 6.25966 3.86899 5.20348
#
# Compressibility (1/GPa) = 0.01949220
#
# Stress axis : x y z
#
# Youngs Moduli (GPa) = 105.50178 79.39107 61.54723
#
# Poissons Ratio (x) = 0.33379 0.17182
# Poissons Ratio (y) = 0.44357 0.14887
# Poissons Ratio (z) = 0.29453 0.19203
#
# Static dielectric constant tensor:
#      x y z
#    x 2.208740 0.000000 0.141260 
#    y 0.000000 2.064960 0.000000 
#    z 0.141260 0.000000 2.255260 
# 
# From -- ./inp_files/3428.got.cif
#   From: 2010.05.17/outbox.cif.g08.bks.cpg/sg3_2_cif.got.tgz:3428.got - 2010.06.03 18:33:08.
