data_PCOD9112662
_publ_section_title
;
Structure prediction by ZEFSAII (Michael W. Deem and Ramdas Pophale) SiO2 
 PCOD9112662
Probable space group: P 2
;
_chemical_formula_sum "Si O2"
_cell_formula_units_Z 16
_cell_length_a 8.090234
_cell_length_b 20.170745
_cell_length_c 8.176400
_cell_angle_alpha 90.000000
_cell_angle_beta 36.716866
_cell_angle_gamma 90.000000
_cell_volume 797.710807
_symmetry_space_group_name_H-M "P 2"
_symmetry_group_IT_number 3
_symmetry_cell_setting 'monoclinic'
loop_
_space_group_symop_operation_xyz
x,y,z
-x,y,-z
loop_
_atom_site_type_symbol
_atom_site_label
_atom_site_fract_x
_atom_site_fract_y
_atom_site_fract_z
Si Si1 0.183892 0.198210 0.192760
Si Si2 0.696078 0.297496 0.197442
Si Si3 0.314579 0.547202 0.310250
Si Si4 0.684438 0.690422 0.691165
Si Si5 0.385561 0.831853 0.405873
Si Si6 0.682296 0.401453 0.691846
Si Si7 0.114943 0.910635 0.092299
Si Si8 0.817579 0.048832 0.802826
O O1 0.103029 0.123304 0.205061
O O2 0.000000 0.216837 0.500000
O O3 0.500000 0.196650 0.000000
O O4 0.198233 0.245967 0.025095
O O5 0.500000 0.268052 0.500000
O O6 0.473121 0.348224 0.296622
O O7 0.000000 0.328978 0.000000
O O8 0.370204 0.618394 0.348919
O O9 0.340422 0.474906 0.370713
O O10 0.000000 0.549188 0.500000
O O11 0.500000 0.546220 0.000000
O O12 0.629923 0.755324 0.629367
O O13 0.000000 0.692214 0.500000
O O14 0.500000 0.693682 0.000000
O O15 0.500000 0.835363 0.500000
O O16 0.096509 0.869854 0.629047
O O17 0.595363 0.873366 0.129309
O O18 0.000000 0.388608 0.500000
O O19 0.500000 0.402407 0.000000
O O20 0.137378 0.987985 0.112732
O O21 0.000000 0.904599 0.000000
O O22 0.000000 0.034656 0.500000
O O23 0.500000 0.049956 0.000000
#
# Coordination Sequence:
#
# PCOD9112662 Si02
#       8
#     2   2   2   2   2   2   2   2
#     4  10  22  42  63  84 114 156 196 231 286 361
#     4  12  25  39  59  93 127 151 191 254 300 340
#     4   8  16  31  53  80 106 137 186 233 272 327
#     4  10  19  32  53  80 106 137 182 235 275 314
#     4  10  21  35  50  74 109 145 180 216 269 338
#     4  10  20  38  63  84 111 158 199 231 285 359
#     4  10  21  36  53  75 107 145 179 218 273 337
#     4  10  21  37  59  84 108 137 185 238 275 322
#
# _framework density 20.057393000000001
#
# number of rings (size 3 to 8) (size 9 to 14) (size 15 to 20)
#    0.000    2.000    0.000    3.375    0.000    4.500 
#    0.000    2.500    0.000    2.250    0.000    0.000 
#    0.000    0.000    0.000    0.000    0.000    0.000 
#
# Total GULP energy -89166.214989 kJ/mol
# GULP energy per Si atom -5572.888437 kJ/mol
# Density = 2.001174 g / cm^3
# Si number density = 20.057393 Si / 1000 Ang^3
#
#
#
# Elastic Constant Matrix: (Units=GPa)
#
#
# Indices 1 2 3 4 5 6 
#
# 1 34.1241 38.2049 37.1832 0.0000 0.1242 0.0000
# 2 38.2049 154.7495 46.8642 0.0000 9.6401 0.0000
# 3 37.1832 46.8642 172.9326 0.0000 -23.7007 0.0000
# 4 0.0000 0.0000 0.0000 17.8780 0.0000 -43.7147
# 5 0.1242 9.6401 -23.7007 0.0000 13.4738 0.0000
# 6 0.0000 0.0000 0.0000 -43.7147 0.0000 -160.0475
#
#
#
# Elastic Compliance Matrix: (Units=1/GPa)
#
#
# Indices 1 2 3 4 5 6 
#
# 1 0.049839 -0.008502 -0.010069 0.000000 -0.012087 0.000000
# 2 -0.008502 0.010011 -0.002445 0.000000 -0.011385 0.000000
# 3 -0.010069 -0.002445 0.011678 0.000000 0.022384 0.000000
# 4 0.000000 0.000000 0.000000 0.033537 0.000000 -0.009160
# 5 -0.012087 -0.011385 0.022384 0.000000 0.121850 0.000000
# 6 0.000000 0.000000 0.000000 -0.009160 0.000000 -0.003746
#
#
# Mechanical properties :
#
#
# Convention : Reuss Voigt Hill
#
# Bulk Modulus (GPa) = 33.90322 67.36789 50.63556
# Shear Modulus (GPa) = 18.17968 -9.76890 4.20539
#
# Velocity S-wave (km/s) = 3.01389 -2.20931 1.44956
# Velocity P-wave (km/s) = 5.38991 5.21080 5.30111
#
# Compressibility (1/GPa) = 0.02949572
#
# Stress axis : x y z
#
# Youngs Moduli (GPa) = 20.06454 99.89173 85.63152
#
# Poissons Ratio (x) = 0.84930 0.86220
# Poissons Ratio (y) = 0.17059 0.20938
# Poissons Ratio (z) = 0.20202 0.24425
#
# Static dielectric constant tensor:
#      x y z
#    x 1.730910 0.000000 0.000850 
#    y 0.000000 1.772700 0.000000 
#    z 0.000850 0.000000 1.720640 
# 
# From -- ./inp_files/6315.got.cif
#   From: 2010.05.17/outbox.cif.g08.bks.cpg/sg3_4_cif.got.tgz:6315.got - 2010.06.03 18:33:08.
