data_PCOD9112799
_publ_section_title
;
Structure prediction by ZEFSAII (Michael W. Deem and Ramdas Pophale) SiO2 
 PCOD9112799
Probable space group: P 2
;
_chemical_formula_sum "Si O2"
_cell_formula_units_Z 16
_cell_length_a 7.555700
_cell_length_b 17.284324
_cell_length_c 8.051944
_cell_angle_alpha 90.000000
_cell_angle_beta 142.808832
_cell_angle_gamma 90.000000
_cell_volume 635.634039
_symmetry_space_group_name_H-M "P 2"
_symmetry_group_IT_number 3
_symmetry_cell_setting 'monoclinic'
loop_
_space_group_symop_operation_xyz
x,y,z
-x,y,-z
loop_
_atom_site_type_symbol
_atom_site_label
_atom_site_fract_x
_atom_site_fract_y
_atom_site_fract_z
Si Si1 0.998331 0.239270 0.681539
Si Si2 0.797849 0.016335 0.015417
Si Si3 0.674881 0.488757 0.955279
Si Si4 0.913781 0.759891 0.626926
Si Si5 0.545400 0.323128 0.730908
Si Si6 0.320340 0.846928 0.146346
Si Si7 0.174870 0.587476 0.454727
Si Si8 0.308340 0.088868 0.511921
O O1 0.792010 0.311250 0.474118
O O2 0.815225 0.171771 0.635130
O O3 0.000000 0.198701 0.500000
O O4 0.255699 0.268562 0.997334
O O5 0.647746 0.933137 0.901502
O O6 0.551351 0.082716 0.834897
O O7 0.000000 0.022341 0.000000
O O8 0.036204 0.032436 0.333205
O O9 0.663168 0.408315 0.850592
O O10 0.494899 0.555487 0.728300
O O11 0.500000 0.476055 0.000000
O O12 0.995957 0.521981 0.223916
O O13 0.635875 0.817405 0.447513
O O14 0.000000 0.761208 0.500000
O O15 0.828342 0.673539 0.619101
O O16 0.217424 0.783416 0.938841
O O17 0.500000 0.308670 0.500000
O O18 0.000000 0.852212 0.000000
O O19 0.000000 0.592626 0.500000
O O20 0.500000 0.058578 0.500000
#
# Coordination Sequence:
#
# PCOD9112799 Si02
#       8
#     2   2   2   2   2   2   2   2
#     4  12  25  43  65  94 129 169 212 264 323 390
#     4   9  19  36  60  87 120 163 210 257 315 387
#     4  10  19  37  62  88 117 160 211 262 316 383
#     4  11  22  39  61  92 129 170 216 269 326 389
#     4  12  26  43  65  95 130 168 211 265 325 390
#     4  11  22  39  63  92 127 170 217 267 325 394
#     4   9  19  35  60  88 120 161 209 258 317 387
#     4  10  20  38  63  90 119 159 210 262 315 380
#
# _framework density 25.171714000000001
#
# number of rings (size 3 to 8) (size 9 to 14) (size 15 to 20)
#    0.000    1.500    0.000    5.625    0.000    7.000 
#    0.000    6.250    0.000    0.000    0.000    0.000 
#    0.000    0.000    0.000    0.000    0.000    0.000 
#
# Total GULP energy -89218.919557 kJ/mol
# GULP energy per Si atom -5576.182472 kJ/mol
# Density = 2.511442 g / cm^3
# Si number density = 25.171714 Si / 1000 Ang^3
#
#
#
# Elastic Constant Matrix: (Units=GPa)
#
#
# Indices 1 2 3 4 5 6 
#
# 1 58.1408 7.7383 32.4971 0.0000 6.3427 0.0000
# 2 7.7383 114.9927 31.1318 0.0000 -0.7960 0.0000
# 3 32.4971 31.1318 162.9859 0.0000 -0.5067 0.0000
# 4 0.0000 0.0000 0.0000 39.5058 0.0000 10.3186
# 5 6.3427 -0.7960 -0.5067 0.0000 15.6826 0.0000
# 6 0.0000 0.0000 0.0000 10.3186 0.0000 10.0126
#
#
#
# Elastic Compliance Matrix: (Units=1/GPa)
#
#
# Indices 1 2 3 4 5 6 
#
# 1 0.020415 -0.000341 -0.004032 0.000000 -0.008404 0.000000
# 2 -0.000341 0.009179 -0.001684 0.000000 0.000549 0.000000
# 3 -0.004032 -0.001684 0.007266 0.000000 0.001780 0.000000
# 4 0.000000 0.000000 0.000000 0.034636 0.000000 -0.035695
# 5 -0.008404 0.000549 0.001780 0.000000 0.067249 0.000000
# 6 0.000000 0.000000 0.000000 -0.035695 0.000000 0.136660
#
#
# Mechanical properties :
#
#
# Convention : Reuss Voigt Hill
#
# Bulk Modulus (GPa) = 40.40582 53.20599 46.80591
# Shear Modulus (GPa) = 16.90520 30.69033 23.79777
#
# Velocity S-wave (km/s) = 2.59433 3.49555 3.07810
# Velocity P-wave (km/s) = 5.00609 6.12168 5.59177
#
# Compressibility (1/GPa) = 0.02474891
#
# Stress axis : x y z
#
# Youngs Moduli (GPa) = 48.98316 108.94762 137.61853
#
# Poissons Ratio (x) = 0.03710 0.55482
# Poissons Ratio (y) = 0.01668 0.23170
# Poissons Ratio (z) = 0.19748 0.18343
#
# Static dielectric constant tensor:
#      x y z
#    x 2.571070 0.000000 -0.172870 
#    y 0.000000 1.963240 0.000000 
#    z -0.172870 0.000000 2.053780 
# 
# From -- ./inp_files/6267.got.cif
#   From: 2010.05.17/outbox.cif.g08.bks.cpg/sg3_4_cif.got.tgz:6267.got - 2010.06.03 18:33:08.
