data_PCOD9112156
_publ_section_title
;
Structure prediction by ZEFSAII (Michael W. Deem and Ramdas Pophale) SiO2 
 PCOD9112156
Probable space group: P -1
;
_chemical_formula_sum "Si O2"
_cell_formula_units_Z 16
_cell_length_a 4.966514
_cell_length_b 30.415001
_cell_length_c 5.130949
_cell_angle_alpha 117.167227
_cell_angle_beta 94.086674
_cell_angle_gamma 61.580897
_cell_volume 595.802424
_symmetry_space_group_name_H-M "P -1"
_symmetry_group_IT_number 2
_symmetry_cell_setting 'triclinic'
loop_
_space_group_symop_operation_xyz
x,y,z
-x,-y,-z
loop_
_atom_site_type_symbol
_atom_site_label
_atom_site_fract_x
_atom_site_fract_y
_atom_site_fract_z
Si Si1 0.216495 0.694956 0.773220
Si Si2 0.668049 0.462211 0.158203
Si Si3 0.186299 0.903825 0.326732
Si Si4 0.934973 0.169005 0.519323
Si Si5 0.613415 0.609980 0.919256
Si Si6 0.770510 0.807857 0.879957
Si Si7 0.344482 0.282949 0.848851
Si Si8 0.750878 0.002696 0.196178
O O1 0.959202 0.738293 0.668563
O O2 0.464741 0.716524 0.876446
O O3 0.984895 0.705176 0.032846
O O4 0.464555 0.627673 0.662319
O O5 0.500000 0.500000 0.500000
O O6 0.606905 0.408846 0.005806
O O7 0.033341 0.439840 0.157949
O O8 0.500000 0.500000 0.000000
O O9 0.091026 0.884239 0.528249
O O10 0.858648 0.835298 0.723626
O O11 0.366272 0.937780 0.501067
O O12 0.901437 0.950905 0.269013
O O13 0.082047 0.184809 0.819304
O O14 0.581568 0.220943 0.589153
O O15 0.593260 0.153384 0.973879
O O16 0.635180 0.665937 0.159973
O O17 0.500000 0.000000 0.000000
O O18 0.000000 0.000000 0.000000
#
# Coordination Sequence:
#
# PCOD9112156 Si02
#       8
#     2   2   2   2   2   2   2   2
#     4   9  18  42  70 106 151 190 243 302 381 459
#     4  12  26  47  70 103 144 196 260 313 368 439
#     4  11  28  49  82 111 160 204 264 328 396 472
#     4  11  26  46  76 115 155 198 253 312 391 473
#     4  10  20  44  72 106 146 199 244 314 380 444
#     4  11  26  46  76 115 155 198 253 312 391 473
#     4   9  18  42  70 106 151 190 243 302 381 459
#     4  11  30  53  79 114 154 208 272 324 396 462
#
# _framework density 26.854544000000001
#
# number of rings (size 3 to 8) (size 9 to 14) (size 15 to 20)
#    0.750    0.750    2.500    0.750    7.000    1.000 
#    4.500    1.875    0.000    0.000    0.000    0.000 
#    0.000    0.000    0.000    0.000    0.000    0.000 
#
# Total GULP energy -89439.776130 kJ/mol
# GULP energy per Si atom -5589.986008 kJ/mol
# Density = 2.679342 g / cm^3
# Si number density = 26.854544 Si / 1000 Ang^3
#
#
#
# Elastic Constant Matrix: (Units=GPa)
#
#
# Indices 1 2 3 4 5 6 
#
# 1 138.6470 35.5668 17.6725 -13.6044 3.7652 8.0728
# 2 35.5668 200.5325 33.6665 -34.8357 2.1127 12.9817
# 3 17.6725 33.6665 103.6318 -18.5867 -5.3977 7.0348
# 4 -13.6044 -34.8357 -18.5867 33.3200 5.7540 -0.6995
# 5 3.7652 2.1127 -5.3977 5.7540 32.2279 -3.7250
# 6 8.0728 12.9817 7.0348 -0.6995 -3.7250 50.7299
#
#
#
# Elastic Compliance Matrix: (Units=1/GPa)
#
#
# Indices 1 2 3 4 5 6 
#
# 1 0.007823 -0.000808 -0.000685 0.002203 -0.001487 -0.001022
# 2 -0.000808 0.006466 -0.000837 0.006235 -0.001751 -0.001453
# 3 -0.000685 -0.000837 0.011023 0.004799 0.001001 -0.001066
# 4 0.002203 0.006235 0.004799 0.041356 -0.007546 -0.002596
# 5 -0.001487 -0.001751 0.001001 -0.007546 0.033165 0.002877
# 6 -0.001022 -0.001453 -0.001066 -0.002596 0.002877 0.020570
#
#
# Mechanical properties :
#
#
# Convention : Reuss Voigt Hill
#
# Bulk Modulus (GPa) = 48.41846 68.51366 58.46606
# Shear Modulus (GPa) = 37.89373 46.98259 42.43816
#
# Velocity S-wave (km/s) = 3.76050 4.18727 3.97961
# Velocity P-wave (km/s) = 6.07653 6.99613 6.55248
#
# Compressibility (1/GPa) = 0.02065328
#
# Stress axis : x y z
#
# Youngs Moduli (GPa) = 127.82569 154.64893 90.71544
#
# Poissons Ratio (x) = 0.12497 0.06210
# Poissons Ratio (y) = 0.10330 0.07594
# Poissons Ratio (z) = 0.08751 0.12946
#
# Static dielectric constant tensor:
#      x y z
#    x 2.023810 -0.025230 0.056420 
#    y -0.025230 2.134280 0.085060 
#    z 0.056420 0.085060 2.269970 
# 
# From -- ./inp_files/14897.got.cif
#   From: 2010.05.17/outbox.cif.g08.bks.cpg/sg2_8_cif.got.tgz:14897.got - 2010.06.03 11:33:40.
