data_PCOD9112244
_publ_section_title
;
Structure prediction by ZEFSAII (Michael W. Deem and Ramdas Pophale) SiO2 
 PCOD9112244
Probable space group: P -1
;
_chemical_formula_sum "Si O2"
_cell_formula_units_Z 14
_cell_length_a 16.050379
_cell_length_b 7.351300
_cell_length_c 9.076651
_cell_angle_alpha 55.582087
_cell_angle_beta 113.551290
_cell_angle_gamma 141.408097
_cell_volume 549.228704
_symmetry_space_group_name_H-M "P -1"
_symmetry_group_IT_number 2
_symmetry_cell_setting 'triclinic'
loop_
_space_group_symop_operation_xyz
x,y,z
-x,-y,-z
loop_
_atom_site_type_symbol
_atom_site_label
_atom_site_fract_x
_atom_site_fract_y
_atom_site_fract_z
Si Si1 0.782707 0.035799 0.633772
Si Si2 0.914955 0.819555 0.840912
Si Si3 0.419820 0.882357 0.846157
Si Si4 0.846320 0.370952 0.251665
Si Si5 0.656425 0.739738 0.973838
Si Si6 0.839208 0.949587 0.261788
Si Si7 0.319658 0.524846 0.374196
O O1 0.893925 0.045448 0.740815
O O2 0.681123 0.711896 0.606483
O O3 0.842554 0.337403 0.440864
O O4 0.710307 0.963386 0.767042
O O5 0.787883 0.534745 0.774907
O O6 0.902612 0.664522 0.054558
O O7 0.047099 0.981112 0.774427
O O8 0.314012 0.888756 0.773298
O O9 0.337090 0.510785 0.939017
O O10 0.532714 0.114548 0.695674
O O11 0.500000 0.000000 0.000000
O O12 0.900646 0.237192 0.286874
O O13 0.752752 0.935558 0.090824
O O14 0.500000 0.500000 0.000000
O O15 0.741676 0.625718 0.440190
#
# Coordination Sequence:
#
# PCOD9112244 Si02
#       7
#     2   2   2   2   2   2   2
#     4   9  22  41  63  94 125 172 210 259 314 390
#     4  10  20  45  68  93 132 164 226 251 317 383
#     4  12  20  43  67  89 128 172 217 260 319 385
#     4  11  22  40  72  92 121 176 220 253 316 387
#     4  12  26  42  60  98 136 164 211 276 324 367
#     4  11  25  39  67  99 130 169 207 276 317 368
#     4   9  21  39  69  90 123 175 211 259 310 388
#
# _framework density 25.490292
#
# number of rings (size 3 to 8) (size 9 to 14) (size 15 to 20)
#    0.857    0.571    4.286    1.714    2.000    2.286 
#    0.000    0.714    0.000    0.000    0.000    0.000 
#    0.000    0.000    0.000    0.000    0.000    0.000 
#
# Total GULP energy -78347.733105 kJ/mol
# GULP energy per Si atom -5596.266650 kJ/mol
# Density = 2.543227 g / cm^3
# Si number density = 25.490292 Si / 1000 Ang^3
#
#
#
# Elastic Constant Matrix: (Units=GPa)
#
#
# Indices 1 2 3 4 5 6 
#
# 1 119.7629 10.4258 58.3597 -4.2639 -22.9213 19.4661
# 2 10.4258 44.3585 35.7302 -10.2182 -10.7647 5.8821
# 3 58.3597 35.7302 243.2374 -18.0550 -32.5129 16.2885
# 4 -4.2639 -10.2182 -18.0550 44.5847 6.1532 -0.0434
# 5 -22.9213 -10.7647 -32.5129 6.1532 44.3902 -9.7467
# 6 19.4661 5.8821 16.2885 -0.0434 -9.7467 37.3525
#
#
#
# Elastic Compliance Matrix: (Units=1/GPa)
#
#
# Indices 1 2 3 4 5 6 
#
# 1 0.010485 0.000323 -0.001876 -0.000142 0.003295 -0.003837
# 2 0.000323 0.027135 -0.003134 0.004517 0.003343 -0.002197
# 3 -0.001876 -0.003134 0.005388 0.001008 0.002000 -0.000355
# 4 -0.000142 0.004517 0.001008 0.024123 -0.001924 -0.001551
# 5 0.003295 0.003343 0.002000 -0.001924 0.027672 0.004103
# 6 -0.003837 -0.002197 -0.000355 -0.001551 0.004103 0.030341
#
#
# Mechanical properties :
#
#
# Convention : Reuss Voigt Hill
#
# Bulk Modulus (GPa) = 29.73257 68.48780 49.11018
# Shear Modulus (GPa) = 34.30977 45.45502 39.88240
#
# Velocity S-wave (km/s) = 3.67276 4.22741 3.95981
# Velocity P-wave (km/s) = 5.44749 7.12422 6.34152
#
# Compressibility (1/GPa) = 0.03363315
#
# Stress axis : x y z
#
# Youngs Moduli (GPa) = 95.37097 36.85213 185.61044
#
# Poissons Ratio (x) = -0.01190 0.34825
# Poissons Ratio (y) = -0.03078 0.58174
# Poissons Ratio (z) = 0.17894 0.11550
#
# Static dielectric constant tensor:
#      x y z
#    x 2.008550 -0.046690 0.001050 
#    y -0.046690 2.148760 0.002290 
#    z 0.001050 0.002290 1.999380 
# 
# From -- ./inp_files/325618.got.cif
#   From: 2010.05.17/outbox.cif.g08.bks.cpg/sg2_163_cif.got.tgz:325618.got - 2010.06.03 11:33:40.
