data_PCOD9112277
_publ_section_title
;
Structure prediction by ZEFSAII (Michael W. Deem and Ramdas Pophale) SiO2 
 PCOD9112277
Probable space group: P -1
;
_chemical_formula_sum "Si O2"
_cell_formula_units_Z 14
_cell_length_a 10.955483
_cell_length_b 11.966714
_cell_length_c 21.077165
_cell_angle_alpha 155.262672
_cell_angle_beta 25.299771
_cell_angle_gamma 144.465583
_cell_volume 493.732610
_symmetry_space_group_name_H-M "P -1"
_symmetry_group_IT_number 2
_symmetry_cell_setting 'triclinic'
loop_
_space_group_symop_operation_xyz
x,y,z
-x,-y,-z
loop_
_atom_site_type_symbol
_atom_site_label
_atom_site_fract_x
_atom_site_fract_y
_atom_site_fract_z
Si Si1 0.310740 0.865255 0.692179
Si Si2 0.259060 0.471814 0.019699
Si Si3 0.011212 0.028026 0.268229
Si Si4 0.670158 0.965256 0.688704
Si Si5 0.406512 0.938226 0.930617
Si Si6 0.300796 0.356203 0.709027
Si Si7 0.112338 0.610159 0.371461
O O1 0.485011 0.840914 0.531836
O O2 0.083850 0.635444 0.681266
O O3 0.205330 0.171219 0.912560
O O4 0.551799 0.812963 0.605978
O O5 0.560680 0.452059 0.830993
O O6 0.294293 0.720095 0.178894
O O7 0.987930 0.565318 0.153231
O O8 0.122919 0.058925 0.160228
O O9 0.793531 0.793521 0.260719
O O10 0.910267 0.280480 0.488790
O O11 0.309220 0.927607 0.109767
O O12 0.962147 0.845493 0.520621
O O13 0.439113 0.936973 0.839506
O O14 0.446980 0.637738 0.783889
#
# Coordination Sequence:
#
# PCOD9112277 Si02
#       7
#     2   2   2   2   2   2   2
#     4  12  26  43  72 101 140 178 228 279 338 410
#     4  12  26  43  67 105 143 175 225 281 342 406
#     4  10  20  45  73  97 132 178 232 278 335 401
#     4  11  24  48  68  98 140 186 222 275 345 402
#     4  10  22  42  74  96 132 186 225 275 338 405
#     4  12  23  44  72 103 137 179 225 281 346 398
#     4  11  24  45  71 101 136 178 230 278 340 401
#
# _framework density 28.355429000000001
#
# number of rings (size 3 to 8) (size 9 to 14) (size 15 to 20)
#    0.000    0.857    7.143    1.286    2.000    4.000 
#    0.000    1.429    0.000    0.000    0.000    0.000 
#    0.000    0.000    0.000    0.000    0.000    0.000 
#
# Total GULP energy -78533.509345 kJ/mol
# GULP energy per Si atom -5609.536382 kJ/mol
# Density = 2.829089 g / cm^3
# Si number density = 28.355429 Si / 1000 Ang^3
#
#
#
# Elastic Constant Matrix: (Units=GPa)
#
#
# Indices 1 2 3 4 5 6 
#
# 1 50.5677 20.7637 28.7481 -0.8671 1.5499 -4.8878
# 2 20.7637 155.1271 48.4952 9.4523 7.0601 13.1511
# 3 28.7481 48.4952 145.0132 -5.4001 -8.7399 -4.2012
# 4 -0.8671 9.4523 -5.4001 73.2186 -1.2668 2.8787
# 5 1.5499 7.0601 -8.7399 -1.2668 60.0272 -6.2922
# 6 -4.8878 13.1511 -4.2012 2.8787 -6.2922 32.7526
#
#
#
# Elastic Compliance Matrix: (Units=1/GPa)
#
#
# Indices 1 2 3 4 5 6 
#
# 1 0.023219 -0.002234 -0.003771 0.000129 -0.000487 0.003774
# 2 -0.002234 0.008021 -0.002503 -0.001115 -0.001704 -0.004105
# 3 -0.003771 -0.002503 0.008679 0.000879 0.001866 0.001837
# 4 0.000129 -0.001115 0.000879 0.013898 0.000492 -0.000548
# 5 -0.000487 -0.001704 0.001866 0.000492 0.017593 0.004187
# 6 0.003774 -0.004105 0.001837 -0.000548 0.004187 0.033831
#
#
# Mechanical properties :
#
#
# Convention : Reuss Voigt Hill
#
# Bulk Modulus (GPa) = 43.66319 60.74691 52.20505
# Shear Modulus (GPa) = 38.49365 50.04642 44.27004
#
# Velocity S-wave (km/s) = 3.68848 4.20571 3.95556
# Velocity P-wave (km/s) = 5.79412 6.71222 6.27000
#
# Compressibility (1/GPa) = 0.02290258
#
# Stress axis : x y z
#
# Youngs Moduli (GPa) = 43.06871 124.66979 115.22295
#
# Poissons Ratio (x) = 0.27857 0.43451
# Poissons Ratio (y) = 0.09624 0.28835
# Poissons Ratio (z) = 0.16241 0.31200
#
# Static dielectric constant tensor:
#      x y z
#    x 2.187580 -0.014100 0.003800 
#    y -0.014100 2.188600 0.034290 
#    z 0.003800 0.034290 2.210150 
# 
# From -- ./inp_files/619599.got.cif
#   From: 2010.05.17/outbox.cif.g08.bks.cpg/sg2_310_cif.got.tgz:619599.got - 2010.06.03 11:33:40.
