data_PCOD9112710
_publ_section_title
;
Structure prediction by ZEFSAII (Michael W. Deem and Ramdas Pophale) SiO2 
 PCOD9112710
Probable space group: P 2
;
_chemical_formula_sum "Si O2"
_cell_formula_units_Z 16
_cell_length_a 8.065218
_cell_length_b 18.001864
_cell_length_c 8.298237
_cell_angle_alpha 90.000000
_cell_angle_beta 144.744837
_cell_angle_gamma 90.000000
_cell_volume 695.440328
_symmetry_space_group_name_H-M "P 2"
_symmetry_group_IT_number 3
_symmetry_cell_setting 'monoclinic'
loop_
_space_group_symop_operation_xyz
x,y,z
-x,y,-z
loop_
_atom_site_type_symbol
_atom_site_label
_atom_site_fract_x
_atom_site_fract_y
_atom_site_fract_z
Si Si1 0.083809 0.017330 0.882810
Si Si2 0.305328 0.096412 0.642935
Si Si3 0.891046 0.852844 0.101524
Si Si4 0.100005 0.521587 0.393069
Si Si5 0.600121 0.609121 0.894231
Si Si6 0.605741 0.766514 0.399528
Si Si7 0.325750 0.265621 0.705269
Si Si8 0.194276 0.373600 0.306869
O O1 0.406959 0.047206 0.105990
O O2 0.000000 0.004612 0.000000
O O3 0.835289 0.074849 0.636637
O O4 0.055983 0.934692 0.786447
O O5 0.416480 0.180566 0.746911
O O6 0.000000 0.085866 0.500000
O O7 0.062211 0.788559 0.331154
O O8 0.560167 0.830943 0.828179
O O9 0.000000 0.850787 0.000000
O O10 0.429413 0.545692 0.662776
O O11 0.034211 0.441291 0.267474
O O12 0.000000 0.520074 0.500000
O O13 0.930980 0.585907 0.162934
O O14 0.498175 0.688025 0.748894
O O15 0.500000 0.606374 0.000000
O O16 0.500000 0.768949 0.500000
O O17 0.299325 0.312162 0.520017
O O18 0.000000 0.260335 0.500000
O O19 0.500000 0.295802 0.000000
O O20 0.500000 0.406511 0.500000
O O21 0.000000 0.347942 0.000000
#
# Coordination Sequence:
#
# PCOD9112710 Si02
#       8
#     2   2   2   2   2   2   2   2
#     4  11  22  39  64  92 125 169 216 269 331 397
#     4  11  23  41  64  93 128 166 217 274 326 389
#     4   9  19  35  56  84 118 157 203 249 310 386
#     4  10  22  41  62  84 120 168 204 239 310 396
#     4  10  21  37  59  86 116 155 205 253 300 372
#     4  10  19  34  56  82 115 156 199 251 310 372
#     4  11  24  45  69  91 127 181 221 255 324 413
#     4  12  26  42  65 100 132 158 208 282 327 367
#
# _framework density 23.007003999999998
#
# number of rings (size 3 to 8) (size 9 to 14) (size 15 to 20)
#    0.000    1.500    0.000    5.625    0.000    6.500 
#    0.000    2.500    0.000    0.750    0.000    0.000 
#    0.000    0.000    0.000    0.000    0.000    0.000 
#
# Total GULP energy -89230.806697 kJ/mol
# GULP energy per Si atom -5576.925419 kJ/mol
# Density = 2.295464 g / cm^3
# Si number density = 23.007004 Si / 1000 Ang^3
#
#
#
# Elastic Constant Matrix: (Units=GPa)
#
#
# Indices 1 2 3 4 5 6 
#
# 1 25.7776 27.2400 27.5319 0.0000 -6.1549 0.0000
# 2 27.2400 107.9384 46.1881 0.0000 -14.6534 0.0000
# 3 27.5319 46.1881 156.3285 0.0000 -6.6535 0.0000
# 4 0.0000 0.0000 0.0000 21.3034 0.0000 0.7668
# 5 -6.1549 -14.6534 -6.6535 0.0000 30.5075 0.0000
# 6 0.0000 0.0000 0.0000 0.7668 0.0000 33.9781
#
#
#
# Elastic Compliance Matrix: (Units=1/GPa)
#
#
# Indices 1 2 3 4 5 6 
#
# 1 0.059335 -0.011347 -0.006884 0.000000 0.005019 0.000000
# 2 -0.011347 0.013410 -0.001804 0.000000 0.003759 0.000000
# 3 -0.006884 -0.001804 0.008121 0.000000 -0.000484 0.000000
# 4 0.000000 0.000000 0.000000 0.046979 0.000000 -0.001060
# 5 0.005019 0.003759 -0.000484 0.000000 0.035491 0.000000
# 6 0.000000 0.000000 0.000000 -0.001060 0.000000 0.029455
#
#
# Mechanical properties :
#
#
# Convention : Reuss Voigt Hill
#
# Bulk Modulus (GPa) = 24.51131 54.66274 39.58702
# Shear Modulus (GPa) = 20.28732 29.76343 25.02537
#
# Velocity S-wave (km/s) = 2.97271 3.60066 3.30165
# Velocity P-wave (km/s) = 4.73916 6.41070 5.63723
#
# Compressibility (1/GPa) = 0.04079750
#
# Stress axis : x y z
#
# Youngs Moduli (GPa) = 16.85354 74.56969 123.13099
#
# Poissons Ratio (x) = 0.84615 0.84758
# Poissons Ratio (y) = 0.19124 0.22210
# Poissons Ratio (z) = 0.11601 0.13451
#
# Static dielectric constant tensor:
#      x y z
#    x 1.936320 0.000000 -0.053350 
#    y 0.000000 1.886340 0.000000 
#    z -0.053350 0.000000 1.855860 
# 
# From -- ./inp_files/6260.got.cif
#   From: 2010.05.17/outbox.cif.g08.bks.cpg/sg3_4_cif.got.tgz:6260.got - 2010.06.03 18:33:08.
