data_PCOD9112906
_publ_section_title
;
Structure prediction by ZEFSAII (Michael W. Deem and Ramdas Pophale) SiO2 
 PCOD9112906
Probable space group: P 2
;
_chemical_formula_sum "Si O2"
_cell_formula_units_Z 15
_cell_length_a 15.143573
_cell_length_b 5.272908
_cell_length_c 10.455739
_cell_angle_alpha 90.000000
_cell_angle_beta 112.855931
_cell_angle_gamma 90.000000
_cell_volume 769.345262
_symmetry_space_group_name_H-M "P 2"
_symmetry_group_IT_number 3
_symmetry_cell_setting 'monoclinic'
loop_
_space_group_symop_operation_xyz
x,y,z
-x,y,-z
loop_
_atom_site_type_symbol
_atom_site_label
_atom_site_fract_x
_atom_site_fract_y
_atom_site_fract_z
Si Si1 0.910200 0.006620 0.863583
Si Si2 0.390156 0.815060 0.896565
Si Si3 0.836222 0.270481 0.562458
Si Si4 0.000000 0.983945 0.500000
Si Si5 0.022208 0.626857 0.296141
Si Si6 0.217546 0.795702 0.991534
Si Si7 0.851951 0.301156 0.168506
Si Si8 0.310734 0.323567 0.721316
O O1 0.861059 0.161924 0.718353
O O2 0.964215 0.770729 0.827500
O O3 0.000000 0.122733 0.000000
O O4 0.820365 0.899143 0.894270
O O5 0.323712 0.793660 0.988116
O O6 0.369809 0.576362 0.790625
O O7 0.361498 0.075038 0.808199
O O8 0.500000 0.818496 0.000000
O O9 0.908899 0.132375 0.504267
O O10 0.873603 0.559117 0.591325
O O11 0.729857 0.270594 0.443953
O O12 0.030389 0.800238 0.631449
O O13 0.961265 0.371159 0.253012
O O14 0.180281 0.508543 0.955159
O O15 0.167324 0.014008 0.878009
O O16 0.785918 0.365960 0.250916
#
# Coordination Sequence:
#
# PCOD9112906 Si02
#       8
#     2   2   2   1   2   2   2   2
#     4  11  23  37  55  84 127 175 221 244 289 358
#     4  10  22  42  70  98 117 148 197 266 335 381
#     4  11  24  35  55  84 123 174 209 261 301 358
#     4  10  22  34  50  80 122 162 220 246 296 350
#     4  11  22  33  54  79 124 169 222 246 292 348
#     4  10  22  38  58  90 120 162 200 255 304 370
#     4  10  20  35  58  83 120 163 201 248 298 351
#     4  10  22  37  65  92 125 147 201 254 323 376
#
# _framework density 19.497095999999999
#
# number of rings (size 3 to 8) (size 9 to 14) (size 15 to 20)
#    0.000    1.600    1.333    3.200   13.067    0.533 
#    0.000    0.000    0.000    0.800    0.000    0.000 
#    0.000    0.000    0.000    0.000    0.000    0.000 
#
# Total GULP energy -83573.271840 kJ/mol
# GULP energy per Si atom -5571.551456 kJ/mol
# Density = 1.945272 g / cm^3
# Si number density = 19.497096 Si / 1000 Ang^3
#
#
#
# Elastic Constant Matrix: (Units=GPa)
#
#
# Indices 1 2 3 4 5 6 
#
# 1 94.5983 32.0584 59.8943 0.0000 16.9081 0.0000
# 2 32.0584 87.0849 45.3790 0.0000 16.3023 0.0000
# 3 59.8943 45.3790 120.4516 0.0000 15.4125 0.0000
# 4 0.0000 0.0000 0.0000 27.6057 0.0000 1.9427
# 5 16.9081 16.3023 15.4125 0.0000 32.8986 0.0000
# 6 0.0000 0.0000 0.0000 1.9427 0.0000 18.0688
#
#
#
# Elastic Compliance Matrix: (Units=1/GPa)
#
#
# Indices 1 2 3 4 5 6 
#
# 1 0.016275 -0.001557 -0.006951 0.000000 -0.004336 0.000000
# 2 -0.001557 0.015203 -0.004353 0.000000 -0.004694 0.000000
# 3 -0.006951 -0.004353 0.013473 0.000000 -0.000583 0.000000
# 4 0.000000 0.000000 0.000000 0.036501 0.000000 -0.003924
# 5 -0.004336 -0.004694 -0.000583 0.000000 0.035224 0.000000
# 6 0.000000 0.000000 0.000000 -0.003924 0.000000 0.055766
#
#
# Mechanical properties :
#
#
# Convention : Reuss Voigt Hill
#
# Bulk Modulus (GPa) = 52.00541 64.08868 58.04705
# Shear Modulus (GPa) = 24.44116 26.70151 25.57134
#
# Velocity S-wave (km/s) = 3.54443 3.70471 3.62546
# Velocity P-wave (km/s) = 6.59409 7.15836 6.88201
#
# Compressibility (1/GPa) = 0.01922877
#
# Stress axis : x y z
#
# Youngs Moduli (GPa) = 61.44451 65.77563 74.22342
#
# Poissons Ratio (x) = 0.10244 0.51593
# Poissons Ratio (y) = 0.09569 0.32307
# Poissons Ratio (z) = 0.42711 0.28630
#
# Static dielectric constant tensor:
#      x y z
#    x 1.671680 0.000000 -0.010310 
#    y 0.000000 1.749270 0.000000 
#    z -0.010310 0.000000 1.783760 
# 
# From -- ./inp_files/8347.got.cif
#   From: 2010.05.17/outbox.cif.g08.bks.cpg/sg3_5_cif.got.tgz:8347.got - 2010.06.03 18:33:08.
