data_PCOD9112907
_publ_section_title
;
Structure prediction by ZEFSAII (Michael W. Deem and Ramdas Pophale) SiO2 
 PCOD9112907
Probable space group: P 2
;
_chemical_formula_sum "Si O2"
_cell_formula_units_Z 11
_cell_length_a 7.755635
_cell_length_b 5.872762
_cell_length_c 12.505811
_cell_angle_alpha 90.000000
_cell_angle_beta 127.269718
_cell_angle_gamma 90.000000
_cell_volume 453.285776
_symmetry_space_group_name_H-M "P 2"
_symmetry_group_IT_number 3
_symmetry_cell_setting 'monoclinic'
loop_
_space_group_symop_operation_xyz
x,y,z
-x,y,-z
loop_
_atom_site_type_symbol
_atom_site_label
_atom_site_fract_x
_atom_site_fract_y
_atom_site_fract_z
Si Si1 0.268747 0.208160 0.434080
Si Si2 0.224519 0.883228 0.615457
Si Si3 0.650838 0.276220 0.916170
Si Si4 0.000000 0.641926 0.000000
Si Si5 0.807510 0.195114 0.199059
Si Si6 0.316788 0.902091 0.254746
O O1 0.500000 0.332030 0.500000
O O2 0.237813 0.107284 0.541270
O O3 0.040839 0.309795 0.307707
O O4 0.293360 0.988780 0.365466
O O5 0.204508 0.975249 0.728220
O O6 0.000000 0.761702 0.500000
O O7 0.456650 0.770119 0.680121
O O8 0.803714 0.489989 0.966275
O O9 0.401809 0.338790 0.843380
O O10 0.666849 0.122520 0.816957
O O11 0.750302 0.140739 0.055094
O O12 0.895102 0.777748 0.864060
#
# Coordination Sequence:
#
# PCOD9112907 Si02
#       6
#     2   2   2   1   2   2
#     4   9  16  30  58  85 106 141 184 224 272 331
#     4   8  16  32  58  82 105 143 183 224 276 329
#     4  10  21  36  56  82 113 144 185 235 273 331
#     4  12  22  34  54  82 116 154 184 224 282 326
#     4   9  17  34  54  79 112 141 177 227 277 320
#     4  10  20  35  58  84 109 145 187 227 281 331
#
# _framework density 24.267251999999999
#
# number of rings (size 3 to 8) (size 9 to 14) (size 15 to 20)
#    0.000    2.545    0.000    2.727    0.000    0.000 
#    0.000   18.182    0.000   72.000    0.000    0.000 
#    0.000    0.000    0.000    0.000    0.000    0.000 
#
# Total GULP energy -61408.724030 kJ/mol
# GULP energy per Si atom -5582.611275 kJ/mol
# Density = 2.421202 g / cm^3
# Si number density = 24.267252 Si / 1000 Ang^3
#
#
#
# Elastic Constant Matrix: (Units=GPa)
#
#
# Indices 1 2 3 4 5 6 
#
# 1 124.5106 21.9911 53.4426 0.0000 45.4140 0.0000
# 2 21.9911 16.7831 21.3921 0.0000 12.8986 0.0000
# 3 53.4426 21.3921 158.5717 0.0000 23.8653 0.0000
# 4 0.0000 0.0000 0.0000 -24.8777 0.0000 -20.6088
# 5 45.4140 12.8986 23.8653 0.0000 85.1947 0.0000
# 6 0.0000 0.0000 0.0000 -20.6088 0.0000 -2.7173
#
#
#
# Elastic Compliance Matrix: (Units=1/GPa)
#
#
# Indices 1 2 3 4 5 6 
#
# 1 0.012348 -0.010023 -0.002137 0.000000 -0.004466 0.000000
# 2 -0.010023 0.086572 -0.007446 0.000000 -0.005678 0.000000
# 3 -0.002137 -0.007446 0.008029 0.000000 0.000018 0.000000
# 4 0.000000 0.000000 0.000000 0.007609 0.000000 -0.057708
# 5 -0.004466 -0.005678 0.000018 0.000000 0.014973 0.000000
# 6 0.000000 0.000000 0.000000 -0.057708 0.000000 0.069661
#
#
# Mechanical properties :
#
#
# Convention : Reuss Voigt Hill
#
# Bulk Modulus (GPa) = 14.76337 54.83523 34.79930
# Shear Modulus (GPa) = 19.15825 25.05592 22.10709
#
# Velocity S-wave (km/s) = 2.81280 3.21674 3.02153
# Velocity P-wave (km/s) = 4.07995 6.03672 5.15209
#
# Compressibility (1/GPa) = 0.06773520
#
# Stress axis : x y z
#
# Youngs Moduli (GPa) = 80.98450 11.55103 124.55622
#
# Poissons Ratio (x) = 0.11578 0.26621
# Poissons Ratio (y) = 0.81172 0.92750
# Poissons Ratio (z) = 0.17309 0.08601
#
# Static dielectric constant tensor:
#      x y z
#    x 1.979340 0.000000 0.059270 
#    y 0.000000 1.952260 0.000000 
#    z 0.059270 0.000000 1.999910 
# 
# From -- ./inp_files/13157.got.cif
#   From: 2010.05.17/outbox.cif.g08.bks.cpg/sg3_7_cif.got.tgz:13157.got - 2010.06.03 18:33:08.
