data_PCOD9112165
_publ_section_title
;
Structure prediction by ZEFSAII (Michael W. Deem and Ramdas Pophale) SiO2 
 PCOD9112165
Probable space group: P -1
;
_chemical_formula_sum "Si O2"
_cell_formula_units_Z 14
_cell_length_a 13.899636
_cell_length_b 6.817782
_cell_length_c 15.078129
_cell_angle_alpha 80.703778
_cell_angle_beta 150.382825
_cell_angle_gamma 117.121350
_cell_volume 531.491794
_symmetry_space_group_name_H-M "P -1"
_symmetry_group_IT_number 2
_symmetry_cell_setting 'triclinic'
loop_
_space_group_symop_operation_xyz
x,y,z
-x,-y,-z
loop_
_atom_site_type_symbol
_atom_site_label
_atom_site_fract_x
_atom_site_fract_y
_atom_site_fract_z
Si Si1 0.680685 0.496276 0.880979
Si Si2 0.776524 0.542608 0.142152
Si Si3 0.894390 0.789725 0.508397
Si Si4 0.000000 0.500000 0.000000
Si Si5 0.613336 0.877990 0.008170
Si Si6 0.407732 0.078040 0.341709
Si Si7 0.000000 0.000000 0.000000
Si Si8 0.278706 0.750947 0.596747
O O1 0.379862 0.318818 0.667654
O O2 0.816265 0.499051 0.077104
O O3 0.749056 0.396463 0.861654
O O4 0.820431 0.799559 0.956379
O O5 0.589061 0.270547 0.062972
O O6 0.042237 0.740404 0.391997
O O7 0.637229 0.662163 0.013384
O O8 0.846275 0.537874 0.450623
O O9 0.000000 0.000000 0.500000
O O10 0.106315 0.896660 0.746170
O O11 0.125489 0.810526 0.099926
O O12 0.493939 0.928782 0.829784
O O13 0.500000 0.000000 0.500000
O O14 0.282551 0.193668 0.271367
O O15 0.602441 0.208379 0.408333
#
# Coordination Sequence:
#
# PCOD9112165 Si02
#       8
#     2   2   2   1   2   2   1   2
#     4  11  22  48  74 105 150 193 246 313 361 443
#     4  11  23  46  73 100 151 190 237 307 372 430
#     4  12  24  46  75 107 152 197 243 304 380 434
#     4  10  26  44  70 104 134 190 252 288 358 428
#     4  11  24  44  70 107 146 194 237 300 369 448
#     4  11  24  46  71 102 140 187 243 304 364 423
#     4  10  20  44  72  94 138 188 236 298 358 416
#     4  12  25  44  72 110 143 195 243 302 369 447
#
# _framework density 26.340952000000001
#
# number of rings (size 3 to 8) (size 9 to 14) (size 15 to 20)
#    0.000    0.857    4.286    3.000    2.000    2.857 
#    0.000    1.429    0.000    0.000    0.000    0.000 
#    0.000    0.000    0.000    0.000    0.000    0.000 
#
# Total GULP energy -77961.521936 kJ/mol
# GULP energy per Si atom -5568.680138 kJ/mol
# Density = 2.628100 g / cm^3
# Si number density = 26.340952 Si / 1000 Ang^3
#
#
#
# Elastic Constant Matrix: (Units=GPa)
#
#
# Indices 1 2 3 4 5 6 
#
# 1 87.9476 40.3281 62.8336 -4.7686 26.6096 19.5911
# 2 40.3281 134.6987 54.3661 3.5717 -5.9510 26.6427
# 3 62.8336 54.3661 224.4495 -28.8314 10.0947 29.4159
# 4 -4.7686 3.5717 -28.8314 58.7143 -2.3589 -2.5027
# 5 26.6096 -5.9510 10.0947 -2.3589 46.0131 11.7202
# 6 19.5911 26.6427 29.4159 -2.5027 11.7202 49.6981
#
#
#
# Elastic Compliance Matrix: (Units=1/GPa)
#
#
# Indices 1 2 3 4 5 6 
#
# 1 0.019743 -0.004752 -0.003894 -0.000480 -0.011118 -0.000333
# 2 -0.004752 0.010426 -0.001049 -0.001508 0.005380 -0.004440
# 3 -0.003894 -0.001049 0.006344 0.002838 0.001336 -0.001830
# 4 -0.000480 -0.001508 0.002838 0.018500 0.000367 0.000163
# 5 -0.011118 0.005380 0.001336 0.000367 0.030214 -0.006399
# 6 -0.000333 -0.004440 -0.001830 0.000163 -0.006399 0.025233
#
#
# Mechanical properties :
#
#
# Convention : Reuss Voigt Hill
#
# Bulk Modulus (GPa) = 58.40034 84.68348 71.54191
# Shear Modulus (GPa) = 36.88455 50.18962 43.53709
#
# Velocity S-wave (km/s) = 3.74608 4.36981 4.06991
# Velocity P-wave (km/s) = 6.39765 7.59467 7.02171
#
# Compressibility (1/GPa) = 0.01712319
#
# Stress axis : x y z
#
# Youngs Moduli (GPa) = 50.64960 95.91462 157.63289
#
# Poissons Ratio (x) = 0.45579 0.61384
# Poissons Ratio (y) = 0.24069 0.16534
# Poissons Ratio (z) = 0.19724 0.10061
#
# Static dielectric constant tensor:
#      x y z
#    x 2.110700 -0.035800 -0.013260 
#    y -0.035800 2.185490 -0.108740 
#    z -0.013260 -0.108740 2.118420 
# 
# From -- ./inp_files/529375.got.cif
#   From: 2010.05.17/outbox.cif.g08.bks.cpg/sg2_265_cif.got.tgz:529375.got - 2010.06.03 11:33:40.
