data_PCOD9112998
_publ_section_title
;
Structure prediction by ZEFSAII (Michael W. Deem and Ramdas Pophale) SiO2 
 PCOD9112998
Probable space group: P 2
;
_chemical_formula_sum "Si O2"
_cell_formula_units_Z 12
_cell_length_a 11.087695
_cell_length_b 8.829006
_cell_length_c 8.085037
_cell_angle_alpha 90.000000
_cell_angle_beta 48.136041
_cell_angle_gamma 90.000000
_cell_volume 589.433495
_symmetry_space_group_name_H-M "P 2"
_symmetry_group_IT_number 3
_symmetry_cell_setting 'monoclinic'
loop_
_space_group_symop_operation_xyz
x,y,z
-x,y,-z
loop_
_atom_site_type_symbol
_atom_site_label
_atom_site_fract_x
_atom_site_fract_y
_atom_site_fract_z
Si Si1 0.367999 0.058530 0.513572
Si Si2 0.687301 0.626670 0.284752
Si Si3 0.819268 0.295558 0.101431
Si Si4 0.169263 0.802309 0.537829
Si Si5 0.619080 0.152204 0.040547
Si Si6 0.214275 0.820961 0.127115
O O1 0.500000 0.965491 0.500000
O O2 0.243968 0.150429 0.737741
O O3 0.489729 0.168706 0.307863
O O4 0.273043 0.952575 0.477221
O O5 0.500000 0.636520 0.500000
O O6 0.730985 0.451758 0.220238
O O7 0.788475 0.693112 0.347940
O O8 0.727303 0.718393 0.079247
O O9 0.773506 0.252155 0.953517
O O10 0.000000 0.316601 0.000000
O O11 0.221938 0.749705 0.305554
O O12 0.979309 0.843675 0.717595
O O13 0.500000 0.190538 0.000000
O O14 0.686063 0.979451 0.965291
#
# Coordination Sequence:
#
# PCOD9112998 Si02
#       6
#     2   2   2   2   2   2
#     4  10  20  37  64  90 122 163 213 259 314 379
#     4  12  25  43  67  93 131 174 216 267 324 391
#     4  11  24  44  65  91 128 174 216 262 326 391
#     4  11  22  41  66  97 132 165 217 268 319 383
#     4  11  21  40  65  96 128 162 213 268 318 375
#     4  11  24  40  66 100 128 170 214 267 325 381
#
# _framework density 20.358530999999999
#
# number of rings (size 3 to 8) (size 9 to 14) (size 15 to 20)
#    0.000    1.000    1.667    7.500    0.000    0.000 
#    6.000    0.000    0.000    0.000    0.000    0.000 
#    0.000    0.000    0.000    0.000    0.000    0.000 
#
# Total GULP energy -66905.716423 kJ/mol
# GULP energy per Si atom -5575.476369 kJ/mol
# Density = 2.031219 g / cm^3
# Si number density = 20.358531 Si / 1000 Ang^3
#
#
#
# Elastic Constant Matrix: (Units=GPa)
#
#
# Indices 1 2 3 4 5 6 
#
# 1 165.9779 43.6398 53.3468 0.0000 7.9027 0.0000
# 2 43.6398 73.8367 18.6192 0.0000 2.8083 0.0000
# 3 53.3468 18.6192 99.8627 0.0000 1.2019 0.0000
# 4 0.0000 0.0000 0.0000 139.9446 0.0000 -19.8444
# 5 7.9027 2.8083 1.2019 0.0000 36.3727 0.0000
# 6 0.0000 0.0000 0.0000 -19.8444 0.0000 22.2335
#
#
#
# Elastic Compliance Matrix: (Units=1/GPa)
#
#
# Indices 1 2 3 4 5 6 
#
# 1 0.008309 -0.003928 -0.003690 0.000000 -0.001380 0.000000
# 2 -0.003928 0.016106 -0.000900 0.000000 -0.000360 0.000000
# 3 -0.003690 -0.000900 0.012147 0.000000 0.000470 0.000000
# 4 0.000000 0.000000 0.000000 0.008181 0.000000 0.007302
# 5 -0.001380 -0.000360 0.000470 0.000000 0.027805 0.000000
# 6 0.000000 0.000000 0.000000 0.007302 0.000000 0.051494
#
#
# Mechanical properties :
#
#
# Convention : Reuss Voigt Hill
#
# Bulk Modulus (GPa) = 51.21406 63.43211 57.32308
# Shear Modulus (GPa) = 33.87809 54.64826 44.26317
#
# Velocity S-wave (km/s) = 4.08373 5.18664 4.66787
# Velocity P-wave (km/s) = 6.88814 8.19106 7.56769
#
# Compressibility (1/GPa) = 0.01952589
#
# Stress axis : x y z
#
# Youngs Moduli (GPa) = 120.34584 62.08963 82.32449
#
# Poissons Ratio (x) = 0.24390 0.30377
# Poissons Ratio (y) = 0.47274 0.07410
# Poissons Ratio (z) = 0.44406 0.05589
#
# Static dielectric constant tensor:
#      x y z
#    x 1.529340 0.000000 -0.149790 
#    y 0.000000 1.687580 0.000000 
#    z -0.149790 0.000000 1.613280 
# 
# From -- ./inp_files/7285.got.cif
#   From: 2010.05.17/outbox.cif.g08.bks.cpg/sg3_4_cif.got.tgz:7285.got - 2010.06.03 18:33:08.
