data_PCOD9112248
_publ_section_title
;
Structure prediction by ZEFSAII (Michael W. Deem and Ramdas Pophale) SiO2 
 PCOD9112248
Probable space group: P -1
;
_chemical_formula_sum "Si O2"
_cell_formula_units_Z 16
_cell_length_a 18.883320
_cell_length_b 5.432397
_cell_length_c 10.751043
_cell_angle_alpha 87.543343
_cell_angle_beta 42.872053
_cell_angle_gamma 107.162273
_cell_volume 657.517933
_symmetry_space_group_name_H-M "P -1"
_symmetry_group_IT_number 2
_symmetry_cell_setting 'triclinic'
loop_
_space_group_symop_operation_xyz
x,y,z
-x,-y,-z
loop_
_atom_site_type_symbol
_atom_site_label
_atom_site_fract_x
_atom_site_fract_y
_atom_site_fract_z
Si Si1 0.888545 0.188556 0.286061
Si Si2 0.958026 0.142901 0.449466
Si Si3 0.121325 0.794613 0.978957
Si Si4 0.585245 0.543035 0.599487
Si Si5 0.831539 0.231832 0.827948
Si Si6 0.372435 0.886102 0.598885
Si Si7 0.362267 0.052530 0.287359
Si Si8 0.588535 0.979674 0.061765
O O1 0.916476 0.031202 0.366200
O O2 0.875738 0.071631 0.164131
O O3 0.765388 0.175532 0.489730
O O4 0.996876 0.505980 0.140438
O O5 0.853584 0.151173 0.663317
O O6 0.066649 0.453521 0.290215
O O7 0.000000 0.000000 0.500000
O O8 0.239358 0.756959 0.827548
O O9 0.142864 0.929945 0.087016
O O10 0.638320 0.372824 0.463814
O O11 0.631553 0.660091 0.675733
O O12 0.450771 0.306867 0.804290
O O13 0.608645 0.818792 0.489404
O O14 0.702033 0.204590 0.984291
O O15 0.500000 0.000000 0.500000
O O16 0.476001 0.034475 0.197118
O O17 0.380284 0.050230 0.118603
#
# Coordination Sequence:
#
# PCOD9112248 Si02
#       8
#     2   2   2   2   2   2   2   2
#     4  10  20  45  68  99 152 183 247 301 365 445
#     4  10  22  44  67 100 141 193 240 306 368 432
#     4  10  22  42  74 101 142 194 242 299 373 441
#     4  12  24  47  70 106 147 190 250 303 374 440
#     4  10  22  43  70 101 141 185 248 299 367 442
#     4  12  26  48  73 106 149 196 246 312 371 447
#     4  11  23  44  71 108 146 194 247 307 379 440
#     4  11  23  43  73 107 147 194 247 311 374 446
#
# _framework density 24.333938
#
# number of rings (size 3 to 8) (size 9 to 14) (size 15 to 20)
#    0.000    1.250    3.750    1.500    0.000    1.000 
#   11.250    5.000    0.000    0.000    0.000    0.000 
#    0.000    0.000    0.000    0.000    0.000    0.000 
#
# Total GULP energy -89103.512332 kJ/mol
# GULP energy per Si atom -5568.969521 kJ/mol
# Density = 2.427855 g / cm^3
# Si number density = 24.333938 Si / 1000 Ang^3
#
#
#
# Elastic Constant Matrix: (Units=GPa)
#
#
# Indices 1 2 3 4 5 6 
#
# 1 150.2971 29.6196 53.9746 -4.0487 -4.2762 6.9217
# 2 29.6196 61.2883 30.3892 25.0663 5.5766 -6.5285
# 3 53.9746 30.3892 144.6198 2.3877 -17.2113 4.7845
# 4 -4.0487 25.0663 2.3877 -6.0377 -2.2588 9.8077
# 5 -4.2762 5.5766 -17.2113 -2.2588 53.9669 2.7931
# 6 6.9217 -6.5285 4.7845 9.8077 2.7931 23.8733
#
#
#
# Elastic Compliance Matrix: (Units=1/GPa)
#
#
# Indices 1 2 3 4 5 6 
#
# 1 0.007479 -0.000028 -0.002783 -0.005133 -0.000535 0.000553
# 2 -0.000028 0.007785 -0.001790 0.021455 -0.000153 -0.006301
# 3 -0.002783 -0.001790 0.008707 -0.003545 0.002607 -0.000276
# 4 -0.005133 0.021455 -0.003545 -0.034667 -0.006398 0.023056
# 5 -0.000535 -0.000153 0.002607 -0.006398 0.019068 -0.000011
# 6 0.000553 -0.006301 -0.000276 0.023056 -0.000011 0.030589
#
#
# Mechanical properties :
#
#
# Convention : Reuss Voigt Hill
#
# Bulk Modulus (GPa) = 67.69877 64.90801 66.30339
# Shear Modulus (GPa) = 94.18685 30.50863 62.34774
#
# Velocity S-wave (km/s) = 6.22816 3.54467 5.06728
# Velocity P-wave (km/s) = 8.92195 6.59429 7.84493
#
# Compressibility (1/GPa) = 0.01477132
#
# Stress axis : x y z
#
# Youngs Moduli (GPa) = 133.70089 128.45045 114.84622
#
# Poissons Ratio (x) = 0.00358 0.31960
# Poissons Ratio (y) = 0.00372 0.20552
# Poissons Ratio (z) = 0.37207 0.22987
#
# Static dielectric constant tensor:
#      x y z
#    x 2.084780 -0.032630 0.071210 
#    y -0.032630 1.944210 0.028370 
#    z 0.071210 0.028370 2.076640 
# 
# From -- ./inp_files/468112.got.cif
#   From: 2010.05.17/outbox.cif.g08.bks.cpg/sg2_235_cif.got.tgz:468112.got - 2010.06.03 11:33:40.
