data_PCOD9112072
_publ_section_title
;
Structure prediction by ZEFSAII (Michael W. Deem and Ramdas Pophale) SiO2 
 PCOD9112072
Probable space group: P -1
;
_chemical_formula_sum "Si O2"
_cell_formula_units_Z 12
_cell_length_a 11.491668
_cell_length_b 7.762000
_cell_length_c 18.161706
_cell_angle_alpha 132.988774
_cell_angle_beta 31.863324
_cell_angle_gamma 143.859905
_cell_volume 504.313836
_symmetry_space_group_name_H-M "P -1"
_symmetry_group_IT_number 2
_symmetry_cell_setting 'triclinic'
loop_
_space_group_symop_operation_xyz
x,y,z
-x,-y,-z
loop_
_atom_site_type_symbol
_atom_site_label
_atom_site_fract_x
_atom_site_fract_y
_atom_site_fract_z
Si Si1 0.258720 0.838211 0.792361
Si Si2 0.662429 0.717866 0.742210
Si Si3 0.140657 0.252926 0.722794
Si Si4 0.334331 0.655503 0.494555
Si Si5 0.808974 0.110214 0.647375
Si Si6 0.894325 0.808928 0.102313
O O1 0.123870 0.496400 0.765424
O O2 0.584017 0.012305 0.677421
O O3 0.170974 0.959264 0.810765
O O4 0.151251 0.896182 0.941642
O O5 0.691884 0.498212 0.614127
O O6 0.372263 0.502468 0.874578
O O7 0.924467 0.934463 0.713514
O O8 0.651575 0.930662 0.753157
O O9 0.454203 0.369136 0.579325
O O10 0.088929 0.236023 0.833448
O O11 0.029265 0.458076 0.632585
O O12 0.500000 0.000000 0.500000
O O13 0.000000 0.000000 0.500000
#
# Coordination Sequence:
#
# PCOD9112072 Si02
#       6
#     2   2   2   2   2   2
#     4  11  22  45  73  94 143 177 224 288 324 408
#     4  10  23  42  68  99 134 175 227 275 337 404
#     4  11  23  44  68  98 139 181 217 286 337 399
#     4  10  23  43  67 101 133 176 229 274 335 402
#     4  10  20  44  68  99 131 181 225 271 344 401
#     4  10  24  45  67 104 133 179 232 273 340 390
#
# _framework density 23.794706000000001
#
# number of rings (size 3 to 8) (size 9 to 14) (size 15 to 20)
#    0.000    1.667    5.000    0.500    2.333    4.667 
#    9.000    1.667    0.000    0.000    0.000    0.000 
#    0.000    0.000    0.000    0.000    0.000    0.000 
#
# Total GULP energy -67089.359705 kJ/mol
# GULP energy per Si atom -5590.779975 kJ/mol
# Density = 2.374055 g / cm^3
# Si number density = 23.794706 Si / 1000 Ang^3
#
#
#
# Elastic Constant Matrix: (Units=GPa)
#
#
# Indices 1 2 3 4 5 6 
#
# 1 53.6979 42.3328 20.0897 1.6033 0.3358 -2.7594
# 2 42.3328 198.3007 37.5183 4.0414 -3.8626 3.5684
# 3 20.0897 37.5183 59.6303 -9.1271 -12.3631 2.5807
# 4 1.6033 4.0414 -9.1271 21.9363 -5.3561 -1.2596
# 5 0.3358 -3.8626 -12.3631 -5.3561 27.6399 -1.7206
# 6 -2.7594 3.5684 2.5807 -1.2596 -1.7206 54.8711
#
#
#
# Elastic Compliance Matrix: (Units=1/GPa)
#
#
# Indices 1 2 3 4 5 6 
#
# 1 0.024938 -0.003813 -0.008079 -0.005724 -0.005460 0.001579
# 2 -0.003813 0.006554 -0.003461 -0.002679 -0.001140 -0.000552
# 3 -0.008079 -0.003461 0.027263 0.016175 0.014904 -0.000625
# 4 -0.005724 -0.002679 0.016175 0.057726 0.018180 0.001021
# 5 -0.005460 -0.001140 0.014904 0.018180 0.046336 0.000969
# 6 0.001579 -0.000552 -0.000625 0.001021 0.000969 0.018423
#
#
# Mechanical properties :
#
#
# Convention : Reuss Voigt Hill
#
# Bulk Modulus (GPa) = 35.65439 56.83450 46.24444
# Shear Modulus (GPa) = 22.59419 35.00200 28.79809
#
# Velocity S-wave (km/s) = 3.08481 3.83952 3.48267
# Velocity P-wave (km/s) = 5.26354 6.60251 5.97068
#
# Compressibility (1/GPa) = 0.02804704
#
# Stress axis : x y z
#
# Youngs Moduli (GPa) = 40.10004 152.57547 36.68032
#
# Poissons Ratio (x) = 0.58180 0.29634
# Poissons Ratio (y) = 0.15291 0.12697
# Poissons Ratio (z) = 0.32397 0.52813
#
# Static dielectric constant tensor:
#      x y z
#    x 1.923970 -0.027740 0.016830 
#    y -0.027740 1.911640 0.010750 
#    z 0.016830 0.010750 1.995200 
# 
# From -- ./inp_files/593822.got.cif
#   From: 2010.05.17/outbox.cif.g08.bks.cpg/sg2_297_cif.got.tgz:593822.got - 2010.06.03 11:33:40.
