data_PCOD9112667
_publ_section_title
;
Structure prediction by ZEFSAII (Michael W. Deem and Ramdas Pophale) SiO2 
 PCOD9112667
Probable space group: P 2
;
_chemical_formula_sum "Si O2"
_cell_formula_units_Z 12
_cell_length_a 13.433700
_cell_length_b 5.154598
_cell_length_c 24.780907
_cell_angle_alpha 90.000000
_cell_angle_beta 163.482471
_cell_angle_gamma 90.000000
_cell_volume 487.862852
_symmetry_space_group_name_H-M "P 2"
_symmetry_group_IT_number 3
_symmetry_cell_setting 'monoclinic'
loop_
_space_group_symop_operation_xyz
x,y,z
-x,y,-z
loop_
_atom_site_type_symbol
_atom_site_label
_atom_site_fract_x
_atom_site_fract_y
_atom_site_fract_z
Si Si1 0.969145 0.103070 0.265885
Si Si2 0.375793 0.302930 0.185957
Si Si3 0.333314 0.777000 0.710905
Si Si4 0.790872 0.087787 0.729734
Si Si5 0.335529 0.574051 0.279296
Si Si6 0.869770 0.614442 0.273867
O O1 0.377069 0.102061 0.498760
O O2 0.006179 0.080666 0.220951
O O3 0.784989 0.343929 0.200608
O O4 0.785466 0.846661 0.190848
O O5 0.365781 0.568525 0.146772
O O6 0.452216 0.431582 0.284198
O O7 0.593267 0.074584 0.269577
O O8 0.000000 0.178166 0.000000
O O9 0.250848 0.712052 0.729837
O O10 0.000000 0.697716 0.500000
O O11 0.891660 0.357486 0.809398
O O12 0.831277 0.855801 0.794469
O O13 0.709445 0.603034 0.502440
#
# Coordination Sequence:
#
# PCOD9112667 Si02
#       6
#     2   2   2   2   2   2
#     4   9  17  29  48  82 121 147 186 245 309 360
#     4  12  26  42  60  89 127 167 211 259 305 370
#     4  12  24  40  64  89 121 168 212 253 314 369
#     4   9  17  29  50  79 117 156 186 239 310 366
#     4  10  19  33  54  81 115 160 199 242 300 363
#     4  10  19  32  54  85 115 155 194 248 301 363
#
# _framework density 24.597076999999999
#
# number of rings (size 3 to 8) (size 9 to 14) (size 15 to 20)
#    0.000    1.667    1.667    4.000    4.667    4.000 
#    0.000    0.000    0.000    0.000    0.000   17.500 
#    0.000    0.000    0.000    0.000    0.000    0.000 
#
# Total GULP energy -66905.482013 kJ/mol
# GULP energy per Si atom -5575.456834 kJ/mol
# Density = 2.454109 g / cm^3
# Si number density = 24.597077 Si / 1000 Ang^3
#
#
#
# Elastic Constant Matrix: (Units=GPa)
#
#
# Indices 1 2 3 4 5 6 
#
# 1 171.6818 117.4355 17.3641 -0.0002 2.7873 0.0000
# 2 117.4355 220.2793 19.9927 -0.0002 10.9521 -0.0002
# 3 17.3641 19.9927 48.3278 -0.0002 -7.4678 -0.0002
# 4 -0.0002 -0.0002 -0.0002 3.5153 0.0000 20.4747
# 5 2.7873 10.9521 -7.4678 0.0000 17.6768 -0.0001
# 6 0.0000 -0.0002 -0.0002 20.4747 -0.0001 37.2868
#
#
#
# Elastic Compliance Matrix: (Units=1/GPa)
#
#
# Indices 1 2 3 4 5 6 
#
# 1 0.009268 -0.004892 -0.001138 0.000000 0.001089 0.000000
# 2 -0.004892 0.007580 -0.002123 0.000000 -0.004822 0.000000
# 3 -0.001138 -0.002123 0.023761 0.000000 0.011533 0.000000
# 4 0.000000 0.000000 0.000000 -0.129407 0.000000 0.071059
# 5 0.001089 -0.004822 0.011533 0.000000 0.064260 0.000000
# 6 0.000000 0.000000 0.000000 0.071059 0.000000 -0.012200
#
#
# Mechanical properties :
#
#
# Convention : Reuss Voigt Hill
#
# Bulk Modulus (GPa) = 41.14674 83.31930 62.23302
# Shear Modulus (GPa) = -405.54770 30.72889 -187.40940
#
# Velocity S-wave (km/s) = -12.85435 3.53836 -8.73826
# Velocity P-wave (km/s) = 14.26702 7.11622 8.74378
#
# Compressibility (1/GPa) = 0.02430326
#
# Stress axis : x y z
#
# Youngs Moduli (GPa) = 107.89262 131.92261 42.08490
#
# Poissons Ratio (x) = 0.64537 0.04790
# Poissons Ratio (y) = 0.52782 0.08936
# Poissons Ratio (z) = 0.12280 0.28011
#
# Static dielectric constant tensor:
#      x y z
#    x 2.156600 0.000000 0.066640 
#    y 0.000000 1.915390 0.000000 
#    z 0.066640 0.000000 2.042410 
# 
# From -- ./inp_files/8355.got.cif
#   From: 2010.05.17/outbox.cif.g08.bks.cpg/sg3_5_cif.got.tgz:8355.got - 2010.06.03 18:33:08.
