data_PCOD9112602
_publ_section_title
;
Structure prediction by ZEFSAII (Michael W. Deem and Ramdas Pophale) SiO2 
 PCOD9112602
Probable space group: P 2
;
_chemical_formula_sum "Si O2"
_cell_formula_units_Z 9
_cell_length_a 15.377312
_cell_length_b 6.481004
_cell_length_c 10.792240
_cell_angle_alpha 90.000000
_cell_angle_beta 156.031664
_cell_angle_gamma 90.000000
_cell_volume 436.926253
_symmetry_space_group_name_H-M "P 2"
_symmetry_group_IT_number 3
_symmetry_cell_setting 'monoclinic'
loop_
_space_group_symop_operation_xyz
x,y,z
-x,y,-z
loop_
_atom_site_type_symbol
_atom_site_label
_atom_site_fract_x
_atom_site_fract_y
_atom_site_fract_z
Si Si1 0.537133 0.856520 0.403395
Si Si2 0.500000 0.945756 0.000000
Si Si3 0.136628 0.592459 0.803191
Si Si4 0.543781 0.246680 0.846772
Si Si5 0.232807 0.624792 0.489570
O O1 0.500000 0.835591 0.500000
O O2 0.734234 0.725231 0.603304
O O3 0.553383 0.093370 0.382259
O O4 0.324809 0.759721 0.063018
O O5 0.656886 0.796267 0.278500
O O6 0.390230 0.099485 0.954232
O O7 0.000000 0.629034 0.500000
O O8 0.993034 0.590310 0.739442
O O9 0.257683 0.375677 0.944760
O O10 0.369464 0.413793 0.665942
#
# Coordination Sequence:
#
# PCOD9112602 Si02
#       5
#     2   1   2   2   2
#     4  10  24  43  60  85 125 166 201 244 299 357
#     4  10  18  36  58  86 128 160 188 244 308 358
#     4  11  22  38  64  95 120 152 201 253 301 354
#     4  10  21  36  60  88 124 160 197 245 301 358
#     4  10  21  38  60  88 121 157 200 248 298 353
#
# _framework density 20.598441999999999
#
# number of rings (size 3 to 8) (size 9 to 14) (size 15 to 20)
#    0.000    1.778    0.000    6.000    0.000   10.667 
#    0.000    2.222    0.000    0.000    0.000    0.000 
#    0.000    0.000    0.000    0.000    0.000    0.000 
#
# Total GULP energy -50247.412680 kJ/mol
# GULP energy per Si atom -5583.045853 kJ/mol
# Density = 2.055156 g / cm^3
# Si number density = 20.598442 Si / 1000 Ang^3
#
#
#
# Elastic Constant Matrix: (Units=GPa)
#
#
# Indices 1 2 3 4 5 6 
#
# 1 174.2417 61.8412 27.0417 0.0000 24.5315 0.0000
# 2 61.8412 139.9973 25.6900 0.0000 11.0495 0.0000
# 3 27.0417 25.6900 35.5507 0.0000 15.2743 0.0000
# 4 0.0000 0.0000 0.0000 6.8743 0.0000 4.3501
# 5 24.5315 11.0495 15.2743 0.0000 42.7977 0.0000
# 6 0.0000 0.0000 0.0000 4.3501 0.0000 23.1809
#
#
#
# Elastic Compliance Matrix: (Units=1/GPa)
#
#
# Indices 1 2 3 4 5 6 
#
# 1 0.007444 -0.002593 -0.002649 0.000000 -0.002652 0.000000
# 2 -0.002593 0.009138 -0.005027 0.000000 0.000921 0.000000
# 3 -0.002649 -0.005027 0.038465 0.000000 -0.010912 0.000000
# 4 0.000000 0.000000 0.000000 0.165071 0.000000 -0.030977
# 5 -0.002652 0.000921 -0.010912 0.000000 0.028542 0.000000
# 6 0.000000 0.000000 0.000000 -0.030977 0.000000 0.048952
#
#
# Mechanical properties :
#
#
# Convention : Reuss Voigt Hill
#
# Bulk Modulus (GPa) = 28.97809 64.32617 46.65213
# Shear Modulus (GPa) = 15.16744 30.25171 22.70957
#
# Velocity S-wave (km/s) = 2.71650 3.83644 3.32398
# Velocity P-wave (km/s) = 4.89263 7.13588 6.11795
#
# Compressibility (1/GPa) = 0.03450883
#
# Stress axis : x y z
#
# Youngs Moduli (GPa) = 134.33870 109.43231 25.99785
#
# Poissons Ratio (x) = 0.28373 0.06887
# Poissons Ratio (y) = 0.34831 0.13069
# Poissons Ratio (z) = 0.35589 0.55011
#
# Static dielectric constant tensor:
#      x y z
#    x 1.781390 0.000000 -0.015420 
#    y 0.000000 1.719480 0.000000 
#    z -0.015420 0.000000 1.734470 
# 
# From -- ./inp_files/6359.got.cif
#   From: 2010.05.17/outbox.cif.g08.bks.cpg/sg3_4_cif.got.tgz:6359.got - 2010.06.03 18:33:08.
