data_PCOD9112857
_publ_section_title
;
Structure prediction by ZEFSAII (Michael W. Deem and Ramdas Pophale) SiO2 
 PCOD9112857
Probable space group: P 2
;
_chemical_formula_sum "Si O2"
_cell_formula_units_Z 14
_cell_length_a 7.596844
_cell_length_b 5.272110
_cell_length_c 16.615304
_cell_angle_alpha 90.000000
_cell_angle_beta 113.416590
_cell_angle_gamma 90.000000
_cell_volume 610.658078
_symmetry_space_group_name_H-M "P 2"
_symmetry_group_IT_number 3
_symmetry_cell_setting 'monoclinic'
loop_
_space_group_symop_operation_xyz
x,y,z
-x,y,-z
loop_
_atom_site_type_symbol
_atom_site_label
_atom_site_fract_x
_atom_site_fract_y
_atom_site_fract_z
Si Si1 0.571120 0.180120 0.673558
Si Si2 0.979243 0.166449 0.784083
Si Si3 0.305035 0.076889 0.131273
Si Si4 0.690775 0.530345 0.311315
Si Si5 0.819448 0.034285 0.410159
Si Si6 0.230111 0.571869 0.023892
Si Si7 0.208425 0.665559 0.834663
O O1 0.557717 0.081622 0.764925
O O2 0.505978 0.472735 0.675643
O O3 0.791148 0.133496 0.693350
O O4 0.396698 0.063764 0.591639
O O5 0.139587 0.951816 0.805077
O O6 0.897777 0.113816 0.859299
O O7 0.038392 0.458721 0.792413
O O8 0.319273 0.310247 0.072678
O O9 0.305735 0.815386 0.085347
O O10 0.811055 0.763234 0.366967
O O11 0.653631 0.580062 0.211771
O O12 0.813817 0.274695 0.349018
O O13 0.000000 0.055669 0.500000
O O14 0.269258 0.621755 0.937017
O O15 0.000000 0.562990 0.000000
#
# Coordination Sequence:
#
# PCOD9112857 Si02
#       7
#     2   2   2   2   2   2   2
#     4   8  22  37  62  82 117 147 203 233 296 352
#     4  10  20  34  59  82 113 161 200 239 288 345
#     4  10  20  31  55  80 107 154 205 245 263 335
#     4  10  23  38  61  87 124 145 194 247 311 350
#     4  10  21  40  69  87 108 149 201 242 290 380
#     4  12  18  32  51  84 114 155 211 237 272 336
#     4  12  22  35  57  88 123 159 194 253 296 330
#
# _framework density 22.926089000000001
#
# number of rings (size 3 to 8) (size 9 to 14) (size 15 to 20)
#    1.714    0.000    2.857    2.571    4.000    0.000 
#    0.000    0.714    0.000    5.143    0.000    0.000 
#    0.000    0.000    0.000    0.000    0.000    0.000 
#
# Total GULP energy -78034.160498 kJ/mol
# GULP energy per Si atom -5573.868607 kJ/mol
# Density = 2.287391 g / cm^3
# Si number density = 22.926089 Si / 1000 Ang^3
#
#
#
# Elastic Constant Matrix: (Units=GPa)
#
#
# Indices 1 2 3 4 5 6 
#
# 1 21.1864 11.2125 18.6547 0.0000 8.6706 0.0000
# 2 11.2125 120.5728 29.3345 0.0000 11.6456 0.0000
# 3 18.6547 29.3345 77.5753 0.0000 37.4279 0.0000
# 4 0.0000 0.0000 0.0000 30.8868 0.0000 0.7982
# 5 8.6706 11.6456 37.4279 0.0000 29.6438 0.0000
# 6 0.0000 0.0000 0.0000 0.7982 0.0000 24.4622
#
#
#
# Elastic Compliance Matrix: (Units=1/GPa)
#
#
# Indices 1 2 3 4 5 6 
#
# 1 0.060468 -0.002269 -0.014276 0.000000 0.001230 0.000000
# 2 -0.002269 0.009265 -0.003894 0.000000 0.001940 0.000000
# 3 -0.014276 -0.003894 0.038490 0.000000 -0.042892 0.000000
# 4 0.000000 0.000000 0.000000 0.032404 0.000000 -0.001057
# 5 0.001230 0.001940 -0.042892 0.000000 0.086766 0.000000
# 6 0.000000 0.000000 0.000000 -0.001057 0.000000 0.040914
#
#
# Mechanical properties :
#
#
# Convention : Reuss Voigt Hill
#
# Bulk Modulus (GPa) = 14.84895 37.52642 26.18769
# Shear Modulus (GPa) = 15.07691 27.67408 21.37549
#
# Velocity S-wave (km/s) = 2.56721 3.47810 3.05678
# Velocity P-wave (km/s) = 3.90876 5.70382 4.88937
#
# Compressibility (1/GPa) = 0.06734482
#
# Stress axis : x y z
#
# Youngs Moduli (GPa) = 16.53771 107.93676 25.98056
#
# Poissons Ratio (x) = 0.24487 0.37091
# Poissons Ratio (y) = 0.03752 0.10117
# Poissons Ratio (z) = 0.23610 0.42031
#
# Static dielectric constant tensor:
#      x y z
#    x 1.955340 0.000000 0.012920 
#    y 0.000000 1.855940 0.000000 
#    z 0.012920 0.000000 1.846970 
# 
# From -- ./inp_files/14869.got.cif
#   From: 2010.05.17/outbox.cif.g08.bks.cpg/sg3_8_cif.got.tgz:14869.got - 2010.06.03 18:33:08.
