data_PCOD9112149
_publ_section_title
;
Structure prediction by ZEFSAII (Michael W. Deem and Ramdas Pophale) SiO2 
 PCOD9112149
Probable space group: P -1
;
_chemical_formula_sum "Si O2"
_cell_formula_units_Z 15
_cell_length_a 14.045766
_cell_length_b 8.425096
_cell_length_c 13.230523
_cell_angle_alpha 147.361765
_cell_angle_beta 134.146772
_cell_angle_gamma 45.997409
_cell_volume 581.762701
_symmetry_space_group_name_H-M "P -1"
_symmetry_group_IT_number 2
_symmetry_cell_setting 'triclinic'
loop_
_space_group_symop_operation_xyz
x,y,z
-x,-y,-z
loop_
_atom_site_type_symbol
_atom_site_label
_atom_site_fract_x
_atom_site_fract_y
_atom_site_fract_z
Si Si1 0.566269 0.282588 0.122166
Si Si2 0.961025 0.446603 0.055895
Si Si3 0.712115 0.572266 0.214385
Si Si4 0.503553 0.151507 0.306288
Si Si5 0.143139 0.867578 0.639985
Si Si6 0.704648 0.263312 0.823332
Si Si7 0.777906 0.738222 0.730036
Si Si8 0.000000 0.500000 0.500000
O O1 0.612929 0.447257 0.147693
O O2 0.710461 0.140486 0.206006
O O3 0.446575 0.558397 0.232131
O O4 0.502817 0.011125 0.893321
O O5 0.087087 0.224518 0.092397
O O6 0.919796 0.785006 0.255255
O O7 0.829566 0.318291 0.883086
O O8 0.000000 0.500000 0.000000
O O9 0.863652 0.512428 0.338559
O O10 0.636870 0.932183 0.340706
O O11 0.715227 0.413062 0.022003
O O12 0.500000 0.500000 0.500000
O O13 0.361026 0.137178 0.244494
O O14 0.189401 0.622048 0.453821
O O15 0.050842 0.733888 0.578150
O O16 0.746243 0.902386 0.685372
#
# Coordination Sequence:
#
# PCOD9112149 Si02
#       8
#     2   2   2   2   2   2   2   1
#     4  10  21  48  71 102 142 183 233 286 350 427
#     4  12  29  46  70 101 142 188 241 295 356 419
#     4  10  20  44  72 103 139 186 229 281 351 421
#     4  11  23  40  72 105 138 179 232 291 348 418
#     4  11  27  45  68 104 145 183 232 297 352 417
#     4  11  23  45  78  99 137 191 237 289 354 422
#     4  12  25  47  71 103 140 184 242 290 354 423
#     4  10  24  42  70  96 146 186 226 284 352 416
#
# _framework density 25.783709000000002
#
# number of rings (size 3 to 8) (size 9 to 14) (size 15 to 20)
#    0.000    1.067    2.667    3.200    9.333    1.067 
#    2.400    0.000    0.000    0.000    0.000    0.000 
#    0.000    0.000    0.000    0.000    0.000    0.000 
#
# Total GULP energy -83829.568708 kJ/mol
# GULP energy per Si atom -5588.637914 kJ/mol
# Density = 2.572502 g / cm^3
# Si number density = 25.783709 Si / 1000 Ang^3
#
#
#
# Elastic Constant Matrix: (Units=GPa)
#
#
# Indices 1 2 3 4 5 6 
#
# 1 94.3528 -8.2655 -4.3369 -2.4706 27.2122 -3.3967
# 2 -8.2655 131.9184 31.1943 2.1275 10.2240 -9.0716
# 3 -4.3369 31.1943 73.5453 15.9950 10.6396 -13.9771
# 4 -2.4706 2.1275 15.9950 40.4648 -4.0256 6.6329
# 5 27.2122 10.2240 10.6396 -4.0256 38.2611 -2.9931
# 6 -3.3967 -9.0716 -13.9771 6.6329 -2.9931 21.9886
#
#
#
# Elastic Compliance Matrix: (Units=1/GPa)
#
#
# Indices 1 2 3 4 5 6 
#
# 1 0.014176 0.001324 0.003100 -0.002175 -0.011227 0.003835
# 2 0.001324 0.008657 -0.003093 0.000398 -0.002245 0.001385
# 3 0.003100 -0.003093 0.021559 -0.011419 -0.007375 0.015348
# 4 -0.002175 0.000398 -0.011419 0.032415 0.006752 -0.016289
# 5 -0.011227 -0.002245 -0.007375 0.006752 0.037144 -0.004329
# 6 0.003835 0.001385 0.015348 -0.016289 -0.004329 0.060722
#
#
# Mechanical properties :
#
#
# Convention : Reuss Voigt Hill
#
# Bulk Modulus (GPa) = 21.25116 37.44448 29.34782
# Shear Modulus (GPa) = 26.63898 38.89119 32.76509
#
# Velocity S-wave (km/s) = 3.21778 3.88798 3.56865
# Velocity P-wave (km/s) = 4.69739 5.89145 5.32798
#
# Compressibility (1/GPa) = 0.04705625
#
# Stress axis : x y z
#
# Youngs Moduli (GPa) = 70.54097 115.50688 46.38476
#
# Poissons Ratio (x) = -0.15293 -0.14381
# Poissons Ratio (y) = -0.09340 0.14345
# Poissons Ratio (z) = -0.21871 0.35721
#
# Static dielectric constant tensor:
#      x y z
#    x 2.046700 0.035680 -0.009390 
#    y 0.035680 2.014320 0.024680 
#    z -0.009390 0.024680 2.026390 
# 
# From -- ./inp_files/156718.got.cif
#   From: 2010.05.17/outbox.cif.g08.bks.cpg/sg2_79_cif.got.tgz:156718.got - 2010.06.03 11:33:40.
