data_PCOD9112172
_publ_section_title
;
Structure prediction by ZEFSAII (Michael W. Deem and Ramdas Pophale) SiO2 
 PCOD9112172
Probable space group: P -1
;
_chemical_formula_sum "Si O2"
_cell_formula_units_Z 14
_cell_length_a 12.692336
_cell_length_b 13.785128
_cell_length_c 11.717320
_cell_angle_alpha 136.094677
_cell_angle_beta 126.909616
_cell_angle_gamma 27.496564
_cell_volume 651.617718
_symmetry_space_group_name_H-M "P -1"
_symmetry_group_IT_number 2
_symmetry_cell_setting 'triclinic'
loop_
_space_group_symop_operation_xyz
x,y,z
-x,-y,-z
loop_
_atom_site_type_symbol
_atom_site_label
_atom_site_fract_x
_atom_site_fract_y
_atom_site_fract_z
Si Si1 0.267541 0.886591 0.883864
Si Si2 0.923223 0.438252 0.184791
Si Si3 0.775772 0.844369 0.330450
Si Si4 0.452411 0.699180 0.097867
Si Si5 0.000209 0.167926 0.340502
Si Si6 0.539209 0.111701 0.184628
Si Si7 0.733460 0.660556 0.576072
O O1 0.589242 0.254607 0.026005
O O2 0.131992 0.861525 0.752384
O O3 0.083220 0.172419 0.022446
O O4 0.425011 0.798116 0.806459
O O5 0.873385 0.603905 0.200993
O O6 0.674271 0.596433 0.188082
O O7 0.069825 0.393904 0.337835
O O8 0.905218 0.843021 0.492051
O O9 0.753318 0.910290 0.240619
O O10 0.511424 0.071867 0.399987
O O11 0.217521 0.953557 0.219121
O O12 0.500000 0.500000 0.000000
O O13 0.826768 0.432937 0.399142
O O14 0.334937 0.309813 0.309948
O O15 0.500000 0.000000 0.000000
#
# Coordination Sequence:
#
# PCOD9112172 Si02
#       7
#     2   2   2   2   2   2   2
#     4  12  25  43  70 101 131 183 221 277 337 383
#     4  11  21  43  69 101 127 174 228 261 341 388
#     4   9  23  44  66 106 134 171 217 268 343 397
#     4  12  27  44  67 100 131 179 237 273 322 402
#     4  11  25  44  67  96 142 175 222 279 331 394
#     4  10  20  44  72  99 139 167 223 277 323 414
#     4   9  22  43  67 100 137 170 211 281 338 384
#
# _framework density 21.48499
#
# number of rings (size 3 to 8) (size 9 to 14) (size 15 to 20)
#    0.857    0.571    2.857    2.143    2.000    4.000 
#    5.143    4.286    0.000    0.000    0.000    0.000 
#    0.000    0.000    0.000    0.000    0.000    0.000 
#
# Total GULP energy -78206.063760 kJ/mol
# GULP energy per Si atom -5586.147411 kJ/mol
# Density = 2.143609 g / cm^3
# Si number density = 21.484990 Si / 1000 Ang^3
#
#
#
# Elastic Constant Matrix: (Units=GPa)
#
#
# Indices 1 2 3 4 5 6 
#
# 1 139.2959 43.7934 56.4555 -17.3984 10.0561 3.5677
# 2 43.7934 111.4257 41.3650 -5.0785 13.9986 7.8531
# 3 56.4555 41.3650 99.4971 -2.9581 23.0003 8.9122
# 4 -17.3984 -5.0785 -2.9581 53.9789 1.0167 3.0765
# 5 10.0561 13.9986 23.0003 1.0167 42.3139 -8.0078
# 6 3.5677 7.8531 8.9122 3.0765 -8.0078 43.6765
#
#
#
# Elastic Compliance Matrix: (Units=1/GPa)
#
#
# Indices 1 2 3 4 5 6 
#
# 1 0.010174 -0.002162 -0.005107 0.002740 0.001124 0.000613
# 2 -0.002162 0.011259 -0.002835 0.000339 -0.001992 -0.001658
# 3 -0.005107 -0.002835 0.016117 -0.000684 -0.007283 -0.003649
# 4 0.002740 0.000339 -0.000684 0.019525 -0.001189 -0.001739
# 5 0.001124 -0.001992 -0.007283 -0.001189 0.029379 0.007223
# 6 0.000613 -0.001658 -0.003649 -0.001739 0.007223 0.025335
#
#
# Mechanical properties :
#
#
# Convention : Reuss Voigt Hill
#
# Bulk Modulus (GPa) = 57.66369 70.38294 64.02332
# Shear Modulus (GPa) = 36.29007 41.90086 39.09546
#
# Velocity S-wave (km/s) = 4.11431 4.42094 4.27038
# Velocity P-wave (km/s) = 7.03331 7.67397 7.36061
#
# Compressibility (1/GPa) = 0.01734194
#
# Stress axis : x y z
#
# Youngs Moduli (GPa) = 98.28973 88.81413 62.04607
#
# Poissons Ratio (x) = 0.19204 0.31687
# Poissons Ratio (y) = 0.21252 0.17590
# Poissons Ratio (z) = 0.50197 0.25179
#
# Static dielectric constant tensor:
#      x y z
#    x 1.775480 0.016630 -0.034640 
#    y 0.016630 1.818140 -0.000600 
#    z -0.034640 -0.000600 1.758440 
# 
# From -- ./inp_files/521765.got.cif
#   From: 2010.05.17/outbox.cif.g08.bks.cpg/sg2_261_cif.got.tgz:521765.got - 2010.06.03 11:33:40.
