data_PCOD9112705
_publ_section_title
;
Structure prediction by ZEFSAII (Michael W. Deem and Ramdas Pophale) SiO2 
 PCOD9112705
Probable space group: P 2
;
_chemical_formula_sum "Si O2"
_cell_formula_units_Z 14
_cell_length_a 6.641003
_cell_length_b 16.584182
_cell_length_c 7.827908
_cell_angle_alpha 90.000000
_cell_angle_beta 138.346739
_cell_angle_gamma 90.000000
_cell_volume 572.990664
_symmetry_space_group_name_H-M "P 2"
_symmetry_group_IT_number 3
_symmetry_cell_setting 'monoclinic'
loop_
_space_group_symop_operation_xyz
x,y,z
-x,y,-z
loop_
_atom_site_type_symbol
_atom_site_label
_atom_site_fract_x
_atom_site_fract_y
_atom_site_fract_z
Si Si1 0.347670 0.054130 0.094511
Si Si2 0.362637 0.890485 0.724680
Si Si3 0.654526 0.714028 0.418861
Si Si4 0.136481 0.299422 0.276547
Si Si5 0.855910 0.127153 0.587531
Si Si6 0.133319 0.475173 0.276070
Si Si7 0.843352 0.638113 0.090317
O O1 0.502411 0.120087 0.316117
O O2 0.455263 0.967467 0.231458
O O3 0.500000 0.060358 0.000000
O O4 0.000991 0.069995 0.823750
O O5 0.416704 0.806424 0.665030
O O6 0.000000 0.905720 0.500000
O O7 0.500000 0.880201 0.000000
O O8 0.500000 0.691294 0.500000
O O9 0.005851 0.704211 0.690414
O O10 0.500856 0.655764 0.181046
O O11 0.500000 0.297739 0.500000
O O12 0.041160 0.218225 0.310867
O O13 0.063264 0.387219 0.309835
O O14 0.000000 0.295851 0.000000
O O15 0.000000 0.100672 0.500000
O O16 0.500000 0.487602 0.500000
O O17 0.954009 0.552163 0.234075
O O18 0.000000 0.469348 0.000000
O O19 0.000000 0.643667 0.000000
#
# Coordination Sequence:
#
# PCOD9112705 Si02
#       7
#     2   2   2   2   2   2   2
#     4   9  18  33  54  75  95 131 178 211 238 298
#     4  11  21  36  56  77 102 134 173 212 254 303
#     4  10  20  33  52  78 105 131 167 214 257 297
#     4  10  20  33  51  79 109 132 164 213 261 299
#     4  10  19  34  55  75  99 134 174 209 248 302
#     4   9  16  28  48  74 102 134 171 207 244 295
#     4   9  16  29  49  74 102 134 170 206 245 296
#
# _framework density 24.433209999999999
#
# number of rings (size 3 to 8) (size 9 to 14) (size 15 to 20)
#    0.000    2.286    0.000    6.000    0.000    0.000 
#    0.000    2.143    0.000    2.571    0.000    0.000 
#    0.000    0.000    0.000    0.000    0.000    0.000 
#
# Total GULP energy -78185.062541 kJ/mol
# GULP energy per Si atom -5584.647324 kJ/mol
# Density = 2.437760 g / cm^3
# Si number density = 24.433210 Si / 1000 Ang^3
#
#
#
# Elastic Constant Matrix: (Units=GPa)
#
#
# Indices 1 2 3 4 5 6 
#
# 1 40.1810 -14.2348 35.9508 0.0000 13.4590 0.0000
# 2 -14.2348 164.8607 73.8756 0.0000 -9.7268 0.0000
# 3 35.9508 73.8756 209.5274 0.0000 14.7545 0.0000
# 4 0.0000 0.0000 0.0000 45.2376 0.0000 3.6905
# 5 13.4590 -9.7268 14.7545 0.0000 41.8281 0.0000
# 6 0.0000 0.0000 0.0000 3.6905 0.0000 19.9516
#
#
#
# Elastic Compliance Matrix: (Units=1/GPa)
#
#
# Indices 1 2 3 4 5 6 
#
# 1 0.036834 0.006329 -0.008020 0.000000 -0.007552 0.000000
# 2 0.006329 0.008586 -0.004215 0.000000 0.001447 0.000000
# 3 -0.008020 -0.004215 0.007714 0.000000 -0.001121 0.000000
# 4 0.000000 0.000000 0.000000 0.022444 0.000000 -0.004152
# 5 -0.007552 0.001447 -0.001121 0.000000 0.027069 0.000000
# 6 0.000000 0.000000 0.000000 -0.004152 0.000000 0.050889
#
#
# Mechanical properties :
#
#
# Convention : Reuss Voigt Hill
#
# Bulk Modulus (GPa) = 24.20025 67.30582 45.75304
# Shear Modulus (GPa) = 27.91373 42.66861 35.29117
#
# Velocity S-wave (km/s) = 3.38368 4.18345 3.80464
# Velocity P-wave (km/s) = 5.01915 7.13735 6.16983
#
# Compressibility (1/GPa) = 0.04132188
#
# Stress axis : x y z
#
# Youngs Moduli (GPa) = 27.14870 116.46314 129.63838
#
# Poissons Ratio (x) = -0.73704 1.03965
# Poissons Ratio (y) = -0.17181 0.54645
# Poissons Ratio (z) = 0.21772 0.49091
#
# Static dielectric constant tensor:
#      x y z
#    x 2.046320 0.000000 0.023090 
#    y 0.000000 1.977550 0.000000 
#    z 0.023090 0.000000 1.937270 
# 
# From -- ./inp_files/1584.got.cif
#   From: 2010.05.17/outbox.cif.g08.bks.cpg/sg3_1_cif.got.tgz:1584.got - 2010.06.03 18:33:08.
