data_PCOD9112509
_publ_section_title
;
Structure prediction by ZEFSAII (Michael W. Deem and Ramdas Pophale) SiO2 
 PCOD9112509
Probable space group: P 2
;
_chemical_formula_sum "Si O2"
_cell_formula_units_Z 16
_cell_length_a 9.402309
_cell_length_b 8.926638
_cell_length_c 21.176278
_cell_angle_alpha 90.000000
_cell_angle_beta 27.918037
_cell_angle_gamma 90.000000
_cell_volume 832.167800
_symmetry_space_group_name_H-M "P 2"
_symmetry_group_IT_number 3
_symmetry_cell_setting 'monoclinic'
loop_
_space_group_symop_operation_xyz
x,y,z
-x,y,-z
loop_
_atom_site_type_symbol
_atom_site_label
_atom_site_fract_x
_atom_site_fract_y
_atom_site_fract_z
Si Si1 0.803926 0.598880 0.513681
Si Si2 0.698039 0.742544 0.145149
Si Si3 0.678792 0.928740 0.601810
Si Si4 0.297858 0.086388 0.642968
Si Si5 0.198171 0.335401 0.144462
Si Si6 0.869466 0.574728 0.192478
Si Si7 0.158145 0.822667 0.156959
Si Si8 0.757384 0.577010 0.769822
O O1 0.767649 0.779694 0.526913
O O2 0.463204 0.538740 0.649937
O O3 0.000000 0.565567 0.500000
O O4 0.980596 0.546442 0.383437
O O5 0.504124 0.854502 0.266565
O O6 0.812960 0.600650 0.141348
O O7 0.500592 0.664605 0.168223
O O8 0.000000 0.819771 0.000000
O O9 0.000000 0.993862 0.500000
O O10 0.495636 0.040073 0.627573
O O11 0.500000 0.087873 0.500000
O O12 0.099373 0.236146 0.728483
O O13 0.036688 0.960185 0.742479
O O14 0.289019 0.425709 0.172192
O O15 0.105646 0.457748 0.127441
O O16 0.500000 0.253881 0.000000
O O17 0.981934 0.739209 0.169733
O O18 0.154250 0.698024 0.212522
O O19 0.500000 0.855438 0.000000
#
# Coordination Sequence:
#
# PCOD9112509 Si02
#       8
#     2   2   2   2   2   2   2   2
#     4  10  17  34  60  99 122 150 197 267 315 357
#     4  11  19  34  65 101 124 155 202 261 321 372
#     4  10  20  41  61  94 129 157 204 271 314 355
#     4  12  26  43  62  88 125 177 212 251 308 381
#     4  11  26  45  60  90 130 168 208 256 310 375
#     4  10  20  38  65  92 128 158 207 259 322 360
#     4  11  22  37  61  94 124 161 206 264 316 365
#     4  11  21  35  68  94 126 156 210 261 312 373
#
# _framework density 19.226891999999999
#
# number of rings (size 3 to 8) (size 9 to 14) (size 15 to 20)
#    0.000    1.250    6.250    4.125    1.750    1.000 
#    0.000    1.875    0.000    0.750    0.000    0.000 
#    0.000    0.000    0.000    0.000    0.000    0.000 
#
# Total GULP energy -89182.599151 kJ/mol
# GULP energy per Si atom -5573.912447 kJ/mol
# Density = 1.918313 g / cm^3
# Si number density = 19.226892 Si / 1000 Ang^3
#
#
#
# Elastic Constant Matrix: (Units=GPa)
#
#
# Indices 1 2 3 4 5 6 
#
# 1 100.3936 22.1102 37.4208 0.0000 -10.0766 0.0000
# 2 22.1102 56.0703 29.4548 0.0000 5.4454 0.0000
# 3 37.4208 29.4548 166.9479 0.0000 -8.0682 0.0000
# 4 0.0000 0.0000 0.0000 46.3552 0.0000 -5.8402
# 5 -10.0766 5.4454 -8.0682 0.0000 22.7703 0.0000
# 6 0.0000 0.0000 0.0000 -5.8402 0.0000 16.6118
#
#
#
# Elastic Compliance Matrix: (Units=1/GPa)
#
#
# Indices 1 2 3 4 5 6 
#
# 1 0.012155 -0.004498 -0.001647 0.000000 0.005871 0.000000
# 2 -0.004498 0.022171 -0.003313 0.000000 -0.008466 0.000000
# 3 -0.001647 -0.003313 0.007068 0.000000 0.002568 0.000000
# 4 0.000000 0.000000 0.000000 0.022572 0.000000 0.007936
# 5 0.005871 -0.008466 0.002568 0.000000 0.049449 0.000000
# 6 0.000000 0.000000 0.000000 0.007936 0.000000 0.062988
#
#
# Mechanical properties :
#
#
# Convention : Reuss Voigt Hill
#
# Bulk Modulus (GPa) = 44.48815 55.70926 50.09870
# Shear Modulus (GPa) = 24.65355 32.77586 28.71470
#
# Velocity S-wave (km/s) = 3.58473 4.13327 3.86873
# Velocity P-wave (km/s) = 6.34999 7.19834 6.78743
#
# Compressibility (1/GPa) = 0.02247790
#
# Stress axis : x y z
#
# Youngs Moduli (GPa) = 82.27347 45.10441 141.49030
#
# Poissons Ratio (x) = 0.20287 0.23305
# Poissons Ratio (y) = 0.37005 0.46870
# Poissons Ratio (z) = 0.13552 0.14941
#
# Static dielectric constant tensor:
#      x y z
#    x 1.682190 0.000000 -0.018070 
#    y 0.000000 1.650690 0.000000 
#    z -0.018070 0.000000 1.713510 
# 
# From -- ./inp_files/15825.got.cif
#   From: 2010.05.17/outbox.cif.g08.bks.cpg/sg3_8_cif.got.tgz:15825.got - 2010.06.03 18:33:08.
