data_PCOD9112559
_publ_section_title
;
Structure prediction by ZEFSAII (Michael W. Deem and Ramdas Pophale) SiO2 
 PCOD9112559
Probable space group: P 2
;
_chemical_formula_sum "Si O2"
_cell_formula_units_Z 16
_cell_length_a 8.991502
_cell_length_b 18.407163
_cell_length_c 4.953314
_cell_angle_alpha 90.000000
_cell_angle_beta 119.264258
_cell_angle_gamma 90.000000
_cell_volume 715.184131
_symmetry_space_group_name_H-M "P 2"
_symmetry_group_IT_number 3
_symmetry_cell_setting 'monoclinic'
loop_
_space_group_symop_operation_xyz
x,y,z
-x,y,-z
loop_
_atom_site_type_symbol
_atom_site_label
_atom_site_fract_x
_atom_site_fract_y
_atom_site_fract_z
Si Si1 0.793957 0.651170 0.293961
Si Si2 0.795416 0.562430 0.794858
Si Si3 0.176023 0.888444 0.326663
Si Si4 0.610795 0.429636 0.343230
Si Si5 0.871814 0.049848 0.640979
Si Si6 0.207550 0.193482 0.185084
Si Si7 0.793713 0.287744 0.326459
Si Si8 0.313388 0.810400 0.943655
O O1 0.741688 0.628009 0.547446
O O2 0.721318 0.724730 0.105367
O O3 0.000000 0.657991 0.500000
O O4 0.744386 0.586097 0.048520
O O5 0.724170 0.489888 0.595726
O O6 0.000000 0.556508 0.000000
O O7 0.183930 0.844910 0.611416
O O8 0.216629 0.971427 0.454100
O O9 0.295253 0.847312 0.218360
O O10 0.000000 0.887568 0.000000
O O11 0.500000 0.399824 0.500000
O O12 0.714579 0.367464 0.272583
O O13 0.500000 0.462002 0.000000
O O14 0.752394 0.115530 0.641495
O O15 0.000000 0.066387 0.500000
O O16 0.000000 0.039737 0.000000
O O17 0.262476 0.253314 0.443788
O O18 0.257832 0.227377 0.942853
O O19 0.000000 0.192184 0.000000
O O20 0.000000 0.293759 0.500000
O O21 0.500000 0.826091 0.000000
#
# Coordination Sequence:
#
# PCOD9112559 Si02
#       8
#     2   2   2   2   2   2   2   2
#     4  10  21  40  65  92 120 157 208 263 313 369
#     4  10  23  42  66  92 120 158 208 260 312 372
#     4  11  22  39  63  91 124 167 213 258 311 373
#     4  12  26  42  62  92 130 167 203 256 314 375
#     4  10  18  32  58  94 124 152 202 268 316 354
#     4   9  17  32  57  90 119 148 198 262 310 352
#     4  10  21  37  61  88 119 160 205 251 305 367
#     4  12  25  40  61  91 129 169 208 258 312 372
#
# _framework density 22.371862
#
# number of rings (size 3 to 8) (size 9 to 14) (size 15 to 20)
#    0.000    1.500    0.000    7.125    0.000    6.500 
#    0.000    0.000    0.000    7.500    0.000    0.000 
#    0.000    0.000    0.000    0.000    0.000    0.000 
#
# Total GULP energy -89201.659548 kJ/mol
# GULP energy per Si atom -5575.103722 kJ/mol
# Density = 2.232094 g / cm^3
# Si number density = 22.371862 Si / 1000 Ang^3
#
#
#
# Elastic Constant Matrix: (Units=GPa)
#
#
# Indices 1 2 3 4 5 6 
#
# 1 63.1431 26.8943 29.4210 0.0000 -15.3466 0.0000
# 2 26.8943 134.7246 27.4595 0.0000 7.2787 0.0000
# 3 29.4210 27.4595 103.7887 0.0000 -22.7871 0.0000
# 4 0.0000 0.0000 0.0000 -50.7695 0.0000 -60.4740
# 5 -15.3466 7.2787 -22.7871 0.0000 29.0794 0.0000
# 6 0.0000 0.0000 0.0000 -60.4740 0.0000 -3.1429
#
#
#
# Elastic Compliance Matrix: (Units=1/GPa)
#
#
# Indices 1 2 3 4 5 6 
#
# 1 0.021405 -0.004281 -0.002681 0.000000 0.010267 0.000000
# 2 -0.004281 0.009182 -0.002677 0.000000 -0.006656 0.000000
# 3 -0.002681 -0.002677 0.013213 0.000000 0.009609 0.000000
# 4 0.000000 0.000000 0.000000 0.000899 0.000000 -0.017290
# 5 0.010267 -0.006656 0.009609 0.000000 0.049003 0.000000
# 6 0.000000 0.000000 0.000000 -0.017290 0.000000 0.014516
#
#
# Mechanical properties :
#
#
# Convention : Reuss Voigt Hill
#
# Bulk Modulus (GPa) = 40.77946 52.13403 46.45674
# Shear Modulus (GPa) = 36.85417 9.55883 23.20650
#
# Velocity S-wave (km/s) = 4.06315 2.06929 3.22422
# Velocity P-wave (km/s) = 6.34664 5.39104 5.88826
#
# Compressibility (1/GPa) = 0.02452215
#
# Stress axis : x y z
#
# Youngs Moduli (GPa) = 46.71790 108.90390 75.68394
#
# Poissons Ratio (x) = 0.46625 0.20289
# Poissons Ratio (y) = 0.20001 0.20261
# Poissons Ratio (z) = 0.12524 0.29154
#
# Static dielectric constant tensor:
#      x y z
#    x 1.781100 0.000000 0.040450 
#    y 0.000000 1.911820 0.000000 
#    z 0.040450 0.000000 1.803080 
# 
# From -- ./inp_files/1735.got.cif
#   From: 2010.05.17/outbox.cif.g08.bks.cpg/sg3_1_cif.got.tgz:1735.got - 2010.06.03 18:33:08.
