data_PCOD9112617
_publ_section_title
;
Structure prediction by ZEFSAII (Michael W. Deem and Ramdas Pophale) SiO2 
 PCOD9112617
Probable space group: P 2
;
_chemical_formula_sum "Si O2"
_cell_formula_units_Z 13
_cell_length_a 10.960675
_cell_length_b 9.384936
_cell_length_c 8.120713
_cell_angle_alpha 90.000000
_cell_angle_beta 133.907240
_cell_angle_gamma 90.000000
_cell_volume 601.831276
_symmetry_space_group_name_H-M "P 2"
_symmetry_group_IT_number 3
_symmetry_cell_setting 'monoclinic'
loop_
_space_group_symop_operation_xyz
x,y,z
-x,y,-z
loop_
_atom_site_type_symbol
_atom_site_label
_atom_site_fract_x
_atom_site_fract_y
_atom_site_fract_z
Si Si1 0.687564 0.081950 0.889415
Si Si2 0.611397 0.716100 0.441599
Si Si3 0.856312 0.835228 0.236262
Si Si4 0.500000 0.747037 0.000000
Si Si5 0.999475 0.246522 0.201799
Si Si6 0.036114 0.572238 0.228536
Si Si7 0.312224 0.049805 0.498825
O O1 0.490976 0.081774 0.757758
O O2 0.677089 0.095099 0.682968
O O3 0.811164 0.200097 0.077645
O O4 0.796022 0.939910 0.034014
O O5 0.500000 0.701512 0.500000
O O6 0.769830 0.615164 0.576202
O O7 0.685455 0.877882 0.510426
O O8 0.496613 0.678869 0.176357
O O9 0.000000 0.884506 0.500000
O O10 0.924445 0.686847 0.224603
O O11 0.680689 0.824221 0.171090
O O12 0.021191 0.409759 0.271226
O O13 0.146396 0.137500 0.401171
O O14 0.000000 0.240435 0.000000
O O15 0.000000 0.581920 0.000000
#
# Coordination Sequence:
#
# PCOD9112617 Si02
#       7
#     2   2   2   1   2   2   2
#     4  10  19  37  63  92 124 165 211 271 323 385
#     4  12  22  41  69 102 130 173 223 280 332 390
#     4  12  24  42  66  95 130 169 218 274 333 386
#     4  12  24  42  66  98 140 162 224 282 332 388
#     4   9  21  38  60  94 129 172 214 264 327 399
#     4  11  23  42  64  96 135 173 220 270 333 404
#     4  10  18  37  63  95 126 160 216 269 325 381
#
# _framework density 21.600739999999998
#
# number of rings (size 3 to 8) (size 9 to 14) (size 15 to 20)
#    0.000    1.231    4.615    2.769    0.000    1.231 
#   11.077    0.769    0.000    1.846    0.000    0.000 
#    0.000    0.000    0.000    0.000    0.000    0.000 
#
# Total GULP energy -72466.290241 kJ/mol
# GULP energy per Si atom -5574.330019 kJ/mol
# Density = 2.155158 g / cm^3
# Si number density = 21.600740 Si / 1000 Ang^3
#
#
#
# Elastic Constant Matrix: (Units=GPa)
#
#
# Indices 1 2 3 4 5 6 
#
# 1 67.1904 44.6860 50.3916 0.0000 11.2192 0.0000
# 2 44.6860 122.7161 46.4100 0.0000 35.4527 0.0000
# 3 50.3916 46.4100 156.9675 0.0000 39.6011 0.0000
# 4 0.0000 0.0000 0.0000 17.5190 0.0000 10.9105
# 5 11.2192 35.4527 39.6011 0.0000 40.5081 0.0000
# 6 0.0000 0.0000 0.0000 10.9105 0.0000 6.3514
#
#
#
# Elastic Compliance Matrix: (Units=1/GPa)
#
#
# Indices 1 2 3 4 5 6 
#
# 1 0.024778 -0.008472 -0.007419 0.000000 0.007805 0.000000
# 2 -0.008472 0.013944 0.001439 0.000000 -0.011264 0.000000
# 3 -0.007419 0.001439 0.010787 0.000000 -0.009750 0.000000
# 4 0.000000 0.000000 0.000000 -0.817448 0.000000 1.404229
# 5 0.007805 -0.011264 -0.009750 0.000000 0.041914 0.000000
# 6 0.000000 0.000000 0.000000 1.404229 0.000000 -2.254766
#
#
# Mechanical properties :
#
#
# Convention : Reuss Voigt Hill
#
# Bulk Modulus (GPa) = 48.53172 69.98324 59.25748
# Shear Modulus (GPa) = -1.69778 26.56811 12.43517
#
# Velocity S-wave (km/s) = -0.88752 3.51089 2.40194
# Velocity P-wave (km/s) = 4.63316 6.99314 5.93170
#
# Compressibility (1/GPa) = 0.02060508
#
# Stress axis : x y z
#
# Youngs Moduli (GPa) = 40.35818 71.71641 92.70632
#
# Poissons Ratio (x) = 0.60757 0.68776
# Poissons Ratio (y) = 0.34191 -0.13338
# Poissons Ratio (z) = 0.29941 -0.10318
#
# Static dielectric constant tensor:
#      x y z
#    x 1.842920 0.000000 -0.020810 
#    y 0.000000 1.806580 0.000000 
#    z -0.020810 0.000000 1.743590 
# 
# From -- ./inp_files/7582.got.cif
#   From: 2010.05.17/outbox.cif.g08.bks.cpg/sg3_4_cif.got.tgz:7582.got - 2010.06.03 18:33:08.
