data_PCOD9112595
_publ_section_title
;
Structure prediction by ZEFSAII (Michael W. Deem and Ramdas Pophale) SiO2 
 PCOD9112595
Probable space group: P 2
;
_chemical_formula_sum "Si O2"
_cell_formula_units_Z 10
_cell_length_a 6.707993
_cell_length_b 11.052786
_cell_length_c 5.559162
_cell_angle_alpha 90.000000
_cell_angle_beta 101.967887
_cell_angle_gamma 90.000000
_cell_volume 403.208570
_symmetry_space_group_name_H-M "P 2"
_symmetry_group_IT_number 3
_symmetry_cell_setting 'monoclinic'
loop_
_space_group_symop_operation_xyz
x,y,z
-x,y,-z
loop_
_atom_site_type_symbol
_atom_site_label
_atom_site_fract_x
_atom_site_fract_y
_atom_site_fract_z
Si Si1 0.241918 0.773600 0.809292
Si Si2 0.225655 0.676160 0.303104
Si Si3 0.130044 0.044743 0.781294
Si Si4 0.745077 0.394077 0.789827
Si Si5 0.278418 0.302565 0.717194
O O1 0.314788 0.714342 0.580844
O O2 0.003078 0.731368 0.752672
O O3 0.248651 0.918199 0.808265
O O4 0.321043 0.728731 0.084548
O O5 0.226110 0.532254 0.278026
O O6 0.269321 0.163363 0.795017
O O7 0.000000 0.042902 0.500000
O O8 0.000000 0.050620 0.000000
O O9 0.505499 0.357309 0.752886
O O10 0.811251 0.315347 0.574593
O O11 0.821298 0.373501 0.082403
#
# Coordination Sequence:
#
# PCOD9112595 Si02
#       5
#     2   2   2   2   2
#     4  10  19  35  58  94 119 154 198 254 318 353
#     4  10  18  35  60  86 123 154 199 252 307 365
#     4  12  21  40  62  93 132 155 207 258 307 374
#     4  10  21  42  62  84 126 168 210 250 298 374
#     4  10  23  40  62  87 124 171 208 248 306 362
#
# _framework density 24.80106
#
# number of rings (size 3 to 8) (size 9 to 14) (size 15 to 20)
#    0.000    1.600    4.000    2.400    0.000    0.000 
#   21.600    0.000    0.000   28.800    0.000    0.000 
#    0.000    0.000    0.000    0.000    0.000    0.000 
#
# Total GULP energy -55946.233595 kJ/mol
# GULP energy per Si atom -5594.623360 kJ/mol
# Density = 2.474461 g / cm^3
# Si number density = 24.801060 Si / 1000 Ang^3
#
#
#
# Elastic Constant Matrix: (Units=GPa)
#
#
# Indices 1 2 3 4 5 6 
#
# 1 70.5497 9.2002 54.2715 0.0000 -21.4872 0.0000
# 2 9.2002 228.8456 55.4710 0.0000 -23.9145 0.0000
# 3 54.2715 55.4710 286.8129 0.0000 -27.4349 0.0000
# 4 0.0000 0.0000 0.0000 51.4754 0.0000 -27.8503
# 5 -21.4872 -23.9145 -27.4349 0.0000 66.5812 0.0000
# 6 0.0000 0.0000 0.0000 -27.8503 0.0000 -76.0019
#
#
#
# Elastic Compliance Matrix: (Units=1/GPa)
#
#
# Indices 1 2 3 4 5 6 
#
# 1 0.017871 0.000507 -0.003030 0.000000 0.004701 0.000000
# 2 0.000507 0.004716 -0.000864 0.000000 0.001501 0.000000
# 3 -0.003030 -0.000864 0.004272 0.000000 0.000472 0.000000
# 4 0.000000 0.000000 0.000000 0.016212 0.000000 -0.005941
# 5 0.004701 0.001501 0.000472 0.000000 0.017270 0.000000
# 6 0.000000 0.000000 0.000000 -0.005941 0.000000 -0.010981
#
#
# Mechanical properties :
#
#
# Convention : Reuss Voigt Hill
#
# Bulk Modulus (GPa) = 49.78936 91.56596 70.67766
# Shear Modulus (GPa) = 79.57947 39.56200 59.57073
#
# Velocity S-wave (km/s) = 5.67070 3.99830 4.90628
# Velocity P-wave (km/s) = 7.93693 7.63646 7.78814
#
# Compressibility (1/GPa) = 0.02008461
#
# Stress axis : x y z
#
# Youngs Moduli (GPa) = 55.95679 212.05366 234.06689
#
# Poissons Ratio (x) = -0.10757 0.70923
# Poissons Ratio (y) = -0.02838 0.20234
# Poissons Ratio (z) = 0.16955 0.18331
#
# Static dielectric constant tensor:
#      x y z
#    x 1.746690 0.000000 -0.140020 
#    y 0.000000 1.852520 0.000000 
#    z -0.140020 0.000000 1.869520 
# 
# From -- ./inp_files/904.got.cif
#   From: 2010.05.17/outbox.cif.g08.bks.cpg/sg3_1_cif.got.tgz:904.got - 2010.06.03 18:33:08.
