data_PCOD9112531
_publ_section_title
;
Structure prediction by ZEFSAII (Michael W. Deem and Ramdas Pophale) SiO2 
 PCOD9112531
Probable space group: P 2
;
_chemical_formula_sum "Si O2"
_cell_formula_units_Z 16
_cell_length_a 9.220867
_cell_length_b 9.269826
_cell_length_c 19.786301
_cell_angle_alpha 90.000000
_cell_angle_beta 27.195120
_cell_angle_gamma 90.000000
_cell_volume 772.939001
_symmetry_space_group_name_H-M "P 2"
_symmetry_group_IT_number 3
_symmetry_cell_setting 'monoclinic'
loop_
_space_group_symop_operation_xyz
x,y,z
-x,y,-z
loop_
_atom_site_type_symbol
_atom_site_label
_atom_site_fract_x
_atom_site_fract_y
_atom_site_fract_z
Si Si1 0.360507 0.871240 0.323271
Si Si2 0.265810 0.420699 0.687691
Si Si3 0.973563 0.387432 0.363216
Si Si4 0.830520 0.700140 0.724110
Si Si5 0.779425 0.203357 0.930549
Si Si6 0.567061 0.747212 0.374988
Si Si7 0.947468 0.943580 0.760079
Si Si8 0.644040 0.118051 0.770755
O O1 0.555122 0.803132 0.303431
O O2 0.000000 0.885654 0.500000
O O3 0.356946 0.762514 0.261719
O O4 0.453903 0.025253 0.253134
O O5 0.642879 0.401869 0.540251
O O6 0.150777 0.361376 0.661937
O O7 0.242769 0.595477 0.697533
O O8 0.057189 0.320514 0.822734
O O9 0.187316 0.529526 0.265787
O O10 0.180728 0.267276 0.313206
O O11 0.208923 0.721846 0.550266
O O12 0.749135 0.797889 0.823070
O O13 0.860570 0.060107 0.853054
O O14 0.500000 0.273383 0.000000
O O15 0.637203 0.149927 0.060091
O O16 0.727578 0.875062 0.349897
O O17 0.905921 0.026661 0.706095
#
# Coordination Sequence:
#
# PCOD9112531 Si02
#       8
#     2   2   2   2   2   2   2   2
#     4   9  20  38  57  83 115 155 195 237 288 347
#     4  10  19  32  56  92 120 143 187 250 295 340
#     4  10  18  33  58  89 118 143 190 242 294 340
#     4   9  18  33  56  84 117 148 190 241 291 341
#     4  10  20  36  52  84 121 151 188 240 295 344
#     4  10  19  34  56  85 118 146 192 244 291 339
#     4  10  18  30  54  81 107 150 190 233 284 332
#     4  10  21  39  58  82 119 155 192 237 287 348
#
# _framework density 20.700209999999998
#
# number of rings (size 3 to 8) (size 9 to 14) (size 15 to 20)
#    0.000    2.250    3.750    0.375    0.000    4.000 
#    0.000   11.875    0.000    0.000    0.000    0.000 
#    0.000    0.000    0.000    0.000    0.000    0.000 
#
# Total GULP energy -89109.388174 kJ/mol
# GULP energy per Si atom -5569.336761 kJ/mol
# Density = 2.065310 g / cm^3
# Si number density = 20.700210 Si / 1000 Ang^3
#
#
#
# Elastic Constant Matrix: (Units=GPa)
#
#
# Indices 1 2 3 4 5 6 
#
# 1 43.2673 5.2494 16.4118 0.0000 2.6715 0.0000
# 2 5.2494 112.2994 40.9666 0.0000 -6.0669 0.0000
# 3 16.4118 40.9666 40.9509 0.0000 7.5742 0.0000
# 4 0.0000 0.0000 0.0000 -7.1558 0.0000 9.6846
# 5 2.6715 -6.0669 7.5742 0.0000 11.9633 0.0000
# 6 0.0000 0.0000 0.0000 9.6846 0.0000 19.8148
#
#
#
# Elastic Compliance Matrix: (Units=1/GPa)
#
#
# Indices 1 2 3 4 5 6 
#
# 1 0.029279 0.006347 -0.019786 0.000000 0.009207 0.000000
# 2 0.006347 0.020000 -0.027371 0.000000 0.026054 0.000000
# 3 -0.019786 -0.027371 0.069634 0.000000 -0.053549 0.000000
# 4 0.000000 0.000000 0.000000 -0.084110 0.000000 0.041109
# 5 0.009207 0.026054 -0.053549 0.000000 0.128648 0.000000
# 6 0.000000 0.000000 0.000000 0.041109 0.000000 0.030375
#
#
# Mechanical properties :
#
#
# Convention : Reuss Voigt Hill
#
# Bulk Modulus (GPa) = 26.81415 35.75255 31.28335
# Shear Modulus (GPa) = 17.36847 13.85045 15.60946
#
# Velocity S-wave (km/s) = 2.89977 2.58950 2.74902
# Velocity P-wave (km/s) = 4.91867 5.12345 5.02210
#
# Compressibility (1/GPa) = 0.03729374
#
# Stress axis : x y z
#
# Youngs Moduli (GPa) = 34.15449 49.99909 14.36071
#
# Poissons Ratio (x) = -0.31733 0.28414
# Poissons Ratio (y) = -0.21677 0.39306
# Poissons Ratio (z) = 0.67578 1.36850
#
# Static dielectric constant tensor:
#      x y z
#    x 1.750680 0.000000 0.019380 
#    y 0.000000 1.791080 0.000000 
#    z 0.019380 0.000000 1.802280 
# 
# From -- ./inp_files/15809.got.cif
#   From: 2010.05.17/outbox.cif.g08.bks.cpg/sg3_8_cif.got.tgz:15809.got - 2010.06.03 18:33:08.
