data_PCOD9112913
_publ_section_title
;
Structure prediction by ZEFSAII (Michael W. Deem and Ramdas Pophale) SiO2 
 PCOD9112913
Probable space group: P 2
;
_chemical_formula_sum "Si O2"
_cell_formula_units_Z 15
_cell_length_a 5.028046
_cell_length_b 9.359248
_cell_length_c 14.676334
_cell_angle_alpha 90.000000
_cell_angle_beta 80.822878
_cell_angle_gamma 90.000000
_cell_volume 681.809334
_symmetry_space_group_name_H-M "P 2"
_symmetry_group_IT_number 3
_symmetry_cell_setting 'monoclinic'
loop_
_space_group_symop_operation_xyz
x,y,z
-x,y,-z
loop_
_atom_site_type_symbol
_atom_site_label
_atom_site_fract_x
_atom_site_fract_y
_atom_site_fract_z
Si Si1 0.792461 0.227110 0.940078
Si Si2 0.524066 0.372022 0.281651
Si Si3 0.812665 0.567220 0.581235
Si Si4 0.346760 0.523580 0.103229
Si Si5 0.123802 0.753576 0.246203
Si Si6 0.968618 0.188051 0.738264
Si Si7 0.500000 0.807156 0.500000
Si Si8 0.378944 0.924429 0.700643
O O1 0.850597 0.394517 0.916446
O O2 0.834484 0.151966 0.842512
O O3 0.500000 0.219409 0.000000
O O4 0.000000 0.167267 0.000000
O O5 0.438768 0.477400 0.367253
O O6 0.491863 0.445558 0.182975
O O7 0.830500 0.323602 0.273209
O O8 0.298207 0.243383 0.300687
O O9 0.914772 0.640235 0.668845
O O10 0.722682 0.699453 0.524418
O O11 0.000000 0.481430 0.500000
O O12 0.230910 0.666091 0.154108
O O13 0.500000 0.554772 0.000000
O O14 0.332701 0.878880 0.269412
O O15 0.828658 0.812631 0.244084
O O16 0.195202 0.066782 0.711802
O O17 0.413679 0.896352 0.591523
#
# Coordination Sequence:
#
# PCOD9112913 Si02
#       8
#     2   2   2   2   2   2   1   2
#     4  10  20  35  61  89 115 157 197 238 300 354
#     4  10  23  37  61  91 118 156 190 245 311 341
#     4  10  20  37  62  86 118 147 198 252 296 357
#     4   9  19  36  61  89 120 147 191 246 295 349
#     4  10  22  37  60  88 113 153 199 236 294 340
#     4  11  22  41  58  85 125 154 197 244 283 350
#     4  10  22  38  64  82 114 158 210 226 298 360
#     4  11  23  41  60  81 117 164 195 239 279 352
#
# _framework density 22.000287
#
# number of rings (size 3 to 8) (size 9 to 14) (size 15 to 20)
#    0.000    1.867    1.333    3.200    1.867    8.533 
#    2.400    2.000    0.000    0.800    0.000    0.000 
#    0.000    0.000    0.000    0.000    0.000    0.000 
#
# Total GULP energy -83530.515275 kJ/mol
# GULP energy per Si atom -5568.701018 kJ/mol
# Density = 2.195021 g / cm^3
# Si number density = 22.000287 Si / 1000 Ang^3
#
#
#
# Elastic Constant Matrix: (Units=GPa)
#
#
# Indices 1 2 3 4 5 6 
#
# 1 98.5202 9.4235 19.3631 0.0000 -20.5954 0.0000
# 2 9.4235 39.4143 33.7079 0.0000 -13.7602 0.0000
# 3 19.3631 33.7079 144.8792 0.0000 -31.4920 0.0000
# 4 0.0000 0.0000 0.0000 29.2839 0.0000 -11.8463
# 5 -20.5954 -13.7602 -31.4920 0.0000 29.2228 0.0000
# 6 0.0000 0.0000 0.0000 -11.8463 0.0000 30.6462
#
#
#
# Elastic Compliance Matrix: (Units=1/GPa)
#
#
# Indices 1 2 3 4 5 6 
#
# 1 0.011914 -0.000083 0.000318 0.000000 0.008701 0.000000
# 2 -0.000083 0.033645 -0.005728 0.000000 0.009612 0.000000
# 3 0.000318 -0.005728 0.009997 0.000000 0.008300 0.000000
# 4 0.000000 0.000000 0.000000 0.040478 0.000000 0.015647
# 5 0.008701 0.009612 0.008300 0.000000 0.053822 0.000000
# 6 0.000000 0.000000 0.000000 0.015647 0.000000 0.038679
#
#
# Mechanical properties :
#
#
# Convention : Reuss Voigt Hill
#
# Bulk Modulus (GPa) = 22.43602 45.31141 33.87372
# Shear Modulus (GPa) = 23.32330 32.51852 27.92091
#
# Velocity S-wave (km/s) = 3.25951 3.84877 3.56633
# Velocity P-wave (km/s) = 4.93822 6.35541 5.69110
#
# Compressibility (1/GPa) = 0.04457118
#
# Stress axis : x y z
#
# Youngs Moduli (GPa) = 83.93137 29.72179 100.03454
#
# Poissons Ratio (x) = 0.00247 -0.03184
# Poissons Ratio (y) = 0.00698 0.57296
# Poissons Ratio (z) = -0.02671 0.17024
#
# Static dielectric constant tensor:
#      x y z
#    x 1.849270 0.000000 -0.013630 
#    y 0.000000 1.914470 0.000000 
#    z -0.013630 0.000000 1.792480 
# 
# From -- ./inp_files/13007.got.cif
#   From: 2010.05.17/outbox.cif.g08.bks.cpg/sg3_7_cif.got.tgz:13007.got - 2010.06.03 18:33:08.
