data_PCOD9112969
_publ_section_title
;
Structure prediction by ZEFSAII (Michael W. Deem and Ramdas Pophale) SiO2 
 PCOD9112969
Probable space group: P 2
;
_chemical_formula_sum "Si O2"
_cell_formula_units_Z 15
_cell_length_a 7.196097
_cell_length_b 8.846094
_cell_length_c 18.077433
_cell_angle_alpha 90.000000
_cell_angle_beta 34.300186
_cell_angle_gamma 90.000000
_cell_volume 648.487161
_symmetry_space_group_name_H-M "P 2"
_symmetry_group_IT_number 3
_symmetry_cell_setting 'monoclinic'
loop_
_space_group_symop_operation_xyz
x,y,z
-x,y,-z
loop_
_atom_site_type_symbol
_atom_site_label
_atom_site_fract_x
_atom_site_fract_y
_atom_site_fract_z
Si Si1 0.500000 0.086740 0.500000
Si Si2 0.427903 0.388739 0.102565
Si Si3 0.662496 0.672085 0.786305
Si Si4 0.898189 0.861885 0.455289
Si Si5 0.687877 0.308119 0.310112
Si Si6 0.010216 0.140695 0.082334
Si Si7 0.715113 0.651700 0.304043
Si Si8 0.812226 0.810972 0.951008
O O1 0.523709 0.194556 0.421195
O O2 0.809754 0.978584 0.418765
O O3 0.469441 0.501509 0.157772
O O4 0.060893 0.326111 0.218506
O O5 0.500000 0.472260 0.000000
O O6 0.677806 0.251394 0.017297
O O7 0.364777 0.777075 0.913057
O O8 0.817005 0.744746 0.662679
O O9 0.987407 0.664294 0.733636
O O10 0.566753 0.766976 0.579544
O O11 0.000000 0.935059 0.500000
O O12 0.572106 0.481728 0.347252
O O13 0.720707 0.231638 0.218838
O O14 0.000000 0.105198 0.000000
O O15 0.055284 0.979440 0.105287
O O16 0.899092 0.696852 0.167605
O O17 0.500000 0.796541 0.000000
#
# Coordination Sequence:
#
# PCOD9112969 Si02
#       8
#     1   2   2   2   2   2   2   2
#     4  12  26  46  68  96 138 182 228 282 340 414
#     4   9  19  39  64  94 125 168 224 271 334 404
#     4  10  20  38  68  95 123 172 222 280 330 395
#     4  12  27  44  67 101 140 182 228 280 341 412
#     4  10  23  41  69  94 123 182 225 277 340 399
#     4  11  23  37  58  96 138 170 214 280 341 401
#     4  10  21  44  70  96 129 172 234 278 338 404
#     4  10  20  36  66  94 121 165 219 275 332 401
#
# _framework density 23.130758
#
# number of rings (size 3 to 8) (size 9 to 14) (size 15 to 20)
#    0.000    1.600    1.333    4.800    7.467    3.200 
#    0.000    2.000    0.000    0.000    0.000    0.000 
#    0.000    0.000    0.000    0.000    0.000    0.000 
#
# Total GULP energy -83768.607970 kJ/mol
# GULP energy per Si atom -5584.573865 kJ/mol
# Density = 2.307811 g / cm^3
# Si number density = 23.130758 Si / 1000 Ang^3
#
#
#
# Elastic Constant Matrix: (Units=GPa)
#
#
# Indices 1 2 3 4 5 6 
#
# 1 36.4150 16.7295 4.3333 0.0000 7.5945 0.0000
# 2 16.7295 120.3470 16.2099 0.0000 2.0343 0.0000
# 3 4.3333 16.2099 85.0754 0.0000 6.9028 0.0000
# 4 0.0000 0.0000 0.0000 35.2646 0.0000 1.9488
# 5 7.5945 2.0343 6.9028 0.0000 24.0632 0.0000
# 6 0.0000 0.0000 0.0000 1.9488 0.0000 9.3925
#
#
#
# Elastic Compliance Matrix: (Units=1/GPa)
#
#
# Indices 1 2 3 4 5 6 
#
# 1 0.031383 -0.004198 -0.000024 0.000000 -0.009543 0.000000
# 2 -0.004198 0.009091 -0.001601 0.000000 0.001016 0.000000
# 3 -0.000024 -0.001601 0.012336 0.000000 -0.003396 0.000000
# 4 0.000000 0.000000 0.000000 0.028686 0.000000 -0.005952
# 5 -0.009543 0.001016 -0.003396 0.000000 0.045457 0.000000
# 6 0.000000 0.000000 0.000000 -0.005952 0.000000 0.107702
#
#
# Mechanical properties :
#
#
# Convention : Reuss Voigt Hill
#
# Bulk Modulus (GPa) = 24.29305 35.15364 29.72335
# Shear Modulus (GPa) = 19.22903 27.38172 23.30538
#
# Velocity S-wave (km/s) = 2.88639 3.44434 3.17764
# Velocity P-wave (km/s) = 4.65119 5.57214 5.13237
#
# Compressibility (1/GPa) = 0.04116403
#
# Stress axis : x y z
#
# Youngs Moduli (GPa) = 31.86452 109.99511 81.06324
#
# Poissons Ratio (x) = 0.46176 0.00197
# Poissons Ratio (y) = 0.13377 0.12977
# Poissons Ratio (z) = 0.00078 0.17608
#
# Static dielectric constant tensor:
#      x y z
#    x 1.961210 0.000000 0.072690 
#    y 0.000000 1.906720 0.000000 
#    z 0.072690 0.000000 1.883190 
# 
# From -- ./inp_files/15046.got.cif
#   From: 2010.05.17/outbox.cif.g08.bks.cpg/sg3_8_cif.got.tgz:15046.got - 2010.06.03 18:33:08.
