data_PCOD9112327
_publ_section_title
;
Structure prediction by ZEFSAII (Michael W. Deem and Ramdas Pophale) SiO2 
 PCOD9112327
Probable space group: P -1
;
_chemical_formula_sum "Si O2"
_cell_formula_units_Z 12
_cell_length_a 13.752232
_cell_length_b 8.643068
_cell_length_c 10.198108
_cell_angle_alpha 92.122325
_cell_angle_beta 145.338225
_cell_angle_gamma 111.014912
_cell_volume 502.184319
_symmetry_space_group_name_H-M "P -1"
_symmetry_group_IT_number 2
_symmetry_cell_setting 'triclinic'
loop_
_space_group_symop_operation_xyz
x,y,z
-x,-y,-z
loop_
_atom_site_type_symbol
_atom_site_label
_atom_site_fract_x
_atom_site_fract_y
_atom_site_fract_z
Si Si1 0.881021 0.063023 0.639806
Si Si2 0.597522 0.680920 0.720566
Si Si3 0.072837 0.598463 0.731832
Si Si4 0.020908 0.195875 0.514770
Si Si5 0.449230 0.584703 0.113546
Si Si6 0.206449 0.670954 0.335118
O O1 0.785590 0.139110 0.629918
O O2 0.934457 0.184819 0.565579
O O3 0.701572 0.817588 0.394525
O O4 0.120317 0.140295 0.966049
O O5 0.500000 0.500000 0.500000
O O6 0.545827 0.561822 0.795426
O O7 0.447598 0.743961 0.556342
O O8 0.000000 0.500000 0.500000
O O9 0.121253 0.809818 0.759059
O O10 0.881558 0.458203 0.628281
O O11 0.297992 0.632408 0.013006
O O12 0.286099 0.426324 0.807345
O O13 0.000000 0.000000 0.500000
O O14 0.000000 0.500000 0.000000
#
# Coordination Sequence:
#
# PCOD9112327 Si02
#       6
#     2   2   2   2   2   2
#     4  11  24  46  67 105 145 185 237 299 359 424
#     4  11  23  46  70 100 146 186 245 294 349 436
#     4  10  20  46  71 103 145 187 239 297 357 431
#     4  10  23  44  71 104 144 185 241 296 358 425
#     4  10  23  43  68 102 144 180 240 296 357 423
#     4  12  23  46  77 102 142 196 237 299 363 423
#
# _framework density 23.895609
#
# number of rings (size 3 to 8) (size 9 to 14) (size 15 to 20)
#    0.000    1.333    6.667    0.000    2.333    4.667 
#    9.000    1.667    0.000    0.000    0.000    0.000 
#    0.000    0.000    0.000    0.000    0.000    0.000 
#
# Total GULP energy -66976.724804 kJ/mol
# GULP energy per Si atom -5581.393734 kJ/mol
# Density = 2.384122 g / cm^3
# Si number density = 23.895609 Si / 1000 Ang^3
#
#
#
# Elastic Constant Matrix: (Units=GPa)
#
#
# Indices 1 2 3 4 5 6 
#
# 1 74.8951 14.7263 34.3072 -2.9120 3.2942 -33.9189
# 2 14.7263 101.4707 58.8767 3.8998 12.2552 -39.8518
# 3 34.3072 58.8767 134.7367 16.1498 19.7667 -26.4368
# 4 -2.9120 3.8998 16.1498 47.7192 -7.0815 5.4506
# 5 3.2942 12.2552 19.7667 -7.0815 46.3230 -10.0015
# 6 -33.9189 -39.8518 -26.4368 5.4506 -10.0015 42.6690
#
#
#
# Elastic Compliance Matrix: (Units=1/GPa)
#
#
# Indices 1 2 3 4 5 6 
#
# 1 0.026695 0.010257 -0.006520 0.000461 0.004219 0.027691
# 2 0.010257 0.022420 -0.007635 -0.001204 0.001797 0.024938
# 3 -0.006520 -0.007635 0.012600 -0.004146 -0.004619 -0.005061
# 4 0.000461 -0.001204 -0.004146 0.023765 0.004544 -0.005298
# 5 0.004219 0.001797 -0.004619 0.004544 0.025091 0.007472
# 6 0.027691 0.024938 -0.005061 -0.005298 0.007472 0.068033
#
#
# Mechanical properties :
#
#
# Convention : Reuss Voigt Hill
#
# Bulk Modulus (GPa) = 18.54630 58.54699 38.54665
# Shear Modulus (GPa) = 24.46503 40.88839 32.67671
#
# Velocity S-wave (km/s) = 3.20321 4.14106 3.70195
# Velocity P-wave (km/s) = 4.63238 6.88614 5.86847
#
# Compressibility (1/GPa) = 0.05391911
#
# Stress axis : x y z
#
# Youngs Moduli (GPa) = 37.45993 44.60314 79.36450
#
# Poissons Ratio (x) = -0.45751 0.51748
# Poissons Ratio (y) = -0.38424 0.60594
# Poissons Ratio (z) = 0.24425 0.34054
#
# Static dielectric constant tensor:
#      x y z
#    x 2.033860 -0.086500 0.024790 
#    y -0.086500 2.017750 -0.064060 
#    z 0.024790 -0.064060 2.112350 
# 
# From -- ./inp_files/443262.got.cif
#   From: 2010.05.17/outbox.cif.g08.bks.cpg/sg2_222_cif.got.tgz:443262.got - 2010.06.03 11:33:40.
