data_PCOD9112336
_publ_section_title
;
Structure prediction by ZEFSAII (Michael W. Deem and Ramdas Pophale) SiO2 
 PCOD9112336
Probable space group: P -1
;
_chemical_formula_sum "Si O2"
_cell_formula_units_Z 16
_cell_length_a 6.182523
_cell_length_b 17.256719
_cell_length_c 8.596502
_cell_angle_alpha 141.131772
_cell_angle_beta 95.804444
_cell_angle_gamma 98.545556
_cell_volume 533.284681
_symmetry_space_group_name_H-M "P -1"
_symmetry_group_IT_number 2
_symmetry_cell_setting 'triclinic'
loop_
_space_group_symop_operation_xyz
x,y,z
-x,-y,-z
loop_
_atom_site_type_symbol
_atom_site_label
_atom_site_fract_x
_atom_site_fract_y
_atom_site_fract_z
Si Si1 0.298314 0.357322 0.236927
Si Si2 0.535575 0.725588 0.209357
Si Si3 0.788775 0.611785 0.245147
Si Si4 0.962670 0.992998 0.668059
Si Si5 0.145364 0.904045 0.795637
Si Si6 0.039839 0.470648 0.196988
Si Si7 0.566860 0.243035 0.259219
Si Si8 0.317556 0.856816 0.204148
O O1 0.500000 0.500000 0.500000
O O2 0.070580 0.391723 0.228688
O O3 0.330720 0.275528 0.262725
O O4 0.353863 0.308367 0.993989
O O5 0.552175 0.633796 0.210711
O O6 0.730698 0.868226 0.495225
O O7 0.310954 0.761168 0.201155
O O8 0.959227 0.756287 0.537546
O O9 0.807976 0.506286 0.208672
O O10 0.897087 0.582841 0.045432
O O11 0.176239 0.969858 0.729986
O O12 0.893995 0.121259 0.870277
O O13 0.000000 0.000000 0.500000
O O14 0.369803 0.869192 0.815569
O O15 0.000000 0.000000 0.000000
O O16 0.240956 0.616799 0.459789
O O17 0.588931 0.204703 0.024404
O O18 0.500000 0.000000 0.500000
#
# Coordination Sequence:
#
# PCOD9112336 Si02
#       8
#     2   2   2   2   2   2   2   2
#     4   8  13  22  39  65  92 113 141 194 237 263
#     4   8  15  26  42  64  88 119 155 185 224 273
#     4   8  14  23  38  64  92 118 138 189 240 265
#     4  10  19  30  44  65  93 128 158 187 230 278
#     4  10  17  27  43  65  93 121 156 192 225 272
#     4   8  13  22  37  62  98 108 141 191 243 262
#     4   9  15  24  41  65  89 117 153 188 232 269
#     4   9  16  27  43  63  88 122 154 190 225 271
#
# _framework density 30.002735999999999
#
# number of rings (size 3 to 8) (size 9 to 14) (size 15 to 20)
#    0.000    3.250    1.250    0.000    0.000    0.000 
#    0.000    0.000    0.000    6.750    0.000   21.875 
#    0.000   94.500    0.000    0.000    0.000    0.000 
#
# Total GULP energy -89260.678268 kJ/mol
# GULP energy per Si atom -5578.792392 kJ/mol
# Density = 2.993445 g / cm^3
# Si number density = 30.002736 Si / 1000 Ang^3
#
#
#
# Elastic Constant Matrix: (Units=GPa)
#
#
# Indices 1 2 3 4 5 6 
#
# 1 110.9021 82.1612 21.1359 -13.8291 25.9757 -52.8184
# 2 82.1612 314.9139 25.3263 17.6343 6.4065 -100.4269
# 3 21.1359 25.3263 150.9728 18.9929 0.3631 -5.2989
# 4 -13.8291 17.6343 18.9929 44.9887 -16.9105 3.4943
# 5 25.9757 6.4065 0.3631 -16.9105 47.0047 -24.7427
# 6 -52.8184 -100.4269 -5.2989 3.4943 -24.7427 92.3288
#
#
#
# Elastic Compliance Matrix: (Units=1/GPa)
#
#
# Indices 1 2 3 4 5 6 
#
# 1 0.014846 -0.002447 -0.002081 0.004616 -0.003818 0.004514
# 2 -0.002447 0.005679 -0.000124 -0.002357 0.002665 0.005574
# 3 -0.002081 -0.000124 0.007401 -0.003949 -0.000823 -0.000972
# 4 0.004616 -0.002357 -0.003949 0.029545 0.009038 0.001154
# 5 -0.003818 0.002665 -0.000823 0.009038 0.030794 0.008578
# 6 0.004514 0.005574 -0.000972 0.001154 0.008578 0.021675
#
#
# Mechanical properties :
#
#
# Convention : Reuss Voigt Hill
#
# Bulk Modulus (GPa) = 53.70399 92.67065 73.18732
# Shear Modulus (GPa) = 39.85584 66.74213 53.29899
#
# Velocity S-wave (km/s) = 3.64869 4.72161 4.21939
# Velocity P-wave (km/s) = 5.97404 7.78969 6.94148
#
# Compressibility (1/GPa) = 0.01862059
#
# Stress axis : x y z
#
# Youngs Moduli (GPa) = 67.35703 176.08200 135.12518
#
# Poissons Ratio (x) = 0.43094 0.28119
# Poissons Ratio (y) = 0.16485 0.01680
# Poissons Ratio (z) = 0.14017 0.02190
#
# Static dielectric constant tensor:
#      x y z
#    x 1.537710 0.227770 0.355900 
#    y 0.227770 2.287390 -0.119980 
#    z 0.355900 -0.119980 2.364380 
# 
# From -- ./inp_files/212030.got.cif
#   From: 2010.05.17/outbox.cif.g08.bks.cpg/sg2_107_cif.got.tgz:212030.got - 2010.06.03 11:33:40.
