data_PCOD9112711
_publ_section_title
;
Structure prediction by ZEFSAII (Michael W. Deem and Ramdas Pophale) SiO2 
 PCOD9112711
Probable space group: P 2
;
_chemical_formula_sum "Si O2"
_cell_formula_units_Z 10
_cell_length_a 18.566471
_cell_length_b 5.261198
_cell_length_c 9.528952
_cell_angle_alpha 90.000000
_cell_angle_beta 25.649711
_cell_angle_gamma 90.000000
_cell_volume 402.916141
_symmetry_space_group_name_H-M "P 2"
_symmetry_group_IT_number 3
_symmetry_cell_setting 'monoclinic'
loop_
_space_group_symop_operation_xyz
x,y,z
-x,y,-z
loop_
_atom_site_type_symbol
_atom_site_label
_atom_site_fract_x
_atom_site_fract_y
_atom_site_fract_z
Si Si1 0.406149 0.803190 0.316603
Si Si2 0.115295 0.289061 0.474360
Si Si3 0.231420 0.445238 0.989372
Si Si4 0.200170 0.305359 0.633449
Si Si5 0.314786 0.932538 0.947026
O O1 0.304218 0.540340 0.512448
O O2 0.544293 0.848671 0.192294
O O3 0.276995 0.038251 0.545871
O O4 0.500000 0.801016 0.000000
O O5 0.220724 0.315553 0.427998
O O6 0.167878 0.486670 0.262550
O O7 0.920970 0.345787 0.835922
O O8 0.157297 0.024529 0.322275
O O9 0.295109 0.726521 0.857376
O O10 0.343517 0.202145 0.819037
O O11 0.000000 0.320210 0.000000
#
# Coordination Sequence:
#
# PCOD9112711 Si02
#       5
#     2   2   2   2   2
#     4  12  22  41  66  88 124 164 215 259 296 358
#     4   9  21  33  60  85 125 152 200 254 300 360
#     4   9  19  31  58  91 114 146 203 266 293 336
#     4  12  26  41  60  94 132 168 197 249 323 379
#     4  10  19  34  56  91 110 147 204 259 294 339
#
# _framework density 24.819061000000001
#
# number of rings (size 3 to 8) (size 9 to 14) (size 15 to 20)
#    1.200    0.400    2.000    3.600    5.600    0.000 
#    0.000    0.000    0.000    7.200    0.000    0.000 
#    0.000    0.000    0.000    0.000    0.000    0.000 
#
# Total GULP energy -55799.623231 kJ/mol
# GULP energy per Si atom -5579.962323 kJ/mol
# Density = 2.476257 g / cm^3
# Si number density = 24.819061 Si / 1000 Ang^3
#
#
#
# Elastic Constant Matrix: (Units=GPa)
#
#
# Indices 1 2 3 4 5 6 
#
# 1 77.0398 16.6275 14.7869 0.0000 -30.7440 0.0000
# 2 16.6275 202.8944 57.0248 0.0000 -16.5520 0.0000
# 3 14.7869 57.0248 123.4568 0.0000 -18.8837 0.0000
# 4 0.0000 0.0000 0.0000 77.2862 0.0000 69.3902
# 5 -30.7440 -16.5520 -18.8837 0.0000 36.4346 0.0000
# 6 0.0000 0.0000 0.0000 69.3902 0.0000 202.4403
#
#
#
# Elastic Compliance Matrix: (Units=1/GPa)
#
#
# Indices 1 2 3 4 5 6 
#
# 1 0.019597 -0.000353 0.000348 0.000000 0.016556 0.000000
# 2 -0.000353 0.005730 -0.002446 0.000000 0.001037 0.000000
# 3 0.000348 -0.002446 0.009843 0.000000 0.004285 0.000000
# 4 0.000000 0.000000 0.000000 0.018691 0.000000 -0.006407
# 5 0.016556 0.001037 0.004285 0.000000 0.044108 0.000000
# 6 0.000000 0.000000 0.000000 -0.006407 0.000000 0.007136
#
#
# Mechanical properties :
#
#
# Convention : Reuss Voigt Hill
#
# Bulk Modulus (GPa) = 33.03756 64.47438 48.75597
# Shear Modulus (GPa) = 41.63369 84.22900 62.93135
#
# Velocity S-wave (km/s) = 4.10016 5.83189 5.04094
# Velocity P-wave (km/s) = 5.97958 8.44879 7.31906
#
# Compressibility (1/GPa) = 0.03026858
#
# Stress axis : x y z
#
# Youngs Moduli (GPa) = 51.02927 174.53302 101.59271
#
# Poissons Ratio (x) = 0.06165 -0.03539
# Poissons Ratio (y) = 0.01803 0.24845
# Poissons Ratio (z) = -0.01778 0.42682
#
# Static dielectric constant tensor:
#      x y z
#    x 1.826390 0.000000 -0.208700 
#    y 0.000000 2.008670 0.000000 
#    z -0.208700 0.000000 1.439500 
# 
# From -- ./inp_files/9209.got.cif
#   From: 2010.05.17/outbox.cif.g08.bks.cpg/sg3_5_cif.got.tgz:9209.got - 2010.06.03 18:33:08.
