data_PCOD9112887
_publ_section_title
;
Structure prediction by ZEFSAII (Michael W. Deem and Ramdas Pophale) SiO2 
 PCOD9112887
Probable space group: P 2
;
_chemical_formula_sum "Si O2"
_cell_formula_units_Z 14
_cell_length_a 10.929851
_cell_length_b 10.562473
_cell_length_c 5.384475
_cell_angle_alpha 90.000000
_cell_angle_beta 76.159927
_cell_angle_gamma 90.000000
_cell_volume 603.570190
_symmetry_space_group_name_H-M "P 2"
_symmetry_group_IT_number 3
_symmetry_cell_setting 'monoclinic'
loop_
_space_group_symop_operation_xyz
x,y,z
-x,y,-z
loop_
_atom_site_type_symbol
_atom_site_label
_atom_site_fract_x
_atom_site_fract_y
_atom_site_fract_z
Si Si1 0.292089 0.343950 0.309795
Si Si2 0.642495 0.080983 0.826063
Si Si3 0.500000 0.444181 0.500000
Si Si4 0.500000 0.958048 0.500000
Si Si5 0.643427 0.575398 0.036170
Si Si6 0.295214 0.847196 0.894457
Si Si7 0.921768 0.945676 0.289014
Si Si8 0.078608 0.247726 0.712838
O O1 0.282973 0.210367 0.172949
O O2 0.436775 0.355463 0.327700
O O3 0.204664 0.326595 0.593600
O O4 0.279524 0.466889 0.145616
O O5 0.609331 0.045659 0.558792
O O6 0.500000 0.091664 0.000000
O O7 0.718683 0.965392 0.911397
O O8 0.610197 0.529922 0.331240
O O9 0.438422 0.867692 0.732427
O O10 0.712648 0.708750 0.990140
O O11 0.500000 0.587631 0.000000
O O12 0.203385 0.865316 0.705087
O O13 0.000000 0.915697 0.500000
O O14 0.894771 0.096728 0.302548
O O15 0.000000 0.921111 0.000000
O O16 0.000000 0.273688 0.500000
O O17 0.000000 0.277731 0.000000
#
# Coordination Sequence:
#
# PCOD9112887 Si02
#       8
#     2   2   1   1   2   2   2   2
#     4  11  23  39  68 101 138 181 233 288 360 415
#     4  10  21  35  60 104 141 179 227 296 352 423
#     4  10  22  40  66  98 140 182 230 282 354 426
#     4  10  20  34  60 102 136 180 234 290 354 410
#     4  10  22  41  63 102 141 188 228 286 359 435
#     4  11  23  39  69  97 140 179 238 286 360 418
#     4  10  24  44  68 105 138 183 234 297 353 411
#     4  10  24  43  71 103 140 181 236 293 354 412
#
# _framework density 23.195315000000001
#
# number of rings (size 3 to 8) (size 9 to 14) (size 15 to 20)
#    0.000    1.714    0.000    4.286   10.000    3.429 
#    0.000    0.000    3.143    0.000    0.000    0.000 
#    0.000    0.000    0.000    0.000    0.000    0.000 
#
# Total GULP energy -78209.755324 kJ/mol
# GULP energy per Si atom -5586.411095 kJ/mol
# Density = 2.314252 g / cm^3
# Si number density = 23.195315 Si / 1000 Ang^3
#
#
#
# Elastic Constant Matrix: (Units=GPa)
#
#
# Indices 1 2 3 4 5 6 
#
# 1 73.0712 40.3937 32.5560 0.0000 5.3972 0.0000
# 2 40.3937 176.9876 61.9482 0.0000 3.3451 0.0000
# 3 32.5560 61.9482 111.9012 0.0000 2.2012 0.0000
# 4 0.0000 0.0000 0.0000 27.5881 0.0000 2.1049
# 5 5.3972 3.3451 2.2012 0.0000 38.8081 0.0000
# 6 0.0000 0.0000 0.0000 2.1049 0.0000 15.0148
#
#
#
# Elastic Compliance Matrix: (Units=1/GPa)
#
#
# Indices 1 2 3 4 5 6 
#
# 1 0.016782 -0.002602 -0.003404 0.000000 -0.001917 0.000000
# 2 -0.002602 0.007417 -0.003347 0.000000 -0.000088 0.000000
# 3 -0.003404 -0.003347 0.011778 0.000000 0.000094 0.000000
# 4 0.000000 0.000000 0.000000 0.036639 0.000000 -0.005136
# 5 -0.001917 -0.000088 0.000094 0.000000 0.026037 0.000000
# 6 0.000000 0.000000 0.000000 -0.005136 0.000000 0.067321
#
#
# Mechanical properties :
#
#
# Convention : Reuss Voigt Hill
#
# Bulk Modulus (GPa) = 57.90482 70.19509 64.04996
# Shear Modulus (GPa) = 26.25517 31.41969 28.83743
#
# Velocity S-wave (km/s) = 3.36805 3.68444 3.52979
# Velocity P-wave (km/s) = 6.33587 6.95906 6.65476
#
# Compressibility (1/GPa) = 0.01726972
#
# Stress axis : x y z
#
# Youngs Moduli (GPa) = 59.58722 134.81911 84.90363
#
# Poissons Ratio (x) = 0.35086 0.28902
# Poissons Ratio (y) = 0.15507 0.28420
# Poissons Ratio (z) = 0.20284 0.45129
#
# Static dielectric constant tensor:
#      x y z
#    x 1.933520 0.000000 -0.019680 
#    y 0.000000 1.856090 0.000000 
#    z -0.019680 0.000000 2.006980 
# 
# From -- ./inp_files/2212.got.cif
#   From: 2010.05.17/outbox.cif.g08.bks.cpg/sg3_2_cif.got.tgz:2212.got - 2010.06.03 18:33:08.
