data_PCOD9112180
_publ_section_title
;
Structure prediction by ZEFSAII (Michael W. Deem and Ramdas Pophale) SiO2 
 PCOD9112180
Probable space group: P -1
;
_chemical_formula_sum "Si O2"
_cell_formula_units_Z 15
_cell_length_a 9.053252
_cell_length_b 11.983021
_cell_length_c 8.375674
_cell_angle_alpha 74.868397
_cell_angle_beta 119.029977
_cell_angle_gamma 127.416402
_cell_volume 630.261346
_symmetry_space_group_name_H-M "P -1"
_symmetry_group_IT_number 2
_symmetry_cell_setting 'triclinic'
loop_
_space_group_symop_operation_xyz
x,y,z
-x,-y,-z
loop_
_atom_site_type_symbol
_atom_site_label
_atom_site_fract_x
_atom_site_fract_y
_atom_site_fract_z
Si Si1 0.694041 0.833241 0.698491
Si Si2 0.734804 0.243484 0.603772
Si Si3 0.768624 0.399944 0.859761
Si Si4 0.000000 0.000000 0.500000
Si Si5 0.935631 0.708097 0.488333
Si Si6 0.490016 0.486802 0.193613
Si Si7 0.316515 0.997437 0.118513
Si Si8 0.247551 0.825783 0.862429
O O1 0.494973 0.833586 0.551216
O O2 0.617725 0.674541 0.753148
O O3 0.842106 0.900031 0.600416
O O4 0.759018 0.915760 0.870464
O O5 0.764853 0.366512 0.685259
O O6 0.755384 0.136840 0.760924
O O7 0.905446 0.297104 0.540166
O O8 0.641171 0.458917 0.826451
O O9 0.682987 0.252771 0.960851
O O10 0.000000 0.500000 0.000000
O O11 0.036655 0.142221 0.555601
O O12 0.711648 0.584992 0.357741
O O13 0.029767 0.715493 0.709166
O O14 0.500000 0.500000 0.000000
O O15 0.564554 0.086154 0.194403
O O16 0.235221 0.937363 0.920028
#
# Coordination Sequence:
#
# PCOD9112180 Si02
#       8
#     2   2   2   1   2   2   2   2
#     4  12  25  47  79 113 161 208 259 325 391 474
#     4  11  23  44  78 109 149 203 258 321 381 475
#     4  11  26  48  72 105 152 203 258 310 394 474
#     4  12  28  44  76 116 160 200 260 334 380 460
#     4  12  26  49  78 118 151 203 270 318 402 468
#     4  12  30  51  76 116 164 204 253 338 402 463
#     4  10  20  44  73 115 153 195 261 321 391 456
#     4  10  23  42  82 109 144 205 262 324 379 476
#
# _framework density 23.799651000000001
#
# number of rings (size 3 to 8) (size 9 to 14) (size 15 to 20)
#    0.000    0.800    2.667    3.600    3.733    4.800 
#    0.000    1.333    0.000    0.000    0.000    0.000 
#    0.000    0.000    0.000    0.000    0.000    0.000 
#
# Total GULP energy -83731.613974 kJ/mol
# GULP energy per Si atom -5582.107598 kJ/mol
# Density = 2.374548 g / cm^3
# Si number density = 23.799651 Si / 1000 Ang^3
#
#
#
# Elastic Constant Matrix: (Units=GPa)
#
#
# Indices 1 2 3 4 5 6 
#
# 1 203.6697 65.6708 75.1112 18.9084 -26.3757 -7.0683
# 2 65.6708 134.5643 46.8467 3.1660 -16.4124 -8.5466
# 3 75.1112 46.8467 104.9013 32.0712 -11.9700 6.4943
# 4 18.9084 3.1660 32.0712 31.8303 -4.4282 -6.3541
# 5 -26.3757 -16.4124 -11.9700 -4.4282 42.6172 8.1057
# 6 -7.0683 -8.5466 6.4943 -6.3541 8.1057 42.0962
#
#
#
# Elastic Compliance Matrix: (Units=1/GPa)
#
#
# Indices 1 2 3 4 5 6 
#
# 1 0.007453 -0.001613 -0.004765 0.001154 0.002516 0.001349
# 2 -0.001613 0.010349 -0.005416 0.006255 0.001484 0.003324
# 3 -0.004765 -0.005416 0.022318 -0.020737 0.000717 -0.008611
# 4 0.001154 0.006255 -0.020737 0.053595 0.000459 0.012664
# 5 0.002516 0.001484 0.000717 0.000459 0.026690 -0.004457
# 6 0.001349 0.003324 -0.008611 0.012664 -0.004457 0.028755
#
#
# Mechanical properties :
#
#
# Convention : Reuss Voigt Hill
#
# Bulk Modulus (GPa) = 60.48836 90.93251 75.71044
# Shear Modulus (GPa) = 28.04934 40.34251 34.19592
#
# Velocity S-wave (km/s) = 3.43674 4.12161 3.79466
# Velocity P-wave (km/s) = 6.42021 7.80645 7.14702
#
# Compressibility (1/GPa) = 0.01653211
#
# Stress axis : x y z
#
# Youngs Moduli (GPa) = 134.17619 96.62932 44.80704
#
# Poissons Ratio (x) = 0.15584 0.21352
# Poissons Ratio (y) = 0.21640 0.24266
# Poissons Ratio (z) = 0.63938 0.52332
#
# Static dielectric constant tensor:
#      x y z
#    x 1.855370 -0.047530 -0.034450 
#    y -0.047530 1.939600 0.056860 
#    z -0.034450 0.056860 2.026130 
# 
# From -- ./inp_files/186999.got.cif
#   From: 2010.05.17/outbox.cif.g08.bks.cpg/sg2_94_cif.got.tgz:186999.got - 2010.06.03 11:33:40.
