data_PCOD9112150
_publ_section_title
;
Structure prediction by ZEFSAII (Michael W. Deem and Ramdas Pophale) SiO2 
 PCOD9112150
Probable space group: P -1
;
_chemical_formula_sum "Si O2"
_cell_formula_units_Z 14
_cell_length_a 7.856380
_cell_length_b 22.282190
_cell_length_c 9.309070
_cell_angle_alpha 44.903832
_cell_angle_beta 113.548875
_cell_angle_gamma 147.760860
_cell_volume 520.417364
_symmetry_space_group_name_H-M "P -1"
_symmetry_group_IT_number 2
_symmetry_cell_setting 'triclinic'
loop_
_space_group_symop_operation_xyz
x,y,z
-x,-y,-z
loop_
_atom_site_type_symbol
_atom_site_label
_atom_site_fract_x
_atom_site_fract_y
_atom_site_fract_z
Si Si1 0.374815 0.786164 0.014604
Si Si2 0.230392 0.325208 0.072941
Si Si3 0.490158 0.781384 0.374407
Si Si4 0.917663 0.521893 0.074752
Si Si5 0.111483 0.927429 0.819981
Si Si6 0.111845 0.308276 0.637992
Si Si7 0.170941 0.862403 0.447717
O O1 0.976092 0.680731 0.072366
O O2 0.680528 0.982404 0.777193
O O3 0.487752 0.777340 0.207748
O O4 0.278553 0.693282 0.998592
O O5 0.661327 0.498484 0.974820
O O6 0.209889 0.231504 0.127474
O O7 0.959848 0.203922 0.323455
O O8 0.352310 0.639982 0.637665
O O9 0.170167 0.724658 0.394462
O O10 0.840240 0.963531 0.269133
O O11 0.000000 0.500000 0.000000
O O12 0.479869 0.056297 0.627015
O O13 0.069882 0.840620 0.078772
O O14 0.500000 0.500000 0.500000
O O15 0.138707 0.281293 0.533010
#
# Coordination Sequence:
#
# PCOD9112150 Si02
#       7
#     2   2   2   2   2   2   2
#     4  11  22  48  74  95 136 184 237 277 329 420
#     4  11  25  43  73 101 133 181 239 276 338 414
#     4  11  23  45  70  95 144 180 225 280 349 399
#     4  12  31  45  63 104 149 179 219 295 358 390
#     4  10  20  44  72 104 135 176 233 283 335 404
#     4  11  22  37  74 109 134 173 234 282 331 409
#     4  10  21  40  71 106 130 176 235 286 329 392
#
# _framework density 26.901485000000001
#
# number of rings (size 3 to 8) (size 9 to 14) (size 15 to 20)
#    0.000    1.143    4.286    3.429   10.000    0.571 
#    0.000    0.714    0.000    0.000    0.000    0.000 
#    0.000    0.000    0.000    0.000    0.000    0.000 
#
# Total GULP energy -78444.640749 kJ/mol
# GULP energy per Si atom -5603.188625 kJ/mol
# Density = 2.684026 g / cm^3
# Si number density = 26.901485 Si / 1000 Ang^3
#
#
#
# Elastic Constant Matrix: (Units=GPa)
#
#
# Indices 1 2 3 4 5 6 
#
# 1 97.8026 36.3203 11.2799 7.6561 -11.4136 -19.9997
# 2 36.3203 192.6758 54.9900 -2.4906 4.7495 -51.0345
# 3 11.2799 54.9900 101.8650 18.0128 5.7796 -10.5431
# 4 7.6561 -2.4906 18.0128 48.1463 -14.0326 -3.3121
# 5 -11.4136 4.7495 5.7796 -14.0326 33.3836 -0.7630
# 6 -19.9997 -51.0345 -10.5431 -3.3121 -0.7630 52.0305
#
#
#
# Elastic Compliance Matrix: (Units=1/GPa)
#
#
# Indices 1 2 3 4 5 6 
#
# 1 0.011973 -0.001405 -0.000420 -0.000350 0.004292 0.003179
# 2 -0.001405 0.008622 -0.004285 0.002892 0.000416 0.007239
# 3 -0.000420 -0.004285 0.013406 -0.006693 -0.004717 -0.002143
# 4 -0.000350 0.002892 -0.006693 0.027246 0.012155 0.003258
# 5 0.004292 0.000416 -0.004717 0.012155 0.037344 0.002423
# 6 0.003179 0.007239 -0.002143 0.003258 0.002423 0.027351
#
#
# Mechanical properties :
#
#
# Convention : Reuss Voigt Hill
#
# Bulk Modulus (GPa) = 45.90959 66.39153 56.15056
# Shear Modulus (GPa) = 34.38251 46.02897 40.20574
#
# Velocity S-wave (km/s) = 3.57892 4.14093 3.87014
# Velocity P-wave (km/s) = 5.84646 6.89900 6.39442
#
# Compressibility (1/GPa) = 0.02178194
#
# Stress axis : x y z
#
# Youngs Moduli (GPa) = 83.51827 115.97678 74.59520
#
# Poissons Ratio (x) = 0.16300 0.03131
# Poissons Ratio (y) = 0.11738 0.31962
# Poissons Ratio (z) = 0.03505 0.49692
#
# Static dielectric constant tensor:
#      x y z
#    x 2.127360 0.000660 -0.021000 
#    y 0.000660 2.167730 -0.017520 
#    z -0.021000 -0.017520 2.041090 
# 
# From -- ./inp_files/226174.got.cif
#   From: 2010.05.17/outbox.cif.g08.bks.cpg/sg2_114_cif.got.tgz:226174.got - 2010.06.03 11:33:40.
