data_PCOD9112948
_publ_section_title
;
Structure prediction by ZEFSAII (Michael W. Deem and Ramdas Pophale) SiO2 
 PCOD9112948
Probable space group: P 2
;
_chemical_formula_sum "Si O2"
_cell_formula_units_Z 15
_cell_length_a 4.981871
_cell_length_b 5.592116
_cell_length_c 26.009974
_cell_angle_alpha 90.000000
_cell_angle_beta 50.271224
_cell_angle_gamma 90.000000
_cell_volume 557.287524
_symmetry_space_group_name_H-M "P 2"
_symmetry_group_IT_number 3
_symmetry_cell_setting 'monoclinic'
loop_
_space_group_symop_operation_xyz
x,y,z
-x,y,-z
loop_
_atom_site_type_symbol
_atom_site_label
_atom_site_fract_x
_atom_site_fract_y
_atom_site_fract_z
Si Si1 0.431408 0.637420 0.809070
Si Si2 0.653357 0.402351 0.076302
Si Si3 0.113470 0.918750 0.764098
Si Si4 0.607555 0.108786 0.432991
Si Si5 0.954706 0.317727 0.698795
Si Si6 0.000000 0.488551 0.500000
Si Si7 0.559815 0.713236 0.630121
Si Si8 0.581426 0.905593 0.048363
O O1 0.264900 0.488987 0.876201
O O2 0.205382 0.852253 0.812046
O O3 0.785738 0.751578 0.788927
O O4 0.576711 0.437457 0.751538
O O5 0.460092 0.635359 0.076277
O O6 0.477459 0.138421 0.095356
O O7 0.000000 0.371622 0.000000
O O8 0.482456 0.827544 0.694361
O O9 0.022642 0.152674 0.740961
O O10 0.500000 0.993503 0.500000
O O11 0.979633 0.200249 0.365659
O O12 0.335536 0.325570 0.466141
O O13 0.515415 0.921136 0.400872
O O14 0.259184 0.514887 0.662812
O O15 0.923418 0.618781 0.563554
O O16 0.500000 0.967990 0.000000
O O17 0.000000 0.881121 0.000000
#
# Coordination Sequence:
#
# PCOD9112948 Si02
#       8
#     2   2   2   2   2   1   2   2
#     4  11  25  44  73 102 143 193 245 304 370 452
#     4  10  24  46  72 114 149 195 247 309 373 446
#     4  10  24  45  67 100 136 190 244 301 365 451
#     4  10  21  38  62  94 129 175 236 302 365 441
#     4   9  22  45  63  99 137 188 240 303 373 448
#     4  10  20  36  60  88 124 172 218 292 360 426
#     4   9  20  41  58  93 131 171 234 291 365 437
#     4  10  22  42  69 101 147 188 233 293 364 433
#
# _framework density 26.916088999999999
#
# number of rings (size 3 to 8) (size 9 to 14) (size 15 to 20)
#    0.000    2.133    0.000    0.800    3.733    8.533 
#   24.000    0.000    0.000    0.000    0.000    0.000 
#    0.000    0.000    0.000    0.000    0.000    0.000 
#
# Total GULP energy -83736.209772 kJ/mol
# GULP energy per Si atom -5582.413985 kJ/mol
# Density = 2.685483 g / cm^3
# Si number density = 26.916089 Si / 1000 Ang^3
#
#
#
# Elastic Constant Matrix: (Units=GPa)
#
#
# Indices 1 2 3 4 5 6 
#
# 1 83.9038 9.3134 14.9580 0.0000 2.2964 0.0000
# 2 9.3134 116.2837 9.1719 0.0000 -9.5029 0.0000
# 3 14.9580 9.1719 93.0079 0.0000 -9.8333 0.0000
# 4 0.0000 0.0000 0.0000 99.7746 0.0000 56.4623
# 5 2.2964 -9.5029 -9.8333 0.0000 33.1834 0.0000
# 6 0.0000 0.0000 0.0000 56.4623 0.0000 97.8445
#
#
#
# Elastic Compliance Matrix: (Units=1/GPa)
#
#
# Indices 1 2 3 4 5 6 
#
# 1 0.012448 -0.000976 -0.002092 0.000000 -0.001761 0.000000
# 2 -0.000976 0.008917 -0.000460 0.000000 0.002485 0.000000
# 3 -0.002092 -0.000460 0.011495 0.000000 0.003419 0.000000
# 4 0.000000 0.000000 0.000000 0.014883 0.000000 -0.008588
# 5 -0.001761 0.002485 0.003419 0.000000 0.031982 0.000000
# 6 0.000000 0.000000 0.000000 -0.008588 0.000000 0.015176
#
#
# Mechanical properties :
#
#
# Convention : Reuss Voigt Hill
#
# Bulk Modulus (GPa) = 38.75184 40.00912 39.38048
# Shear Modulus (GPa) = 45.22519 63.47731 54.35125
#
# Velocity S-wave (km/s) = 4.10351 4.86154 4.49852
# Velocity P-wave (km/s) = 6.07291 6.81245 6.45328
#
# Compressibility (1/GPa) = 0.02580523
#
# Stress axis : x y z
#
# Youngs Moduli (GPa) = 80.33511 112.14342 86.99389
#
# Poissons Ratio (x) = 0.10944 0.18198
# Poissons Ratio (y) = 0.07840 0.03999
# Poissons Ratio (z) = 0.16805 0.05155
#
# Static dielectric constant tensor:
#      x y z
#    x 2.059630 0.000000 -0.055330 
#    y 0.000000 2.190300 0.000000 
#    z -0.055330 0.000000 2.263080 
# 
# From -- ./inp_files/16437.got.cif
#   From: 2010.05.17/outbox.cif.g08.bks.cpg/sg3_9_cif.got.tgz:16437.got - 2010.06.03 18:33:08.
