data_PCOD9112117
_publ_section_title
;
Structure prediction by ZEFSAII (Michael W. Deem and Ramdas Pophale) SiO2 
 PCOD9112117
Probable space group: P -1
;
_chemical_formula_sum "Si O2"
_cell_formula_units_Z 16
_cell_length_a 8.827608
_cell_length_b 13.978352
_cell_length_c 10.648039
_cell_angle_alpha 101.779340
_cell_angle_beta 98.849683
_cell_angle_gamma 33.807113
_cell_volume 715.367087
_symmetry_space_group_name_H-M "P -1"
_symmetry_group_IT_number 2
_symmetry_cell_setting 'triclinic'
loop_
_space_group_symop_operation_xyz
x,y,z
-x,-y,-z
loop_
_atom_site_type_symbol
_atom_site_label
_atom_site_fract_x
_atom_site_fract_y
_atom_site_fract_z
Si Si1 0.156873 0.344014 0.571407
Si Si2 0.208902 0.307980 0.107164
Si Si3 0.348469 0.107856 0.318511
Si Si4 0.804873 0.314294 0.239286
Si Si5 0.621721 0.618543 0.213196
Si Si6 0.844778 0.817346 0.144931
Si Si7 0.096281 0.852209 0.044030
Si Si8 0.698098 0.531709 0.761389
O O1 0.309921 0.184397 0.463559
O O2 0.364117 0.296739 0.670325
O O3 0.000000 0.500000 0.500000
O O4 0.912717 0.434304 0.651688
O O5 0.340397 0.345136 0.139454
O O6 0.881618 0.495884 0.121338
O O7 0.277879 0.217996 0.222583
O O8 0.268091 0.203288 0.973365
O O9 0.649215 0.917111 0.267327
O O10 0.108701 0.154467 0.289694
O O11 0.691746 0.484090 0.265520
O O12 0.587366 0.360275 0.290891
O O13 0.816679 0.270088 0.085737
O O14 0.346260 0.748609 0.137542
O O15 0.871409 0.910077 0.110457
O O16 0.149156 0.624361 0.169013
O O17 0.000000 0.000000 0.000000
#
# Coordination Sequence:
#
# PCOD9112117 Si02
#       8
#     2   2   2   2   2   2   2   2
#     4  11  22  46  71  97 135 184 241 274 326 413
#     4  10  21  41  70  99 134 178 225 277 344 408
#     4  11  24  43  69  99 141 181 223 289 335 402
#     4  11  22  41  68 103 134 172 230 285 342 396
#     4  10  20  44  70  94 134 181 227 283 328 401
#     4  12  24  43  66 104 143 175 227 280 353 411
#     4  12  26  40  67 104 149 176 216 287 356 405
#     4  11  24  39  73  99 132 185 230 279 334 409
#
# _framework density 22.366140000000001
#
# number of rings (size 3 to 8) (size 9 to 14) (size 15 to 20)
#    0.000    1.000    7.500    1.875    1.750    4.000 
#    0.000    0.625    0.000    0.000    0.000    0.000 
#    0.000    0.000    0.000    0.000    0.000    0.000 
#
# Total GULP energy -89545.989210 kJ/mol
# GULP energy per Si atom -5596.624326 kJ/mol
# Density = 2.231523 g / cm^3
# Si number density = 22.366140 Si / 1000 Ang^3
#
#
#
# Elastic Constant Matrix: (Units=GPa)
#
#
# Indices 1 2 3 4 5 6 
#
# 1 147.5416 48.6832 26.0463 13.2938 13.0770 -12.8185
# 2 48.6832 81.6737 26.1177 7.8333 12.3985 -11.5081
# 3 26.0463 26.1177 75.7338 31.0925 19.5797 2.1131
# 4 13.2938 7.8333 31.0925 44.8017 10.6361 -2.9032
# 5 13.0770 12.3985 19.5797 10.6361 41.4879 -10.0100
# 6 -12.8185 -11.5081 2.1131 -2.9032 -10.0100 23.5393
#
#
#
# Elastic Compliance Matrix: (Units=1/GPa)
#
#
# Indices 1 2 3 4 5 6 
#
# 1 0.008738 -0.004361 -0.001243 -0.000791 -0.000027 0.002629
# 2 -0.004361 0.017435 -0.005806 0.002755 -0.000123 0.006958
# 3 -0.001243 -0.005806 0.023723 -0.013851 -0.008126 -0.010809
# 4 -0.000791 0.002755 -0.013851 0.032278 -0.000926 0.005747
# 5 -0.000027 -0.000123 -0.008126 -0.000926 0.031593 0.013975
# 6 0.002629 0.006958 -0.010809 0.005747 0.013975 0.054937
#
#
# Mechanical properties :
#
#
# Convention : Reuss Voigt Hill
#
# Bulk Modulus (GPa) = 36.93310 56.29372 46.61341
# Shear Modulus (GPa) = 24.93156 35.57256 30.25206
#
# Velocity S-wave (km/s) = 3.34234 3.99239 3.68174
# Velocity P-wave (km/s) = 5.60747 6.81733 6.24179
#
# Compressibility (1/GPa) = 0.02707598
#
# Stress axis : x y z
#
# Youngs Moduli (GPa) = 114.44122 57.35718 42.15330
#
# Poissons Ratio (x) = 0.25011 0.05239
# Poissons Ratio (y) = 0.49903 0.24475
# Poissons Ratio (z) = 0.14224 0.33303
#
# Static dielectric constant tensor:
#      x y z
#    x 1.840940 0.008860 -0.030200 
#    y 0.008860 1.857240 -0.022570 
#    z -0.030200 -0.022570 1.813100 
# 
# From -- ./inp_files/181323.got.cif
#   From: 2010.05.17/outbox.cif.g08.bks.cpg/sg2_91_cif.got.tgz:181323.got - 2010.06.03 11:33:40.
