data_PCOD9112367
_publ_section_title
;
Structure prediction by ZEFSAII (Michael W. Deem and Ramdas Pophale) SiO2 
 PCOD9112367
Probable space group: P -1
;
_chemical_formula_sum "Si O2"
_cell_formula_units_Z 11
_cell_length_a 4.989978
_cell_length_b 10.530226
_cell_length_c 12.107868
_cell_angle_alpha 60.404472
_cell_angle_beta 126.897778
_cell_angle_gamma 93.363375
_cell_volume 415.722432
_symmetry_space_group_name_H-M "P -1"
_symmetry_group_IT_number 2
_symmetry_cell_setting 'triclinic'
loop_
_space_group_symop_operation_xyz
x,y,z
-x,-y,-z
loop_
_atom_site_type_symbol
_atom_site_label
_atom_site_fract_x
_atom_site_fract_y
_atom_site_fract_z
Si Si1 0.500000 0.500000 0.500000
Si Si2 0.546162 0.455642 0.280438
Si Si3 0.228084 0.908246 0.493408
Si Si4 0.753432 0.154587 0.721633
Si Si5 0.611661 0.913764 0.947076
Si Si6 0.732086 0.594596 0.066159
O O1 0.634082 0.477722 0.417495
O O2 0.462628 0.320404 0.560915
O O3 0.616083 0.273370 0.355139
O O4 0.772288 0.533181 0.228212
O O5 0.117607 0.548416 0.124417
O O6 0.073398 0.903884 0.331159
O O7 0.500000 0.000000 0.500000
O O8 0.000000 0.000000 0.500000
O O9 0.641718 0.020822 0.808224
O O10 0.991398 0.188572 0.864482
O O11 0.491899 0.775685 0.933034
O O12 0.500000 0.000000 0.000000
O O13 0.500000 0.500000 0.000000
#
# Coordination Sequence:
#
# PCOD9112367 Si02
#       6
#     1   2   2   2   2   2
#     4  10  20  48  74 106 144 186 252 308 372 444
#     4  11  25  47  73 107 142 198 247 308 371 444
#     4  11  26  46  72 106 149 193 246 307 378 447
#     4  10  24  45  74 104 144 191 247 310 369 444
#     4  11  25  44  74 108 147 195 252 310 373 439
#     4  12  27  47  74 106 154 198 250 307 376 449
#
# _framework density 26.459962999999998
#
# number of rings (size 3 to 8) (size 9 to 14) (size 15 to 20)
#    0.000    1.091    1.818    2.727    7.636    2.182 
#    3.273    0.000    0.000    0.000    0.000    0.000 
#    0.000    0.000    0.000    0.000    0.000    0.000 
#
# Total GULP energy -61273.194478 kJ/mol
# GULP energy per Si atom -5570.290407 kJ/mol
# Density = 2.639974 g / cm^3
# Si number density = 26.459963 Si / 1000 Ang^3
#
#
#
# Elastic Constant Matrix: (Units=GPa)
#
#
# Indices 1 2 3 4 5 6 
#
# 1 123.6437 41.5740 34.6406 -26.0390 -28.9788 -27.1109
# 2 41.5740 199.4846 40.8051 -42.3457 -23.7229 -37.2866
# 3 34.6406 40.8051 90.8057 -11.7349 -40.0994 -19.8012
# 4 -26.0390 -42.3457 -11.7349 64.7471 1.2264 -5.8307
# 5 -28.9788 -23.7229 -40.0994 1.2264 42.3773 0.0941
# 6 -27.1109 -37.2866 -19.8012 -5.8307 0.0941 52.2176
#
#
#
# Elastic Compliance Matrix: (Units=1/GPa)
#
#
# Indices 1 2 3 4 5 6 
#
# 1 0.013541 0.001618 0.002905 0.007702 0.012669 0.010124
# 2 0.001618 0.008109 0.001240 0.006760 0.006606 0.007843
# 3 0.002905 0.001240 0.024049 0.006963 0.025208 0.012245
# 4 0.007702 0.006760 0.006963 0.025227 0.014878 0.014256
# 5 0.012669 0.006606 0.025208 0.014878 0.059332 0.022408
# 6 0.010124 0.007843 0.012245 0.014256 0.022408 0.036202
#
#
# Mechanical properties :
#
#
# Convention : Reuss Voigt Hill
#
# Bulk Modulus (GPa) = 17.47520 71.99704 44.73612
# Shear Modulus (GPa) = 28.73408 51.66270 40.19839
#
# Velocity S-wave (km/s) = 3.29894 4.42349 3.90194
# Velocity P-wave (km/s) = 4.59668 7.30469 6.10279
#
# Compressibility (1/GPa) = 0.05722394
#
# Stress axis : x y z
#
# Youngs Moduli (GPa) = 73.84909 123.32635 41.58159
#
# Poissons Ratio (x) = -0.19949 -0.12079
# Poissons Ratio (y) = -0.11946 -0.05156
# Poissons Ratio (z) = -0.21453 -0.15293
#
# Static dielectric constant tensor:
#      x y z
#    x 1.533320 0.063200 1.459760 
#    y 0.063200 2.165250 0.021390 
#    z 1.459760 0.021390 0.017450 
# 
# From -- ./inp_files/22844.got.cif
#   From: 2010.05.17/outbox.cif.g08.bks.cpg/sg2_12_cif.got.tgz:22844.got - 2010.06.03 11:33:40.
