data_PCOD9112597
_publ_section_title
;
Structure prediction by ZEFSAII (Michael W. Deem and Ramdas Pophale) SiO2 
 PCOD9112597
Probable space group: P 2
;
_chemical_formula_sum "Si O2"
_cell_formula_units_Z 13
_cell_length_a 18.248271
_cell_length_b 7.291575
_cell_length_c 12.725976
_cell_angle_alpha 90.000000
_cell_angle_beta 159.789844
_cell_angle_gamma 90.000000
_cell_volume 584.975468
_symmetry_space_group_name_H-M "P 2"
_symmetry_group_IT_number 3
_symmetry_cell_setting 'monoclinic'
loop_
_space_group_symop_operation_xyz
x,y,z
-x,y,-z
loop_
_atom_site_type_symbol
_atom_site_label
_atom_site_fract_x
_atom_site_fract_y
_atom_site_fract_z
Si Si1 0.872869 0.052800 0.077726
Si Si2 0.584782 0.728232 0.722181
Si Si3 0.236871 0.043442 0.294828
Si Si4 0.763242 0.577836 0.173974
Si Si5 0.500000 0.513340 0.000000
Si Si6 0.229494 0.145832 0.831581
Si Si7 0.329872 0.178679 0.640894
O O1 0.763648 0.137523 0.033124
O O2 0.125248 0.082156 0.415927
O O3 0.796683 0.842631 0.977356
O O4 0.780212 0.130613 0.843823
O O5 0.500000 0.639161 0.500000
O O6 0.407798 0.879869 0.517914
O O7 0.647422 0.615249 0.908709
O O8 0.283108 0.182269 0.452509
O O9 0.000000 0.967605 0.000000
O O10 0.777604 0.358719 0.208087
O O11 0.000000 0.651614 0.500000
O O12 0.630628 0.636752 0.096010
O O13 0.359327 0.373341 0.738753
O O14 0.000000 0.060519 0.500000
O O15 0.438957 0.079698 0.052146
#
# Coordination Sequence:
#
# PCOD9112597 Si02
#       7
#     2   2   2   2   1   2   2
#     4  10  19  35  62  87 121 151 197 257 311 352
#     4  10  21  41  60  92 126 164 205 252 308 369
#     4   9  19  36  60  88 121 152 195 260 310 362
#     4  10  22  43  61  85 128 167 208 248 304 368
#     4  10  22  42  62  86 132 160 202 258 304 358
#     4  10  20  35  61  87 121 162 200 253 305 361
#     4  10  18  35  60  90 113 152 201 248 311 352
#
# _framework density 22.223154000000001
#
# number of rings (size 3 to 8) (size 9 to 14) (size 15 to 20)
#    0.000    2.154    1.538    2.769    0.000    0.615 
#   16.615    0.000    0.000    0.000    0.000    0.000 
#    0.000    0.000    0.000    0.000    0.000    0.000 
#
# Total GULP energy -72449.313485 kJ/mol
# GULP energy per Si atom -5573.024114 kJ/mol
# Density = 2.217257 g / cm^3
# Si number density = 22.223154 Si / 1000 Ang^3
#
#
#
# Elastic Constant Matrix: (Units=GPa)
#
#
# Indices 1 2 3 4 5 6 
#
# 1 145.2521 13.6830 51.8854 0.0000 10.0285 0.0000
# 2 13.6830 33.6990 21.3095 0.0000 6.1453 0.0000
# 3 51.8854 21.3095 126.5263 0.0000 25.0102 0.0000
# 4 0.0000 0.0000 0.0000 6.2655 0.0000 -19.0236
# 5 10.0285 6.1453 25.0102 0.0000 50.0918 0.0000
# 6 0.0000 0.0000 0.0000 -19.0236 0.0000 17.3394
#
#
#
# Elastic Compliance Matrix: (Units=1/GPa)
#
#
# Indices 1 2 3 4 5 6 
#
# 1 0.008120 -0.001340 -0.003124 0.000000 0.000098 0.000000
# 2 -0.001340 0.033524 -0.004812 0.000000 -0.001442 0.000000
# 3 -0.003124 -0.004812 0.010823 0.000000 -0.004188 0.000000
# 4 0.000000 0.000000 0.000000 -0.068466 0.000000 -0.075116
# 5 0.000098 -0.001442 -0.004188 0.000000 0.022212 0.000000
# 6 0.000000 0.000000 0.000000 -0.075116 0.000000 -0.024740
#
#
# Mechanical properties :
#
#
# Convention : Reuss Voigt Hill
#
# Bulk Modulus (GPa) = 29.48404 53.24811 41.36608
# Shear Modulus (GPa) = 441.41588 29.31265 235.36427
#
# Velocity S-wave (km/s) = 14.10886 3.63576 10.30240
# Velocity P-wave (km/s) = 16.69459 6.45273 12.65597
#
# Compressibility (1/GPa) = 0.03391666
#
# Stress axis : x y z
#
# Youngs Moduli (GPa) = 123.15658 29.82932 92.39942
#
# Poissons Ratio (x) = 0.03996 0.28861
# Poissons Ratio (y) = 0.16499 0.44460
# Poissons Ratio (z) = 0.38468 0.14353
#
# Static dielectric constant tensor:
#      x y z
#    x 1.877660 0.000000 -0.008920 
#    y 0.000000 1.796850 0.000000 
#    z -0.008920 0.000000 1.919310 
# 
# From -- ./inp_files/12504.got.cif
#   From: 2010.05.17/outbox.cif.g08.bks.cpg/sg3_7_cif.got.tgz:12504.got - 2010.06.03 18:33:08.
