data_PCOD9112939
_publ_section_title
;
Structure prediction by ZEFSAII (Michael W. Deem and Ramdas Pophale) SiO2 
 PCOD9112939
Probable space group: P 2
;
_chemical_formula_sum "Si O2"
_cell_formula_units_Z 16
_cell_length_a 7.935211
_cell_length_b 6.834499
_cell_length_c 18.268767
_cell_angle_alpha 90.000000
_cell_angle_beta 134.875373
_cell_angle_gamma 90.000000
_cell_volume 702.104905
_symmetry_space_group_name_H-M "P 2"
_symmetry_group_IT_number 3
_symmetry_cell_setting 'monoclinic'
loop_
_space_group_symop_operation_xyz
x,y,z
-x,y,-z
loop_
_atom_site_type_symbol
_atom_site_label
_atom_site_fract_x
_atom_site_fract_y
_atom_site_fract_z
Si Si1 0.944481 0.632790 0.661635
Si Si2 0.674810 0.962548 0.486504
Si Si3 0.424768 0.400089 0.239534
Si Si4 0.911979 0.249880 0.378424
Si Si5 0.003871 0.145708 0.168468
Si Si6 0.288864 0.957601 0.791607
Si Si7 0.699030 0.781116 0.732085
Si Si8 0.739749 0.168417 0.950983
O O1 0.813781 0.772707 0.561807
O O2 0.799551 0.662131 0.692363
O O3 0.981749 0.415420 0.643992
O O4 0.193704 0.739565 0.756029
O O5 0.500000 0.024877 0.500000
O O6 0.517932 0.900445 0.369761
O O7 0.858070 0.133676 0.522839
O O8 0.695649 0.368679 0.349120
O O9 0.373986 0.628027 0.229905
O O10 0.375298 0.321264 0.141820
O O11 0.231679 0.286277 0.230846
O O12 0.760490 0.070309 0.298414
O O13 0.881544 0.086201 0.206859
O O14 0.802686 0.229648 0.052787
O O15 0.110503 0.934013 0.179029
O O16 0.557386 0.989376 0.897463
O O17 0.000000 0.121972 0.000000
#
# Coordination Sequence:
#
# PCOD9112939 Si02
#       8
#     2   2   2   2   2   2   2   2
#     4   9  19  36  60  88 114 150 195 238 289 345
#     4   9  20  37  59  87 114 150 198 240 285 348
#     4  10  22  38  57  87 120 156 196 241 299 351
#     4  10  20  36  59  85 118 154 187 237 296 349
#     4  10  20  38  60  83 116 157 199 246 292 346
#     4   9  18  35  60  87 115 150 197 240 284 349
#     4  10  21  38  61  87 118 155 199 245 289 348
#     4   9  19  36  57  84 118 154 193 241 299 346
#
# _framework density 22.788618
#
# number of rings (size 3 to 8) (size 9 to 14) (size 15 to 20)
#    0.000    2.500    0.000    1.875    0.000    6.500 
#    0.000   15.625    0.000    6.000    0.000    0.000 
#    0.000    0.000    0.000    0.000    0.000    0.000 
#
# Total GULP energy -89241.859106 kJ/mol
# GULP energy per Si atom -5577.616194 kJ/mol
# Density = 2.273675 g / cm^3
# Si number density = 22.788618 Si / 1000 Ang^3
#
#
#
# Elastic Constant Matrix: (Units=GPa)
#
#
# Indices 1 2 3 4 5 6 
#
# 1 58.3804 27.3260 21.2030 0.0000 12.1065 0.0000
# 2 27.3260 93.2843 40.0583 0.0000 3.0736 0.0000
# 3 21.2030 40.0583 74.8288 0.0000 11.5386 0.0000
# 4 0.0000 0.0000 0.0000 12.7234 0.0000 -1.4910
# 5 12.1065 3.0736 11.5386 0.0000 38.6505 0.0000
# 6 0.0000 0.0000 0.0000 -1.4910 0.0000 37.1637
#
#
#
# Elastic Compliance Matrix: (Units=1/GPa)
#
#
# Indices 1 2 3 4 5 6 
#
# 1 0.021575 -0.005040 -0.002553 0.000000 -0.005595 0.000000
# 2 -0.005040 0.015148 -0.007064 0.000000 0.002483 0.000000
# 3 -0.002553 -0.007064 0.018511 0.000000 -0.004165 0.000000
# 4 0.000000 0.000000 0.000000 0.078967 0.000000 0.003168
# 5 -0.005595 0.002483 -0.004165 0.000000 0.028671 0.000000
# 6 0.000000 0.000000 0.000000 0.003168 0.000000 0.027035
#
#
# Mechanical properties :
#
#
# Convention : Reuss Voigt Hill
#
# Bulk Modulus (GPa) = 38.57817 44.85200 41.71508
# Shear Modulus (GPa) = 21.94327 26.90128 24.42227
#
# Velocity S-wave (km/s) = 3.10644 3.43952 3.27722
# Velocity P-wave (km/s) = 5.46187 5.95804 5.71534
#
# Compressibility (1/GPa) = 0.02592140
#
# Stress axis : x y z
#
# Youngs Moduli (GPa) = 46.34927 66.01638 54.02196
#
# Poissons Ratio (x) = 0.33269 0.13791
# Poissons Ratio (y) = 0.23358 0.38161
# Poissons Ratio (z) = 0.11832 0.46634
#
# Static dielectric constant tensor:
#      x y z
#    x 1.940090 0.000000 -0.050620 
#    y 0.000000 1.804230 0.000000 
#    z -0.050620 0.000000 1.925190 
# 
# From -- ./inp_files/15755.got.cif
#   From: 2010.05.17/outbox.cif.g08.bks.cpg/sg3_8_cif.got.tgz:15755.got - 2010.06.03 18:33:08.
