data_PCOD9112983
_publ_section_title
;
Structure prediction by ZEFSAII (Michael W. Deem and Ramdas Pophale) SiO2 
 PCOD9112983
Probable space group: P 2
;
_chemical_formula_sum "Si O2"
_cell_formula_units_Z 13
_cell_length_a 8.277412
_cell_length_b 16.003107
_cell_length_c 5.271603
_cell_angle_alpha 90.000000
_cell_angle_beta 61.609392
_cell_angle_gamma 90.000000
_cell_volume 614.312376
_symmetry_space_group_name_H-M "P 2"
_symmetry_group_IT_number 3
_symmetry_cell_setting 'monoclinic'
loop_
_space_group_symop_operation_xyz
x,y,z
-x,y,-z
loop_
_atom_site_type_symbol
_atom_site_label
_atom_site_fract_x
_atom_site_fract_y
_atom_site_fract_z
Si Si1 0.128990 0.022840 0.152708
Si Si2 0.872358 0.656918 0.845887
Si Si3 0.620581 0.500597 0.152513
Si Si4 0.716612 0.344593 0.314226
Si Si5 0.872937 0.839804 0.844134
Si Si6 0.000000 0.304079 0.500000
Si Si7 0.309090 0.196423 0.999188
O O1 0.271468 0.098563 0.026049
O O2 0.000000 0.031744 0.500000
O O3 0.221322 0.930714 0.087460
O O4 0.000000 0.028055 0.000000
O O5 0.778257 0.749239 0.907889
O O6 0.000000 0.647275 0.500000
O O7 0.730212 0.582564 0.987297
O O8 0.000000 0.655706 0.000000
O O9 0.500000 0.519865 0.500000
O O10 0.755224 0.420961 0.094423
O O11 0.500000 0.476045 0.000000
O O12 0.500000 0.360250 0.500000
O O13 0.864471 0.354955 0.421285
O O14 0.710311 0.246126 0.250383
O O15 0.000000 0.840511 0.500000
O O16 0.000000 0.840087 0.000000
O O17 0.859428 0.242314 0.741526
O O18 0.500000 0.215979 0.000000
#
# Coordination Sequence:
#
# PCOD9112983 Si02
#       7
#     2   2   2   2   2   1   2
#     4  10  20  37  61  93 126 172 221 266 331 396
#     4  10  20  39  65  97 126 168 225 272 326 402
#     4  11  25  45  65  93 134 176 217 278 345 398
#     4  11  25  45  67  92 132 176 230 275 338 400
#     4   8  16  32  59  89 126 163 211 270 321 386
#     4  12  24  44  68  92 126 182 216 274 342 388
#     4  12  24  41  64  94 134 172 224 281 327 400
#
# _framework density 21.161871999999999
#
# number of rings (size 3 to 8) (size 9 to 14) (size 15 to 20)
#    0.000    1.538    2.308    2.769    2.154    1.231 
#    2.769    0.769    0.000    0.923    0.000    0.000 
#    0.000    0.000    0.000    0.000    0.000    0.000 
#
# Total GULP energy -72407.105666 kJ/mol
# GULP energy per Si atom -5569.777359 kJ/mol
# Density = 2.111371 g / cm^3
# Si number density = 21.161872 Si / 1000 Ang^3
#
#
#
# Elastic Constant Matrix: (Units=GPa)
#
#
# Indices 1 2 3 4 5 6 
#
# 1 127.5715 36.9635 37.0762 0.0000 17.5121 0.0000
# 2 36.9635 176.6115 18.0716 0.0000 3.0668 0.0000
# 3 37.0762 18.0716 97.5768 0.0000 19.2154 0.0000
# 4 0.0000 0.0000 0.0000 20.2955 0.0000 6.7708
# 5 17.5121 3.0668 19.2154 0.0000 36.8246 0.0000
# 6 0.0000 0.0000 0.0000 6.7708 0.0000 20.2598
#
#
#
# Elastic Compliance Matrix: (Units=1/GPa)
#
#
# Indices 1 2 3 4 5 6 
#
# 1 0.009520 -0.001662 -0.002725 0.000000 -0.002967 0.000000
# 2 -0.001662 0.006062 -0.000610 0.000000 0.000604 0.000000
# 3 -0.002725 -0.000610 0.012406 0.000000 -0.005127 0.000000
# 4 0.000000 0.000000 0.000000 0.055455 0.000000 -0.018533
# 5 -0.002967 0.000604 -0.005127 0.000000 0.031192 0.000000
# 6 0.000000 0.000000 0.000000 -0.018533 0.000000 0.055553
#
#
# Mechanical properties :
#
#
# Convention : Reuss Voigt Hill
#
# Bulk Modulus (GPa) = 55.57574 65.10915 60.34244
# Shear Modulus (GPa) = 26.85586 36.11922 31.48754
#
# Velocity S-wave (km/s) = 3.56626 4.13583 3.86156
# Velocity P-wave (km/s) = 6.57852 7.32399 6.96124
#
# Compressibility (1/GPa) = 0.01799346
#
# Stress axis : x y z
#
# Youngs Moduli (GPa) = 105.04703 164.96387 80.60336
#
# Poissons Ratio (x) = 0.27417 0.21965
# Poissons Ratio (y) = 0.17459 0.04918
# Poissons Ratio (z) = 0.28627 0.10064
#
# Static dielectric constant tensor:
#      x y z
#    x 1.746090 0.000000 -0.037370 
#    y 0.000000 1.815380 0.000000 
#    z -0.037370 0.000000 1.964490 
# 
# From -- ./inp_files/1403.got.cif
#   From: 2010.05.17/outbox.cif.g08.bks.cpg/sg3_1_cif.got.tgz:1403.got - 2010.06.03 18:33:08.
