data_PCOD9112069
_publ_section_title
;
Structure prediction by ZEFSAII (Michael W. Deem and Ramdas Pophale) SiO2 
 PCOD9112069
Probable space group: P -1
;
_chemical_formula_sum "Si O2"
_cell_formula_units_Z 14
_cell_length_a 5.417872
_cell_length_b 9.016583
_cell_length_c 14.153016
_cell_angle_alpha 118.091930
_cell_angle_beta 61.203799
_cell_angle_gamma 95.968570
_cell_volume 527.718772
_symmetry_space_group_name_H-M "P -1"
_symmetry_group_IT_number 2
_symmetry_cell_setting 'triclinic'
loop_
_space_group_symop_operation_xyz
x,y,z
-x,-y,-z
loop_
_atom_site_type_symbol
_atom_site_label
_atom_site_fract_x
_atom_site_fract_y
_atom_site_fract_z
Si Si1 0.452936 0.539149 0.664034
Si Si2 0.394823 0.124292 0.344522
Si Si3 0.264349 0.000889 0.125347
Si Si4 0.983331 0.324352 0.610281
Si Si5 0.825385 0.799657 0.147196
Si Si6 0.936714 0.735386 0.893450
Si Si7 0.441979 0.541734 0.133189
O O1 0.511120 0.690093 0.630044
O O2 0.743704 0.430615 0.617133
O O3 0.239089 0.425454 0.623073
O O4 0.254365 0.632159 0.813267
O O5 0.308882 0.082448 0.241180
O O6 0.135013 0.159883 0.476810
O O7 0.626273 0.960175 0.279604
O O8 0.022179 0.124484 0.149438
O O9 0.149468 0.825023 0.111151
O O10 0.500000 0.000000 0.000000
O O11 0.805200 0.308810 0.734778
O O12 0.721096 0.623321 0.137362
O O13 0.811375 0.807906 0.037468
O O14 0.717745 0.618078 0.857960
O O15 0.500000 0.500000 0.000000
#
# Coordination Sequence:
#
# PCOD9112069 Si02
#       7
#     2   2   2   2   2   2   2
#     4  11  23  43  71 102 138 180 232 285 342 405
#     4  12  24  39  68  98 143 176 227 286 347 409
#     4  12  23  40  67 105 137 175 228 287 345 405
#     4  11  26  45  69 103 137 187 231 281 342 413
#     4  11  23  41  65 103 136 179 228 284 353 399
#     4  10  20  44  68  98 134 178 234 283 338 407
#     4   9  22  46  69  94 138 182 233 279 338 413
#
# _framework density 26.529283
#
# number of rings (size 3 to 8) (size 9 to 14) (size 15 to 20)
#    0.000    1.143    2.857    3.857    2.000    0.571 
#    5.143    5.000    0.000    0.000    0.000    0.000 
#    0.000    0.000    0.000    0.000    0.000    0.000 
#
# Total GULP energy -78192.006879 kJ/mol
# GULP energy per Si atom -5585.143349 kJ/mol
# Density = 2.646890 g / cm^3
# Si number density = 26.529283 Si / 1000 Ang^3
#
#
#
# Elastic Constant Matrix: (Units=GPa)
#
#
# Indices 1 2 3 4 5 6 
#
# 1 101.3683 26.6590 37.4551 3.3371 -10.9416 24.9117
# 2 26.6590 117.3617 20.5746 -19.6688 2.1934 22.6990
# 3 37.4551 20.5746 222.6770 -4.0189 -12.4301 2.4848
# 4 3.3371 -19.6688 -4.0189 26.5037 -6.6100 -4.7068
# 5 -10.9416 2.1934 -12.4301 -6.6100 32.8058 10.0460
# 6 24.9117 22.6990 2.4848 -4.7068 10.0460 56.3956
#
#
#
# Elastic Compliance Matrix: (Units=1/GPa)
#
#
# Indices 1 2 3 4 5 6 
#
# 1 0.013233 -0.002185 -0.001733 -0.003361 0.005087 -0.006076
# 2 -0.002185 0.010993 -0.000419 0.008074 0.000901 -0.002927
# 3 -0.001733 -0.000419 0.004910 0.001090 0.001357 0.000567
# 4 -0.003361 0.008074 0.001090 0.046398 0.007901 0.000652
# 5 0.005087 0.000901 0.001357 0.007901 0.036850 -0.008574
# 6 -0.006076 -0.002927 0.000567 0.000652 -0.008574 0.023151
#
#
# Mechanical properties :
#
#
# Convention : Reuss Voigt Hill
#
# Bulk Modulus (GPa) = 48.87353 67.86494 58.36923
# Shear Modulus (GPa) = 33.10589 46.92224 40.01406
#
# Velocity S-wave (km/s) = 3.53639 4.21015 3.88789
# Velocity P-wave (km/s) = 5.92767 7.01929 6.49645
#
# Compressibility (1/GPa) = 0.02046097
#
# Stress axis : x y z
#
# Youngs Moduli (GPa) = 75.56917 90.96557 203.66128
#
# Poissons Ratio (x) = 0.19879 0.35291
# Poissons Ratio (y) = 0.16514 0.08543
# Poissons Ratio (z) = 0.13095 0.03816
#
# Static dielectric constant tensor:
#      x y z
#    x 2.220250 -0.037360 -0.097090 
#    y -0.037360 2.061700 0.052580 
#    z -0.097090 0.052580 2.153090 
# 
# From -- ./inp_files/549517.got.cif
#   From: 2010.05.17/outbox.cif.g08.bks.cpg/sg2_275_cif.got.tgz:549517.got - 2010.06.03 11:33:40.
