data_PCOD9112428
_publ_section_title
;
Structure prediction by ZEFSAII (Michael W. Deem and Ramdas Pophale) SiO2 
 PCOD9112428
Probable space group: P -1
;
_chemical_formula_sum "Si O2"
_cell_formula_units_Z 16
_cell_length_a 12.376206
_cell_length_b 10.042124
_cell_length_c 13.791720
_cell_angle_alpha 43.406326
_cell_angle_beta 54.187646
_cell_angle_gamma 34.796321
_cell_volume 671.872547
_symmetry_space_group_name_H-M "P -1"
_symmetry_group_IT_number 2
_symmetry_cell_setting 'triclinic'
loop_
_space_group_symop_operation_xyz
x,y,z
-x,-y,-z
loop_
_atom_site_type_symbol
_atom_site_label
_atom_site_fract_x
_atom_site_fract_y
_atom_site_fract_z
Si Si1 0.666553 0.056344 0.149283
Si Si2 0.702188 0.406584 0.847890
Si Si3 0.233568 0.434623 0.554150
Si Si4 0.027826 0.112372 0.705730
Si Si5 0.640236 0.535279 0.331403
Si Si6 0.453428 0.694379 0.647576
Si Si7 0.447610 0.085694 0.093120
Si Si8 0.104331 0.594562 0.911287
O O1 0.458460 0.289367 0.183980
O O2 0.614636 0.029378 0.085222
O O3 0.782809 0.765926 0.292067
O O4 0.738740 0.197706 0.016468
O O5 0.895834 0.301804 0.765809
O O6 0.592147 0.452341 0.782263
O O7 0.063145 0.686643 0.445012
O O8 0.264673 0.544790 0.571620
O O9 0.423364 0.254594 0.483488
O O10 0.251260 0.927168 0.683344
O O11 0.003998 0.902632 0.822220
O O12 0.586866 0.392912 0.380794
O O13 0.786018 0.474935 0.209427
O O14 0.455793 0.866651 0.254539
O O15 0.252015 0.402573 0.023011
O O16 0.500000 0.000000 0.000000
O O17 0.000000 0.500000 0.000000
#
# Coordination Sequence:
#
# PCOD9112428 Si02
#       8
#     2   2   2   2   2   2   2   2
#     4  10  21  41  62  95 110 156 207 244 304 346
#     4  10  22  41  68  80 123 154 202 260 287 357
#     4  10  22  39  61  86 125 159 196 251 300 362
#     4  10  23  39  59  88 122 162 199 242 307 355
#     4   9  19  36  58  85 120 155 201 241 301 358
#     4  10  21  40  60  88 119 164 202 236 304 359
#     4   9  18  34  60  83 119 150 192 241 293 360
#     4  10  21  32  55  92 121 155 195 244 298 363
#
# _framework density 23.814039999999999
#
# number of rings (size 3 to 8) (size 9 to 14) (size 15 to 20)
#    0.000    2.250    0.000    2.625    8.750    4.000 
#    4.500    9.375    0.000    0.000    0.000    0.000 
#    0.000    0.000    0.000    0.000    0.000    0.000 
#
# Total GULP energy -89298.802481 kJ/mol
# GULP energy per Si atom -5581.175155 kJ/mol
# Density = 2.375984 g / cm^3
# Si number density = 23.814040 Si / 1000 Ang^3
#
#
#
# Elastic Constant Matrix: (Units=GPa)
#
#
# Indices 1 2 3 4 5 6 
#
# 1 64.1787 19.0509 22.4765 -3.6617 -5.3527 -10.7031
# 2 19.0509 75.3716 20.4337 2.5936 13.5606 -17.0553
# 3 22.4765 20.4337 108.2831 -16.6439 7.2687 -26.6646
# 4 -3.6617 2.5936 -16.6439 38.5233 -4.2629 -0.3062
# 5 -5.3527 13.5606 7.2687 -4.2629 13.4897 2.0061
# 6 -10.7031 -17.0553 -26.6646 -0.3062 2.0061 41.4752
#
#
#
# Elastic Compliance Matrix: (Units=1/GPa)
#
#
# Indices 1 2 3 4 5 6 
#
# 1 0.021049 -0.008273 -0.004069 0.003005 0.020039 -0.001533
# 2 -0.008273 0.022681 0.000886 -0.005127 -0.029541 0.009153
# 3 -0.004069 0.000886 0.013265 0.004296 -0.009535 0.008336
# 4 0.003005 -0.005127 0.004296 0.029929 0.013340 0.001005
# 5 0.020039 -0.029541 -0.009535 0.013340 0.123958 -0.019004
# 6 -0.001533 0.009153 0.008336 0.001005 -0.019004 0.033765
#
#
# Mechanical properties :
#
#
# Convention : Reuss Voigt Hill
#
# Bulk Modulus (GPa) = 29.33903 41.30619 35.32261
# Shear Modulus (GPa) = 17.92622 31.08911 24.50767
#
# Velocity S-wave (km/s) = 2.74662 3.61708 3.21148
# Velocity P-wave (km/s) = 4.73343 5.90147 5.34943
#
# Compressibility (1/GPa) = 0.03408429
#
# Stress axis : x y z
#
# Youngs Moduli (GPa) = 47.50752 44.08990 75.38359
#
# Poissons Ratio (x) = 0.36475 0.30672
# Poissons Ratio (y) = 0.39303 -0.06679
# Poissons Ratio (z) = 0.19330 -0.03906
#
# Static dielectric constant tensor:
#      x y z
#    x 1.951690 0.002890 0.027960 
#    y 0.002890 1.988220 -0.047790 
#    z 0.027960 -0.047790 2.017070 
# 
# From -- ./inp_files/418621.got.cif
#   From: 2010.05.17/outbox.cif.g08.bks.cpg/sg2_210_cif.got.tgz:418621.got - 2010.06.03 11:33:40.
