data_PCOD9112962
_publ_section_title
;
Structure prediction by ZEFSAII (Michael W. Deem and Ramdas Pophale) SiO2 
 PCOD9112962
Probable space group: P 2
;
_chemical_formula_sum "Si O2"
_cell_formula_units_Z 15
_cell_length_a 10.165015
_cell_length_b 16.417994
_cell_length_c 9.129760
_cell_angle_alpha 90.000000
_cell_angle_beta 150.777858
_cell_angle_gamma 90.000000
_cell_volume 743.845178
_symmetry_space_group_name_H-M "P 2"
_symmetry_group_IT_number 3
_symmetry_cell_setting 'monoclinic'
loop_
_space_group_symop_operation_xyz
x,y,z
-x,y,-z
loop_
_atom_site_type_symbol
_atom_site_label
_atom_site_fract_x
_atom_site_fract_y
_atom_site_fract_z
Si Si1 0.000000 0.928850 0.000000
Si Si2 0.744597 0.266653 0.349293
Si Si3 0.983552 0.699954 0.158200
Si Si4 0.473406 0.431797 0.797213
Si Si5 0.012753 0.510173 0.837159
Si Si6 0.253281 0.084066 0.646641
Si Si7 0.537285 0.940127 0.335200
Si Si8 0.478809 0.775683 0.813210
O O1 0.240317 0.959390 0.116643
O O2 0.234168 0.897796 0.337464
O O3 0.644964 0.341476 0.350355
O O4 0.800877 0.176301 0.464348
O O5 0.000000 0.292981 0.500000
O O6 0.500000 0.254929 0.000000
O O7 0.243182 0.728624 0.499816
O O8 0.919776 0.604928 0.122998
O O9 0.000000 0.710957 0.000000
O O10 0.744790 0.754757 0.983341
O O11 0.264549 0.492309 0.516636
O O12 0.500000 0.440094 0.000000
O O13 0.762443 0.450986 0.010776
O O14 0.000000 0.498189 0.000000
O O15 0.000000 0.058826 0.500000
O O16 0.329894 0.023296 0.591660
O O17 0.500000 0.084354 0.000000
O O18 0.528834 0.873624 0.199524
O O19 0.500000 0.747015 0.000000
#
# Coordination Sequence:
#
# PCOD9112962 Si02
#       8
#     1   2   2   2   2   2   2   2
#     4  10  24  38  60  84 114 170 208 260 284 390
#     4   9  18  34  58  93 122 153 203 249 302 367
#     4  11  26  44  64  87 121 171 210 247 311 390
#     4  11  21  37  66  94 122 160 208 259 306 365
#     4  11  24  42  62  89 125 165 208 250 311 384
#     4  10  20  36  63  90 123 161 199 256 314 367
#     4  11  23  40  62  88 124 163 213 253 314 367
#     4  12  26  40  64  95 126 153 207 274 311 355
#
# _framework density 20.165486999999999
#
# number of rings (size 3 to 8) (size 9 to 14) (size 15 to 20)
#    0.000    1.333    0.000    6.000    5.600    6.400 
#    0.000    0.000    8.800    0.000    0.000    0.000 
#    0.000    0.000    0.000    0.000    0.000    0.000 
#
# Total GULP energy -83551.134933 kJ/mol
# GULP energy per Si atom -5570.075662 kJ/mol
# Density = 2.011959 g / cm^3
# Si number density = 20.165487 Si / 1000 Ang^3
#
#
#
# Elastic Constant Matrix: (Units=GPa)
#
#
# Indices 1 2 3 4 5 6 
#
# 1 71.4910 31.5537 24.8918 0.0000 5.1955 0.0000
# 2 31.5537 81.3591 -3.7449 0.0000 -3.3811 0.0000
# 3 24.8918 -3.7449 111.2138 0.0000 14.3845 0.0000
# 4 0.0000 0.0000 0.0000 34.1959 0.0000 -11.7556
# 5 5.1955 -3.3811 14.3845 0.0000 43.1309 0.0000
# 6 0.0000 0.0000 0.0000 -11.7556 0.0000 -39.2855
#
#
#
# Elastic Compliance Matrix: (Units=1/GPa)
#
#
# Indices 1 2 3 4 5 6 
#
# 1 0.018952 -0.007609 -0.004312 0.000000 -0.001441 0.000000
# 2 -0.007609 0.015396 0.002034 0.000000 0.001445 0.000000
# 3 -0.004312 0.002034 0.010385 0.000000 -0.002785 0.000000
# 4 0.000000 0.000000 0.000000 0.026516 0.000000 -0.007934
# 5 -0.001441 0.001445 -0.002785 0.000000 0.024401 0.000000
# 6 0.000000 0.000000 0.000000 -0.007934 0.000000 -0.023080
#
#
# Mechanical properties :
#
#
# Convention : Reuss Voigt Hill
#
# Bulk Modulus (GPa) = 40.06126 41.05166 40.55646
# Shear Modulus (GPa) = 49.67178 21.69916 35.68547
#
# Velocity S-wave (km/s) = 4.96846 3.28389 4.21126
# Velocity P-wave (km/s) = 7.26797 5.89747 6.61829
#
# Compressibility (1/GPa) = 0.02496177
#
# Stress axis : x y z
#
# Youngs Moduli (GPa) = 52.76526 64.95317 96.28915
#
# Poissons Ratio (x) = 0.49420 0.41516
# Poissons Ratio (y) = 0.40147 -0.19590
# Poissons Ratio (z) = 0.22750 -0.13215
#
# Static dielectric constant tensor:
#      x y z
#    x 1.677980 0.000000 -0.019450 
#    y 0.000000 1.790790 0.000000 
#    z -0.019450 0.000000 1.678890 
# 
# From -- ./inp_files/6310.got.cif
#   From: 2010.05.17/outbox.cif.g08.bks.cpg/sg3_4_cif.got.tgz:6310.got - 2010.06.03 18:33:08.
