data_PCOD9112551
_publ_section_title
;
Structure prediction by ZEFSAII (Michael W. Deem and Ramdas Pophale) SiO2 
 PCOD9112551
Probable space group: P 2
;
_chemical_formula_sum "Si O2"
_cell_formula_units_Z 16
_cell_length_a 8.690463
_cell_length_b 12.621864
_cell_length_c 9.037325
_cell_angle_alpha 90.000000
_cell_angle_beta 59.501116
_cell_angle_gamma 90.000000
_cell_volume 854.145158
_symmetry_space_group_name_H-M "P 2"
_symmetry_group_IT_number 3
_symmetry_cell_setting 'monoclinic'
loop_
_space_group_symop_operation_xyz
x,y,z
-x,y,-z
loop_
_atom_site_type_symbol
_atom_site_label
_atom_site_fract_x
_atom_site_fract_y
_atom_site_fract_z
Si Si1 0.329703 0.752970 0.693194
Si Si2 0.701468 0.935355 0.835552
Si Si3 0.674592 0.132758 0.015041
Si Si4 0.032261 0.506617 0.311351
Si Si5 0.336080 0.516959 0.693574
Si Si6 0.186966 0.364640 0.996170
Si Si7 0.962161 0.747308 0.692114
Si Si8 0.475074 0.969817 0.686017
O O1 0.500000 0.750896 0.500000
O O2 0.333856 0.636210 0.763531
O O3 0.145342 0.759584 0.693485
O O4 0.360020 0.861969 0.765834
O O5 0.661634 0.950422 0.680781
O O6 0.819758 0.834295 0.808513
O O7 0.500000 0.925217 0.000000
O O8 0.778437 0.042807 0.869883
O O9 0.614678 0.070516 0.191990
O O10 0.500000 0.155829 0.000000
O O11 0.767312 0.242493 0.003520
O O12 0.841931 0.507304 0.319773
O O13 0.103783 0.626557 0.259566
O O14 0.000000 0.484638 0.500000
O O15 0.157737 0.424050 0.165979
O O16 0.500000 0.506284 0.500000
O O17 0.326423 0.428999 0.825811
O O18 0.000000 0.372541 0.000000
O O19 0.000000 0.762337 0.500000
O O20 0.500000 0.985344 0.500000
#
# Coordination Sequence:
#
# PCOD9112551 Si02
#       8
#     2   2   2   2   2   2   2   2
#     4   9  17  30  52  83 113 138 172 217 265 321
#     4   9  20  37  53  76 112 142 173 219 267 316
#     4   9  21  38  52  73 106 139 177 224 266 309
#     4   9  20  37  54  79 112 141 174 219 267 319
#     4   9  19  35  56  82 110 140 175 218 266 318
#     4  10  21  38  56  76 106 142 181 224 267 313
#     4  10  18  32  56  82 110 142 175 214 267 324
#     4   9  17  33  55  77 106 138 172 219 265 312
#
# _framework density 18.732178999999999
#
# number of rings (size 3 to 8) (size 9 to 14) (size 15 to 20)
#    0.000    3.000    0.000    1.500    0.000    5.500 
#    0.000    9.375    0.000    0.000    0.000    0.000 
#    0.000    0.000    0.000    0.000    0.000    0.000 
#
# Total GULP energy -89160.683378 kJ/mol
# GULP energy per Si atom -5572.542711 kJ/mol
# Density = 1.868954 g / cm^3
# Si number density = 18.732179 Si / 1000 Ang^3
#
#
#
# Elastic Constant Matrix: (Units=GPa)
#
#
# Indices 1 2 3 4 5 6 
#
# 1 34.0997 43.5635 32.3637 0.0000 5.4628 0.0000
# 2 43.5635 173.7540 76.9933 0.0000 1.2390 0.0000
# 3 32.3637 76.9933 88.2107 0.0000 14.9783 0.0000
# 4 0.0000 0.0000 0.0000 42.2628 0.0000 4.7648
# 5 5.4628 1.2390 14.9783 0.0000 27.2248 0.0000
# 6 0.0000 0.0000 0.0000 4.7648 0.0000 35.9067
#
#
#
# Elastic Compliance Matrix: (Units=1/GPa)
#
#
# Indices 1 2 3 4 5 6 
#
# 1 0.050238 -0.007619 -0.011172 0.000000 -0.003587 0.000000
# 2 -0.007619 0.011069 -0.007765 0.000000 0.005297 0.000000
# 3 -0.011172 -0.007765 0.024016 0.000000 -0.010618 0.000000
# 4 0.000000 0.000000 0.000000 0.024021 0.000000 -0.003188
# 5 -0.003587 0.005297 -0.010618 0.000000 0.043052 0.000000
# 6 0.000000 0.000000 0.000000 -0.003188 0.000000 0.028273
#
#
# Mechanical properties :
#
#
# Convention : Reuss Voigt Hill
#
# Bulk Modulus (GPa) = 31.04708 66.87836 48.96272
# Shear Modulus (GPa) = 20.44838 30.62178 25.53508
#
# Velocity S-wave (km/s) = 3.30755 4.04755 3.69611
# Velocity P-wave (km/s) = 5.58540 7.59101 6.66409
#
# Compressibility (1/GPa) = 0.03220915
#
# Stress axis : x y z
#
# Youngs Moduli (GPa) = 19.90522 90.34513 41.63886
#
# Poissons Ratio (x) = 0.68838 0.46520
# Poissons Ratio (y) = 0.15167 0.32333
# Poissons Ratio (z) = 0.22239 0.70154
#
# Static dielectric constant tensor:
#      x y z
#    x 1.647610 0.000000 0.015170 
#    y 0.000000 1.657960 0.000000 
#    z 0.015170 0.000000 1.668950 
# 
# From -- ./inp_files/6006.got.cif
#   From: 2010.05.17/outbox.cif.g08.bks.cpg/sg3_4_cif.got.tgz:6006.got - 2010.06.03 18:33:08.
