data_PCOD9112557
_publ_section_title
;
Structure prediction by ZEFSAII (Michael W. Deem and Ramdas Pophale) SiO2 
 PCOD9112557
Probable space group: P 2
;
_chemical_formula_sum "Si O2"
_cell_formula_units_Z 13
_cell_length_a 9.389175
_cell_length_b 13.075859
_cell_length_c 5.090677
_cell_angle_alpha 90.000000
_cell_angle_beta 88.204929
_cell_angle_gamma 90.000000
_cell_volume 624.683488
_symmetry_space_group_name_H-M "P 2"
_symmetry_group_IT_number 3
_symmetry_cell_setting 'monoclinic'
loop_
_space_group_symop_operation_xyz
x,y,z
-x,y,-z
loop_
_atom_site_type_symbol
_atom_site_label
_atom_site_fract_x
_atom_site_fract_y
_atom_site_fract_z
Si Si1 0.846894 0.513980 0.050184
Si Si2 0.226288 0.393349 0.479923
Si Si3 0.642618 0.673607 0.883784
Si Si4 0.500000 0.512791 0.500000
Si Si5 0.826529 0.154843 0.506198
Si Si6 0.103693 0.819312 0.236419
Si Si7 0.829126 0.036365 0.996521
O O1 0.800663 0.440302 0.808925
O O2 0.731918 0.604918 0.086657
O O3 0.875759 0.445543 0.302828
O O4 0.000000 0.564571 0.000000
O O5 0.375373 0.435488 0.585244
O O6 0.216567 0.272510 0.509954
O O7 0.572719 0.588268 0.702433
O O8 0.765306 0.740397 0.736766
O O9 0.500000 0.729804 0.000000
O O10 0.770700 0.113230 0.784449
O O11 0.000000 0.153529 0.500000
O O12 0.778620 0.075392 0.282591
O O13 0.000000 0.833492 0.500000
O O14 0.180342 0.922882 0.123483
O O15 0.000000 0.791376 0.000000
O O16 0.000000 0.049859 0.000000
#
# Coordination Sequence:
#
# PCOD9112557 Si02
#       7
#     2   2   2   1   2   2   2
#     4  11  22  37  59  90 124 157 208 265 300 363
#     4  11  22  37  60  87 125 162 212 242 313 362
#     4  11  24  42  64  88 127 174 214 253 324 377
#     4  10  24  42  60  84 124 180 204 256 302 384
#     4  10  18  32  58  87 119 154 193 249 308 365
#     4  11  24  41  68  98 124 162 211 268 317 375
#     4   9  18  35  57  88 120 149 192 252 318 363
#
# _framework density 20.810538000000001
#
# number of rings (size 3 to 8) (size 9 to 14) (size 15 to 20)
#    0.000    1.538    1.538    5.077    2.154    3.692 
#    0.000    0.000    3.385    0.000    0.000    0.000 
#    0.000    0.000    0.000    0.000    0.000    0.000 
#
# Total GULP energy -72372.987080 kJ/mol
# GULP energy per Si atom -5567.152852 kJ/mol
# Density = 2.076317 g / cm^3
# Si number density = 20.810538 Si / 1000 Ang^3
#
#
#
# Elastic Constant Matrix: (Units=GPa)
#
#
# Indices 1 2 3 4 5 6 
#
# 1 89.4657 39.2288 13.6532 0.0000 -3.5353 0.0000
# 2 39.2288 113.6242 32.7758 0.0000 -0.2193 0.0000
# 3 13.6532 32.7758 88.3887 0.0000 11.8213 0.0000
# 4 0.0000 0.0000 0.0000 15.4680 0.0000 -2.6354
# 5 -3.5353 -0.2193 11.8213 0.0000 19.6207 0.0000
# 6 0.0000 0.0000 0.0000 -2.6354 0.0000 10.9566
#
#
#
# Elastic Compliance Matrix: (Units=1/GPa)
#
#
# Indices 1 2 3 4 5 6 
#
# 1 0.013327 -0.004358 -0.000824 0.000000 0.002849 0.000000
# 2 -0.004358 0.011396 -0.003768 0.000000 0.001612 0.000000
# 3 -0.000824 -0.003768 0.013991 0.000000 -0.008620 0.000000
# 4 0.000000 0.000000 0.000000 0.067412 0.000000 0.016215
# 5 0.002849 0.001612 -0.008620 0.000000 0.056691 0.000000
# 6 0.000000 0.000000 0.000000 0.016215 0.000000 0.095170
#
#
# Mechanical properties :
#
#
# Convention : Reuss Voigt Hill
#
# Bulk Modulus (GPa) = 48.04470 51.42158 49.73314
# Shear Modulus (GPa) = 17.67886 22.93044 20.30465
#
# Velocity S-wave (km/s) = 2.91781 3.32304 3.12699
# Velocity P-wave (km/s) = 5.87267 6.28383 6.08173
#
# Compressibility (1/GPa) = 0.02081395
#
# Stress axis : x y z
#
# Youngs Moduli (GPa) = 75.03794 87.75331 71.47457
#
# Poissons Ratio (x) = 0.38243 0.05886
# Poissons Ratio (y) = 0.32701 0.26932
# Poissons Ratio (z) = 0.06180 0.33067
#
# Static dielectric constant tensor:
#      x y z
#    x 1.897830 0.000000 -0.104750 
#    y 0.000000 1.762500 0.000000 
#    z -0.104750 0.000000 1.860970 
# 
# From -- ./inp_files/1239.got.cif
#   From: 2010.05.17/outbox.cif.g08.bks.cpg/sg3_1_cif.got.tgz:1239.got - 2010.06.03 18:33:08.
