data_PCOD9112809
_publ_section_title
;
Structure prediction by ZEFSAII (Michael W. Deem and Ramdas Pophale) SiO2 
 PCOD9112809
Probable space group: P 2
;
_chemical_formula_sum "Si O2"
_cell_formula_units_Z 16
_cell_length_a 20.258370
_cell_length_b 8.651906
_cell_length_c 5.095547
_cell_angle_alpha 90.000000
_cell_angle_beta 118.593795
_cell_angle_gamma 90.000000
_cell_volume 784.185554
_symmetry_space_group_name_H-M "P 2"
_symmetry_group_IT_number 3
_symmetry_cell_setting 'monoclinic'
loop_
_space_group_symop_operation_xyz
x,y,z
-x,y,-z
loop_
_atom_site_type_symbol
_atom_site_label
_atom_site_fract_x
_atom_site_fract_y
_atom_site_fract_z
Si Si1 0.583144 0.319140 0.593879
Si Si2 0.303293 0.576099 0.197589
Si Si3 0.911402 0.493952 0.869672
Si Si4 0.635140 0.147926 0.218326
Si Si5 0.681111 0.870185 0.022745
Si Si6 0.807303 0.775777 0.643743
Si Si7 0.831129 0.371357 0.228133
Si Si8 0.768666 0.081229 0.808342
O O1 0.500000 0.374328 0.500000
O O2 0.638217 0.451221 0.589312
O O3 0.582338 0.194147 0.358919
O O4 0.617008 0.249567 0.927982
O O5 0.253172 0.671374 0.309986
O O6 0.349026 0.707385 0.130115
O O7 0.242957 0.479641 0.912420
O O8 0.878197 0.665018 0.747078
O O9 0.870607 0.380590 0.583893
O O10 0.886251 0.445773 0.113603
O O11 0.000000 0.488692 0.000000
O O12 0.721991 0.164897 0.486184
O O13 0.631996 0.968123 0.129958
O O14 0.762217 0.824398 0.299172
O O15 0.702821 0.989486 0.836273
O O16 0.820959 0.941142 0.808697
O O17 0.807424 0.205069 0.069238
#
# Coordination Sequence:
#
# PCOD9112809 Si02
#       8
#     2   2   2   2   2   2   2   2
#     4  12  26  42  65  92 130 171 211 261 330 384
#     4  10  21  37  63  97 122 159 217 267 309 374
#     4  11  24  42  62  92 133 171 210 260 327 384
#     4  11  22  41  63  92 124 164 208 270 309 384
#     4  10  19  37  66  95 124 155 213 268 319 362
#     4   9  21  36  64  96 123 167 212 266 310 383
#     4  11  22  38  67  93 122 166 215 267 311 373
#     4  10  21  37  67  98 123 157 220 269 317 364
#
# _framework density 20.403335999999999
#
# number of rings (size 3 to 8) (size 9 to 14) (size 15 to 20)
#    0.000    1.500    3.750    0.750    7.000    0.000 
#    0.000    1.250    8.250    0.000    0.000    0.000 
#    0.000    0.000    0.000    0.000    0.000    0.000 
#
# Total GULP energy -89289.852985 kJ/mol
# GULP energy per Si atom -5580.615812 kJ/mol
# Density = 2.035690 g / cm^3
# Si number density = 20.403336 Si / 1000 Ang^3
#
#
#
# Elastic Constant Matrix: (Units=GPa)
#
#
# Indices 1 2 3 4 5 6 
#
# 1 60.7780 21.1472 13.6239 0.0000 5.9791 0.0000
# 2 21.1472 104.0336 25.1902 0.0000 8.9443 0.0000
# 3 13.6239 25.1902 66.0645 0.0000 -6.1969 0.0000
# 4 0.0000 0.0000 0.0000 23.7480 0.0000 -6.7693
# 5 5.9791 8.9443 -6.1969 0.0000 31.2903 0.0000
# 6 0.0000 0.0000 0.0000 -6.7693 0.0000 25.1962
#
#
#
# Elastic Compliance Matrix: (Units=1/GPa)
#
#
# Indices 1 2 3 4 5 6 
#
# 1 0.018416 -0.002710 -0.003079 0.000000 -0.003354 0.000000
# 2 -0.002710 0.011477 -0.004154 0.000000 -0.003586 0.000000
# 3 -0.003079 -0.004154 0.017854 0.000000 0.005312 0.000000
# 4 0.000000 0.000000 0.000000 0.045601 0.000000 0.012251
# 5 -0.003354 -0.003586 0.005312 0.000000 0.034677 0.000000
# 6 0.000000 0.000000 0.000000 0.012251 0.000000 0.042980
#
#
# Mechanical properties :
#
#
# Convention : Reuss Voigt Hill
#
# Bulk Modulus (GPa) = 35.89120 38.97761 37.43441
# Shear Modulus (GPa) = 24.97784 27.44122 26.20953
#
# Velocity S-wave (km/s) = 3.50266 3.67132 3.58798
# Velocity P-wave (km/s) = 5.82985 6.09233 5.96253
#
# Compressibility (1/GPa) = 0.02786198
#
# Stress axis : x y z
#
# Youngs Moduli (GPa) = 54.29961 87.13006 56.01045
#
# Poissons Ratio (x) = 0.23608 0.17248
# Poissons Ratio (y) = 0.14713 0.23265
# Poissons Ratio (z) = 0.16721 0.36192
#
# Static dielectric constant tensor:
#      x y z
#    x 1.741820 0.000000 -0.058090 
#    y 0.000000 1.747100 0.000000 
#    z -0.058090 0.000000 1.748800 
# 
# From -- ./inp_files/3941.got.cif
#   From: 2010.05.17/outbox.cif.g08.bks.cpg/sg3_2_cif.got.tgz:3941.got - 2010.06.03 18:33:08.
