data_PCOD9112950
_publ_section_title
;
Structure prediction by ZEFSAII (Michael W. Deem and Ramdas Pophale) SiO2 
 PCOD9112950
Probable space group: P 2
;
_chemical_formula_sum "Si O2"
_cell_formula_units_Z 13
_cell_length_a 11.697256
_cell_length_b 9.678618
_cell_length_c 5.183908
_cell_angle_alpha 90.000000
_cell_angle_beta 81.320964
_cell_angle_gamma 90.000000
_cell_volume 580.166841
_symmetry_space_group_name_H-M "P 2"
_symmetry_group_IT_number 3
_symmetry_cell_setting 'monoclinic'
loop_
_space_group_symop_operation_xyz
x,y,z
-x,y,-z
loop_
_atom_site_type_symbol
_atom_site_label
_atom_site_fract_x
_atom_site_fract_y
_atom_site_fract_z
Si Si1 0.889454 0.729660 0.891566
Si Si2 0.885867 0.043360 0.902905
Si Si3 0.327457 0.780786 0.673179
Si Si4 0.575042 0.291121 0.712881
Si Si5 0.500000 0.739895 0.000000
Si Si6 0.260553 0.056986 0.525169
Si Si7 0.299032 0.561753 0.304126
O O1 0.788106 0.768706 0.122745
O O2 0.827589 0.624001 0.716949
O O3 0.000000 0.668771 0.000000
O O4 0.922222 0.886112 0.800373
O O5 0.835073 0.099741 0.653627
O O6 0.788451 0.059218 0.164127
O O7 0.000000 0.102892 0.000000
O O8 0.338127 0.626907 0.561097
O O9 0.299032 0.897025 0.469751
O O10 0.441617 0.824693 0.789997
O O11 0.500000 0.350022 0.500000
O O12 0.631845 0.153778 0.575836
O O13 0.677714 0.401198 0.730194
O O14 0.500000 0.272538 0.000000
O O15 0.393870 0.640265 0.099816
#
# Coordination Sequence:
#
# PCOD9112950 Si02
#       7
#     2   2   2   2   1   2   2
#     4   9  20  37  64  99 128 165 210 274 329 387
#     4  10  20  41  71  98 133 168 216 268 336 392
#     4  10  21  37  64  93 130 164 220 273 327 391
#     4  12  27  46  65  90 133 185 220 270 333 396
#     4  10  20  36  60  92 122 168 216 270 326 378
#     4  11  23  43  62 100 129 174 219 270 329 391
#     4  11  21  40  63  91 125 171 220 264 325 394
#
# _framework density 22.407346
#
# number of rings (size 3 to 8) (size 9 to 14) (size 15 to 20)
#    0.000    1.538    2.308    2.769    2.154    1.846 
#    2.769    0.769    3.385    0.000    0.000    0.000 
#    0.000    0.000    0.000    0.000    0.000    0.000 
#
# Total GULP energy -72425.085583 kJ/mol
# GULP energy per Si atom -5571.160429 kJ/mol
# Density = 2.235635 g / cm^3
# Si number density = 22.407346 Si / 1000 Ang^3
#
#
#
# Elastic Constant Matrix: (Units=GPa)
#
#
# Indices 1 2 3 4 5 6 
#
# 1 98.3832 17.5204 33.9105 0.0000 33.9076 0.0000
# 2 17.5204 63.8801 9.2487 0.0000 -4.8760 0.0000
# 3 33.9105 9.2487 105.4990 0.0000 7.9579 0.0000
# 4 0.0000 0.0000 0.0000 -6.7164 0.0000 8.8448
# 5 33.9076 -4.8760 7.9579 0.0000 44.7122 0.0000
# 6 0.0000 0.0000 0.0000 8.8448 0.0000 23.4272
#
#
#
# Elastic Compliance Matrix: (Units=1/GPa)
#
#
# Indices 1 2 3 4 5 6 
#
# 1 0.016747 -0.004970 -0.004002 0.000000 -0.012530 0.000000
# 2 -0.004970 0.017510 -0.000371 0.000000 0.005745 0.000000
# 3 -0.004002 -0.000371 0.010716 0.000000 0.001088 0.000000
# 4 0.000000 0.000000 0.000000 -0.099446 0.000000 0.037545
# 5 -0.012530 0.005745 0.001088 0.000000 0.032301 0.000000
# 6 0.000000 0.000000 0.000000 0.037545 0.000000 0.028510
#
#
# Mechanical properties :
#
#
# Convention : Reuss Voigt Hill
#
# Bulk Modulus (GPa) = 38.04267 43.23574 40.63920
# Shear Modulus (GPa) = 147.98588 26.09009 87.03799
#
# Velocity S-wave (km/s) = 8.13553 3.41597 6.23922
# Velocity P-wave (km/s) = 10.25981 5.90725 8.37136
#
# Compressibility (1/GPa) = 0.02628627
#
# Stress axis : x y z
#
# Youngs Moduli (GPa) = 59.71053 57.11114 93.32126
#
# Poissons Ratio (x) = 0.28386 0.37349
# Poissons Ratio (y) = 0.29678 0.03460
# Poissons Ratio (z) = 0.23898 0.02117
#
# Static dielectric constant tensor:
#      x y z
#    x 1.898220 0.000000 -0.083080 
#    y 0.000000 1.813100 0.000000 
#    z -0.083080 0.000000 2.280090 
# 
# From -- ./inp_files/2252.got.cif
#   From: 2010.05.17/outbox.cif.g08.bks.cpg/sg3_2_cif.got.tgz:2252.got - 2010.06.03 18:33:08.
