data_PCOD9112796
_publ_section_title
;
Structure prediction by ZEFSAII (Michael W. Deem and Ramdas Pophale) SiO2 
 PCOD9112796
Probable space group: P 2
;
_chemical_formula_sum "Si O2"
_cell_formula_units_Z 14
_cell_length_a 7.856985
_cell_length_b 7.231030
_cell_length_c 12.657122
_cell_angle_alpha 90.000000
_cell_angle_beta 59.177997
_cell_angle_gamma 90.000000
_cell_volume 617.539124
_symmetry_space_group_name_H-M "P 2"
_symmetry_group_IT_number 3
_symmetry_cell_setting 'monoclinic'
loop_
_space_group_symop_operation_xyz
x,y,z
-x,y,-z
loop_
_atom_site_type_symbol
_atom_site_label
_atom_site_fract_x
_atom_site_fract_y
_atom_site_fract_z
Si Si1 0.127600 0.345600 0.561651
Si Si2 0.113644 0.504380 0.069696
Si Si3 0.764050 0.910786 0.968963
Si Si4 0.242068 0.205603 0.188432
Si Si5 0.769703 0.997356 0.203934
Si Si6 0.482466 0.306757 0.316101
Si Si7 0.275331 0.624127 0.681206
O O1 0.315184 0.239838 0.451826
O O2 0.226931 0.523238 0.586591
O O3 0.000000 0.406158 0.500000
O O4 0.974038 0.228596 0.683678
O O5 0.246365 0.688452 0.019275
O O6 0.225832 0.342698 0.093752
O O7 0.929317 0.578637 0.195130
O O8 0.000000 0.441882 0.000000
O O9 0.995526 0.973495 0.883168
O O10 0.692191 0.010212 0.884202
O O11 0.696444 0.972041 0.106610
O O12 0.393260 0.278528 0.228475
O O13 0.696674 0.840770 0.308863
O O14 0.683125 0.191729 0.266813
O O15 0.546809 0.515316 0.318992
#
# Coordination Sequence:
#
# PCOD9112796 Si02
#       7
#     2   2   2   2   2   2   2
#     4   9  20  42  65  88 118 159 208 252 298 359
#     4  10  19  37  61  85 117 160 206 242 294 364
#     4  10  20  38  59  88 120 161 206 242 294 371
#     4  10  23  37  63  88 121 165 198 249 309 353
#     4  10  21  37  61  89 120 158 202 245 303 360
#     4  11  23  40  59  93 126 156 203 252 301 358
#     4  10  20  38  63  87 118 159 200 249 302 353
#
# _framework density 22.670625999999999
#
# number of rings (size 3 to 8) (size 9 to 14) (size 15 to 20)
#    0.000    2.000    2.857    2.143    4.000    1.714 
#    0.000   10.000    0.000   21.429    0.000    0.000 
#    0.000    0.000    0.000    0.000    0.000    0.000 
#
# Total GULP energy -78083.363396 kJ/mol
# GULP energy per Si atom -5577.383100 kJ/mol
# Density = 2.261903 g / cm^3
# Si number density = 22.670626 Si / 1000 Ang^3
#
#
#
# Elastic Constant Matrix: (Units=GPa)
#
#
# Indices 1 2 3 4 5 6 
#
# 1 95.5987 5.3793 8.4484 0.0000 26.2502 0.0000
# 2 5.3793 51.1710 21.7956 0.0000 -0.1859 0.0000
# 3 8.4484 21.7956 72.1712 0.0000 22.3270 0.0000
# 4 0.0000 0.0000 0.0000 15.7650 0.0000 -5.3791
# 5 26.2502 -0.1859 22.3270 0.0000 34.0052 0.0000
# 6 0.0000 0.0000 0.0000 -5.3791 0.0000 6.5958
#
#
#
# Elastic Compliance Matrix: (Units=1/GPa)
#
#
# Indices 1 2 3 4 5 6 
#
# 1 0.013859 -0.002872 0.003212 0.000000 -0.012823 0.000000
# 2 -0.002872 0.023950 -0.009566 0.000000 0.008628 0.000000
# 3 0.003212 -0.009566 0.021524 0.000000 -0.016664 0.000000
# 4 0.000000 0.000000 0.000000 0.087887 0.000000 0.071675
# 5 -0.012823 0.008628 -0.016664 0.000000 0.050294 0.000000
# 6 0.000000 0.000000 0.000000 0.071675 0.000000 0.210065
#
#
# Mechanical properties :
#
#
# Convention : Reuss Voigt Hill
#
# Bulk Modulus (GPa) = 24.46081 32.24305 28.35193
# Shear Modulus (GPa) = 11.37246 23.49437 17.43342
#
# Velocity S-wave (km/s) = 2.24216 3.22271 2.77607
# Velocity P-wave (km/s) = 4.18523 5.30104 4.77583
#
# Compressibility (1/GPa) = 0.04088171
#
# Stress axis : x y z
#
# Youngs Moduli (GPa) = 72.15429 41.75362 46.45978
#
# Poissons Ratio (x) = 0.11990 -0.14922
# Poissons Ratio (y) = 0.20719 0.44443
# Poissons Ratio (z) = -0.23174 0.39942
#
# Static dielectric constant tensor:
#      x y z
#    x 1.939670 0.000000 0.001970 
#    y 0.000000 1.852670 0.000000 
#    z 0.001970 0.000000 1.930620 
# 
# From -- ./inp_files/10488.got.cif
#   From: 2010.05.17/outbox.cif.g08.bks.cpg/sg3_6_cif.got.tgz:10488.got - 2010.06.03 18:33:08.
