data_PCOD9112330
_publ_section_title
;
Structure prediction by ZEFSAII (Michael W. Deem and Ramdas Pophale) SiO2 
 PCOD9112330
Probable space group: P -1
;
_chemical_formula_sum "Si O2"
_cell_formula_units_Z 15
_cell_length_a 5.290354
_cell_length_b 21.766421
_cell_length_c 9.768739
_cell_angle_alpha 35.687096
_cell_angle_beta 76.689511
_cell_angle_gamma 68.465244
_cell_volume 605.608521
_symmetry_space_group_name_H-M "P -1"
_symmetry_group_IT_number 2
_symmetry_cell_setting 'triclinic'
loop_
_space_group_symop_operation_xyz
x,y,z
-x,-y,-z
loop_
_atom_site_type_symbol
_atom_site_label
_atom_site_fract_x
_atom_site_fract_y
_atom_site_fract_z
Si Si1 0.839030 0.978101 0.330439
Si Si2 0.000000 0.500000 0.500000
Si Si3 0.010155 0.251114 0.140097
Si Si4 0.362914 0.801303 0.933762
Si Si5 0.597297 0.713324 0.333670
Si Si6 0.663002 0.946702 0.942674
Si Si7 0.368023 0.402112 0.195720
Si Si8 0.128048 0.445753 0.873755
O O1 0.763507 0.065791 0.306121
O O2 0.977715 0.851012 0.581245
O O3 0.551830 0.999435 0.249961
O O4 0.066677 0.017891 0.154372
O O5 0.208047 0.397079 0.568211
O O6 0.207421 0.470028 0.666948
O O7 0.322148 0.228016 0.094661
O O8 0.813252 0.254979 0.031564
O O9 0.934346 0.370918 0.000005
O O10 0.365016 0.765831 0.155123
O O11 0.720275 0.814253 0.162367
O O12 0.493077 0.684496 0.545830
O O13 0.500000 0.000000 0.000000
O O14 0.056347 0.446860 0.215569
O O15 0.500000 0.500000 0.000000
O O16 0.340367 0.374832 0.089131
#
# Coordination Sequence:
#
# PCOD9112330 Si02
#       8
#     2   1   2   2   2   2   2   2
#     4  11  24  43  70 103 147 188 240 303 361 437
#     4  10  20  46  72 100 140 184 240 306 358 430
#     4  12  24  41  73 106 147 184 238 302 369 438
#     4  11  23  43  68 109 142 188 236 295 371 433
#     4  10  23  44  74 100 145 189 243 305 360 442
#     4  11  25  46  69 106 143 199 246 292 366 443
#     4  10  24  46  64  98 139 190 238 301 362 432
#     4  10  24  41  68 101 135 183 241 295 365 428
#
# _framework density 24.768474999999999
#
# number of rings (size 3 to 8) (size 9 to 14) (size 15 to 20)
#    0.000    1.333    1.333    3.600    3.733    2.133 
#   14.400    2.667    0.000    0.000    0.000    0.000 
#    0.000    0.000    0.000    0.000    0.000    0.000 
#
# Total GULP energy -83540.822092 kJ/mol
# GULP energy per Si atom -5569.388139 kJ/mol
# Density = 2.471210 g / cm^3
# Si number density = 24.768475 Si / 1000 Ang^3
#
#
#
# Elastic Constant Matrix: (Units=GPa)
#
#
# Indices 1 2 3 4 5 6 
#
# 1 56.8164 15.4415 -13.2037 6.4639 -9.6808 -13.3741
# 2 15.4415 105.0273 5.6853 21.5875 6.9584 3.3912
# 3 -13.2037 5.6853 96.1389 14.5357 -1.6574 -0.6175
# 4 6.4639 21.5875 14.5357 45.6910 4.3532 8.0676
# 5 -9.6808 6.9584 -1.6574 4.3532 21.0480 0.5042
# 6 -13.3741 3.3912 -0.6175 8.0676 0.5042 42.2162
#
#
#
# Elastic Compliance Matrix: (Units=1/GPa)
#
#
# Indices 1 2 3 4 5 6 
#
# 1 0.025200 -0.003931 0.004956 -0.006314 0.014361 0.009407
# 2 -0.003931 0.011290 -0.000716 -0.003855 -0.004767 -0.001369
# 3 0.004956 -0.000716 0.011987 -0.005080 0.004446 0.002721
# 4 -0.006314 -0.003855 -0.005080 0.028196 -0.007692 -0.007061
# 5 0.014361 -0.004767 0.004446 -0.007692 0.057494 0.005781
# 6 0.009407 -0.001369 0.002721 -0.007061 0.005781 0.028098
#
#
# Mechanical properties :
#
#
# Convention : Reuss Voigt Hill
#
# Bulk Modulus (GPa) = 20.36814 30.42543 25.39678
# Shear Modulus (GPa) = 28.08811 38.46169 33.27490
#
# Velocity S-wave (km/s) = 3.37118 3.94489 3.66927
# Velocity P-wave (km/s) = 4.83678 5.74980 5.31294
#
# Compressibility (1/GPa) = 0.04909628
#
# Stress axis : x y z
#
# Youngs Moduli (GPa) = 39.68261 88.57170 83.42497
#
# Poissons Ratio (x) = 0.34815 -0.41345
# Poissons Ratio (y) = 0.15598 0.05971
# Poissons Ratio (z) = -0.19667 0.06339
#
# Static dielectric constant tensor:
#      x y z
#    x 2.465060 0.214450 -0.032300 
#    y 0.214450 2.261190 -0.071400 
#    z -0.032300 -0.071400 2.116080 
# 
# From -- ./inp_files/140457.got.cif
#   From: 2010.05.17/outbox.cif.g08.bks.cpg/sg2_71_cif.got.tgz:140457.got - 2010.06.03 11:33:40.
