data_PCOD9112126
_publ_section_title
;
Structure prediction by ZEFSAII (Michael W. Deem and Ramdas Pophale) SiO2 
 PCOD9112126
Probable space group: P -1
;
_chemical_formula_sum "Si O2"
_cell_formula_units_Z 15
_cell_length_a 13.894002
_cell_length_b 8.260231
_cell_length_c 12.079182
_cell_angle_alpha 69.257166
_cell_angle_beta 52.571134
_cell_angle_gamma 110.440977
_cell_volume 668.943959
_symmetry_space_group_name_H-M "P -1"
_symmetry_group_IT_number 2
_symmetry_cell_setting 'triclinic'
loop_
_space_group_symop_operation_xyz
x,y,z
-x,-y,-z
loop_
_atom_site_type_symbol
_atom_site_label
_atom_site_fract_x
_atom_site_fract_y
_atom_site_fract_z
Si Si1 0.093218 0.324189 0.143521
Si Si2 0.463858 0.624734 0.712667
Si Si3 0.834696 0.192410 0.657506
Si Si4 0.935661 0.872390 0.197465
Si Si5 0.000000 0.000000 0.500000
Si Si6 0.760788 0.164180 0.473104
Si Si7 0.562046 0.286979 0.537747
Si Si8 0.287577 0.054784 0.974132
O O1 0.095458 0.222925 0.281704
O O2 0.973142 0.365005 0.239562
O O3 0.978552 0.078153 0.198070
O O4 0.296863 0.563625 0.891334
O O5 0.492391 0.692184 0.546793
O O6 0.387764 0.349387 0.847939
O O7 0.647637 0.867657 0.593600
O O8 0.744828 0.169815 0.614102
O O9 0.000000 0.500000 0.500000
O O10 0.911112 0.083834 0.599266
O O11 0.704450 0.036370 0.893981
O O12 0.723500 0.580735 0.409346
O O13 0.072353 0.866917 0.143034
O O14 0.000000 0.000000 0.000000
O O15 0.662542 0.213229 0.467213
O O16 0.391267 0.084666 0.790210
#
# Coordination Sequence:
#
# PCOD9112126 Si02
#       8
#     2   2   2   2   1   2   2   2
#     4  10  22  43  68  94 134 178 230 277 342 411
#     4  11  23  44  65  99 139 178 231 276 344 418
#     4  11  24  48  73 104 140 179 240 289 344 418
#     4  11  21  41  69  97 127 181 231 271 343 405
#     4  10  20  44  70  98 134 180 222 290 338 402
#     4  11  27  41  65 103 134 184 223 282 354 404
#     4  12  25  41  66 102 141 175 228 288 337 421
#     4  11  24  44  71 100 135 184 228 289 342 406
#
# _framework density 22.423403
#
# number of rings (size 3 to 8) (size 9 to 14) (size 15 to 20)
#    0.000    1.067    5.333    2.400    1.867    4.800 
#    2.400    0.000    0.000    0.000    0.000    0.000 
#    0.000    0.000    0.000    0.000    0.000    0.000 
#
# Total GULP energy -83662.365097 kJ/mol
# GULP energy per Si atom -5577.491006 kJ/mol
# Density = 2.237237 g / cm^3
# Si number density = 22.423403 Si / 1000 Ang^3
#
#
#
# Elastic Constant Matrix: (Units=GPa)
#
#
# Indices 1 2 3 4 5 6 
#
# 1 14.1861 -2.8356 13.7495 -5.7856 -19.0837 -8.8890
# 2 -2.8356 25.9838 18.7733 -11.3536 -7.9711 -1.5179
# 3 13.7495 18.7733 126.6069 31.5792 5.2909 8.3397
# 4 -5.7856 -11.3536 31.5792 28.9039 -2.1583 -2.1911
# 5 -19.0837 -7.9711 5.2909 -2.1583 8.3081 -7.1523
# 6 -8.8890 -1.5179 8.3397 -2.1911 -7.1523 36.7074
#
#
#
# Elastic Compliance Matrix: (Units=1/GPa)
#
#
# Indices 1 2 3 4 5 6 
#
# 1 0.006861 -0.024324 0.009858 -0.021524 -0.026333 -0.007999
# 2 -0.024324 0.034481 -0.003373 0.009896 -0.024926 -0.007964
# 3 0.009858 -0.003373 0.008307 -0.007121 0.014671 0.002794
# 4 -0.021524 0.009896 -0.007121 0.039099 -0.031224 -0.006935
# 5 -0.026333 -0.024926 0.014671 -0.031224 0.009202 -0.010812
# 6 -0.007999 -0.007964 0.002794 -0.006935 -0.010812 0.021821
#
#
# Mechanical properties :
#
#
# Convention : Reuss Voigt Hill
#
# Bulk Modulus (GPa) = 71.58113 25.12792 48.35453
# Shear Modulus (GPa) = 31.22933 23.92318 27.57625
#
# Velocity S-wave (km/s) = 3.73595 3.26986 3.51065
# Velocity P-wave (km/s) = 7.11348 5.04841 6.16798
#
# Compressibility (1/GPa) = 0.01397016
#
# Stress axis : x y z
#
# Youngs Moduli (GPa) = 145.74507 29.00164 120.37962
#
# Poissons Ratio (x) = 0.70543 -1.18665
# Poissons Ratio (y) = 3.54505 0.40609
# Poissons Ratio (z) = -1.43669 0.09784
#
# Static dielectric constant tensor:
#      x y z
#    x 1.834310 -0.022750 -0.046830 
#    y -0.022750 1.864420 0.006860 
#    z -0.046830 0.006860 1.867290 
# 
# From -- ./inp_files/259778.got.cif
#   From: 2010.05.17/outbox.cif.g08.bks.cpg/sg2_130_cif.got.tgz:259778.got - 2010.06.03 11:33:40.
