data_PCOD9112676
_publ_section_title
;
Structure prediction by ZEFSAII (Michael W. Deem and Ramdas Pophale) SiO2 
 PCOD9112676
Probable space group: P 2
;
_chemical_formula_sum "Si O2"
_cell_formula_units_Z 12
_cell_length_a 5.082136
_cell_length_b 15.101186
_cell_length_c 7.658877
_cell_angle_alpha 90.000000
_cell_angle_beta 109.560885
_cell_angle_gamma 90.000000
_cell_volume 553.866737
_symmetry_space_group_name_H-M "P 2"
_symmetry_group_IT_number 3
_symmetry_cell_setting 'monoclinic'
loop_
_space_group_symop_operation_xyz
x,y,z
-x,y,-z
loop_
_atom_site_type_symbol
_atom_site_label
_atom_site_fract_x
_atom_site_fract_y
_atom_site_fract_z
Si Si1 0.802160 0.615720 0.620619
Si Si2 0.387330 0.885633 0.279656
Si Si3 0.316383 0.462429 0.134726
Si Si4 0.110835 0.783344 0.726688
Si Si5 0.319079 0.079549 0.132859
Si Si6 0.319299 0.269437 0.135792
O O1 0.500000 0.658865 0.500000
O O2 0.693761 0.538125 0.721998
O O3 0.006187 0.686432 0.761742
O O4 0.000000 0.586130 0.500000
O O5 0.500000 0.876304 0.500000
O O6 0.068956 0.855295 0.211054
O O7 0.574862 0.817786 0.209329
O O8 0.410181 0.988616 0.241060
O O9 0.500000 0.479506 0.000000
O O10 0.387418 0.365477 0.231267
O O11 0.000000 0.456704 0.000000
O O12 0.000000 0.782904 0.500000
O O13 0.500000 0.085920 0.000000
O O14 0.359405 0.174533 0.238357
O O15 0.000000 0.071937 0.000000
O O16 0.500000 0.269253 0.000000
O O17 0.000000 0.269324 0.000000
#
# Coordination Sequence:
#
# PCOD9112676 Si02
#       6
#     2   2   2   2   2   2
#     4  11  21  36  58  82 108 145 187 228 270 322
#     4  10  19  33  53  74  99 135 177 216 259 315
#     4  10  20  36  57  82 111 146 183 224 272 327
#     4   9  18  33  52  72  99 139 178 209 258 328
#     4  10  19  33  53  78 105 137 175 219 265 316
#     4   8  16  31  52  74 103 142 177 206 260 334
#
# _framework density 21.665863000000002
#
# number of rings (size 3 to 8) (size 9 to 14) (size 15 to 20)
#    0.000    2.333    0.000    4.500    0.000    0.000 
#    0.000    4.167    0.000    3.000    0.000    0.000 
#    0.000    0.000    0.000    0.000    0.000    0.000 
#
# Total GULP energy -66842.890780 kJ/mol
# GULP energy per Si atom -5570.240898 kJ/mol
# Density = 2.161655 g / cm^3
# Si number density = 21.665863 Si / 1000 Ang^3
#
#
#
# Elastic Constant Matrix: (Units=GPa)
#
#
# Indices 1 2 3 4 5 6 
#
# 1 152.2782 23.8398 9.5415 0.0000 -28.2855 0.0000
# 2 23.8398 195.5742 29.4648 0.0000 -30.2921 0.0000
# 3 9.5415 29.4648 46.0230 0.0000 -14.8187 0.0000
# 4 0.0000 0.0000 0.0000 61.2944 0.0000 -11.4895
# 5 -28.2855 -30.2921 -14.8187 0.0000 16.4188 0.0000
# 6 0.0000 0.0000 0.0000 -11.4895 0.0000 33.6469
#
#
#
# Elastic Compliance Matrix: (Units=1/GPa)
#
#
# Indices 1 2 3 4 5 6 
#
# 1 0.011065 0.002165 0.005277 0.000000 0.027819 0.000000
# 2 0.002165 0.007590 0.000566 0.000000 0.018243 0.000000
# 3 0.005277 0.000566 0.033177 0.000000 0.040079 0.000000
# 4 0.000000 0.000000 0.000000 0.017430 0.000000 0.005952
# 5 0.027819 0.018243 0.040079 0.000000 0.178662 0.000000
# 6 0.000000 0.000000 0.000000 0.005952 0.000000 0.031753
#
#
# Mechanical properties :
#
#
# Convention : Reuss Voigt Hill
#
# Bulk Modulus (GPa) = 14.73891 57.72976 36.23434
# Shear Modulus (GPa) = 17.46571 44.34064 30.90317
#
# Velocity S-wave (km/s) = 2.84234 4.52881 3.78081
# Velocity P-wave (km/s) = 4.19398 7.35188 5.98496
#
# Compressibility (1/GPa) = 0.06784762
#
# Stress axis : x y z
#
# Youngs Moduli (GPa) = 90.37791 131.75890 30.14181
#
# Poissons Ratio (x) = -0.28526 -0.15906
# Poissons Ratio (y) = -0.19567 -0.01707
# Poissons Ratio (z) = -0.47694 -0.07460
#
# Static dielectric constant tensor:
#      x y z
#    x 1.757500 0.000000 0.012160 
#    y 0.000000 1.928040 0.000000 
#    z 0.012160 0.000000 1.743390 
# 
# From -- ./inp_files/4339.got.cif
#   From: 2010.05.17/outbox.cif.g08.bks.cpg/sg3_3_cif.got.tgz:4339.got - 2010.06.03 18:33:08.
