data_PCOD9112846
_publ_section_title
;
Structure prediction by ZEFSAII (Michael W. Deem and Ramdas Pophale) SiO2 
 PCOD9112846
Probable space group: P 2
;
_chemical_formula_sum "Si O2"
_cell_formula_units_Z 8
_cell_length_a 7.537397
_cell_length_b 8.936747
_cell_length_c 5.192409
_cell_angle_alpha 90.000000
_cell_angle_beta 69.581966
_cell_angle_gamma 90.000000
_cell_volume 327.785063
_symmetry_space_group_name_H-M "P 2"
_symmetry_group_IT_number 3
_symmetry_cell_setting 'monoclinic'
loop_
_space_group_symop_operation_xyz
x,y,z
-x,y,-z
loop_
_atom_site_type_symbol
_atom_site_label
_atom_site_fract_x
_atom_site_fract_y
_atom_site_fract_z
Si Si1 0.621535 0.820950 0.695541
Si Si2 0.119958 0.567946 0.183920
Si Si3 0.209366 0.116128 0.593251
Si Si4 0.217698 0.239839 0.093676
O O1 0.500000 0.780119 0.500000
O O2 0.732796 0.684409 0.771689
O O3 0.764556 0.948806 0.521642
O O4 0.500000 0.879039 0.000000
O O5 0.207323 0.413836 0.031751
O O6 0.000000 0.524318 0.500000
O O7 0.000000 0.630654 0.000000
O O8 0.301987 0.221864 0.332399
O O9 0.994309 0.171760 0.750700
O O10 0.299952 0.141160 0.824492
#
# Coordination Sequence:
#
# PCOD9112846 Si02
#       4
#     2   2   2   2
#     4  12  28  48  66 109 161 198 229 292 385 452
#     4  12  23  45  77 113 139 189 252 310 356 428
#     4  10  20  40  69 101 143 178 239 303 352 422
#     4  10  19  40  73 109 130 173 254 315 345 400
#
# _framework density 24.406237000000001
#
# number of rings (size 3 to 8) (size 9 to 14) (size 15 to 20)
#    0.000    1.000    5.000    3.000    3.500    0.000 
#    0.000    5.000    0.000    0.000    0.000    0.000 
#    0.000    0.000    0.000    0.000    0.000    0.000 
#
# Total GULP energy -44671.079536 kJ/mol
# GULP energy per Si atom -5583.884942 kJ/mol
# Density = 2.435069 g / cm^3
# Si number density = 24.406237 Si / 1000 Ang^3
#
#
#
# Elastic Constant Matrix: (Units=GPa)
#
#
# Indices 1 2 3 4 5 6 
#
# 1 124.5435 64.0123 40.1676 0.0000 23.4880 0.0000
# 2 64.0123 158.1836 38.4862 0.0000 11.3357 0.0000
# 3 40.1676 38.4862 183.9602 0.0000 52.7387 0.0000
# 4 0.0000 0.0000 0.0000 38.6852 0.0000 38.9255
# 5 23.4880 11.3357 52.7387 0.0000 38.5116 0.0000
# 6 0.0000 0.0000 0.0000 38.9255 0.0000 57.5870
#
#
#
# Elastic Compliance Matrix: (Units=1/GPa)
#
#
# Indices 1 2 3 4 5 6 
#
# 1 0.011216 -0.004143 0.000048 0.000000 -0.005687 0.000000
# 2 -0.004143 0.008191 -0.001387 0.000000 0.002015 0.000000
# 3 0.000048 -0.001387 0.009231 0.000000 -0.012262 0.000000
# 4 0.000000 0.000000 0.000000 0.080816 0.000000 -0.054627
# 5 -0.005687 0.002015 -0.012262 0.000000 0.045634 0.000000
# 6 0.000000 0.000000 0.000000 -0.054627 0.000000 0.054290
#
#
# Mechanical properties :
#
#
# Convention : Reuss Voigt Hill
#
# Bulk Modulus (GPa) = 56.57659 83.55773 70.06716
# Shear Modulus (GPa) = 22.10126 48.55816 35.32971
#
# Velocity S-wave (km/s) = 3.01251 4.46531 3.80882
# Velocity P-wave (km/s) = 5.94406 7.80358 6.93642
#
# Compressibility (1/GPa) = 0.01767515
#
# Stress axis : x y z
#
# Youngs Moduli (GPa) = 89.16157 122.08154 108.33099
#
# Poissons Ratio (x) = 0.50576 -0.00521
# Poissons Ratio (y) = 0.36938 0.15022
# Poissons Ratio (z) = -0.00429 0.16928
#
# Static dielectric constant tensor:
#      x y z
#    x 0.742560 0.000000 -0.779530 
#    y 0.000000 1.913400 0.000000 
#    z -0.779530 0.000000 1.466250 
# 
# From -- ./inp_files/836.got.cif
#   From: 2010.05.17/outbox.cif.g08.bks.cpg/sg3_1_cif.got.tgz:836.got - 2010.06.03 18:33:08.
