data_PCOD9112781
_publ_section_title
;
Structure prediction by ZEFSAII (Michael W. Deem and Ramdas Pophale) SiO2 
 PCOD9112781
Probable space group: P 2
;
_chemical_formula_sum "Si O2"
_cell_formula_units_Z 9
_cell_length_a 7.613167
_cell_length_b 11.363710
_cell_length_c 6.478743
_cell_angle_alpha 90.000000
_cell_angle_beta 42.562622
_cell_angle_gamma 90.000000
_cell_volume 379.120298
_symmetry_space_group_name_H-M "P 2"
_symmetry_group_IT_number 3
_symmetry_cell_setting 'monoclinic'
loop_
_space_group_symop_operation_xyz
x,y,z
-x,y,-z
loop_
_atom_site_type_symbol
_atom_site_label
_atom_site_fract_x
_atom_site_fract_y
_atom_site_fract_z
Si Si1 0.911357 0.321680 0.833220
Si Si2 0.585896 0.449905 0.664753
Si Si3 0.723426 0.717639 0.639851
Si Si4 0.715158 0.098367 0.153151
Si Si5 0.500000 0.875423 0.500000
O O1 0.185267 0.354742 0.496061
O O2 0.689383 0.418902 0.994323
O O3 0.775566 0.193855 0.924819
O O4 0.000000 0.321881 0.000000
O O5 0.500000 0.446840 0.500000
O O6 0.689280 0.579745 0.618690
O O7 0.693688 0.791657 0.455400
O O8 0.000000 0.739687 0.500000
O O9 0.500000 0.746563 0.000000
O O10 0.500000 0.151993 0.500000
O O11 0.605426 0.966334 0.233340
O O12 0.000000 0.078780 0.000000
#
# Coordination Sequence:
#
# PCOD9112781 Si02
#       5
#     2   2   2   2   1
#     4   9  16  30  59  97 120 160 218 261 328 403
#     4  10  19  36  61  93 128 164 213 269 329 395
#     4  12  27  44  67 100 137 183 229 276 335 398
#     4   9  18  33  62  97 124 166 226 263 331 398
#     4  10  26  44  70  98 140 176 234 276 328 404
#
# _framework density 23.739165
#
# number of rings (size 3 to 8) (size 9 to 14) (size 15 to 20)
#    0.667    1.333    1.111    4.667    3.111    0.000 
#    0.000    0.000    0.000    5.333    0.000    0.000 
#    0.000    0.000    0.000    0.000    0.000    0.000 
#
# Total GULP energy -50205.095117 kJ/mol
# GULP energy per Si atom -5578.343902 kJ/mol
# Density = 2.368513 g / cm^3
# Si number density = 23.739165 Si / 1000 Ang^3
#
#
#
# Elastic Constant Matrix: (Units=GPa)
#
#
# Indices 1 2 3 4 5 6 
#
# 1 98.0416 43.9031 41.8730 0.0000 -28.6367 0.0000
# 2 43.9031 168.1839 33.9869 0.0000 -13.0141 0.0000
# 3 41.8730 33.9869 149.6771 0.0000 -7.3006 0.0000
# 4 0.0000 0.0000 0.0000 -8.3705 0.0000 -2.1044
# 5 -28.6367 -13.0141 -7.3006 0.0000 48.5012 0.0000
# 6 0.0000 0.0000 0.0000 -2.1044 0.0000 15.2746
#
#
#
# Elastic Compliance Matrix: (Units=1/GPa)
#
#
# Indices 1 2 3 4 5 6 
#
# 1 0.015009 -0.002675 -0.003218 0.000000 0.007660 0.000000
# 2 -0.002675 0.006814 -0.000793 0.000000 0.000130 0.000000
# 3 -0.003218 -0.000793 0.007715 0.000000 -0.000951 0.000000
# 4 0.000000 0.000000 0.000000 -0.115468 0.000000 -0.015908
# 5 0.007660 0.000130 -0.000951 0.000000 0.025032 0.000000
# 6 0.000000 0.000000 0.000000 -0.015908 0.000000 0.063276
#
#
# Mechanical properties :
#
#
# Convention : Reuss Voigt Hill
#
# Bulk Modulus (GPa) = 61.85304 72.82542 67.33923
# Shear Modulus (GPa) = 236.52134 30.82370 133.67252
#
# Velocity S-wave (km/s) = 9.99248 3.60729 7.51206
# Velocity P-wave (km/s) = 12.61922 6.93498 10.18181
#
# Compressibility (1/GPa) = 0.01616735
#
# Stress axis : x y z
#
# Youngs Moduli (GPa) = 66.62516 146.74819 129.62003
#
# Poissons Ratio (x) = 0.39256 0.41711
# Poissons Ratio (y) = 0.17823 0.10274
# Poissons Ratio (z) = 0.21439 0.11632
#
# Static dielectric constant tensor:
#      x y z
#    x 1.990900 0.000000 0.113640 
#    y 0.000000 1.908090 0.000000 
#    z 0.113640 0.000000 1.927470 
# 
# From -- ./inp_files/5689.got.cif
#   From: 2010.05.17/outbox.cif.g08.bks.cpg/sg3_3_cif.got.tgz:5689.got - 2010.06.03 18:33:08.
