data_PCOD9112226
_publ_section_title
;
Structure prediction by ZEFSAII (Michael W. Deem and Ramdas Pophale) SiO2 
 PCOD9112226
Probable space group: P -1
;
_chemical_formula_sum "Si O2"
_cell_formula_units_Z 16
_cell_length_a 14.669529
_cell_length_b 8.256537
_cell_length_c 8.461471
_cell_angle_alpha 133.169028
_cell_angle_beta 68.446707
_cell_angle_gamma 102.384857
_cell_volume 694.169742
_symmetry_space_group_name_H-M "P -1"
_symmetry_group_IT_number 2
_symmetry_cell_setting 'triclinic'
loop_
_space_group_symop_operation_xyz
x,y,z
-x,-y,-z
loop_
_atom_site_type_symbol
_atom_site_label
_atom_site_fract_x
_atom_site_fract_y
_atom_site_fract_z
Si Si1 0.349779 0.685268 0.689451
Si Si2 0.526443 0.947593 0.268390
Si Si3 0.716171 0.669834 0.048677
Si Si4 0.328056 0.792826 0.140550
Si Si5 0.727792 0.722052 0.448389
Si Si6 0.154643 0.963424 0.902228
Si Si7 0.014619 0.902711 0.667335
Si Si8 0.946098 0.666517 0.266610
O O1 0.345212 0.420343 0.496344
O O2 0.441741 0.818536 0.666010
O O3 0.254059 0.812248 0.759293
O O4 0.340116 0.713075 0.901540
O O5 0.620418 0.773539 0.088936
O O6 0.433775 0.847153 0.177968
O O7 0.500000 0.000000 0.500000
O O8 0.702936 0.731692 0.284346
O O9 0.809539 0.794966 0.012357
O O10 0.719662 0.403069 0.862200
O O11 0.267580 0.026444 0.331875
O O12 0.834925 0.601866 0.315930
O O13 0.087801 0.001390 0.125388
O O14 0.087966 0.864716 0.741702
O O15 0.996435 0.699581 0.425961
O O16 0.056154 0.095520 0.660971
O O17 0.000000 0.500000 0.000000
#
# Coordination Sequence:
#
# PCOD9112226 Si02
#       8
#     2   2   2   2   2   2   2   2
#     4  10  24  42  66  93 135 170 220 276 321 405
#     4  11  22  44  66  99 134 169 218 277 335 394
#     4  10  22  42  67  97 135 171 220 279 325 400
#     4  11  23  43  69  93 131 180 221 267 336 402
#     4  11  22  43  65  96 129 178 219 270 331 397
#     4  10  20  45  65 101 135 171 231 280 334 392
#     4  10  22  40  69  93 135 174 221 284 332 398
#     4  11  23  42  66 100 132 179 221 276 340 406
#
# _framework density 23.049116999999999
#
# number of rings (size 3 to 8) (size 9 to 14) (size 15 to 20)
#    0.000    1.500    2.500    2.250    0.000    3.500 
#    9.000    8.125    0.000    0.000    0.000    0.000 
#    0.000    0.000    0.000    0.000    0.000    0.000 
#
# Total GULP energy -89520.049527 kJ/mol
# GULP energy per Si atom -5595.003095 kJ/mol
# Density = 2.299666 g / cm^3
# Si number density = 23.049117 Si / 1000 Ang^3
#
#
#
# Elastic Constant Matrix: (Units=GPa)
#
#
# Indices 1 2 3 4 5 6 
#
# 1 96.5093 -3.3666 22.3416 0.3343 23.4411 -2.9715
# 2 -3.3666 129.7013 8.5079 19.1329 1.7672 19.4265
# 3 22.3416 8.5079 72.3012 5.2493 6.6369 -4.7863
# 4 0.3343 19.1329 5.2493 28.2028 -8.2595 4.1052
# 5 23.4411 1.7672 6.6369 -8.2595 19.0251 -3.0621
# 6 -2.9715 19.4265 -4.7863 4.1052 -3.0621 17.6960
#
#
#
# Elastic Compliance Matrix: (Units=1/GPa)
#
#
# Indices 1 2 3 4 5 6 
#
# 1 0.016898 0.002606 -0.002951 -0.007996 -0.024007 -0.003121
# 2 0.002606 0.010948 -0.001431 -0.008176 -0.009154 -0.011656
# 3 -0.002951 -0.001431 0.015751 -0.003432 -0.002293 0.005735
# 4 -0.007996 -0.008176 -0.003432 0.051705 0.034361 0.000656
# 5 -0.024007 -0.009154 -0.002293 0.034361 0.101110 0.014923
# 6 -0.003121 -0.011656 0.005735 0.000656 0.014923 0.072763
#
#
# Mechanical properties :
#
#
# Convention : Reuss Voigt Hill
#
# Bulk Modulus (GPa) = 24.97173 39.27530 32.12351
# Shear Modulus (GPa) = 17.47791 31.05336 24.26564
#
# Velocity S-wave (km/s) = 2.75669 3.67450 3.24818
# Velocity P-wave (km/s) = 4.58150 5.92279 5.29479
#
# Compressibility (1/GPa) = 0.04004528
#
# Stress axis : x y z
#
# Youngs Moduli (GPa) = 59.17760 91.33958 63.48970
#
# Poissons Ratio (x) = -0.23805 0.18734
# Poissons Ratio (y) = -0.15423 0.09087
# Poissons Ratio (z) = 0.17462 0.13073
#
# Static dielectric constant tensor:
#      x y z
#    x 1.840430 -0.052760 -0.017710 
#    y -0.052760 1.759890 0.025330 
#    z -0.017710 0.025330 1.850440 
# 
# From -- ./inp_files/299818.got.cif
#   From: 2010.05.17/outbox.cif.g08.bks.cpg/sg2_150_cif.got.tgz:299818.got - 2010.06.03 11:33:40.
