data_PCOD9112051
_publ_section_title
;
Structure prediction by ZEFSAII (Michael W. Deem and Ramdas Pophale) SiO2 
 PCOD9112051
Probable space group: P -1
;
_chemical_formula_sum "Si O2"
_cell_formula_units_Z 16
_cell_length_a 13.074257
_cell_length_b 15.620756
_cell_length_c 8.616795
_cell_angle_alpha 120.935965
_cell_angle_beta 103.121083
_cell_angle_gamma 31.839851
_cell_volume 705.626139
_symmetry_space_group_name_H-M "P -1"
_symmetry_group_IT_number 2
_symmetry_cell_setting 'triclinic'
loop_
_space_group_symop_operation_xyz
x,y,z
-x,-y,-z
loop_
_atom_site_type_symbol
_atom_site_label
_atom_site_fract_x
_atom_site_fract_y
_atom_site_fract_z
Si Si1 0.946937 0.045391 0.343220
Si Si2 0.667786 0.396720 0.089244
Si Si3 0.317699 0.351058 0.232355
Si Si4 0.844806 0.650404 0.340654
Si Si5 0.791407 0.496692 0.344956
Si Si6 0.398237 0.707883 0.777642
Si Si7 0.870086 0.926161 0.749081
Si Si8 0.474105 0.938282 0.233416
O O1 0.330732 0.486249 0.778625
O O2 0.007040 0.105249 0.356872
O O3 0.000000 0.000000 0.500000
O O4 0.103643 0.835743 0.114198
O O5 0.608808 0.389146 0.221236
O O6 0.500000 0.500000 0.000000
O O7 0.350428 0.331594 0.410042
O O8 0.382209 0.409245 0.253478
O O9 0.068456 0.524798 0.280970
O O10 0.468342 0.148290 0.999359
O O11 0.890149 0.500899 0.276202
O O12 0.697180 0.770494 0.247351
O O13 0.688722 0.833819 0.585579
O O14 0.294341 0.779124 0.638994
O O15 0.972736 0.282316 0.303042
O O16 0.230925 0.915689 0.011385
O O17 0.665819 0.035061 0.711786
#
# Coordination Sequence:
#
# PCOD9112051 Si02
#       8
#     2   2   2   2   2   2   2   2
#     4  11  23  42  68 104 139 184 237 284 356 424
#     4  11  25  44  69 100 143 186 231 298 357 417
#     4  11  25  42  73 102 135 183 242 279 346 421
#     4  11  25  46  70 104 141 183 234 292 349 417
#     4  12  24  43  69 101 140 180 237 287 348 416
#     4  10  22  45  68  96 141 189 228 286 356 416
#     4  10  20  44  68  93 140 189 220 290 352 407
#     4  10  24  47  70  96 144 185 230 294 353 407
#
# _framework density 22.674897999999999
#
# number of rings (size 3 to 8) (size 9 to 14) (size 15 to 20)
#    0.000    1.250    3.750    1.500    7.000    2.000 
#    2.250    0.000    0.000    0.000    0.000    0.000 
#    0.000    0.000    0.000    0.000    0.000    0.000 
#
# Total GULP energy -89422.877420 kJ/mol
# GULP energy per Si atom -5588.929839 kJ/mol
# Density = 2.262329 g / cm^3
# Si number density = 22.674898 Si / 1000 Ang^3
#
#
#
# Elastic Constant Matrix: (Units=GPa)
#
#
# Indices 1 2 3 4 5 6 
#
# 1 168.6108 70.7910 48.7335 -5.8390 0.2840 -21.9679
# 2 70.7910 91.0492 29.7587 -9.4941 2.8780 -15.3680
# 3 48.7335 29.7587 115.4389 5.9077 15.9258 -1.5907
# 4 -5.8390 -9.4941 5.9077 26.1525 -3.7273 10.4915
# 5 0.2840 2.8780 15.9258 -3.7273 31.8836 -4.0695
# 6 -21.9679 -15.3680 -1.5907 10.4915 -4.0695 40.2120
#
#
#
# Elastic Compliance Matrix: (Units=1/GPa)
#
#
# Indices 1 2 3 4 5 6 
#
# 1 0.009744 -0.006263 -0.002736 -0.000433 0.002198 0.003157
# 2 -0.006263 0.017333 -0.002078 0.004629 0.000319 0.001945
# 3 -0.002736 -0.002078 0.011403 -0.004279 -0.006156 -0.001344
# 4 -0.000433 0.004629 -0.004279 0.045604 0.005785 -0.009950
# 5 0.002198 0.000319 -0.006156 0.005785 0.035470 0.003159
# 6 0.003157 0.001945 -0.001344 -0.009950 0.003159 0.030198
#
#
# Mechanical properties :
#
#
# Convention : Reuss Voigt Hill
#
# Bulk Modulus (GPa) = 61.25821 74.85170 68.05495
# Shear Modulus (GPa) = 28.19293 34.70398 31.44845
#
# Velocity S-wave (km/s) = 3.52995 3.91641 3.72819
# Velocity P-wave (km/s) = 6.60973 7.31666 6.97216
#
# Compressibility (1/GPa) = 0.01632434
#
# Stress axis : x y z
#
# Youngs Moduli (GPa) = 102.62748 57.69355 87.69472
#
# Poissons Ratio (x) = 0.36136 0.23997
# Poissons Ratio (y) = 0.64280 0.18224
# Poissons Ratio (z) = 0.28083 0.11989
#
# Static dielectric constant tensor:
#      x y z
#    x 1.859860 -0.017910 0.004660 
#    y -0.017910 1.858370 0.025070 
#    z 0.004660 0.025070 1.877160 
# 
# From -- ./inp_files/318088.got.cif
#   From: 2010.05.17/outbox.cif.g08.bks.cpg/sg2_160_cif.got.tgz:318088.got - 2010.06.03 11:33:40.
