data_PCOD9112356
_publ_section_title
;
Structure prediction by ZEFSAII (Michael W. Deem and Ramdas Pophale) SiO2 
 PCOD9112356
Probable space group: P -1
;
_chemical_formula_sum "Si O2"
_cell_formula_units_Z 12
_cell_length_a 6.738524
_cell_length_b 13.455329
_cell_length_c 9.750503
_cell_angle_alpha 46.834513
_cell_angle_beta 48.541644
_cell_angle_gamma 72.356293
_cell_volume 464.745127
_symmetry_space_group_name_H-M "P -1"
_symmetry_group_IT_number 2
_symmetry_cell_setting 'triclinic'
loop_
_space_group_symop_operation_xyz
x,y,z
-x,-y,-z
loop_
_atom_site_type_symbol
_atom_site_label
_atom_site_fract_x
_atom_site_fract_y
_atom_site_fract_z
Si Si1 0.293141 0.300562 0.527009
Si Si2 0.102655 0.184947 0.193436
Si Si3 0.710291 0.181806 0.930155
Si Si4 0.269800 0.782436 0.425316
Si Si5 0.720748 0.507170 0.270971
Si Si6 0.770637 0.977745 0.327460
O O1 0.430531 0.223131 0.653696
O O2 0.529364 0.447935 0.280346
O O3 0.990475 0.309372 0.696997
O O4 0.260444 0.188740 0.523374
O O5 0.884205 0.156319 0.444202
O O6 0.010056 0.065318 0.233790
O O7 0.414242 0.200762 0.084728
O O8 0.101116 0.335330 0.985391
O O9 0.696396 0.153955 0.800179
O O10 0.776776 0.058645 0.104346
O O11 0.124649 0.611348 0.650570
O O12 0.500000 0.500000 0.500000
O O13 0.500000 0.000000 0.500000
#
# Coordination Sequence:
#
# PCOD9112356 Si02
#       6
#     2   2   2   2   2   2
#     4  10  25  47  68 100 147 182 227 288 353 407
#     4  12  25  47  74 105 140 186 234 289 346 418
#     4  12  26  44  73 108 137 184 238 289 344 417
#     4  10  24  45  70 105 140 183 232 287 346 415
#     4  10  20  47  71 100 144 186 225 288 353 408
#     4  12  26  48  70 102 145 185 230 291 354 413
#
# _framework density 25.820605
#
# number of rings (size 3 to 8) (size 9 to 14) (size 15 to 20)
#    1.000    0.000    3.333    3.000    2.333    4.000 
#    3.000    0.833    0.000    0.000    0.000    0.000 
#    0.000    0.000    0.000    0.000    0.000    0.000 
#
# Total GULP energy -67077.617833 kJ/mol
# GULP energy per Si atom -5589.801486 kJ/mol
# Density = 2.576184 g / cm^3
# Si number density = 25.820605 Si / 1000 Ang^3
#
#
#
# Elastic Constant Matrix: (Units=GPa)
#
#
# Indices 1 2 3 4 5 6 
#
# 1 108.8395 29.6000 37.1564 18.0217 -2.6643 -4.6685
# 2 29.6000 119.7295 31.0841 -9.0596 5.4327 12.1897
# 3 37.1564 31.0841 92.0493 2.8037 14.0801 9.5664
# 4 18.0217 -9.0596 2.8037 54.7911 -3.0390 -13.4060
# 5 -2.6643 5.4327 14.0801 -3.0390 42.7909 8.0323
# 6 -4.6685 12.1897 9.5664 -13.4060 8.0323 40.2254
#
#
#
# Elastic Compliance Matrix: (Units=1/GPa)
#
#
# Indices 1 2 3 4 5 6 
#
# 1 0.012055 -0.002355 -0.004421 -0.003638 0.001953 0.001562
# 2 -0.002355 0.009875 -0.002211 0.002013 -0.000147 -0.002040
# 3 -0.004421 -0.002211 0.014330 -0.000510 -0.004264 -0.002570
# 4 -0.003638 0.002013 -0.000510 0.021323 0.000039 0.006188
# 5 0.001953 -0.000147 -0.004264 0.000039 0.025632 -0.003820
# 6 0.001562 -0.002040 -0.002570 0.006188 -0.003820 0.029095
#
#
# Mechanical properties :
#
#
# Convention : Reuss Voigt Hill
#
# Bulk Modulus (GPa) = 54.68841 57.36658 56.02749
# Shear Modulus (GPa) = 36.66249 42.41332 39.53790
#
# Velocity S-wave (km/s) = 3.77223 4.05732 3.91737
# Velocity P-wave (km/s) = 6.34028 6.64941 6.49668
#
# Compressibility (1/GPa) = 0.01828541
#
# Stress axis : x y z
#
# Youngs Moduli (GPa) = 82.95477 101.26459 69.78589
#
# Poissons Ratio (x) = 0.23852 0.30851
# Poissons Ratio (y) = 0.19539 0.15428
# Poissons Ratio (z) = 0.36673 0.22388
#
# Static dielectric constant tensor:
#      x y z
#    x 2.095460 0.033100 -0.032650 
#    y 0.033100 2.079130 -0.031190 
#    z -0.032650 -0.031190 2.056010 
# 
# From -- ./inp_files/132777.got.cif
#   From: 2010.05.17/outbox.cif.g08.bks.cpg/sg2_67_cif.got.tgz:132777.got - 2010.06.03 11:33:40.
