data_PCOD9112190
_publ_section_title
;
Structure prediction by ZEFSAII (Michael W. Deem and Ramdas Pophale) SiO2 
 PCOD9112190
Probable space group: P -1
;
_chemical_formula_sum "Si O2"
_cell_formula_units_Z 13
_cell_length_a 11.816017
_cell_length_b 7.867867
_cell_length_c 10.094460
_cell_angle_alpha 93.748955
_cell_angle_beta 51.961267
_cell_angle_gamma 128.982537
_cell_volume 488.512626
_symmetry_space_group_name_H-M "P -1"
_symmetry_group_IT_number 2
_symmetry_cell_setting 'triclinic'
loop_
_space_group_symop_operation_xyz
x,y,z
-x,-y,-z
loop_
_atom_site_type_symbol
_atom_site_label
_atom_site_fract_x
_atom_site_fract_y
_atom_site_fract_z
Si Si1 0.696470 0.315209 0.138377
Si Si2 0.096034 0.949488 0.587665
Si Si3 0.825367 0.295669 0.305816
Si Si4 0.515785 0.513344 0.330939
Si Si5 0.669933 0.765497 0.973979
Si Si6 0.500000 0.000000 0.000000
Si Si7 0.907724 0.265970 0.682276
O O1 0.667392 0.195878 0.293818
O O2 0.670220 0.490923 0.189453
O O3 0.938042 0.501348 0.922578
O O4 0.536422 0.116164 0.129458
O O5 0.199407 0.903163 0.610386
O O6 0.049312 0.809408 0.478770
O O7 0.896581 0.869755 0.794008
O O8 0.278067 0.249931 0.440248
O O9 0.875915 0.494281 0.382380
O O10 0.500000 0.500000 0.500000
O O11 0.606716 0.730996 0.171690
O O12 0.709443 0.989119 0.893859
O O13 0.500000 0.500000 0.000000
O O14 0.755073 0.295497 0.779861
#
# Coordination Sequence:
#
# PCOD9112190 Si02
#       7
#     2   2   2   2   2   1   2
#     4  10  21  46  69 105 145 193 245 300 372 438
#     4  12  25  48  73 109 149 199 253 309 371 454
#     4  10  24  42  75 107 150 189 246 308 378 440
#     4  12  28  46  72 109 151 194 252 310 377 451
#     4  12  26  48  75 102 152 200 252 312 370 452
#     4  10  20  44  74  96 146 184 246 306 356 432
#     4  11  24  44  76 110 144 197 247 313 372 447
#
# _framework density 26.611388999999999
#
# number of rings (size 3 to 8) (size 9 to 14) (size 15 to 20)
#    0.000    0.923    4.615    0.923    4.308    4.923 
#    2.769    0.000    0.000    0.000    0.000    0.000 
#    0.000    0.000    0.000    0.000    0.000    0.000 
#
# Total GULP energy -72627.579526 kJ/mol
# GULP energy per Si atom -5586.736887 kJ/mol
# Density = 2.655082 g / cm^3
# Si number density = 26.611389 Si / 1000 Ang^3
#
#
#
# Elastic Constant Matrix: (Units=GPa)
#
#
# Indices 1 2 3 4 5 6 
#
# 1 111.0191 22.5160 33.7947 3.8431 34.8851 11.4774
# 2 22.5160 72.6727 32.6238 15.0627 20.4491 3.3777
# 3 33.7947 32.6238 144.1029 8.1277 33.9088 3.2028
# 4 3.8431 15.0627 8.1277 42.5458 -7.3766 16.9144
# 5 34.8851 20.4491 33.9088 -7.3766 47.5236 0.6903
# 6 11.4774 3.3777 3.2028 16.9144 0.6903 35.3679
#
#
#
# Elastic Compliance Matrix: (Units=1/GPa)
#
#
# Indices 1 2 3 4 5 6 
#
# 1 0.012365 -0.000887 -0.000619 -0.000808 -0.008330 -0.003323
# 2 -0.000887 0.018594 -0.001836 -0.008607 -0.007418 0.002939
# 3 -0.000619 -0.001836 0.008895 -0.002237 -0.005460 0.000747
# 4 -0.000808 -0.008607 -0.002237 0.035368 0.011613 -0.015854
# 5 -0.008330 -0.007418 -0.005460 0.011613 0.036081 -0.002352
# 6 -0.003323 0.002939 0.000747 -0.015854 -0.002352 0.036632
#
#
# Mechanical properties :
#
#
# Convention : Reuss Voigt Hill
#
# Bulk Modulus (GPa) = 30.14860 56.18484 43.16672
# Shear Modulus (GPa) = 30.17932 41.01148 35.59540
#
# Velocity S-wave (km/s) = 3.37126 3.92998 3.66129
# Velocity P-wave (km/s) = 5.14856 6.46157 5.84207
#
# Compressibility (1/GPa) = 0.03316904
#
# Stress axis : x y z
#
# Youngs Moduli (GPa) = 80.87400 53.78069 112.42653
#
# Poissons Ratio (x) = 0.04771 0.06964
# Poissons Ratio (y) = 0.07175 0.20639
# Poissons Ratio (z) = 0.05010 0.09873
#
# Static dielectric constant tensor:
#      x y z
#    x -0.372960 0.441510 0.760700 
#    y 0.441510 1.998770 -0.142740 
#    z 0.760700 -0.142740 1.967030 
# 
# From -- ./inp_files/180999.got.cif
#   From: 2010.05.17/outbox.cif.g08.bks.cpg/sg2_91_cif.got.tgz:180999.got - 2010.06.03 11:33:40.
