data_PCOD9112269
_publ_section_title
;
Structure prediction by ZEFSAII (Michael W. Deem and Ramdas Pophale) SiO2 
 PCOD9112269
Probable space group: P -1
;
_chemical_formula_sum "Si O2"
_cell_formula_units_Z 12
_cell_length_a 9.268071
_cell_length_b 18.570199
_cell_length_c 5.783774
_cell_angle_alpha 109.612801
_cell_angle_beta 55.760093
_cell_angle_gamma 144.497985
_cell_volume 462.105378
_symmetry_space_group_name_H-M "P -1"
_symmetry_group_IT_number 2
_symmetry_cell_setting 'triclinic'
loop_
_space_group_symop_operation_xyz
x,y,z
-x,-y,-z
loop_
_atom_site_type_symbol
_atom_site_label
_atom_site_fract_x
_atom_site_fract_y
_atom_site_fract_z
Si Si1 0.303731 0.066313 0.724145
Si Si2 0.156963 0.367057 0.925066
Si Si3 0.776168 0.090027 0.021137
Si Si4 0.684172 0.452466 0.642513
Si Si5 0.226550 0.677599 0.137170
Si Si6 0.656383 0.795583 0.489274
O O1 0.577396 0.198619 0.751908
O O2 0.340642 0.114214 0.485310
O O3 0.276468 0.972870 0.756983
O O4 0.000000 0.000000 0.000000
O O5 0.242195 0.466778 0.123238
O O6 0.930330 0.225163 0.082190
O O7 0.451694 0.422316 0.672661
O O8 0.982197 0.340943 0.844053
O O9 0.023817 0.127773 0.702745
O O10 0.500000 0.000000 0.000000
O O11 0.503362 0.310760 0.681223
O O12 0.989160 0.543304 0.338753
O O13 0.455317 0.714712 0.806607
#
# Coordination Sequence:
#
# PCOD9112269 Si02
#       6
#     2   2   2   2   2   2
#     4  10  23  42  66  99 137 172 225 279 334 397
#     4  10  22  42  70 100 133 177 225 283 328 400
#     4  10  20  45  72  97 130 180 232 273 331 401
#     4  10  23  43  66 101 139 173 229 272 340 402
#     4  12  22  40  66  99 137 180 219 276 341 399
#     4  10  24  42  69 101 137 174 222 284 337 398
#
# _framework density 25.968105000000001
#
# number of rings (size 3 to 8) (size 9 to 14) (size 15 to 20)
#    0.000    1.667    1.667    2.000    0.000    6.667 
#    3.000   13.333    0.000    0.000    0.000    0.000 
#    0.000    0.000    0.000    0.000    0.000    0.000 
#
# Total GULP energy -67155.360382 kJ/mol
# GULP energy per Si atom -5596.280032 kJ/mol
# Density = 2.590900 g / cm^3
# Si number density = 25.968105 Si / 1000 Ang^3
#
#
#
# Elastic Constant Matrix: (Units=GPa)
#
#
# Indices 1 2 3 4 5 6 
#
# 1 150.5673 46.8220 42.8870 -19.9396 -23.2497 13.6031
# 2 46.8220 178.1943 29.9378 -15.9973 -1.2715 1.4822
# 3 42.8870 29.9378 115.2726 -22.3214 -38.5581 0.5373
# 4 -19.9396 -15.9973 -22.3214 36.7256 -0.8729 -0.7811
# 5 -23.2497 -1.2715 -38.5581 -0.8729 41.6504 -17.7740
# 6 13.6031 1.4822 0.5373 -0.7811 -17.7740 57.2267
#
#
#
# Elastic Compliance Matrix: (Units=1/GPa)
#
#
# Indices 1 2 3 4 5 6 
#
# 1 0.008514 -0.001760 -0.000806 0.003437 0.003694 -0.000777
# 2 -0.001760 0.006417 -0.001750 0.000702 -0.002620 -0.000536
# 3 -0.000806 -0.001750 0.017513 0.010009 0.018454 0.005941
# 4 0.003437 0.000702 0.010009 0.035888 0.013570 0.003775
# 5 0.003694 -0.002620 0.018454 0.013570 0.049592 0.014605
# 6 -0.000777 -0.000536 0.005941 0.003775 0.014605 0.022205
#
#
# Mechanical properties :
#
#
# Convention : Reuss Voigt Hill
#
# Bulk Modulus (GPa) = 41.99492 75.92530 58.96011
# Shear Modulus (GPa) = 31.90863 48.74636 40.32750
#
# Velocity S-wave (km/s) = 3.50917 4.33732 3.94504
# Velocity P-wave (km/s) = 5.71191 7.37459 6.59585
#
# Compressibility (1/GPa) = 0.02381240
#
# Stress axis : x y z
#
# Youngs Moduli (GPa) = 117.45054 155.83166 57.10172
#
# Poissons Ratio (x) = 0.27433 0.04601
# Poissons Ratio (y) = 0.20676 0.09991
# Poissons Ratio (z) = 0.09463 0.27265
#
# Static dielectric constant tensor:
#      x y z
#    x 2.087630 -0.035160 0.077570 
#    y -0.035160 1.990700 0.005490 
#    z 0.077570 0.005490 2.159820 
# 
# From -- ./inp_files/48185.got.cif
#   From: 2010.05.17/outbox.cif.g08.bks.cpg/sg2_25_cif.got.tgz:48185.got - 2010.06.03 11:33:40.
