data_PCOD9112869
_publ_section_title
;
Structure prediction by ZEFSAII (Michael W. Deem and Ramdas Pophale) SiO2 
 PCOD9112869
Probable space group: P 2
;
_chemical_formula_sum "Si O2"
_cell_formula_units_Z 14
_cell_length_a 17.777274
_cell_length_b 4.814320
_cell_length_c 6.005399
_cell_angle_alpha 90.000000
_cell_angle_beta 85.462710
_cell_angle_gamma 90.000000
_cell_volume 512.364223
_symmetry_space_group_name_H-M "P 2"
_symmetry_group_IT_number 3
_symmetry_cell_setting 'monoclinic'
loop_
_space_group_symop_operation_xyz
x,y,z
-x,y,-z
loop_
_atom_site_type_symbol
_atom_site_label
_atom_site_fract_x
_atom_site_fract_y
_atom_site_fract_z
Si Si1 0.360239 0.048480 0.759722
Si Si2 0.930133 0.810393 0.400081
Si Si3 0.140854 0.425480 0.196797
Si Si4 0.000000 0.418558 0.000000
Si Si5 0.285235 0.427011 0.404190
Si Si6 0.429548 0.425924 0.129650
Si Si7 0.500000 0.039692 0.500000
Si Si8 0.209540 0.804113 0.794181
O O1 0.324689 0.214277 0.561455
O O2 0.429809 0.879699 0.630315
O O3 0.284772 0.926660 0.881673
O O4 0.396892 0.236660 0.939908
O O5 0.895043 0.614423 0.600116
O O6 0.965192 0.615074 0.200139
O O7 0.860200 0.971895 0.302368
O O8 0.000000 0.967220 0.500000
O O9 0.216849 0.292286 0.278557
O O10 0.070369 0.263042 0.101274
O O11 0.173157 0.613916 0.990695
O O12 0.353754 0.560938 0.246580
O O13 0.245511 0.640636 0.578623
O O14 0.465109 0.236121 0.316363
O O15 0.500000 0.587829 0.000000
#
# Coordination Sequence:
#
# PCOD9112869 Si02
#       8
#     2   2   2   1   2   2   1   2
#     4  10  20  36  56  78 108 142 177 224 272 319
#     4   8  15  29  51  77 107 142 178 217 263 315
#     4   9  17  30  51  81 110 140 181 221 264 318
#     4   8  14  28  50  78 108 142 180 218 262 314
#     4  10  20  35  55  81 110 141 182 225 269 319
#     4   9  18  35  58  77 103 144 181 219 271 323
#     4   8  18  36  56  76 102 142 182 216 268 324
#     4  10  20  33  54  83 109 140 182 222 267 320
#
# _framework density 27.324310000000001
#
# number of rings (size 3 to 8) (size 9 to 14) (size 15 to 20)
#    0.000    2.857    0.000    0.857    0.000    4.571 
#    0.000    5.714    0.000   18.857    0.000   44.000 
#    0.000    0.000    0.000    0.000    0.000    0.000 
#
# Total GULP energy -78185.937930 kJ/mol
# GULP energy per Si atom -5584.709852 kJ/mol
# Density = 2.726212 g / cm^3
# Si number density = 27.324310 Si / 1000 Ang^3
#
#
#
# Elastic Constant Matrix: (Units=GPa)
#
#
# Indices 1 2 3 4 5 6 
#
# 1 233.5686 38.7627 115.8861 0.0000 16.5103 0.0000
# 2 38.7627 29.1528 35.8479 0.0000 -1.2079 0.0000
# 3 115.8861 35.8479 161.1207 0.0000 -10.8198 0.0000
# 4 0.0000 0.0000 0.0000 132.6162 0.0000 13.1423
# 5 16.5103 -1.2079 -10.8198 0.0000 94.0098 0.0000
# 6 0.0000 0.0000 0.0000 13.1423 0.0000 30.7285
#
#
#
# Elastic Compliance Matrix: (Units=1/GPa)
#
#
# Indices 1 2 3 4 5 6 
#
# 1 0.007336 -0.004391 -0.004424 0.000000 -0.001854 0.000000
# 2 -0.004391 0.049884 -0.007907 0.000000 0.000502 0.000000
# 3 -0.004424 -0.007907 0.011280 0.000000 0.001974 0.000000
# 4 0.000000 0.000000 0.000000 0.007874 0.000000 -0.003368
# 5 -0.001854 0.000502 0.001974 0.000000 0.011196 0.000000
# 6 0.000000 0.000000 0.000000 -0.003368 0.000000 0.033983
#
#
# Mechanical properties :
#
#
# Convention : Reuss Voigt Hill
#
# Bulk Modulus (GPa) = 28.52525 89.42616 58.97570
# Shear Modulus (GPa) = 29.99682 67.02726 48.51204
#
# Velocity S-wave (km/s) = 3.31691 4.95818 4.21814
# Velocity P-wave (km/s) = 5.01312 8.09795 6.73454
#
# Compressibility (1/GPa) = 0.03505666
#
# Stress axis : x y z
#
# Youngs Moduli (GPa) = 136.30940 20.04644 88.65060
#
# Poissons Ratio (x) = 0.08803 0.39220
# Poissons Ratio (y) = 0.59857 0.70093
# Poissons Ratio (z) = 0.60304 0.15850
#
# Static dielectric constant tensor:
#      x y z
#    x 2.296550 0.000000 0.001010 
#    y 0.000000 2.269120 0.000000 
#    z 0.001010 0.000000 2.090560 
# 
# From -- ./inp_files/3029.got.cif
#   From: 2010.05.17/outbox.cif.g08.bks.cpg/sg3_2_cif.got.tgz:3029.got - 2010.06.03 18:33:08.
