data_PCOD9112060
_publ_section_title
;
Structure prediction by ZEFSAII (Michael W. Deem and Ramdas Pophale) SiO2 
 PCOD9112060
Probable space group: P -1
;
_chemical_formula_sum "Si O2"
_cell_formula_units_Z 16
_cell_length_a 13.016701
_cell_length_b 19.655525
_cell_length_c 22.992361
_cell_angle_alpha 161.846146
_cell_angle_beta 27.642754
_cell_angle_gamma 153.088348
_cell_volume 797.994523
_symmetry_space_group_name_H-M "P -1"
_symmetry_group_IT_number 2
_symmetry_cell_setting 'triclinic'
loop_
_space_group_symop_operation_xyz
x,y,z
-x,-y,-z
loop_
_atom_site_type_symbol
_atom_site_label
_atom_site_fract_x
_atom_site_fract_y
_atom_site_fract_z
Si Si1 0.506452 0.898213 0.064928
Si Si2 0.867708 0.603597 0.380192
Si Si3 0.550587 0.386791 0.473667
Si Si4 0.111692 0.914112 0.186044
Si Si5 0.158533 0.153906 0.236660
Si Si6 0.390973 0.486920 0.877920
Si Si7 0.613498 0.101363 0.462930
Si Si8 0.613679 0.351627 0.862137
O O1 0.323644 0.886924 0.095199
O O2 0.516080 0.116315 0.278338
O O3 0.750396 0.925183 0.932094
O O4 0.422750 0.662456 0.951796
O O5 0.708607 0.452378 0.388773
O O6 0.697667 0.583448 0.394050
O O7 0.103510 0.551892 0.208239
O O8 0.939205 0.867482 0.581919
O O9 0.682657 0.578942 0.610733
O O10 0.876526 0.692228 0.128311
O O11 0.181482 0.994493 0.150092
O O12 0.888300 0.136516 0.355762
O O13 0.559096 0.333718 0.665887
O O14 0.447784 0.627389 0.023580
O O15 0.500000 0.000000 0.500000
O O16 0.487468 0.908949 0.322228
O O17 0.500000 0.500000 0.000000
#
# Coordination Sequence:
#
# PCOD9112060 Si02
#       8
#     2   2   2   2   2   2   2   2
#     4  11  26  41  63 101 137 171 210 268 335 390
#     4   9  19  39  66  97 124 164 217 277 310 368
#     4   9  21  39  63  95 133 159 211 272 323 376
#     4  10  20  44  68  96 132 171 220 273 312 387
#     4  11  23  41  73  93 125 179 219 268 321 381
#     4  12  26  42  65  98 137 171 215 270 328 382
#     4  12  23  45  67  98 129 165 229 275 309 380
#     4  12  24  38  70  97 121 173 222 264 319 380
#
# _framework density 20.050263000000001
#
# number of rings (size 3 to 8) (size 9 to 14) (size 15 to 20)
#    0.000    1.250    3.750    2.250    5.250    1.500 
#    0.000    2.500    0.000    0.000    0.000    0.000 
#    0.000    0.000    0.000    0.000    0.000    0.000 
#
# Total GULP energy -89477.309620 kJ/mol
# GULP energy per Si atom -5592.331851 kJ/mol
# Density = 2.000463 g / cm^3
# Si number density = 20.050263 Si / 1000 Ang^3
#
#
#
# Elastic Constant Matrix: (Units=GPa)
#
#
# Indices 1 2 3 4 5 6 
#
# 1 53.3410 41.7843 38.4191 2.2261 -5.8565 9.9763
# 2 41.7843 80.1419 42.2703 4.0003 -13.6476 5.2117
# 3 38.4191 42.2703 89.7876 0.2386 -17.1450 0.5968
# 4 2.2261 4.0003 0.2386 37.1960 3.2648 -8.2117
# 5 -5.8565 -13.6476 -17.1450 3.2648 33.5197 5.4632
# 6 9.9763 5.2117 0.5968 -8.2117 5.4632 33.1224
#
#
#
# Elastic Compliance Matrix: (Units=1/GPa)
#
#
# Indices 1 2 3 4 5 6 
#
# 1 0.039356 -0.014774 -0.010312 -0.002581 -0.002605 -0.009554
# 2 -0.014774 0.023086 -0.003523 -0.002160 0.005313 -0.000531
# 3 -0.010312 -0.003523 0.018252 0.000976 0.005572 0.002654
# 4 -0.002581 -0.002160 0.000976 0.029791 -0.005257 0.009352
# 5 -0.002605 0.005313 0.005572 -0.005257 0.036111 -0.007411
# 6 -0.009554 -0.000531 0.002654 0.009352 -0.007411 0.036645
#
#
# Mechanical properties :
#
#
# Convention : Reuss Voigt Hill
#
# Bulk Modulus (GPa) = 42.59584 52.02419 47.31002
# Shear Modulus (GPa) = 20.13818 27.48742 23.81280
#
# Velocity S-wave (km/s) = 3.17264 3.70662 3.44998
# Velocity P-wave (km/s) = 5.89165 6.65747 6.28623
#
# Compressibility (1/GPa) = 0.02347647
#
# Stress axis : x y z
#
# Youngs Moduli (GPa) = 25.40913 43.31620 54.78875
#
# Poissons Ratio (x) = 0.63996 0.56496
# Poissons Ratio (y) = 0.37540 0.19302
# Poissons Ratio (z) = 0.26201 0.15260
#
# Static dielectric constant tensor:
#      x y z
#    x 1.693420 0.022500 -0.005350 
#    y 0.022500 1.703030 0.014200 
#    z -0.005350 0.014200 1.734890 
# 
# From -- ./inp_files/273652.got.cif
#   From: 2010.05.17/outbox.cif.g08.bks.cpg/sg2_137_cif.got.tgz:273652.got - 2010.06.03 11:33:40.
