data_PCOD9112206
_publ_section_title
;
Structure prediction by ZEFSAII (Michael W. Deem and Ramdas Pophale) SiO2 
 PCOD9112206
Probable space group: P -1
;
_chemical_formula_sum "Si O2"
_cell_formula_units_Z 14
_cell_length_a 13.957517
_cell_length_b 7.343176
_cell_length_c 9.318433
_cell_angle_alpha 105.710824
_cell_angle_beta 71.554347
_cell_angle_gamma 54.557425
_cell_volume 597.151798
_symmetry_space_group_name_H-M "P -1"
_symmetry_group_IT_number 2
_symmetry_cell_setting 'triclinic'
loop_
_space_group_symop_operation_xyz
x,y,z
-x,-y,-z
loop_
_atom_site_type_symbol
_atom_site_label
_atom_site_fract_x
_atom_site_fract_y
_atom_site_fract_z
Si Si1 0.855201 0.147135 0.011866
Si Si2 0.841544 0.608329 0.598441
Si Si3 0.684891 0.612436 0.425739
Si Si4 0.739655 0.564080 0.931142
Si Si5 0.596459 0.149522 0.471629
Si Si6 0.552849 0.249677 0.831688
Si Si7 0.842824 0.789414 0.081178
O O1 0.740627 0.417553 0.222628
O O2 0.847126 0.933338 0.981575
O O3 0.833866 0.263231 0.890615
O O4 0.000000 0.000000 0.000000
O O5 0.805847 0.505568 0.464544
O O6 0.806160 0.537902 0.743287
O O7 0.000000 0.500000 0.500000
O O8 0.713629 0.943354 0.719542
O O9 0.535157 0.699032 0.549155
O O10 0.636647 0.884176 0.451171
O O11 0.569058 0.739617 0.062928
O O12 0.760163 0.717138 0.054419
O O13 0.550267 0.308107 0.676599
O O14 0.745918 0.019464 0.300789
O O15 0.500000 0.500000 0.000000
O O16 0.000000 0.500000 0.000000
#
# Coordination Sequence:
#
# PCOD9112206 Si02
#       7
#     2   2   2   2   2   2   2
#     4  12  25  42  75 110 145 199 260 317 383 462
#     4  11  28  46  78 110 162 211 252 327 401 452
#     4  10  21  45  71 106 143 194 257 308 376 456
#     4  12  26  49  72 113 158 203 255 324 388 463
#     4  10  20  44  76 104 149 196 256 318 376 449
#     4  11  26  48  79 115 158 207 263 316 397 473
#     4  12  25  43  79 111 153 198 254 323 387 447
#
# _framework density 23.444624000000001
#
# number of rings (size 3 to 8) (size 9 to 14) (size 15 to 20)
#    0.000    0.857    4.286    2.143    8.000    1.714 
#    0.000    1.429    0.000    0.000    0.000    0.000 
#    0.000    0.000    0.000    0.000    0.000    0.000 
#
# Total GULP energy -78197.104891 kJ/mol
# GULP energy per Si atom -5585.507492 kJ/mol
# Density = 2.339126 g / cm^3
# Si number density = 23.444624 Si / 1000 Ang^3
#
#
#
# Elastic Constant Matrix: (Units=GPa)
#
#
# Indices 1 2 3 4 5 6 
#
# 1 135.6600 53.8584 57.7541 2.7093 -13.8002 -17.0214
# 2 53.8584 121.3861 45.2824 -13.4552 -7.7193 -4.4119
# 3 57.7541 45.2824 93.1664 -21.9555 -12.9217 -15.4188
# 4 2.7093 -13.4552 -21.9555 38.9362 0.7525 -4.4039
# 5 -13.8002 -7.7193 -12.9217 0.7525 38.5610 11.7000
# 6 -17.0214 -4.4119 -15.4188 -4.4039 11.7000 44.5730
#
#
#
# Elastic Compliance Matrix: (Units=1/GPa)
#
#
# Indices 1 2 3 4 5 6 
#
# 1 0.011935 -0.003272 -0.006833 -0.005722 0.001133 0.001008
# 2 -0.003272 0.011012 -0.002915 0.002267 0.000325 -0.001029
# 3 -0.006833 -0.002915 0.020099 0.011284 0.002083 0.004623
# 4 -0.005722 0.002267 0.011284 0.033830 -0.000083 0.005307
# 5 0.001133 0.000325 0.002083 -0.000083 0.029060 -0.006451
# 6 0.001008 -0.001029 0.004623 0.005307 -0.006451 0.026535
#
#
# Mechanical properties :
#
#
# Convention : Reuss Voigt Hill
#
# Bulk Modulus (GPa) = 58.80123 73.77802 66.28962
# Shear Modulus (GPa) = 30.45431 37.30188 33.87809
#
# Velocity S-wave (km/s) = 3.60806 3.99314 3.80547
# Velocity P-wave (km/s) = 6.51865 7.26620 6.90255
#
# Compressibility (1/GPa) = 0.01700645
#
# Stress axis : x y z
#
# Youngs Moduli (GPa) = 83.78427 90.81046 49.75300
#
# Poissons Ratio (x) = 0.29716 0.33996
# Poissons Ratio (y) = 0.27417 0.14502
# Poissons Ratio (z) = 0.57250 0.26470
#
# Static dielectric constant tensor:
#      x y z
#    x 1.894660 -0.039970 -0.012000 
#    y -0.039970 2.081670 0.091700 
#    z -0.012000 0.091700 2.009230 
# 
# From -- ./inp_files/295754.got.cif
#   From: 2010.05.17/outbox.cif.g08.bks.cpg/sg2_148_cif.got.tgz:295754.got - 2010.06.03 11:33:40.
