data_PCOD9112606
_publ_section_title
;
Structure prediction by ZEFSAII (Michael W. Deem and Ramdas Pophale) SiO2 
 PCOD9112606
Probable space group: P 2
;
_chemical_formula_sum "Si O2"
_cell_formula_units_Z 14
_cell_length_a 11.462192
_cell_length_b 6.127776
_cell_length_c 13.996380
_cell_angle_alpha 90.000000
_cell_angle_beta 43.971071
_cell_angle_gamma 90.000000
_cell_volume 682.543562
_symmetry_space_group_name_H-M "P 2"
_symmetry_group_IT_number 3
_symmetry_cell_setting 'monoclinic'
loop_
_space_group_symop_operation_xyz
x,y,z
-x,y,-z
loop_
_atom_site_type_symbol
_atom_site_label
_atom_site_fract_x
_atom_site_fract_y
_atom_site_fract_z
Si Si1 0.000000 0.052120 0.500000
Si Si2 0.845971 0.842207 0.940559
Si Si3 0.296016 0.458348 0.845811
Si Si4 0.240066 0.372772 0.283463
Si Si5 0.614687 0.700092 0.652217
Si Si6 0.478129 0.084451 0.860560
Si Si7 0.977987 0.698389 0.350910
Si Si8 0.000000 0.176832 0.000000
O O1 0.846822 0.219541 0.585897
O O2 0.027617 0.892697 0.394980
O O3 0.969372 0.770932 0.784543
O O4 0.797387 0.637816 0.034935
O O5 0.931642 0.024034 0.956274
O O6 0.667513 0.936536 0.007174
O O7 0.450176 0.584299 0.705283
O O8 0.381970 0.279601 0.863420
O O9 0.152664 0.329140 0.873762
O O10 0.331534 0.567967 0.284075
O O11 0.379808 0.206947 0.160426
O O12 0.092255 0.485237 0.309110
O O13 0.778565 0.683298 0.488832
O O14 0.559670 0.932530 0.728712
#
# Coordination Sequence:
#
# PCOD9112606 Si02
#       8
#     1   2   2   2   2   2   2   1
#     4  12  20  36  56  86 128 176 204 234 306 370
#     4  10  23  40  64  93 124 157 215 265 315 366
#     4   9  20  38  66  85 113 161 206 256 322 373
#     4  11  19  35  58  82 128 177 207 237 299 371
#     4  10  18  36  59  90 121 166 205 254 304 374
#     4   9  19  38  58  84 121 170 206 250 306 368
#     4  12  22  36  60  95 128 167 208 256 303 369
#     4  10  20  44  66  88 114 166 208 272 322 368
#
# _framework density 20.511509
#
# number of rings (size 3 to 8) (size 9 to 14) (size 15 to 20)
#    0.000    1.714    4.286    0.429    0.000    2.286 
#    0.000   17.143    0.000   20.571    0.000    0.000 
#    0.000    0.000    0.000    0.000    0.000    0.000 
#
# Total GULP energy -77998.875489 kJ/mol
# GULP energy per Si atom -5571.348249 kJ/mol
# Density = 2.046482 g / cm^3
# Si number density = 20.511509 Si / 1000 Ang^3
#
#
#
# Elastic Constant Matrix: (Units=GPa)
#
#
# Indices 1 2 3 4 5 6 
#
# 1 58.1777 46.6054 56.2060 0.0000 -25.4013 0.0000
# 2 46.6054 121.1010 54.6610 0.0000 -22.0826 0.0000
# 3 56.2060 54.6610 147.5252 0.0000 -26.0925 0.0000
# 4 0.0000 0.0000 0.0000 25.3818 0.0000 -26.8648
# 5 -25.4013 -22.0826 -26.0925 0.0000 24.8801 0.0000
# 6 0.0000 0.0000 0.0000 -26.8648 0.0000 38.1370
#
#
#
# Elastic Compliance Matrix: (Units=1/GPa)
#
#
# Indices 1 2 3 4 5 6 
#
# 1 0.045215 -0.007908 -0.009052 0.000000 0.029650 0.000000
# 2 -0.007908 0.012108 -0.001228 0.000000 0.001384 0.000000
# 3 -0.009052 -0.001228 0.010872 0.000000 0.001069 0.000000
# 4 0.000000 0.000000 0.000000 0.154859 0.000000 0.109087
# 5 0.029650 0.001384 0.001069 0.000000 0.072813 0.000000
# 6 0.000000 0.000000 0.000000 0.109087 0.000000 0.103065
#
#
# Mechanical properties :
#
#
# Convention : Reuss Voigt Hill
#
# Bulk Modulus (GPa) = 31.43032 71.30540 51.36786
# Shear Modulus (GPa) = 11.21288 28.96854 20.09071
#
# Velocity S-wave (km/s) = 2.34062 3.76214 3.13307
# Velocity P-wave (km/s) = 4.76038 7.32876 6.17948
#
# Compressibility (1/GPa) = 0.03181641
#
# Stress axis : x y z
#
# Youngs Moduli (GPa) = 22.11652 82.59029 91.98266
#
# Poissons Ratio (x) = 0.65316 0.83266
# Poissons Ratio (y) = 0.17491 0.11299
# Poissons Ratio (z) = 0.20021 0.10145
#
# Static dielectric constant tensor:
#      x y z
#    x 1.775170 0.000000 -0.053020 
#    y 0.000000 1.749100 0.000000 
#    z -0.053020 0.000000 1.782130 
# 
# From -- ./inp_files/8100.got.cif
#   From: 2010.05.17/outbox.cif.g08.bks.cpg/sg3_5_cif.got.tgz:8100.got - 2010.06.03 18:33:08.
