data_PCOD9112720
_publ_section_title
;
Structure prediction by ZEFSAII (Michael W. Deem and Ramdas Pophale) SiO2 
 PCOD9112720
Probable space group: P 2
;
_chemical_formula_sum "Si O2"
_cell_formula_units_Z 12
_cell_length_a 11.500986
_cell_length_b 6.953650
_cell_length_c 20.093575
_cell_angle_alpha 90.000000
_cell_angle_beta 160.034200
_cell_angle_gamma 90.000000
_cell_volume 548.711300
_symmetry_space_group_name_H-M "P 2"
_symmetry_group_IT_number 3
_symmetry_cell_setting 'monoclinic'
loop_
_space_group_symop_operation_xyz
x,y,z
-x,y,-z
loop_
_atom_site_type_symbol
_atom_site_label
_atom_site_fract_x
_atom_site_fract_y
_atom_site_fract_z
Si Si1 0.611544 0.288540 0.719165
Si Si2 0.264218 0.981066 0.815826
Si Si3 0.835527 0.315728 0.636457
Si Si4 0.393882 0.537483 0.718059
Si Si5 0.780638 0.930132 0.441151
Si Si6 0.279965 0.339404 0.989758
O O1 0.303659 0.382872 0.509477
O O2 0.619362 0.408591 0.790444
O O3 0.486197 0.076383 0.671083
O O4 0.951746 0.284498 0.858343
O O5 0.487653 0.151854 0.900414
O O6 0.978276 0.101846 0.701930
O O7 0.500000 0.887850 0.000000
O O8 0.053741 0.871916 0.645415
O O9 0.500000 0.313164 0.500000
O O10 0.127929 0.413796 0.837654
O O11 0.398322 0.752261 0.691377
O O12 0.520228 0.497056 0.860328
O O13 0.000000 0.478367 0.500000
O O14 0.000000 0.027611 0.500000
#
# Coordination Sequence:
#
# PCOD9112720 Si02
#       6
#     2   2   2   2   2   2
#     4  10  19  37  61  82 112 146 184 234 284 334
#     4   9  17  33  58  86 112 145 191 233 280 338
#     4   8  16  31  58  87 108 141 185 229 282 335
#     4  11  22  36  54  80 114 152 190 228 275 333
#     4  10  21  37  56  81 114 150 188 233 282 332
#     4  10  19  34  59  86 111 148 187 229 284 336
#
# _framework density 21.869423000000001
#
# number of rings (size 3 to 8) (size 9 to 14) (size 15 to 20)
#    0.000    2.333    0.000    4.000    0.000    0.000 
#    0.000   13.333    0.000   28.000    0.000    0.000 
#    0.000    0.000    0.000    0.000    0.000    0.000 
#
# Total GULP energy -66889.387042 kJ/mol
# GULP energy per Si atom -5574.115587 kJ/mol
# Density = 2.181965 g / cm^3
# Si number density = 21.869423 Si / 1000 Ang^3
#
#
#
# Elastic Constant Matrix: (Units=GPa)
#
#
# Indices 1 2 3 4 5 6 
#
# 1 54.3472 23.1312 31.4458 0.0000 -27.5406 0.0000
# 2 23.1312 71.1221 37.9766 0.0000 -4.4626 0.0000
# 3 31.4458 37.9766 114.2539 0.0000 -32.0664 0.0000
# 4 0.0000 0.0000 0.0000 50.9353 0.0000 30.4483
# 5 -27.5406 -4.4626 -32.0664 0.0000 53.2586 0.0000
# 6 0.0000 0.0000 0.0000 30.4483 0.0000 53.2969
#
#
#
# Elastic Compliance Matrix: (Units=1/GPa)
#
#
# Indices 1 2 3 4 5 6 
#
# 1 0.029658 -0.007873 -0.001717 0.000000 0.013643 0.000000
# 2 -0.007873 0.019442 -0.005993 0.000000 -0.006051 0.000000
# 3 -0.001717 -0.005993 0.013029 0.000000 0.006454 0.000000
# 4 0.000000 0.000000 0.000000 0.029815 0.000000 -0.017033
# 5 0.013643 -0.006051 0.006454 0.000000 0.029211 0.000000
# 6 0.000000 0.000000 0.000000 -0.017033 0.000000 0.028494
#
#
# Mechanical properties :
#
#
# Convention : Reuss Voigt Hill
#
# Bulk Modulus (GPa) = 32.29784 47.20337 39.75060
# Shear Modulus (GPa) = 26.15954 41.30946 33.73450
#
# Velocity S-wave (km/s) = 3.46232 4.35088 3.93178
# Velocity P-wave (km/s) = 5.54834 6.84626 6.23119
#
# Compressibility (1/GPa) = 0.03096182
#
# Stress axis : x y z
#
# Youngs Moduli (GPa) = 33.71736 51.43624 76.75442
#
# Poissons Ratio (x) = 0.40496 0.13177
# Poissons Ratio (y) = 0.26546 0.46002
# Poissons Ratio (z) = 0.05788 0.30828
#
# Static dielectric constant tensor:
#      x y z
#    x 1.799920 0.000000 -0.041850 
#    y 0.000000 1.780680 0.000000 
#    z -0.041850 0.000000 1.877000 
# 
# From -- ./inp_files/15930.got.cif
#   From: 2010.05.17/outbox.cif.g08.bks.cpg/sg3_8_cif.got.tgz:15930.got - 2010.06.03 18:33:08.
