data_PCOD9112523
_publ_section_title
;
Structure prediction by ZEFSAII (Michael W. Deem and Ramdas Pophale) SiO2 
 PCOD9112523
Probable space group: P 2
;
_chemical_formula_sum "Si O2"
_cell_formula_units_Z 16
_cell_length_a 19.243809
_cell_length_b 8.881897
_cell_length_c 5.457216
_cell_angle_alpha 90.000000
_cell_angle_beta 129.801110
_cell_angle_gamma 90.000000
_cell_volume 716.609273
_symmetry_space_group_name_H-M "P 2"
_symmetry_group_IT_number 3
_symmetry_cell_setting 'monoclinic'
loop_
_space_group_symop_operation_xyz
x,y,z
-x,y,-z
loop_
_atom_site_type_symbol
_atom_site_label
_atom_site_fract_x
_atom_site_fract_y
_atom_site_fract_z
Si Si1 0.399753 0.014200 0.384739
Si Si2 0.661848 0.674717 0.707209
Si Si3 0.224822 0.146857 0.705583
Si Si4 0.593355 0.546434 0.060285
Si Si5 0.220004 0.430487 0.004940
Si Si6 0.044013 0.358087 0.850961
Si Si7 0.029348 0.014178 0.315438
Si Si8 0.653753 0.251102 0.394810
O O1 0.500000 0.005040 0.500000
O O2 0.408632 0.122955 0.638920
O O3 0.362620 0.848702 0.353139
O O4 0.316741 0.086503 0.040310
O O5 0.656424 0.629081 0.404411
O O6 0.758220 0.602409 0.005953
O O7 0.601178 0.610563 0.802771
O O8 0.136144 0.048610 0.548812
O O9 0.257248 0.166014 0.501425
O O10 0.196632 0.313142 0.738626
O O11 0.615024 0.367348 0.108556
O O12 0.500000 0.562771 0.000000
O O13 0.314790 0.362382 0.318410
O O14 0.146771 0.407164 0.049735
O O15 0.000000 0.414701 0.500000
O O16 0.025904 0.176167 0.810357
O O17 0.000000 0.415120 0.000000
O O18 0.000000 0.937633 0.500000
O O19 0.000000 0.935162 0.000000
#
# Coordination Sequence:
#
# PCOD9112523 Si02
#       8
#     2   2   2   2   2   2   2   2
#     4  11  27  43  63  93 140 190 240 282 353 421
#     4  11  25  45  64  93 129 184 224 287 339 426
#     4  11  21  39  63  98 133 172 225 286 340 401
#     4  11  23  40  67  90 126 163 229 287 347 395
#     4  10  20  38  62  96 128 167 224 278 338 403
#     4  10  18  29  56  94 125 157 202 268 329 400
#     4  10  19  32  59  95 129 165 208 269 338 410
#     4  10  23  37  63  93 128 168 222 292 335 395
#
# _framework density 22.327368
#
# number of rings (size 3 to 8) (size 9 to 14) (size 15 to 20)
#    0.000    1.500    3.750    2.625    5.250    0.000 
#    0.000    0.000    0.000    0.750    0.000    0.875 
#    0.000    0.000    0.000    0.000    0.000    0.000 
#
# Total GULP energy -89094.165858 kJ/mol
# GULP energy per Si atom -5568.385366 kJ/mol
# Density = 2.227655 g / cm^3
# Si number density = 22.327368 Si / 1000 Ang^3
#
#
#
# Elastic Constant Matrix: (Units=GPa)
#
#
# Indices 1 2 3 4 5 6 
#
# 1 96.6805 29.9742 25.7560 0.0000 -14.9378 0.0000
# 2 29.9742 95.3445 15.4989 0.0000 -1.1341 0.0000
# 3 25.7560 15.4989 79.4904 0.0000 -10.9887 0.0000
# 4 0.0000 0.0000 0.0000 2.5620 0.0000 4.4302
# 5 -14.9378 -1.1341 -10.9887 0.0000 41.9829 0.0000
# 6 0.0000 0.0000 0.0000 4.4302 0.0000 12.4917
#
#
#
# Elastic Compliance Matrix: (Units=1/GPa)
#
#
# Indices 1 2 3 4 5 6 
#
# 1 0.012782 -0.003495 -0.002951 0.000000 0.003681 0.000000
# 2 -0.003495 0.011790 -0.001343 0.000000 -0.001276 0.000000
# 3 -0.002951 -0.001343 0.014160 0.000000 0.002620 0.000000
# 4 0.000000 0.000000 0.000000 1.009237 0.000000 -0.357926
# 5 0.003681 -0.001276 0.002620 0.000000 0.025780 0.000000
# 6 0.000000 0.000000 0.000000 -0.357926 0.000000 0.206992
#
#
# Mechanical properties :
#
#
# Convention : Reuss Voigt Hill
#
# Bulk Modulus (GPa) = 43.18825 45.99706 44.59265
# Shear Modulus (GPa) = 3.83425 24.75974 14.29700
#
# Velocity S-wave (km/s) = 1.31187 3.33369 2.53323
# Velocity P-wave (km/s) = 4.65616 5.95516 5.34527
#
# Compressibility (1/GPa) = 0.02315445
#
# Stress axis : x y z
#
# Youngs Moduli (GPa) = 78.23619 84.81706 70.61950
#
# Poissons Ratio (x) = 0.29642 0.20841
# Poissons Ratio (y) = 0.27342 0.09484
# Poissons Ratio (z) = 0.23089 0.11390
#
# Static dielectric constant tensor:
#      x y z
#    x 1.877750 0.000000 0.023090 
#    y 0.000000 1.859040 0.000000 
#    z 0.023090 0.000000 1.980520 
# 
# From -- ./inp_files/3719.got.cif
#   From: 2010.05.17/outbox.cif.g08.bks.cpg/sg3_2_cif.got.tgz:3719.got - 2010.06.03 18:33:08.
