data_PCOD9112761
_publ_section_title
;
Structure prediction by ZEFSAII (Michael W. Deem and Ramdas Pophale) SiO2 
 PCOD9112761
Probable space group: P 2
;
_chemical_formula_sum "Si O2"
_cell_formula_units_Z 16
_cell_length_a 13.233010
_cell_length_b 9.269829
_cell_length_c 5.263612
_cell_angle_alpha 90.000000
_cell_angle_beta 102.010226
_cell_angle_gamma 90.000000
_cell_volume 631.541862
_symmetry_space_group_name_H-M "P 2"
_symmetry_group_IT_number 3
_symmetry_cell_setting 'monoclinic'
loop_
_space_group_symop_operation_xyz
x,y,z
-x,y,-z
loop_
_atom_site_type_symbol
_atom_site_label
_atom_site_fract_x
_atom_site_fract_y
_atom_site_fract_z
Si Si1 0.680098 0.626770 0.905951
Si Si2 0.393314 0.342622 0.323885
Si Si3 0.121728 0.771032 0.098460
Si Si4 0.279532 0.367267 0.763039
Si Si5 0.566029 0.923876 0.790843
Si Si6 0.766787 0.054162 0.659898
Si Si7 0.889444 0.952481 0.380785
Si Si8 0.906875 0.233433 0.096111
O O1 0.608937 0.515928 0.710532
O O2 0.619944 0.774754 0.902470
O O3 0.791130 0.649233 0.822883
O O4 0.700499 0.537668 0.175443
O O5 0.500000 0.290209 0.500000
O O6 0.312038 0.313788 0.505012
O O7 0.354884 0.300070 0.022603
O O8 0.155703 0.841767 0.851014
O O9 0.153752 0.904067 0.313757
O O10 0.000000 0.737636 0.000000
O O11 0.161240 0.337801 0.769142
O O12 0.500000 0.899664 0.500000
O O13 0.660190 0.020479 0.731762
O O14 0.500000 0.976741 0.000000
O O15 0.782198 0.056495 0.370576
O O16 0.833815 0.166880 0.842408
O O17 0.000000 0.872320 0.500000
O O18 0.946966 0.089283 0.254617
O O19 0.000000 0.310036 0.000000
#
# Coordination Sequence:
#
# PCOD9112761 Si02
#       8
#     2   2   2   2   2   2   2   2
#     4   9  24  37  66  92 132 166 224 264 333 389
#     4  10  22  44  66  90 124 170 218 271 317 383
#     4  10  19  36  57  94 133 164 209 260 332 390
#     4  10  25  41  66  98 128 163 230 273 319 386
#     4  11  26  41  67  97 130 173 216 272 328 386
#     4  10  22  40  61  95 127 169 216 266 319 403
#     4  11  19  35  68  93 125 175 216 261 327 398
#     4  11  23  41  68  95 129 173 220 269 335 395
#
# _framework density 25.334821000000002
#
# number of rings (size 3 to 8) (size 9 to 14) (size 15 to 20)
#    0.750    1.000    2.500    1.500   10.500    1.500 
#    0.000    1.875    0.000    0.000    0.000    0.000 
#    0.000    0.000    0.000    0.000    0.000    0.000 
#
# Total GULP energy -89116.004550 kJ/mol
# GULP energy per Si atom -5569.750284 kJ/mol
# Density = 2.527716 g / cm^3
# Si number density = 25.334821 Si / 1000 Ang^3
#
#
#
# Elastic Constant Matrix: (Units=GPa)
#
#
# Indices 1 2 3 4 5 6 
#
# 1 142.1163 1.4011 33.4042 0.0000 -14.0443 0.0000
# 2 1.4011 31.7178 3.2399 0.0000 4.0153 0.0000
# 3 33.4042 3.2399 126.3337 0.0000 0.5422 0.0000
# 4 0.0000 0.0000 0.0000 21.0758 0.0000 -0.9237
# 5 -14.0443 4.0153 0.5422 0.0000 48.5652 0.0000
# 6 0.0000 0.0000 0.0000 -0.9237 0.0000 29.0839
#
#
#
# Elastic Compliance Matrix: (Units=1/GPa)
#
#
# Indices 1 2 3 4 5 6 
#
# 1 0.007749 -0.000424 -0.002048 0.000000 0.002299 0.000000
# 2 -0.000424 0.031967 -0.000696 0.000000 -0.002758 0.000000
# 3 -0.002048 -0.000696 0.008478 0.000000 -0.000629 0.000000
# 4 0.000000 0.000000 0.000000 0.047514 0.000000 0.001509
# 5 0.002299 -0.002758 -0.000629 0.000000 0.021491 0.000000
# 6 0.000000 0.000000 0.000000 0.001509 0.000000 0.034431
#
#
# Mechanical properties :
#
#
# Convention : Reuss Voigt Hill
#
# Bulk Modulus (GPa) = 23.89037 41.80648 32.84843
# Shear Modulus (GPa) = 29.08358 37.21980 33.15169
#
# Velocity S-wave (km/s) = 3.39184 3.83706 3.62130
# Velocity P-wave (km/s) = 4.97894 6.01400 5.52078
#
# Compressibility (1/GPa) = 0.04185787
#
# Stress axis : x y z
#
# Youngs Moduli (GPa) = 129.04509 31.28232 117.95793
#
# Poissons Ratio (x) = 0.01327 0.24158
# Poissons Ratio (y) = 0.05473 0.08208
# Poissons Ratio (z) = 0.26428 0.02177
#
# Static dielectric constant tensor:
#      x y z
#    x 2.166960 0.000000 -0.007600 
#    y 0.000000 2.230140 0.000000 
#    z -0.007600 0.000000 2.043860 
# 
# From -- ./inp_files/2515.got.cif
#   From: 2010.05.17/outbox.cif.g08.bks.cpg/sg3_2_cif.got.tgz:2515.got - 2010.06.03 18:33:08.
