data_PCOD9112412
_publ_section_title
;
Structure prediction by ZEFSAII (Michael W. Deem and Ramdas Pophale) SiO2 
 PCOD9112412
Probable space group: P -1
;
_chemical_formula_sum "Si O2"
_cell_formula_units_Z 16
_cell_length_a 12.949403
_cell_length_b 12.356942
_cell_length_c 8.811971
_cell_angle_alpha 98.870355
_cell_angle_beta 120.938600
_cell_angle_gamma 128.361518
_cell_volume 673.777955
_symmetry_space_group_name_H-M "P -1"
_symmetry_group_IT_number 2
_symmetry_cell_setting 'triclinic'
loop_
_space_group_symop_operation_xyz
x,y,z
-x,-y,-z
loop_
_atom_site_type_symbol
_atom_site_label
_atom_site_fract_x
_atom_site_fract_y
_atom_site_fract_z
Si Si1 0.073244 0.844186 0.335977
Si Si2 0.295327 0.938161 0.210247
Si Si3 0.433073 0.658854 0.413689
Si Si4 0.165936 0.537325 0.904265
Si Si5 0.803356 0.366867 0.435587
Si Si6 0.525708 0.953272 0.193710
Si Si7 0.112821 0.092707 0.273030
Si Si8 0.875185 0.653204 0.650165
O O1 0.164060 0.859354 0.249126
O O2 0.273078 0.975457 0.624849
O O3 0.890571 0.629869 0.217075
O O4 0.016031 0.924366 0.268429
O O5 0.452992 0.160267 0.362778
O O6 0.433790 0.935247 0.279133
O O7 0.113867 0.799950 0.913629
O O8 0.637187 0.750765 0.518685
O O9 0.281592 0.462722 0.347339
O O10 0.285988 0.609179 0.169336
O O11 0.937717 0.428941 0.705274
O O12 0.333583 0.725861 0.964701
O O13 0.618462 0.135782 0.230626
O O14 0.773723 0.474884 0.445924
O O15 0.000000 0.500000 0.500000
O O16 0.101314 0.205374 0.356415
O O17 0.000000 0.000000 0.000000
#
# Coordination Sequence:
#
# PCOD9112412 Si02
#       8
#     2   2   2   2   2   2   2   2
#     4  10  21  32  52  91 125 152 187 228 283 368
#     4  11  19  32  54  90 124 148 191 229 290 364
#     4  11  21  35  57  93 125 155 188 232 299 370
#     4  11  21  37  63  84 118 160 187 246 304 342
#     4  11  27  43  59  86 116 154 210 256 289 341
#     4  11  21  36  59  83 113 155 199 244 291 347
#     4  11  20  36  55  88 133 157 187 229 289 376
#     4  12  22  37  60  87 126 165 188 236 302 345
#
# _framework density 23.746696
#
# number of rings (size 3 to 8) (size 9 to 14) (size 15 to 20)
#    0.000    1.000    8.750    0.750    0.000    1.500 
#    0.000    0.000    0.000    3.750    0.000    0.000 
#    0.000    0.000    0.000    0.000    0.000    0.000 
#
# Total GULP energy -89217.768727 kJ/mol
# GULP energy per Si atom -5576.110545 kJ/mol
# Density = 2.369265 g / cm^3
# Si number density = 23.746696 Si / 1000 Ang^3
#
#
#
# Elastic Constant Matrix: (Units=GPa)
#
#
# Indices 1 2 3 4 5 6 
#
# 1 45.6553 31.2059 11.2599 8.3929 -3.1138 -22.7841
# 2 31.2059 194.6649 42.0063 41.8201 -3.1374 -30.3675
# 3 11.2599 42.0063 111.4112 58.1559 0.0236 -12.2199
# 4 8.3929 41.8201 58.1559 34.0509 -3.6064 -2.8697
# 5 -3.1138 -3.1374 0.0236 -3.6064 11.6160 9.1002
# 6 -22.7841 -30.3675 -12.2199 -2.8697 9.1002 45.2690
#
#
#
# Elastic Compliance Matrix: (Units=1/GPa)
#
#
# Indices 1 2 3 4 5 6 
#
# 1 0.026835 -0.008492 -0.022398 0.044042 0.017863 0.000964
# 2 -0.008492 -0.002472 -0.034789 0.066402 0.031393 -0.017425
# 3 -0.022398 -0.034789 -0.113139 0.247928 0.119322 -0.073421
# 4 0.044042 0.066402 0.247928 -0.499614 -0.244218 0.151058
# 5 0.017863 0.031393 0.119322 -0.244218 -0.015851 0.049964
# 6 0.000964 -0.017425 -0.073421 0.151058 0.049964 -0.009401
#
#
# Mechanical properties :
#
#
# Convention : Reuss Voigt Hill
#
# Bulk Modulus (GPa) = -4.54270 57.85281 26.65506
# Shear Modulus (GPa) = -8.99827 36.00446 13.50310
#
# Velocity S-wave (km/s) = -1.94872 3.89805 2.38718
# Velocity P-wave (km/s) = 2.64206 6.68394 4.34135
#
# Compressibility (1/GPa) = -0.22013326
#
# Stress axis : x y z
#
# Youngs Moduli (GPa) = 37.26520 -404.50977 -8.83870
#
# Poissons Ratio (x) = -3.43502 -0.19797
# Poissons Ratio (y) = 0.31645 -0.30749
# Poissons Ratio (z) = 0.83467 -14.07236
#
# Static dielectric constant tensor:
#      x y z
#    x 1.974560 0.043480 -0.079930 
#    y 0.043480 1.977730 -0.075390 
#    z -0.079930 -0.075390 2.035600 
# 
# From -- ./inp_files/451475.got.cif
#   From: 2010.05.17/outbox.cif.g08.bks.cpg/sg2_226_cif.got.tgz:451475.got - 2010.06.03 11:33:40.
