data_PCOD9112922
_publ_section_title
;
Structure prediction by ZEFSAII (Michael W. Deem and Ramdas Pophale) SiO2 
 PCOD9112922
Probable space group: P 2
;
_chemical_formula_sum "Si O2"
_cell_formula_units_Z 15
_cell_length_a 9.262808
_cell_length_b 11.527146
_cell_length_c 7.540753
_cell_angle_alpha 90.000000
_cell_angle_beta 98.019363
_cell_angle_gamma 90.000000
_cell_volume 797.280780
_symmetry_space_group_name_H-M "P 2"
_symmetry_group_IT_number 3
_symmetry_cell_setting 'monoclinic'
loop_
_space_group_symop_operation_xyz
x,y,z
-x,y,-z
loop_
_atom_site_type_symbol
_atom_site_label
_atom_site_fract_x
_atom_site_fract_y
_atom_site_fract_z
Si Si1 0.861920 0.341630 0.397256
Si Si2 0.372522 0.436631 0.369202
Si Si3 0.564892 0.257035 0.195419
Si Si4 0.943021 0.558815 0.190800
Si Si5 0.004345 0.817641 0.292044
Si Si6 0.240030 0.859724 0.046674
Si Si7 0.500000 0.031751 0.000000
Si Si8 0.659658 0.602621 0.957436
O O1 0.759687 0.397550 0.530841
O O2 0.736095 0.281185 0.256654
O O3 0.944550 0.442589 0.303169
O O4 0.000000 0.270317 0.500000
O O5 0.500000 0.502804 0.500000
O O6 0.460759 0.323933 0.313729
O O7 0.315030 0.516032 0.201054
O O8 0.540219 0.119884 0.167398
O O9 0.500000 0.305478 0.000000
O O10 0.014011 0.676115 0.279828
O O11 0.771218 0.580662 0.135506
O O12 0.000000 0.545123 0.000000
O O13 0.000000 0.848437 0.500000
O O14 0.136510 0.873574 0.201325
O O15 0.863159 0.848942 0.146331
O O16 0.362446 0.955125 0.033029
O O17 0.316994 0.735848 0.089662
O O18 0.500000 0.582942 0.000000
#
# Coordination Sequence:
#
# PCOD9112922 Si02
#       8
#     2   2   2   2   2   2   1   2
#     4  11  22  34  58  96 132 157 207 261 315 389
#     4  10  20  36  55  90 130 165 200 258 329 380
#     4   9  21  42  64  81 116 175 212 256 317 374
#     4  11  20  34  56  88 131 171 196 240 321 400
#     4  10  21  40  61  91 131 168 202 256 326 386
#     4  10  21  41  63  94 123 168 215 263 316 387
#     4  10  22  46  70  84 114 172 226 268 316 362
#     4  11  19  32  56  87 125 157 205 252 306 396
#
# _framework density 18.813949999999998
#
# number of rings (size 3 to 8) (size 9 to 14) (size 15 to 20)
#    0.400    1.333    3.333    4.000    1.867    0.000 
#    0.000    8.000    0.000    0.000    0.000    0.000 
#    0.000    0.000    0.000    0.000    0.000    0.000 
#
# Total GULP energy -83541.658482 kJ/mol
# GULP energy per Si atom -5569.443899 kJ/mol
# Density = 1.877113 g / cm^3
# Si number density = 18.813950 Si / 1000 Ang^3
#
#
#
# Elastic Constant Matrix: (Units=GPa)
#
#
# Indices 1 2 3 4 5 6 
#
# 1 116.1537 37.3117 43.9529 0.0000 8.4895 0.0000
# 2 37.3117 88.3056 30.4110 0.0000 4.4729 0.0000
# 3 43.9529 30.4110 112.3625 0.0000 -9.7664 0.0000
# 4 0.0000 0.0000 0.0000 0.6478 0.0000 3.8863
# 5 8.4895 4.4729 -9.7664 0.0000 32.4520 0.0000
# 6 0.0000 0.0000 0.0000 3.8863 0.0000 14.2050
#
#
#
# Elastic Compliance Matrix: (Units=1/GPa)
#
#
# Indices 1 2 3 4 5 6 
#
# 1 0.011411 -0.003293 -0.003894 0.000000 -0.003703 0.000000
# 2 -0.003293 0.013694 -0.002575 0.000000 -0.001801 0.000000
# 3 -0.003894 -0.002575 0.011541 0.000000 0.004847 0.000000
# 4 0.000000 0.000000 0.000000 -2.407158 0.000000 0.658564
# 5 -0.003703 -0.001801 0.004847 0.000000 0.033490 0.000000
# 6 0.000000 0.000000 0.000000 0.658564 0.000000 -0.109776
#
#
# Mechanical properties :
#
#
# Convention : Reuss Voigt Hill
#
# Bulk Modulus (GPa) = 58.40341 60.01919 59.21130
# Shear Modulus (GPa) = -2.06478 23.13739 10.53630
#
# Velocity S-wave (km/s) = -1.04874 3.51065 2.36905
# Velocity P-wave (km/s) = 5.44459 6.95727 6.24688
#
# Compressibility (1/GPa) = 0.01712229
#
# Stress axis : x y z
#
# Youngs Moduli (GPa) = 87.63167 73.02732 86.64546
#
# Poissons Ratio (x) = 0.24047 0.33744
# Poissons Ratio (y) = 0.28856 0.22308
# Poissons Ratio (z) = 0.34128 0.18802
#
# Static dielectric constant tensor:
#      x y z
#    x 1.680340 0.000000 0.039890 
#    y 0.000000 1.654200 0.000000 
#    z 0.039890 0.000000 1.751820 
# 
# From -- ./inp_files/5770.got.cif
#   From: 2010.05.17/outbox.cif.g08.bks.cpg/sg3_3_cif.got.tgz:5770.got - 2010.06.03 18:33:08.
