data_PCOD9112265
_publ_section_title
;
Structure prediction by ZEFSAII (Michael W. Deem and Ramdas Pophale) SiO2 
 PCOD9112265
Probable space group: P -1
;
_chemical_formula_sum "Si O2"
_cell_formula_units_Z 16
_cell_length_a 15.701933
_cell_length_b 8.864984
_cell_length_c 5.471177
_cell_angle_alpha 80.001071
_cell_angle_beta 64.695586
_cell_angle_gamma 87.625932
_cell_volume 677.582603
_symmetry_space_group_name_H-M "P -1"
_symmetry_group_IT_number 2
_symmetry_cell_setting 'triclinic'
loop_
_space_group_symop_operation_xyz
x,y,z
-x,-y,-z
loop_
_atom_site_type_symbol
_atom_site_label
_atom_site_fract_x
_atom_site_fract_y
_atom_site_fract_z
Si Si1 0.165113 0.351978 0.351449
Si Si2 0.740227 0.379999 0.601364
Si Si3 0.276017 0.876521 0.944391
Si Si4 0.138948 0.840793 0.752163
Si Si5 0.440630 0.907177 0.389809
Si Si6 0.710713 0.916547 0.747755
Si Si7 0.462092 0.574421 0.278944
Si Si8 0.048024 0.333360 0.999676
O O1 0.202542 0.524812 0.293130
O O2 0.257564 0.252374 0.282119
O O3 0.111248 0.328650 0.168434
O O4 0.102987 0.316550 0.680532
O O5 0.813912 0.317754 0.338282
O O6 0.650913 0.458595 0.580603
O O7 0.700406 0.230054 0.830893
O O8 0.169216 0.861577 0.989889
O O9 0.349057 0.834460 0.662154
O O10 0.293300 0.047750 0.969546
O O11 0.030062 0.806645 0.849730
O O12 0.199388 0.977761 0.501975
O O13 0.480949 0.759674 0.243250
O O14 0.500000 0.000000 0.500000
O O15 0.387964 0.031111 0.254132
O O16 0.500000 0.500000 0.500000
O O17 0.500000 0.500000 0.000000
O O18 0.000000 0.500000 0.000000
#
# Coordination Sequence:
#
# PCOD9112265 Si02
#       8
#     2   2   2   2   2   2   2   2
#     4  12  29  43  72 110 141 185 242 302 353 427
#     4  11  23  45  70  97 142 187 234 290 354 428
#     4  10  20  45  72  94 135 192 238 271 375 426
#     4  10  22  42  75  92 140 193 228 289 358 433
#     4  11  25  46  74 104 150 191 242 307 370 438
#     4  10  25  45  68 104 140 192 237 287 375 432
#     4  12  27  45  71 112 140 186 247 294 356 435
#     4  12  26  46  70 108 145 182 246 297 360 419
#
# _framework density 23.613358999999999
#
# number of rings (size 3 to 8) (size 9 to 14) (size 15 to 20)
#    0.000    1.000    5.000    1.875    8.750    2.500 
#    0.000    0.000    0.000    0.000    0.000    0.000 
#    0.000    0.000    0.000    0.000    0.000    0.000 
#
# Total GULP energy -89293.808100 kJ/mol
# GULP energy per Si atom -5580.863006 kJ/mol
# Density = 2.355961 g / cm^3
# Si number density = 23.613359 Si / 1000 Ang^3
#
#
#
# Elastic Constant Matrix: (Units=GPa)
#
#
# Indices 1 2 3 4 5 6 
#
# 1 114.5644 26.7584 20.6507 9.5180 35.7874 15.9727
# 2 26.7584 75.8052 25.7980 28.5013 6.3925 7.2294
# 3 20.6507 25.7980 94.5961 18.1207 15.7830 -10.1870
# 4 9.5180 28.5013 18.1207 38.4096 6.2789 -4.9901
# 5 35.7874 6.3925 15.7830 6.2789 39.2518 2.9434
# 6 15.9727 7.2294 -10.1870 -4.9901 2.9434 34.5308
#
#
#
# Elastic Compliance Matrix: (Units=1/GPa)
#
#
# Indices 1 2 3 4 5 6 
#
# 1 0.013910 -0.003488 -0.000834 0.000791 -0.011541 -0.004852
# 2 -0.003488 0.021536 -0.003620 -0.014901 0.003996 -0.006457
# 3 -0.000834 -0.003620 0.013373 -0.002083 -0.004080 0.005135
# 4 0.000791 -0.014901 -0.002083 0.039673 -0.004422 0.008250
# 5 -0.011541 0.003996 -0.004080 -0.004422 0.037738 -0.000557
# 6 -0.004852 -0.006457 0.005135 0.008250 -0.000557 0.035310
#
#
# Mechanical properties :
#
#
# Convention : Reuss Voigt Hill
#
# Bulk Modulus (GPa) = 30.36127 47.93111 39.14619
# Shear Modulus (GPa) = 26.53923 36.55568 31.54746
#
# Velocity S-wave (km/s) = 3.35611 3.93885 3.65910
# Velocity P-wave (km/s) = 5.28238 6.40534 5.87077
#
# Compressibility (1/GPa) = 0.03293670
#
# Stress axis : x y z
#
# Youngs Moduli (GPa) = 71.89290 46.43442 74.77746
#
# Poissons Ratio (x) = 0.16194 0.06234
# Poissons Ratio (y) = 0.25073 0.27066
# Poissons Ratio (z) = 0.05994 0.16807
#
# Static dielectric constant tensor:
#      x y z
#    x 1.956720 0.002300 0.006110 
#    y 0.002300 1.938080 -0.007320 
#    z 0.006110 -0.007320 1.967460 
# 
# From -- ./inp_files/56930.got.cif
#   From: 2010.05.17/outbox.cif.g08.bks.cpg/sg2_29_cif.got.tgz:56930.got - 2010.06.03 11:33:40.
