data_PCOD9112981
_publ_section_title
;
Structure prediction by ZEFSAII (Michael W. Deem and Ramdas Pophale) SiO2 
 PCOD9112981
Probable space group: P 2
;
_chemical_formula_sum "Si O2"
_cell_formula_units_Z 14
_cell_length_a 14.059336
_cell_length_b 8.662225
_cell_length_c 11.336006
_cell_angle_alpha 90.000000
_cell_angle_beta 30.084043
_cell_angle_gamma 90.000000
_cell_volume 692.031484
_symmetry_space_group_name_H-M "P 2"
_symmetry_group_IT_number 3
_symmetry_cell_setting 'monoclinic'
loop_
_space_group_symop_operation_xyz
x,y,z
-x,y,-z
loop_
_atom_site_type_symbol
_atom_site_label
_atom_site_fract_x
_atom_site_fract_y
_atom_site_fract_z
Si Si1 0.946150 0.831560 0.336870
Si Si2 0.000000 0.611943 0.500000
Si Si3 0.057907 0.532327 0.802517
Si Si4 0.633132 0.931261 0.522253
Si Si5 0.237176 0.098297 0.972097
Si Si6 0.212207 0.417953 0.098327
Si Si7 0.000000 0.070806 0.000000
Si Si8 0.473820 0.578188 0.393730
O O1 0.940613 0.724300 0.457404
O O2 0.983757 0.710893 0.188606
O O3 0.742782 0.911156 0.529741
O O4 0.115338 0.955532 0.155267
O O5 0.838470 0.498548 0.724684
O O6 0.279823 0.507616 0.557309
O O7 0.966498 0.435596 0.796916
O O8 0.000000 0.505137 0.000000
O O9 0.553210 0.762348 0.576787
O O10 0.450995 0.042681 0.710864
O O11 0.814936 0.980037 0.248222
O O12 0.259256 0.238249 0.040249
O O13 0.106810 0.148370 0.997990
O O14 0.364717 0.520795 0.865412
O O15 0.500000 0.526410 0.500000
#
# Coordination Sequence:
#
# PCOD9112981 Si02
#       8
#     2   1   2   2   2   2   1   2
#     4   9  22  39  68  91 118 167 222 273 312 368
#     4  10  22  48  70  86 124 172 232 272 316 372
#     4  10  20  37  61  89 127 165 217 262 312 370
#     4  10  21  37  61  93 123 167 215 270 315 378
#     4  11  23  38  61  95 135 167 211 260 338 389
#     4  11  25  41  61  94 133 175 207 265 328 392
#     4  10  22  36  60  92 138 172 208 260 320 394
#     4  11  21  33  62  90 125 162 218 261 318 375
#
# _framework density 20.230294000000001
#
# number of rings (size 3 to 8) (size 9 to 14) (size 15 to 20)
#    0.000    1.714    1.429    3.000   10.000    4.000 
#    0.000   11.429    0.000    5.143    0.000    0.000 
#    0.000    0.000    0.000    0.000    0.000    0.000 
#
# Total GULP energy -78019.693268 kJ/mol
# GULP energy per Si atom -5572.835233 kJ/mol
# Density = 2.018425 g / cm^3
# Si number density = 20.230294 Si / 1000 Ang^3
#
#
#
# Elastic Constant Matrix: (Units=GPa)
#
#
# Indices 1 2 3 4 5 6 
#
# 1 59.2625 24.3118 42.2339 0.0000 -3.6878 0.0000
# 2 24.3118 56.9846 40.6413 0.0000 -3.4199 0.0000
# 3 42.2339 40.6413 126.3495 0.0000 -8.9553 0.0000
# 4 0.0000 0.0000 0.0000 -48.5464 0.0000 -8.0755
# 5 -3.6878 -3.4199 -8.9553 0.0000 40.7575 0.0000
# 6 0.0000 0.0000 0.0000 -8.0755 0.0000 22.9387
#
#
#
# Elastic Compliance Matrix: (Units=1/GPa)
#
#
# Indices 1 2 3 4 5 6 
#
# 1 0.023520 -0.005741 -0.005992 0.000000 0.000330 0.000000
# 2 -0.005741 0.024178 -0.005842 0.000000 0.000226 0.000000
# 3 -0.005992 -0.005842 0.011909 0.000000 0.001584 0.000000
# 4 0.000000 0.000000 0.000000 -0.019459 0.000000 -0.006851
# 5 0.000330 0.000226 0.001584 0.000000 0.024932 0.000000
# 6 0.000000 0.000000 0.000000 -0.006851 0.000000 0.041183
#
#
# Mechanical properties :
#
#
# Convention : Reuss Voigt Hill
#
# Bulk Modulus (GPa) = 40.88862 50.77452 45.83157
# Shear Modulus (GPa) = 33.43032 12.05728 22.74380
#
# Velocity S-wave (km/s) = 4.06949 2.44396 3.35661
# Velocity P-wave (km/s) = 6.50665 5.75471 6.14220
#
# Compressibility (1/GPa) = 0.02445668
#
# Stress axis : x y z
#
# Youngs Moduli (GPa) = 42.51700 41.35973 83.97192
#
# Poissons Ratio (x) = 0.23747 0.50313
# Poissons Ratio (y) = 0.24411 0.49056
# Poissons Ratio (z) = 0.25475 0.24162
#
# Static dielectric constant tensor:
#      x y z
#    x 1.759560 0.000000 0.014240 
#    y 0.000000 1.770700 0.000000 
#    z 0.014240 0.000000 1.718490 
# 
# From -- ./inp_files/12199.got.cif
#   From: 2010.05.17/outbox.cif.g08.bks.cpg/sg3_7_cif.got.tgz:12199.got - 2010.06.03 18:33:08.
