data_PCOD9112679
_publ_section_title
;
Structure prediction by ZEFSAII (Michael W. Deem and Ramdas Pophale) SiO2 
 PCOD9112679
Probable space group: P 2
;
_chemical_formula_sum "Si O2"
_cell_formula_units_Z 14
_cell_length_a 9.283513
_cell_length_b 9.893669
_cell_length_c 7.251713
_cell_angle_alpha 90.000000
_cell_angle_beta 125.603506
_cell_angle_gamma 90.000000
_cell_volume 541.546402
_symmetry_space_group_name_H-M "P 2"
_symmetry_group_IT_number 3
_symmetry_cell_setting 'monoclinic'
loop_
_space_group_symop_operation_xyz
x,y,z
-x,y,-z
loop_
_atom_site_type_symbol
_atom_site_label
_atom_site_fract_x
_atom_site_fract_y
_atom_site_fract_z
Si Si1 0.293683 0.890550 0.091186
Si Si2 0.436128 0.588990 0.234044
Si Si3 0.072462 0.826125 0.237282
Si Si4 0.453292 0.125115 0.682922
Si Si5 0.186274 0.568663 0.536257
Si Si6 0.754705 0.316324 0.969013
Si Si7 0.873598 0.272484 0.647221
O O1 0.361804 0.738046 0.146307
O O2 0.213327 0.921219 0.238139
O O3 0.456656 0.988477 0.176614
O O4 0.110861 0.895672 0.833953
O O5 0.500000 0.577942 0.500000
O O6 0.613386 0.572059 0.244348
O O7 0.289954 0.474723 0.083054
O O8 0.166442 0.715620 0.427125
O O9 0.000000 0.746987 0.000000
O O10 0.500000 0.131321 0.500000
O O11 0.570035 0.242960 0.862044
O O12 0.247753 0.163352 0.546968
O O13 0.187792 0.425916 0.433821
O O14 0.000000 0.562128 0.500000
O O15 0.825652 0.259508 0.827197
O O16 0.915218 0.278073 0.223590
#
# Coordination Sequence:
#
# PCOD9112679 Si02
#       7
#     2   2   2   2   2   2   2
#     4   9  19  32  61  89 121 156 209 263 315 371
#     4  12  17  34  60  89 119 163 209 265 311 374
#     4   8  19  36  57  91 127 159 211 265 323 373
#     4  10  19  33  53  97 122 153 203 265 305 368
#     4  12  23  36  59  96 129 163 212 269 329 378
#     4  10  19  33  60  86 123 159 205 249 321 361
#     4  10  20  34  56  86 127 159 198 263 311 369
#
# _framework density 25.851894000000001
#
# number of rings (size 3 to 8) (size 9 to 14) (size 15 to 20)
#    0.857    0.857    4.286    1.714    2.000    4.571 
#    0.000    2.857    0.000    0.857    3.714    0.000 
#    0.000    0.000    0.000    0.000    0.000    0.000 
#
# Total GULP energy -78100.727191 kJ/mol
# GULP energy per Si atom -5578.623371 kJ/mol
# Density = 2.579305 g / cm^3
# Si number density = 25.851894 Si / 1000 Ang^3
#
#
#
# Elastic Constant Matrix: (Units=GPa)
#
#
# Indices 1 2 3 4 5 6 
#
# 1 92.5602 20.3545 45.4331 0.0000 20.8619 0.0000
# 2 20.3545 147.5466 63.2439 0.0000 24.5095 0.0000
# 3 45.4331 63.2439 146.7760 0.0000 53.5742 0.0000
# 4 0.0000 0.0000 0.0000 23.0404 0.0000 34.9173
# 5 20.8619 24.5095 53.5742 0.0000 39.0427 0.0000
# 6 0.0000 0.0000 0.0000 34.9173 0.0000 5.9910
#
#
#
# Elastic Compliance Matrix: (Units=1/GPa)
#
#
# Indices 1 2 3 4 5 6 
#
# 1 0.012894 -0.000050 -0.002938 0.000000 -0.002827 0.000000
# 2 -0.000050 0.008320 -0.003352 0.000000 -0.000597 0.000000
# 3 -0.002938 -0.003352 0.015678 0.000000 -0.017840 0.000000
# 4 0.000000 0.000000 0.000000 -0.005541 0.000000 0.032295
# 5 -0.002827 -0.000597 -0.017840 0.000000 0.051979 0.000000
# 6 0.000000 0.000000 0.000000 0.032295 0.000000 -0.021310
#
#
# Mechanical properties :
#
#
# Convention : Reuss Voigt Hill
#
# Bulk Modulus (GPa) = 41.29828 71.66063 56.47946
# Shear Modulus (GPa) = 60.40874 30.80490 45.60682
#
# Velocity S-wave (km/s) = 4.83921 3.45569 4.20474
# Velocity P-wave (km/s) = 6.87267 6.61077 6.74299
#
# Compressibility (1/GPa) = 0.02421408
#
# Stress axis : x y z
#
# Youngs Moduli (GPa) = 77.55573 120.18861 63.78244
#
# Poissons Ratio (x) = 0.00600 0.18738
# Poissons Ratio (y) = 0.00387 0.21377
# Poissons Ratio (z) = 0.22784 0.40282
#
# Static dielectric constant tensor:
#      x y z
#    x 2.132520 0.000000 -0.031760 
#    y 0.000000 1.968730 0.000000 
#    z -0.031760 0.000000 2.165950 
# 
# From -- ./inp_files/11735.got.cif
#   From: 2010.05.17/outbox.cif.g08.bks.cpg/sg3_6_cif.got.tgz:11735.got - 2010.06.03 18:33:08.
