data_PCOD9112886
_publ_section_title
;
Structure prediction by ZEFSAII (Michael W. Deem and Ramdas Pophale) SiO2 
 PCOD9112886
Probable space group: P 2
;
_chemical_formula_sum "Si O2"
_cell_formula_units_Z 16
_cell_length_a 11.438573
_cell_length_b 5.514747
_cell_length_c 26.448836
_cell_angle_alpha 90.000000
_cell_angle_beta 149.720637
_cell_angle_gamma 90.000000
_cell_volume 841.242399
_symmetry_space_group_name_H-M "P 2"
_symmetry_group_IT_number 3
_symmetry_cell_setting 'monoclinic'
loop_
_space_group_symop_operation_xyz
x,y,z
-x,y,-z
loop_
_atom_site_type_symbol
_atom_site_label
_atom_site_fract_x
_atom_site_fract_y
_atom_site_fract_z
Si Si1 0.833734 0.793790 0.486496
Si Si2 0.232217 0.562937 0.023761
Si Si3 0.968821 0.296641 0.404438
Si Si4 0.907549 0.192837 0.861456
Si Si5 0.545376 0.469553 0.312369
Si Si6 0.663258 0.833960 0.842170
Si Si7 0.378446 0.955314 0.008214
Si Si8 0.616108 0.178518 0.193337
O O1 0.602783 0.677486 0.375152
O O2 0.000000 0.802540 0.500000
O O3 0.919513 0.565935 0.552469
O O4 0.865237 0.062927 0.521943
O O5 0.215872 0.759630 0.061009
O O6 0.452767 0.406743 0.122328
O O7 0.285398 0.693060 0.990857
O O8 0.008035 0.395608 0.937110
O O9 0.771021 0.320757 0.375900
O O10 0.860598 0.255910 0.308097
O O11 0.671199 0.304956 0.750528
O O12 0.823307 0.961235 0.860907
O O13 0.144291 0.120860 0.920782
O O14 0.465844 0.614965 0.233050
O O15 0.481109 0.027360 0.795398
O O16 0.562665 0.031482 0.121403
O O17 0.500000 0.958788 0.000000
#
# Coordination Sequence:
#
# PCOD9112886 Si02
#       8
#     2   2   2   2   2   2   2   2
#     4  10  22  32  53  79 124 168 199 235 287 349
#     4  10  22  36  51  84 111 162 196 250 298 362
#     4  11  20  36  53  83 124 164 200 235 290 356
#     4  11  23  35  56  82 120 158 202 242 303 357
#     4  11  22  33  54  85 127 165 200 237 290 369
#     4  11  20  33  53  80 124 153 201 229 295 364
#     4  10  24  41  57  79 114 153 203 260 307 365
#     4  10  20  34  59  81 116 156 196 240 296 357
#
# _framework density 19.019490999999999
#
# number of rings (size 3 to 8) (size 9 to 14) (size 15 to 20)
#    0.000    1.500    2.500    3.375    3.500   14.000 
#    0.000    0.000    0.000    0.000    0.000    0.875 
#    0.000    0.000    0.000    0.000    0.000    0.000 
#
# Total GULP energy -89108.721581 kJ/mol
# GULP energy per Si atom -5569.295099 kJ/mol
# Density = 1.897620 g / cm^3
# Si number density = 19.019491 Si / 1000 Ang^3
#
#
#
# Elastic Constant Matrix: (Units=GPa)
#
#
# Indices 1 2 3 4 5 6 
#
# 1 69.9928 13.6671 20.1877 0.0000 -4.2834 0.0000
# 2 13.6671 94.5583 26.3857 0.0000 0.3102 0.0000
# 3 20.1877 26.3857 77.4629 0.0000 -5.7935 0.0000
# 4 0.0000 0.0000 0.0000 34.5107 0.0000 -0.5269
# 5 -4.2834 0.3102 -5.7935 0.0000 12.7785 0.0000
# 6 0.0000 0.0000 0.0000 -0.5269 0.0000 10.9953
#
#
#
# Elastic Compliance Matrix: (Units=1/GPa)
#
#
# Indices 1 2 3 4 5 6 
#
# 1 0.015752 -0.001351 -0.003362 0.000000 0.003789 0.000000
# 2 -0.001351 0.011860 -0.003874 0.000000 -0.002497 0.000000
# 3 -0.003362 -0.003874 0.015555 0.000000 0.006020 0.000000
# 4 0.000000 0.000000 0.000000 0.028998 0.000000 0.001390
# 5 0.003789 -0.002497 0.006020 0.000000 0.082316 0.000000
# 6 0.000000 0.000000 0.000000 0.001390 0.000000 0.091014
#
#
# Mechanical properties :
#
#
# Convention : Reuss Voigt Hill
#
# Bulk Modulus (GPa) = 38.47131 40.27722 39.37427
# Shear Modulus (GPa) = 18.42737 23.77513 21.10125
#
# Velocity S-wave (km/s) = 3.11604 3.53943 3.33446
# Velocity P-wave (km/s) = 5.76346 6.15842 5.96421
#
# Compressibility (1/GPa) = 0.02599340
#
# Stress axis : x y z
#
# Youngs Moduli (GPa) = 63.48202 84.31620 64.28618
#
# Poissons Ratio (x) = 0.11393 0.21611
# Poissons Ratio (y) = 0.08578 0.24908
# Poissons Ratio (z) = 0.21340 0.32668
#
# Static dielectric constant tensor:
#      x y z
#    x 1.632710 0.000000 0.024210 
#    y 0.000000 1.747550 0.000000 
#    z 0.024210 0.000000 1.773400 
# 
# From -- ./inp_files/16518.got.cif
#   From: 2010.05.17/outbox.cif.g08.bks.cpg/sg3_9_cif.got.tgz:16518.got - 2010.06.03 18:33:08.
