data_PCOD9112988
_publ_section_title
;
Structure prediction by ZEFSAII (Michael W. Deem and Ramdas Pophale) SiO2 
 PCOD9112988
Probable space group: P 2
;
_chemical_formula_sum "Si O2"
_cell_formula_units_Z 15
_cell_length_a 17.387605
_cell_length_b 9.414126
_cell_length_c 9.464290
_cell_angle_alpha 90.000000
_cell_angle_beta 150.915241
_cell_angle_gamma 90.000000
_cell_volume 753.071227
_symmetry_space_group_name_H-M "P 2"
_symmetry_group_IT_number 3
_symmetry_cell_setting 'monoclinic'
loop_
_space_group_symop_operation_xyz
x,y,z
-x,y,-z
loop_
_atom_site_type_symbol
_atom_site_label
_atom_site_fract_x
_atom_site_fract_y
_atom_site_fract_z
Si Si1 0.735294 0.474570 0.593967
Si Si2 0.771405 0.127824 0.250198
Si Si3 0.000000 0.354229 0.500000
Si Si4 0.545447 0.987880 0.240611
Si Si5 0.018264 0.553167 0.250706
Si Si6 0.821001 0.176237 0.657994
Si Si7 0.534280 0.680149 0.886680
Si Si8 0.877922 0.797661 0.427939
O O1 0.728172 0.305869 0.579879
O O2 0.566804 0.550393 0.334558
O O3 0.830350 0.509168 0.600923
O O4 0.857841 0.523607 0.909255
O O5 0.854455 0.240930 0.280225
O O6 0.802901 0.186146 0.459253
O O7 0.838751 0.964991 0.366617
O O8 0.587852 0.097260 0.919541
O O9 0.007907 0.457556 0.376148
O O10 0.723485 0.037729 0.542281
O O11 0.500000 0.980402 0.000000
O O12 0.531442 0.829822 0.275662
O O13 0.039017 0.722040 0.306834
O O14 0.000000 0.179380 0.000000
O O15 0.720088 0.701232 0.157941
O O16 0.500000 0.675223 0.000000
O O17 0.000000 0.775120 0.500000
#
# Coordination Sequence:
#
# PCOD9112988 Si02
#       8
#     2   2   1   2   2   2   2   2
#     4  11  22  39  58  93 126 156 204 261 298 354
#     4  10  21  38  62  90 119 159 204 251 302 372
#     4  12  20  38  66  92 120 166 202 248 316 378
#     4   8  19  35  54  88 119 151 204 253 295 359
#     4  11  23  38  61  89 128 157 207 253 303 371
#     4  11  20  36  58  88 125 154 200 252 305 355
#     4  10  20  37  62  89 121 158 207 252 305 363
#     4  11  22  41  64  92 120 163 211 252 306 370
#
# _framework density 19.918433
#
# number of rings (size 3 to 8) (size 9 to 14) (size 15 to 20)
#    0.000    1.600    5.333    0.800    0.000    3.733 
#    0.000    0.667    0.000    2.400    0.000    0.000 
#    0.000    0.000    0.000    0.000    0.000    0.000 
#
# Total GULP energy -83561.757300 kJ/mol
# GULP energy per Si atom -5570.783820 kJ/mol
# Density = 1.987310 g / cm^3
# Si number density = 19.918433 Si / 1000 Ang^3
#
#
#
# Elastic Constant Matrix: (Units=GPa)
#
#
# Indices 1 2 3 4 5 6 
#
# 1 61.0021 19.7664 31.7405 0.0000 15.2983 0.0000
# 2 19.7664 87.1750 55.5241 0.0000 11.7740 0.0000
# 3 31.7405 55.5241 65.5080 0.0000 14.7994 0.0000
# 4 0.0000 0.0000 0.0000 22.0856 0.0000 -10.3569
# 5 15.2983 11.7740 14.7994 0.0000 22.7252 0.0000
# 6 0.0000 0.0000 0.0000 -10.3569 0.0000 -95.3492
#
#
#
# Elastic Compliance Matrix: (Units=1/GPa)
#
#
# Indices 1 2 3 4 5 6 
#
# 1 0.024357 0.004140 -0.013041 0.000000 -0.010049 0.000000
# 2 0.004140 0.025652 -0.023587 0.000000 -0.000717 0.000000
# 3 -0.013041 -0.023587 0.043185 0.000000 -0.007125 0.000000
# 4 0.000000 0.000000 0.000000 0.043084 0.000000 -0.004680
# 5 -0.010049 -0.000717 -0.007125 0.000000 0.055780 0.000000
# 6 0.000000 0.000000 0.000000 -0.004680 0.000000 -0.009979
#
#
# Mechanical properties :
#
#
# Convention : Reuss Voigt Hill
#
# Bulk Modulus (GPa) = 35.43526 47.52746 41.48136
# Shear Modulus (GPa) = 19.49622 -2.99740 8.24941
#
# Velocity S-wave (km/s) = 3.13198 -1.22805 2.03730
# Velocity P-wave (km/s) = 5.55948 4.67996 5.13857
#
# Compressibility (1/GPa) = 0.02822048
#
# Stress axis : x y z
#
# Youngs Moduli (GPa) = 41.05649 38.98283 23.15598
#
# Poissons Ratio (x) = -0.16141 0.30197
# Poissons Ratio (y) = -0.16999 0.54618
# Poissons Ratio (z) = 0.53540 0.91948
#
# Static dielectric constant tensor:
#      x y z
#    x 3.157340 0.000000 0.448950 
#    y 0.000000 1.741860 0.000000 
#    z 0.448950 0.000000 1.830530 
# 
# From -- ./inp_files/9164.got.cif
#   From: 2010.05.17/outbox.cif.g08.bks.cpg/sg3_5_cif.got.tgz:9164.got - 2010.06.03 18:33:08.
