data_PCOD9112084
_publ_section_title
;
Structure prediction by ZEFSAII (Michael W. Deem and Ramdas Pophale) SiO2 
 PCOD9112084
Probable space group: P -1
;
_chemical_formula_sum "Si O2"
_cell_formula_units_Z 12
_cell_length_a 8.170810
_cell_length_b 11.704578
_cell_length_c 8.447676
_cell_angle_alpha 71.200151
_cell_angle_beta 113.307419
_cell_angle_gamma 141.404439
_cell_volume 462.736847
_symmetry_space_group_name_H-M "P -1"
_symmetry_group_IT_number 2
_symmetry_cell_setting 'triclinic'
loop_
_space_group_symop_operation_xyz
x,y,z
-x,-y,-z
loop_
_atom_site_type_symbol
_atom_site_label
_atom_site_fract_x
_atom_site_fract_y
_atom_site_fract_z
Si Si1 0.248862 0.203683 0.083474
Si Si2 0.913156 0.204984 0.178679
Si Si3 0.680030 0.994493 0.665231
Si Si4 0.742594 0.477894 0.582970
Si Si5 0.337467 0.812739 0.194737
Si Si6 0.724322 0.681619 0.290087
O O1 0.133322 0.237791 0.153897
O O2 0.428354 0.190650 0.241164
O O3 0.365456 0.326921 0.916313
O O4 0.000000 0.000000 0.000000
O O5 0.030772 0.334220 0.316045
O O6 0.660802 0.989289 0.220144
O O7 0.796005 0.250629 0.999597
O O8 0.747465 0.103709 0.799960
O O9 0.971602 0.119117 0.644905
O O10 0.500000 0.000000 0.500000
O O11 0.763478 0.345610 0.661855
O O12 0.726312 0.539095 0.384473
O O13 0.473502 0.365185 0.634009
#
# Coordination Sequence:
#
# PCOD9112084 Si02
#       6
#     2   2   2   2   2   2
#     4  10  20  44  69  94 136 177 227 275 331 405
#     4  11  23  43  72 101 131 190 224 275 349 399
#     4  11  23  42  72 105 133 180 228 282 348 397
#     4  11  25  43  68 100 141 179 231 272 342 410
#     4  11  23  42  70 102 142 170 227 293 333 401
#     4  10  23  45  63  96 141 179 222 284 327 402
#
# _framework density 25.932662000000001
#
# number of rings (size 3 to 8) (size 9 to 14) (size 15 to 20)
#    0.000    1.333    3.333    3.500    2.333    4.000 
#    3.000    8.333    0.000    0.000    0.000    0.000 
#    0.000    0.000    0.000    0.000    0.000    0.000 
#
# Total GULP energy -67159.661911 kJ/mol
# GULP energy per Si atom -5596.638493 kJ/mol
# Density = 2.587364 g / cm^3
# Si number density = 25.932662 Si / 1000 Ang^3
#
#
#
# Elastic Constant Matrix: (Units=GPa)
#
#
# Indices 1 2 3 4 5 6 
#
# 1 82.9720 21.9454 25.4767 -15.3266 15.4997 -4.8086
# 2 21.9454 82.9383 63.7874 -18.7908 17.0169 -19.6337
# 3 25.4767 63.7874 171.4117 -45.4997 37.2506 -6.5325
# 4 -15.3266 -18.7908 -45.4997 53.7661 -3.3634 10.9935
# 5 15.4997 17.0169 37.2506 -3.3634 36.9008 -7.1088
# 6 -4.8086 -19.6337 -6.5325 10.9935 -7.1088 37.8745
#
#
#
# Elastic Compliance Matrix: (Units=1/GPa)
#
#
# Indices 1 2 3 4 5 6 
#
# 1 0.014209 -0.003091 0.001337 0.004115 -0.005877 -0.001865
# 2 -0.003091 0.020207 -0.007506 -0.002061 0.001222 0.009615
# 3 0.001337 -0.007506 0.012953 0.009322 -0.010514 -0.006167
# 4 0.004115 -0.002061 0.009322 0.028170 -0.009329 -0.008866
# 5 -0.005877 0.001222 -0.010514 -0.009329 0.040378 0.008361
# 6 -0.001865 0.009615 -0.006167 -0.008866 0.008361 0.034230
#
#
# Mechanical properties :
#
#
# Convention : Reuss Voigt Hill
#
# Bulk Modulus (GPa) = 34.66542 62.19343 48.42943
# Shear Modulus (GPa) = 28.04510 40.78246 34.41378
#
# Velocity S-wave (km/s) = 3.29212 3.96994 3.64681
# Velocity P-wave (km/s) = 5.27705 6.71183 6.03721
#
# Compressibility (1/GPa) = 0.02884719
#
# Stress axis : x y z
#
# Youngs Moduli (GPa) = 70.37661 49.48864 77.20301
#
# Poissons Ratio (x) = 0.15299 -0.10321
# Poissons Ratio (y) = 0.21756 0.57950
# Poissons Ratio (z) = -0.09408 0.37147
#
# Static dielectric constant tensor:
#      x y z
#    x 2.075550 0.042180 0.028100 
#    y 0.042180 2.070630 -0.000930 
#    z 0.028100 -0.000930 2.155310 
# 
# From -- ./inp_files/168145.got.cif
#   From: 2010.05.17/outbox.cif.g08.bks.cpg/sg2_85_cif.got.tgz:168145.got - 2010.06.03 11:33:40.
