data_PCOD9112037
_publ_section_title
;
Structure prediction by ZEFSAII (Michael W. Deem and Ramdas Pophale) SiO2 
 PCOD9112037
Probable space group: P -1
;
_chemical_formula_sum "Si O2"
_cell_formula_units_Z 13
_cell_length_a 8.790386
_cell_length_b 7.251121
_cell_length_c 14.422536
_cell_angle_alpha 38.782302
_cell_angle_beta 111.156436
_cell_angle_gamma 104.449206
_cell_volume 536.204105
_symmetry_space_group_name_H-M "P -1"
_symmetry_group_IT_number 2
_symmetry_cell_setting 'triclinic'
loop_
_space_group_symop_operation_xyz
x,y,z
-x,-y,-z
loop_
_atom_site_type_symbol
_atom_site_label
_atom_site_fract_x
_atom_site_fract_y
_atom_site_fract_z
Si Si1 0.160118 0.917618 0.677528
Si Si2 0.648752 0.156120 0.735037
Si Si3 0.000000 0.500000 0.500000
Si Si4 0.428738 0.838268 0.921294
Si Si5 0.390149 0.281446 0.260477
Si Si6 0.861693 0.618639 0.670158
Si Si7 0.633679 0.529290 0.340841
O O1 0.319343 0.826635 0.807659
O O2 0.050121 0.656873 0.721205
O O3 0.051966 0.146807 0.627394
O O4 0.189338 0.122886 0.514728
O O5 0.814245 0.320310 0.724343
O O6 0.497915 0.387051 0.639115
O O7 0.610890 0.899570 0.901670
O O8 0.634361 0.008136 0.690696
O O9 0.186510 0.544694 0.557818
O O10 0.370308 0.147422 0.836450
O O11 0.400009 0.557929 0.085266
O O12 0.244130 0.351816 0.272326
O O13 0.555259 0.291601 0.352323
#
# Coordination Sequence:
#
# PCOD9112037 Si02
#       7
#     2   2   1   2   2   2   2
#     4  10  23  44  63  93 134 178 215 275 328 384
#     4   9  21  40  64 102 129 167 219 272 314 398
#     4  10  20  44  68  86 128 182 208 260 338 384
#     4   9  20  41  67  94 135 167 218 271 324 389
#     4  11  20  40  71  97 128 176 216 267 334 383
#     4  10  24  41  65  93 138 169 224 271 322 389
#     4   8  20  38  65  96 126 168 213 265 320 392
#
# _framework density 24.244499999999999
#
# number of rings (size 3 to 8) (size 9 to 14) (size 15 to 20)
#    0.923    1.538    0.000    0.923    2.154    3.692 
#    0.000    4.615    0.000    0.000    0.000    0.000 
#    0.000    0.000    0.000    0.000    0.000    0.000 
#
# Total GULP energy -72447.241373 kJ/mol
# GULP energy per Si atom -5572.864721 kJ/mol
# Density = 2.418932 g / cm^3
# Si number density = 24.244500 Si / 1000 Ang^3
#
#
#
# Elastic Constant Matrix: (Units=GPa)
#
#
# Indices 1 2 3 4 5 6 
#
# 1 26.2855 45.2611 23.4216 -11.2303 -14.0261 21.9465
# 2 45.2611 220.1125 37.1305 -23.0418 -22.5131 29.7393
# 3 23.4216 37.1305 80.9054 -10.8089 -26.9422 12.7652
# 4 -11.2303 -23.0418 -10.8089 35.8198 -4.1254 -5.7371
# 5 -14.0261 -22.5131 -26.9422 -4.1254 29.2427 -12.1777
# 6 21.9465 29.7393 12.7652 -5.7371 -12.1777 47.6049
#
#
#
# Elastic Compliance Matrix: (Units=1/GPa)
#
#
# Indices 1 2 3 4 5 6 
#
# 1 0.131573 -0.014219 -0.012818 0.025366 0.028064 -0.038101
# 2 -0.014219 0.007181 0.000699 0.000736 0.000309 0.002050
# 3 -0.012818 0.000699 0.021345 0.005563 0.016806 0.004718
# 4 0.025366 0.000736 0.005563 0.040078 0.022208 -0.003135
# 5 0.028064 0.000309 0.016806 0.022208 0.067469 0.002298
# 6 -0.038101 0.002050 0.004718 -0.003135 0.002298 0.036236
#
#
# Mechanical properties :
#
#
# Convention : Reuss Voigt Hill
#
# Bulk Modulus (GPa) = 9.30905 59.88108 34.59507
# Shear Modulus (GPa) = 12.74321 37.29949 25.02135
#
# Velocity S-wave (km/s) = 2.29511 3.92659 3.21603
# Velocity P-wave (km/s) = 3.29718 6.73127 5.30006
#
# Compressibility (1/GPa) = 0.10742239
#
# Stress axis : x y z
#
# Youngs Moduli (GPa) = 7.60035 139.25909 46.84854
#
# Poissons Ratio (x) = 1.98015 0.60050
# Poissons Ratio (y) = 0.10807 -0.03274
# Poissons Ratio (z) = 0.09742 -0.09731
#
# Static dielectric constant tensor:
#      x y z
#    x 1.927730 -0.046810 -0.049840 
#    y -0.046810 1.992980 -0.023490 
#    z -0.049840 -0.023490 1.958560 
# 
# From -- ./inp_files/554843.got.cif
#   From: 2010.05.17/outbox.cif.g08.bks.cpg/sg2_278_cif.got.tgz:554843.got - 2010.06.03 11:33:40.
