data_PCOD9112586
_publ_section_title
;
Structure prediction by ZEFSAII (Michael W. Deem and Ramdas Pophale) SiO2 
 PCOD9112586
Probable space group: P 2
;
_chemical_formula_sum "Si O2"
_cell_formula_units_Z 16
_cell_length_a 9.352360
_cell_length_b 7.257191
_cell_length_c 19.734010
_cell_angle_alpha 90.000000
_cell_angle_beta 31.230339
_cell_angle_gamma 90.000000
_cell_volume 694.443646
_symmetry_space_group_name_H-M "P 2"
_symmetry_group_IT_number 3
_symmetry_cell_setting 'monoclinic'
loop_
_space_group_symop_operation_xyz
x,y,z
-x,y,-z
loop_
_atom_site_type_symbol
_atom_site_label
_atom_site_fract_x
_atom_site_fract_y
_atom_site_fract_z
Si Si1 0.423115 0.707690 0.596397
Si Si2 0.544204 0.730763 0.863974
Si Si3 0.106521 0.173549 0.381227
Si Si4 0.779685 0.221306 0.918116
Si Si5 0.873097 0.791757 0.867849
Si Si6 0.806506 0.325106 0.367335
Si Si7 0.991866 0.730102 0.581340
Si Si8 0.304316 0.116852 0.905190
O O1 0.500000 0.830358 0.500000
O O2 0.263761 0.534445 0.627775
O O3 0.711214 0.664868 0.513448
O O4 0.201386 0.789402 0.737007
O O5 0.760263 0.747894 0.838642
O O6 0.731162 0.648394 0.728215
O O7 0.437977 0.923571 0.875507
O O8 0.272134 0.667117 0.015946
O O9 0.440899 0.193443 0.242607
O O10 0.000000 0.226689 0.500000
O O11 0.973034 0.275221 0.369019
O O12 0.027526 0.954691 0.404473
O O13 0.023858 0.264097 0.767581
O O14 0.777077 0.999552 0.916853
O O15 0.500000 0.298480 0.000000
O O16 0.761588 0.253173 0.005452
O O17 0.500000 0.243616 0.500000
O O18 0.000000 0.683980 0.500000
O O19 0.000000 0.078015 0.000000
#
# Coordination Sequence:
#
# PCOD9112586 Si02
#       8
#     2   2   2   2   2   2   2   2
#     4  11  24  41  61  94 129 174 218 265 330 397
#     4   9  17  34  55  93 126 158 205 266 328 373
#     4  10  22  40  66 105 134 173 221 277 337 388
#     4  11  19  39  63  91 125 168 219 278 324 381
#     4  10  18  34  65  92 120 160 218 273 324 378
#     4  11  26  42  61  99 130 172 226 272 334 397
#     4  10  21  38  67 100 136 172 215 272 332 392
#     4  10  20  34  60  95 133 163 206 274 338 391
#
# _framework density 23.040026999999998
#
# number of rings (size 3 to 8) (size 9 to 14) (size 15 to 20)
#    0.000    1.750    5.000    0.750    3.500    5.000 
#    2.250    2.500    0.000    0.000    0.000    0.000 
#    0.000    0.000    0.000    0.000    0.000    0.000 
#
# Total GULP energy -89085.514478 kJ/mol
# GULP energy per Si atom -5567.844655 kJ/mol
# Density = 2.298759 g / cm^3
# Si number density = 23.040027 Si / 1000 Ang^3
#
#
#
# Elastic Constant Matrix: (Units=GPa)
#
#
# Indices 1 2 3 4 5 6 
#
# 1 112.2759 13.1650 83.8754 0.0000 13.0611 0.0000
# 2 13.1650 71.8096 12.7109 0.0000 -6.7852 0.0000
# 3 83.8754 12.7109 259.1491 0.0000 9.9207 0.0000
# 4 0.0000 0.0000 0.0000 -33.6699 0.0000 216.5259
# 5 13.0611 -6.7852 9.9207 0.0000 41.1929 0.0000
# 6 0.0000 0.0000 0.0000 216.5259 0.0000-1247.2406
#
#
#
# Elastic Compliance Matrix: (Units=1/GPa)
#
#
# Indices 1 2 3 4 5 6 
#
# 1 0.012333 -0.001907 -0.003771 0.000000 -0.003316 0.000000
# 2 -0.001907 0.014603 -0.000216 0.000000 0.003062 0.000000
# 3 -0.003771 -0.000216 0.005093 0.000000 -0.000066 0.000000
# 4 0.000000 0.000000 0.000000 0.255115 0.000000 0.044289
# 5 -0.003316 0.003062 -0.000066 0.000000 0.025848 0.000000
# 6 0.000000 0.000000 0.000000 0.044289 0.000000 0.006887
#
#
# Mechanical properties :
#
#
# Convention : Reuss Voigt Hill
#
# Bulk Modulus (GPa) = 49.40753 73.63748 61.52251
# Shear Modulus (GPa) = 14.77479 -225.71131 -105.46826
#
# Velocity S-wave (km/s) = 2.53507 -9.90846 -6.77314
# Velocity P-wave (km/s) = 5.48266 9.94351 5.86574
#
# Compressibility (1/GPa) = 0.02023983
#
# Stress axis : x y z
#
# Youngs Moduli (GPa) = 81.08089 68.47947 196.36588
#
# Poissons Ratio (x) = 0.13058 0.74055
# Poissons Ratio (y) = 0.15461 0.04247
# Poissons Ratio (z) = 0.30578 0.01481
#
# Static dielectric constant tensor:
#      x y z
#    x 11.483170 0.000000 2.774620 
#    y 0.000000 1.957380 0.000000 
#    z 2.774620 0.000000 2.773950 
# 
# From -- ./inp_files/15813.got.cif
#   From: 2010.05.17/outbox.cif.g08.bks.cpg/sg3_8_cif.got.tgz:15813.got - 2010.06.03 18:33:08.
