data_PCOD9112305
_publ_section_title
;
Structure prediction by ZEFSAII (Michael W. Deem and Ramdas Pophale) SiO2 
 PCOD9112305
Probable space group: P -1
;
_chemical_formula_sum "Si O2"
_cell_formula_units_Z 14
_cell_length_a 9.829386
_cell_length_b 10.498695
_cell_length_c 14.280378
_cell_angle_alpha 67.598883
_cell_angle_beta 41.891882
_cell_angle_gamma 100.946078
_cell_volume 583.619214
_symmetry_space_group_name_H-M "P -1"
_symmetry_group_IT_number 2
_symmetry_cell_setting 'triclinic'
loop_
_space_group_symop_operation_xyz
x,y,z
-x,-y,-z
loop_
_atom_site_type_symbol
_atom_site_label
_atom_site_fract_x
_atom_site_fract_y
_atom_site_fract_z
Si Si1 0.869371 0.699581 0.236349
Si Si2 0.525743 0.387496 0.870842
Si Si3 0.844619 0.452263 0.858869
Si Si4 0.130548 0.835343 0.495552
Si Si5 0.906428 0.677326 0.014532
Si Si6 0.446051 0.748481 0.738173
Si Si7 0.531211 0.920123 0.097425
O O1 0.500000 0.500000 0.500000
O O2 0.927053 0.761846 0.080216
O O3 0.010758 0.622111 0.210461
O O4 0.096168 0.913757 0.121223
O O5 0.540487 0.331058 0.983191
O O6 0.208160 0.284888 0.020613
O O7 0.625739 0.309963 0.776976
O O8 0.791735 0.645745 0.669486
O O9 0.095157 0.695910 0.629398
O O10 0.743791 0.402848 0.030555
O O11 0.383310 0.920725 0.263165
O O12 0.232276 0.023738 0.447041
O O13 0.623362 0.415117 0.248257
O O14 0.236719 0.769355 0.804174
O O15 0.500000 0.000000 0.000000
#
# Coordination Sequence:
#
# PCOD9112305 Si02
#       7
#     2   2   2   2   2   2   2
#     4  11  24  40  62  93 132 161 211 254 324 375
#     4  10  23  36  64  96 121 160 224 246 314 371
#     4   9  21  41  61  93 120 164 210 259 298 378
#     4  10  21  39  67  90 124 169 210 255 312 372
#     4  10  23  40  62  93 123 174 200 272 307 369
#     4  10  20  46  66  80 137 165 212 255 323 356
#     4  12  21  40  65  89 132 173 197 265 320 367
#
# _framework density 23.988244000000002
#
# number of rings (size 3 to 8) (size 9 to 14) (size 15 to 20)
#    0.857    0.857    4.286    0.429    4.000    2.857 
#    0.000    7.857    0.000    0.000    0.000    0.000 
#    0.000    0.000    0.000    0.000    0.000    0.000 
#
# Total GULP energy -78115.057262 kJ/mol
# GULP energy per Si atom -5579.646947 kJ/mol
# Density = 2.393365 g / cm^3
# Si number density = 23.988244 Si / 1000 Ang^3
#
#
#
# Elastic Constant Matrix: (Units=GPa)
#
#
# Indices 1 2 3 4 5 6 
#
# 1 139.9866 11.0276 32.9802 1.2866 -25.6630 13.4447
# 2 11.0276 92.1066 16.7796 -33.7654 -8.9057 2.7485
# 3 32.9802 16.7796 70.5804 -14.4754 -10.9230 10.4521
# 4 1.2866 -33.7654 -14.4754 34.8120 2.3067 -6.2351
# 5 -25.6630 -8.9057 -10.9230 2.3067 36.7914 -11.4868
# 6 13.4447 2.7485 10.4521 -6.2351 -11.4868 32.5364
#
#
#
# Elastic Compliance Matrix: (Units=1/GPa)
#
#
# Indices 1 2 3 4 5 6 
#
# 1 0.009187 -0.001277 -0.003800 -0.003743 0.004733 -0.001514
# 2 -0.001277 0.017697 -0.000001 0.017633 0.003417 0.003619
# 3 -0.003800 -0.000001 0.017978 0.007101 0.001521 -0.002307
# 4 -0.003743 0.017633 0.007101 0.050235 0.003290 0.008564
# 5 0.004733 0.003417 0.001521 0.003290 0.034725 0.010157
# 6 -0.001514 0.003619 -0.002307 0.008564 0.010157 0.037023
#
#
# Mechanical properties :
#
#
# Convention : Reuss Voigt Hill
#
# Bulk Modulus (GPa) = 28.81492 47.13871 37.97681
# Shear Modulus (GPa) = 26.51547 36.95372 31.73459
#
# Velocity S-wave (km/s) = 3.32829 3.92917 3.64115
# Velocity P-wave (km/s) = 5.17766 6.34649 5.79164
#
# Compressibility (1/GPa) = 0.03470425
#
# Stress axis : x y z
#
# Youngs Moduli (GPa) = 108.85078 56.50825 55.62494
#
# Poissons Ratio (x) = 0.07216 0.21139
# Poissons Ratio (y) = 0.13900 0.00006
# Poissons Ratio (z) = 0.41366 0.00006
#
# Static dielectric constant tensor:
#      x y z
#    x 1.895240 -0.013090 -0.035280 
#    y -0.013090 2.041040 -0.063330 
#    z -0.035280 -0.063330 1.939560 
# 
# From -- ./inp_files/500255.got.cif
#   From: 2010.05.17/outbox.cif.g08.bks.cpg/sg2_251_cif.got.tgz:500255.got - 2010.06.03 11:33:40.
