data_PCOD9112192
_publ_section_title
;
Structure prediction by ZEFSAII (Michael W. Deem and Ramdas Pophale) SiO2 
 PCOD9112192
Probable space group: P -1
;
_chemical_formula_sum "Si O2"
_cell_formula_units_Z 16
_cell_length_a 13.093437
_cell_length_b 8.608388
_cell_length_c 7.997692
_cell_angle_alpha 56.086712
_cell_angle_beta 73.547994
_cell_angle_gamma 100.767524
_cell_volume 646.627904
_symmetry_space_group_name_H-M "P -1"
_symmetry_group_IT_number 2
_symmetry_cell_setting 'triclinic'
loop_
_space_group_symop_operation_xyz
x,y,z
-x,-y,-z
loop_
_atom_site_type_symbol
_atom_site_label
_atom_site_fract_x
_atom_site_fract_y
_atom_site_fract_z
Si Si1 0.672338 0.696252 0.619824
Si Si2 0.284395 0.901980 0.798141
Si Si3 0.134420 0.141293 0.292673
Si Si4 0.341505 0.876490 0.129612
Si Si5 0.154006 0.463298 0.549891
Si Si6 0.131652 0.520722 0.907613
Si Si7 0.923695 0.095886 0.876332
Si Si8 0.502483 0.664205 0.253394
O O1 0.755688 0.820854 0.660656
O O2 0.760453 0.630559 0.509218
O O3 0.552329 0.484091 0.793525
O O4 0.643710 0.866649 0.436264
O O5 0.232745 0.746274 0.763977
O O6 0.352414 0.841473 0.946440
O O7 0.169269 0.893491 0.954867
O O8 0.136028 0.047293 0.167762
O O9 0.144980 0.371160 0.128027
O O10 0.000000 0.000000 0.500000
O O11 0.209856 0.707575 0.335688
O O12 0.418867 0.784429 0.252348
O O13 0.380797 0.123905 0.971690
O O14 0.148163 0.451278 0.758966
O O15 0.023434 0.317163 0.636617
O O16 0.000000 0.500000 0.000000
O O17 0.000000 0.000000 0.000000
O O18 0.500000 0.500000 0.500000
#
# Coordination Sequence:
#
# PCOD9112192 Si02
#       8
#     2   2   2   2   2   2   2   2
#     4  11  22  41  68  97 131 181 225 276 348 403
#     4  12  23  39  63  98 135 176 228 281 338 405
#     4  12  23  38  62  94 136 181 226 271 334 418
#     4  10  24  40  69 104 128 174 233 287 348 405
#     4  11  22  42  60  95 142 182 226 272 334 408
#     4  12  23  37  59  92 138 183 223 279 328 394
#     4  12  21  40  63  94 140 189 226 269 333 416
#     4  10  20  44  74  99 131 175 230 289 350 413
#
# _framework density 24.743753000000002
#
# number of rings (size 3 to 8) (size 9 to 14) (size 15 to 20)
#    0.000    0.750    6.250    2.250    0.000    2.500 
#    0.000    0.000    0.000   16.500    0.000    0.000 
#    0.000    0.000    0.000    0.000    0.000    0.000 
#
# Total GULP energy -89364.145201 kJ/mol
# GULP energy per Si atom -5585.259075 kJ/mol
# Density = 2.468744 g / cm^3
# Si number density = 24.743753 Si / 1000 Ang^3
#
#
#
# Elastic Constant Matrix: (Units=GPa)
#
#
# Indices 1 2 3 4 5 6 
#
# 1 87.9718 30.0252 37.7816 -13.8780 12.6359 24.7302
# 2 30.0252 136.4431 39.7016 -12.9142 -8.4606 37.8312
# 3 37.7816 39.7016 123.5867 -49.6503 17.4808 14.1726
# 4 -13.8780 -12.9142 -49.6503 61.1608 8.8144 -5.9845
# 5 12.6359 -8.4606 17.4808 8.8144 44.2765 -14.3995
# 6 24.7302 37.8312 14.1726 -5.9845 -14.3995 45.0607
#
#
#
# Elastic Compliance Matrix: (Units=1/GPa)
#
#
# Indices 1 2 3 4 5 6 
#
# 1 0.016773 -0.000599 -0.001517 0.002607 -0.008240 -0.010512
# 2 -0.000599 0.010259 -0.002981 -0.001266 0.001246 -0.007117
# 3 -0.001517 -0.002981 0.017186 0.014195 -0.010946 -0.003683
# 4 0.002607 -0.001266 0.014195 0.029723 -0.014279 -0.005449
# 5 -0.008240 0.001246 -0.010946 -0.014279 0.037913 0.017138
# 6 -0.010512 -0.007117 -0.003683 -0.005449 0.017138 0.039848
#
#
# Mechanical properties :
#
#
# Convention : Reuss Voigt Hill
#
# Bulk Modulus (GPa) = 29.39058 62.55760 45.97409
# Shear Modulus (GPa) = 28.86208 46.13249 37.49728
#
# Velocity S-wave (km/s) = 3.41902 4.32257 3.89707
# Velocity P-wave (km/s) = 5.24310 7.08871 6.23458
#
# Compressibility (1/GPa) = 0.03402451
#
# Stress axis : x y z
#
# Youngs Moduli (GPa) = 59.61858 97.47558 58.18609
#
# Poissons Ratio (x) = 0.05841 0.08825
# Poissons Ratio (y) = 0.03572 0.17346
# Poissons Ratio (z) = 0.09043 0.29058
#
# Static dielectric constant tensor:
#      x y z
#    x 2.126650 0.044790 0.029730 
#    y 0.044790 1.984850 -0.018060 
#    z 0.029730 -0.018060 1.992570 
# 
# From -- ./inp_files/297414.got.cif
#   From: 2010.05.17/outbox.cif.g08.bks.cpg/sg2_149_cif.got.tgz:297414.got - 2010.06.03 11:33:40.
