data_PCOD9112374
_publ_section_title
;
Structure prediction by ZEFSAII (Michael W. Deem and Ramdas Pophale) SiO2 
 PCOD9112374
Probable space group: P -1
;
_chemical_formula_sum "Si O2"
_cell_formula_units_Z 14
_cell_length_a 20.324555
_cell_length_b 5.822576
_cell_length_c 11.437855
_cell_angle_alpha 126.897364
_cell_angle_beta 144.961199
_cell_angle_gamma 49.693905
_cell_volume 584.848021
_symmetry_space_group_name_H-M "P -1"
_symmetry_group_IT_number 2
_symmetry_cell_setting 'triclinic'
loop_
_space_group_symop_operation_xyz
x,y,z
-x,-y,-z
loop_
_atom_site_type_symbol
_atom_site_label
_atom_site_fract_x
_atom_site_fract_y
_atom_site_fract_z
Si Si1 0.664265 0.754535 0.561552
Si Si2 0.169591 0.934361 0.989983
Si Si3 0.042988 0.769808 0.381983
Si Si4 0.956643 0.730191 0.617610
Si Si5 0.582571 0.332304 0.180233
Si Si6 0.419333 0.290448 0.335958
Si Si7 0.355795 0.343591 0.002567
O O1 0.671603 0.517491 0.398223
O O2 0.667681 0.608927 0.649878
O O3 0.753112 0.949874 0.768573
O O4 0.523487 0.967148 0.407165
O O5 0.257345 0.681232 0.951517
O O6 0.077955 0.775995 0.861420
O O7 0.079025 0.204076 0.861943
O O8 0.100307 0.436187 0.420941
O O9 0.104404 0.943369 0.434283
O O10 0.000000 0.000000 0.500000
O O11 0.000000 0.500000 0.500000
O O12 0.484613 0.357012 0.149077
O O13 0.500000 0.500000 0.000000
O O14 0.650609 0.968720 0.155598
O O15 0.500000 0.500000 0.500000
O O16 0.352160 0.289060 0.118439
#
# Coordination Sequence:
#
# PCOD9112374 Si02
#       7
#     2   2   2   2   2   2   2
#     4  11  21  32  50  80  98 145 182 233 270 314
#     4  10  21  29  55  80 105 134 190 227 265 332
#     4   8  16  30  48  77 112 132 161 223 290 325
#     4   8  16  31  49  77 112 134 162 223 292 330
#     4  11  23  36  49  67 115 150 183 221 275 314
#     4  11  19  33  52  70 107 132 186 232 272 310
#     4  11  22  35  50  77 100 155 184 222 269 324
#
# _framework density 23.937843999999998
#
# number of rings (size 3 to 8) (size 9 to 14) (size 15 to 20)
#    0.857    1.143    4.286    0.857    2.000    0.000 
#    0.000    0.000    0.000    0.000    0.000    2.000 
#    0.000    0.000    0.000    0.000    0.000    0.000 
#
# Total GULP energy -77955.756823 kJ/mol
# GULP energy per Si atom -5568.268345 kJ/mol
# Density = 2.388336 g / cm^3
# Si number density = 23.937844 Si / 1000 Ang^3
#
#
#
# Elastic Constant Matrix: (Units=GPa)
#
#
# Indices 1 2 3 4 5 6 
#
# 1 41.1541 44.2231 21.0731 -0.9674 6.0531 17.9781
# 2 44.2231 123.7252 30.7114 14.0241 -0.8603 24.4551
# 3 21.0731 30.7114 140.4835 26.3367 2.9642 0.9437
# 4 -0.9674 14.0241 26.3367 42.8596 10.5185 0.5318
# 5 6.0531 -0.8603 2.9642 10.5185 23.0437 2.2580
# 6 17.9781 24.4551 0.9437 0.5318 2.2580 40.2448
#
#
#
# Elastic Compliance Matrix: (Units=1/GPa)
#
#
# Indices 1 2 3 4 5 6 
#
# 1 0.056352 -0.017792 -0.007184 0.016805 -0.020916 -0.013242
# 2 -0.017792 0.015671 0.000581 -0.008088 0.009071 -0.001990
# 3 -0.007184 0.000581 0.009284 -0.006986 0.003656 0.002525
# 4 0.016805 -0.008088 -0.006986 0.035549 -0.019870 -0.001784
# 5 -0.020916 0.009071 0.003656 -0.019870 0.057753 0.000768
# 6 -0.013242 -0.001990 0.002525 -0.001784 0.000768 0.031894
#
#
# Mechanical properties :
#
#
# Convention : Reuss Voigt Hill
#
# Bulk Modulus (GPa) = 30.75151 55.26420 43.00786
# Shear Modulus (GPa) = 18.78770 35.18664 26.98717
#
# Velocity S-wave (km/s) = 2.80456 3.83811 3.36130
# Velocity P-wave (km/s) = 4.83340 6.54050 5.75064
#
# Compressibility (1/GPa) = 0.03251873
#
# Stress axis : x y z
#
# Youngs Moduli (GPa) = 17.74549 63.81372 107.70768
#
# Poissons Ratio (x) = 1.13535 0.77376
# Poissons Ratio (y) = 0.31572 -0.06260
# Poissons Ratio (z) = 0.12748 -0.03709
#
# Static dielectric constant tensor:
#      x y z
#    x 1.931720 0.009640 -0.000940 
#    y 0.009640 2.029670 0.008000 
#    z -0.000940 0.008000 1.970990 
# 
# From -- ./inp_files/80406.got.cif
#   From: 2010.05.17/outbox.cif.g08.bks.cpg/sg2_41_cif.got.tgz:80406.got - 2010.06.03 11:33:40.
