data_PCOD9112703
_publ_section_title
;
Structure prediction by ZEFSAII (Michael W. Deem and Ramdas Pophale) SiO2 
 PCOD9112703
Probable space group: P 2
;
_chemical_formula_sum "Si O2"
_cell_formula_units_Z 15
_cell_length_a 11.439312
_cell_length_b 5.953189
_cell_length_c 19.046480
_cell_angle_alpha 90.000000
_cell_angle_beta 152.454782
_cell_angle_gamma 90.000000
_cell_volume 599.829301
_symmetry_space_group_name_H-M "P 2"
_symmetry_group_IT_number 3
_symmetry_cell_setting 'monoclinic'
loop_
_space_group_symop_operation_xyz
x,y,z
-x,y,-z
loop_
_atom_site_type_symbol
_atom_site_label
_atom_site_fract_x
_atom_site_fract_y
_atom_site_fract_z
Si Si1 0.788652 0.672970 0.680480
Si Si2 0.209207 0.169163 0.368166
Si Si3 0.209958 0.441822 0.175864
Si Si4 0.408073 0.339459 0.726477
Si Si5 0.897026 0.035358 0.020789
Si Si6 0.500000 0.391300 0.000000
Si Si7 0.514209 0.718480 0.886468
Si Si8 0.141819 0.108568 0.706600
O O1 0.500000 0.684461 0.500000
O O2 0.879065 0.428322 0.697113
O O3 0.787746 0.632943 0.764292
O O4 0.891735 0.923498 0.714808
O O5 0.500000 0.173480 0.500000
O O6 0.138430 0.130994 0.412802
O O7 0.494935 0.401687 0.299759
O O8 0.110874 0.210285 0.159242
O O9 0.000000 0.475419 0.000000
O O10 0.420418 0.577083 0.770901
O O11 0.188814 0.212230 0.654148
O O12 0.651063 0.192214 0.877546
O O13 0.000000 0.955653 0.000000
O O14 0.757831 0.853433 0.992696
O O15 0.398326 0.555528 0.005624
O O16 0.692659 0.241215 0.146809
O O17 0.274460 0.867393 0.779544
#
# Coordination Sequence:
#
# PCOD9112703 Si02
#       8
#     2   2   2   2   2   1   2   2
#     4  10  23  46  70 100 134 183 233 293 354 421
#     4  10  24  46  72  98 130 185 247 300 345 411
#     4   9  19  41  60 101 141 177 232 286 356 423
#     4   8  18  35  55  85 129 170 215 277 348 413
#     4   8  17  34  51  81 126 171 216 261 335 414
#     4  10  22  34  50  88 132 172 222 266 350 434
#     4  10  19  34  54  79 129 178 216 270 344 426
#     4  10  21  38  57  89 128 177 229 285 346 428
#
# _framework density 25.007116
#
# number of rings (size 3 to 8) (size 9 to 14) (size 15 to 20)
#    0.000    2.933    0.000    0.400    3.733    8.533 
#   19.200    0.000    0.000    3.200    0.000    0.000 
#    0.000    0.000    0.000    0.000    0.000    0.000 
#
# Total GULP energy -83525.847291 kJ/mol
# GULP energy per Si atom -5568.389819 kJ/mol
# Density = 2.495020 g / cm^3
# Si number density = 25.007116 Si / 1000 Ang^3
#
#
#
# Elastic Constant Matrix: (Units=GPa)
#
#
# Indices 1 2 3 4 5 6 
#
# 1 101.1195 22.8184 27.3484 0.0000 39.9728 0.0000
# 2 22.8184 147.9689 17.2242 0.0000 2.5505 0.0000
# 3 27.3484 17.2242 71.1113 0.0000 -4.4024 0.0000
# 4 0.0000 0.0000 0.0000 -11.8037 0.0000 33.1212
# 5 39.9728 2.5505 -4.4024 0.0000 33.6235 0.0000
# 6 0.0000 0.0000 0.0000 33.1212 0.0000 40.8920
#
#
#
# Elastic Compliance Matrix: (Units=1/GPa)
#
#
# Indices 1 2 3 4 5 6 
#
# 1 0.026598 -0.002165 -0.011747 0.000000 -0.032994 0.000000
# 2 -0.002165 0.007150 -0.000779 0.000000 0.001930 0.000000
# 3 -0.011747 -0.000779 0.019798 0.000000 0.016617 0.000000
# 4 0.000000 0.000000 0.000000 -0.025886 0.000000 0.020967
# 5 -0.032994 0.001930 0.016617 0.000000 0.070995 0.000000
# 6 0.000000 0.000000 0.000000 0.020967 0.000000 0.007472
#
#
# Mechanical properties :
#
#
# Convention : Reuss Voigt Hill
#
# Bulk Modulus (GPa) = 41.38937 50.55353 45.97145
# Shear Modulus (GPa) = 34.82767 29.39628 32.11197
#
# Velocity S-wave (km/s) = 3.73595 3.43230 3.58734
# Velocity P-wave (km/s) = 5.93269 5.99726 5.96506
#
# Compressibility (1/GPa) = 0.02416079
#
# Stress axis : x y z
#
# Youngs Moduli (GPa) = 37.59721 139.86839 50.51069
#
# Poissons Ratio (x) = 0.30288 0.59336
# Poissons Ratio (y) = 0.08142 0.03937
# Poissons Ratio (z) = 0.44166 0.10902
#
# Static dielectric constant tensor:
#      x y z
#    x 2.181810 0.000000 -0.017830 
#    y 0.000000 2.079260 0.000000 
#    z -0.017830 0.000000 1.897250 
# 
# From -- ./inp_files/15901.got.cif
#   From: 2010.05.17/outbox.cif.g08.bks.cpg/sg3_8_cif.got.tgz:15901.got - 2010.06.03 18:33:08.
