data_PCOD9112558
_publ_section_title
;
Structure prediction by ZEFSAII (Michael W. Deem and Ramdas Pophale) SiO2 
 PCOD9112558
Probable space group: P 2
;
_chemical_formula_sum "Si O2"
_cell_formula_units_Z 14
_cell_length_a 15.935859
_cell_length_b 5.728852
_cell_length_c 8.757768
_cell_angle_alpha 90.000000
_cell_angle_beta 137.082766
_cell_angle_gamma 90.000000
_cell_volume 544.435100
_symmetry_space_group_name_H-M "P 2"
_symmetry_group_IT_number 3
_symmetry_cell_setting 'monoclinic'
loop_
_space_group_symop_operation_xyz
x,y,z
-x,y,-z
loop_
_atom_site_type_symbol
_atom_site_label
_atom_site_fract_x
_atom_site_fract_y
_atom_site_fract_z
Si Si1 0.178930 0.712870 0.211330
Si Si2 0.186622 0.807616 0.686220
Si Si3 0.434562 0.010964 0.243321
Si Si4 0.876377 0.406292 0.585820
Si Si5 0.667614 0.028124 0.361124
Si Si6 0.631230 0.503319 0.762941
Si Si7 0.946350 0.012772 0.204911
O O1 0.109064 0.565571 0.245514
O O2 0.254520 0.550593 0.196140
O O3 0.281344 0.851477 0.443685
O O4 0.104076 0.907614 0.018408
O O5 0.166905 0.534249 0.628199
O O6 0.147117 0.924826 0.790438
O O7 0.075877 0.898186 0.427455
O O8 0.309613 0.900714 0.769631
O O9 0.500000 0.999274 0.500000
O O10 0.532434 0.074916 0.242038
O O11 0.352202 0.246563 0.142842
O O12 0.381841 0.744875 0.157200
O O13 0.759257 0.246869 0.475473
O O14 0.006904 0.277722 0.737227
O O15 0.500000 0.488883 0.500000
#
# Coordination Sequence:
#
# PCOD9112558 Si02
#       7
#     2   2   2   2   2   2   2
#     4  11  22  37  64 102 129 169 216 278 338 397
#     4   9  22  40  61  88 121 179 222 264 322 406
#     4  10  18  32  58  93 126 166 210 272 328 396
#     4  10  22  40  63  88 131 168 218 277 330 389
#     4  10  20  35  61  96 121 166 223 262 330 394
#     4  10  19  34  59  94 132 168 211 265 338 396
#     4  10  23  42  61  90 132 171 220 267 333 400
#
# _framework density 25.714728000000001
#
# number of rings (size 3 to 8) (size 9 to 14) (size 15 to 20)
#    0.000    2.000    2.857    1.714    2.000   12.000 
#    0.000    1.429    0.000    0.857    0.000    0.000 
#    0.000    0.000    0.000    0.000    0.000    0.000 
#
# Total GULP energy -78257.104345 kJ/mol
# GULP energy per Si atom -5589.793167 kJ/mol
# Density = 2.565620 g / cm^3
# Si number density = 25.714728 Si / 1000 Ang^3
#
#
#
# Elastic Constant Matrix: (Units=GPa)
#
#
# Indices 1 2 3 4 5 6 
#
# 1 200.8435 79.8257 32.8789 0.0000 -21.3156 0.0000
# 2 79.8257 169.8351 30.5747 0.0000 -13.8766 0.0000
# 3 32.8789 30.5747 68.1451 0.0000 -5.0748 0.0000
# 4 0.0000 0.0000 0.0000 25.5029 0.0000 16.1455
# 5 -21.3156 -13.8766 -5.0748 0.0000 30.6355 0.0000
# 6 0.0000 0.0000 0.0000 16.1455 0.0000 41.4850
#
#
#
# Elastic Compliance Matrix: (Units=1/GPa)
#
#
# Indices 1 2 3 4 5 6 
#
# 1 0.006616 -0.002523 -0.001825 0.000000 0.003158 0.000000
# 2 -0.002523 0.007555 -0.002074 0.000000 0.001323 0.000000
# 3 -0.001825 -0.002074 0.016525 0.000000 0.000528 0.000000
# 4 0.000000 0.000000 0.000000 0.052031 0.000000 -0.020250
# 5 0.003158 0.001323 0.000528 0.000000 0.035526 0.000000
# 6 0.000000 0.000000 0.000000 -0.020250 0.000000 0.031986
#
#
# Mechanical properties :
#
#
# Convention : Reuss Voigt Hill
#
# Bulk Modulus (GPa) = 56.01500 80.59802 68.30651
# Shear Modulus (GPa) = 29.57994 39.22766 34.40380
#
# Velocity S-wave (km/s) = 3.39530 3.90999 3.66170
# Velocity P-wave (km/s) = 6.09929 7.19689 6.67070
#
# Compressibility (1/GPa) = 0.01785236
#
# Stress axis : x y z
#
# Youngs Moduli (GPa) = 151.15724 132.35578 60.51474
#
# Poissons Ratio (x) = 0.33392 0.11043
# Poissons Ratio (y) = 0.38136 0.12551
# Poissons Ratio (z) = 0.27583 0.27451
#
# Static dielectric constant tensor:
#      x y z
#    x 2.000050 0.000000 0.007890 
#    y 0.000000 2.210830 0.000000 
#    z 0.007890 0.000000 2.107780 
# 
# From -- ./inp_files/8378.got.cif
#   From: 2010.05.17/outbox.cif.g08.bks.cpg/sg3_5_cif.got.tgz:8378.got - 2010.06.03 18:33:08.
