data_PCOD9112622
_publ_section_title
;
Structure prediction by ZEFSAII (Michael W. Deem and Ramdas Pophale) SiO2 
 PCOD9112622
Probable space group: P 2
;
_chemical_formula_sum "Si O2"
_cell_formula_units_Z 12
_cell_length_a 12.948370
_cell_length_b 4.939559
_cell_length_c 18.303833
_cell_angle_alpha 90.000000
_cell_angle_beta 158.469452
_cell_angle_gamma 90.000000
_cell_volume 429.643375
_symmetry_space_group_name_H-M "P 2"
_symmetry_group_IT_number 3
_symmetry_cell_setting 'monoclinic'
loop_
_space_group_symop_operation_xyz
x,y,z
-x,y,-z
loop_
_atom_site_type_symbol
_atom_site_label
_atom_site_fract_x
_atom_site_fract_y
_atom_site_fract_z
Si Si1 0.796675 0.697700 0.040966
Si Si2 0.316346 0.550098 0.235012
Si Si3 0.830296 0.865752 0.593165
Si Si4 0.000000 0.302499 0.500000
Si Si5 0.584693 0.163287 0.820449
Si Si6 0.500000 0.832556 0.500000
Si Si7 0.296423 0.701892 0.807251
O O1 0.700656 0.423999 0.940899
O O2 0.531702 0.827307 0.910618
O O3 0.808143 0.931234 0.987429
O O4 0.022637 0.649289 0.253706
O O5 0.581675 0.732431 0.382333
O O6 0.395133 0.260856 0.251043
O O7 0.338603 0.637422 0.335097
O O8 0.000000 0.592556 0.000000
O O9 0.684149 0.018392 0.565589
O O10 0.092013 0.916583 0.712763
O O11 0.260179 0.144939 0.633595
O O12 0.119067 0.496813 0.642154
O O13 0.500000 0.556197 0.000000
#
# Coordination Sequence:
#
# PCOD9112622 Si02
#       7
#     2   2   2   1   2   1   2
#     4  10  23  42  71 103 141 186 240 298 374 434
#     4  10  20  39  73 104 148 193 256 300 369 429
#     4   9  18  40  67 104 146 190 245 302 366 436
#     4  10  18  38  64 100 136 184 236 288 368 424
#     4  11  23  42  71 102 145 186 241 302 362 444
#     4   8  18  34  70 100 142 190 242 302 354 434
#     4   9  18  36  65  98 142 185 239 294 365 442
#
# _framework density 27.930143000000001
#
# number of rings (size 3 to 8) (size 9 to 14) (size 15 to 20)
#    1.000    1.333    1.667    1.000    0.000    2.667 
#    0.000   24.167    3.667    0.000    0.000    0.000 
#    0.000    0.000    0.000    0.000    0.000    0.000 
#
# Total GULP energy -66812.851744 kJ/mol
# GULP energy per Si atom -5567.737645 kJ/mol
# Density = 2.786657 g / cm^3
# Si number density = 27.930143 Si / 1000 Ang^3
#
#
#
# Elastic Constant Matrix: (Units=GPa)
#
#
# Indices 1 2 3 4 5 6 
#
# 1 125.4117 20.2302 32.9897 0.0000 11.3734 0.0000
# 2 20.2302 93.3145 46.6266 0.0000 -10.2721 0.0000
# 3 32.9897 46.6266 193.1079 0.0000 -36.0280 0.0000
# 4 0.0000 0.0000 0.0000 18.1300 0.0000 -12.9300
# 5 11.3734 -10.2721 -36.0280 0.0000 69.6765 0.0000
# 6 0.0000 0.0000 0.0000 -12.9300 0.0000 12.9974
#
#
#
# Elastic Compliance Matrix: (Units=1/GPa)
#
#
# Indices 1 2 3 4 5 6 
#
# 1 0.008855 -0.001371 -0.001648 0.000000 -0.002500 0.000000
# 2 -0.001371 0.012405 -0.002632 0.000000 0.000692 0.000000
# 3 -0.001648 -0.002632 0.006722 0.000000 0.003357 0.000000
# 4 0.000000 0.000000 0.000000 0.189860 0.000000 0.188875
# 5 -0.002500 0.000692 0.003357 0.000000 0.016598 0.000000
# 6 0.000000 0.000000 0.000000 0.188875 0.000000 0.264835
#
#
# Mechanical properties :
#
#
# Convention : Reuss Voigt Hill
#
# Bulk Modulus (GPa) = 59.95497 67.94745 63.95121
# Shear Modulus (GPa) = 9.68736 40.95994 25.32365
#
# Velocity S-wave (km/s) = 1.86439 3.83366 3.01438
# Velocity P-wave (km/s) = 5.11344 6.63147 5.92130
#
# Compressibility (1/GPa) = 0.01667918
#
# Stress axis : x y z
#
# Youngs Moduli (GPa) = 112.92817 80.61264 148.77173
#
# Poissons Ratio (x) = 0.11056 0.24518
# Poissons Ratio (y) = 0.15488 0.39155
# Poissons Ratio (z) = 0.18611 0.21216
#
# Static dielectric constant tensor:
#      x y z
#    x 2.469840 0.000000 0.143750 
#    y 0.000000 2.088190 0.000000 
#    z 0.143750 0.000000 2.308170 
# 
# From -- ./inp_files/15998.got.cif
#   From: 2010.05.17/outbox.cif.g08.bks.cpg/sg3_8_cif.got.tgz:15998.got - 2010.06.03 18:33:08.
