data_PCOD9112938
_publ_section_title
;
Structure prediction by ZEFSAII (Michael W. Deem and Ramdas Pophale) SiO2 
 PCOD9112938
Probable space group: P 2
;
_chemical_formula_sum "Si O2"
_cell_formula_units_Z 14
_cell_length_a 14.447199
_cell_length_b 6.818410
_cell_length_c 5.683737
_cell_angle_alpha 90.000000
_cell_angle_beta 67.575332
_cell_angle_gamma 90.000000
_cell_volume 517.549825
_symmetry_space_group_name_H-M "P 2"
_symmetry_group_IT_number 3
_symmetry_cell_setting 'monoclinic'
loop_
_space_group_symop_operation_xyz
x,y,z
-x,y,-z
loop_
_atom_site_type_symbol
_atom_site_label
_atom_site_fract_x
_atom_site_fract_y
_atom_site_fract_z
Si Si1 0.872240 0.900910 0.992348
Si Si2 0.616804 0.468153 0.328686
Si Si3 0.622658 0.025425 0.756197
Si Si4 0.639656 0.000457 0.242732
Si Si5 0.320347 0.453318 0.233875
Si Si6 0.862075 0.955568 0.505341
Si Si7 0.894182 0.539965 0.670777
O O1 0.903709 0.998422 0.207010
O O2 0.751671 0.917270 0.118459
O O3 0.903502 0.012634 0.722173
O O4 0.896125 0.670808 0.910363
O O5 0.500000 0.483539 0.500000
O O6 0.646350 0.238395 0.261005
O O7 0.674321 0.543830 0.507879
O O8 0.639570 0.553259 0.045183
O O9 0.590505 0.943875 0.536896
O O10 0.612832 0.260562 0.785240
O O11 0.743792 0.997829 0.627608
O O12 0.588581 0.957225 0.044089
O O13 0.204784 0.412889 0.274210
O O14 0.877206 0.720477 0.506172
O O15 0.000000 0.448851 0.500000
#
# Coordination Sequence:
#
# PCOD9112938 Si02
#       7
#     2   2   2   2   2   2   2
#     4   8  16  30  50  74 101 140 174 230 263 328
#     4  10  20  36  59  85 108 146 190 239 288 347
#     4   8  14  29  49  73  99 135 170 224 273 321
#     4   8  14  28  52  76 100 126 174 221 285 319
#     4  10  21  34  55  84 115 150 185 236 285 327
#     4   8  16  30  50  71  98 139 185 222 269 316
#     4  10  22  35  53  83 115 161 193 226 269 342
#
# _framework density 27.050536000000001
#
# number of rings (size 3 to 8) (size 9 to 14) (size 15 to 20)
#    0.857    2.286    0.000    0.429    2.000    0.571 
#    0.000    0.714    0.000    0.857    7.429    0.000 
#    0.000    0.000    0.000    0.000    0.000    0.000 
#
# Total GULP energy -78038.722507 kJ/mol
# GULP energy per Si atom -5574.194465 kJ/mol
# Density = 2.698897 g / cm^3
# Si number density = 27.050536 Si / 1000 Ang^3
#
#
#
# Elastic Constant Matrix: (Units=GPa)
#
#
# Indices 1 2 3 4 5 6 
#
# 1 149.3085 7.4344 95.7759 0.0000 21.3166 0.0000
# 2 7.4344 92.9635 7.8187 0.0000 -0.3771 0.0000
# 3 95.7759 7.8187 310.1071 0.0000 51.9060 0.0000
# 4 0.0000 0.0000 0.0000 5.3187 0.0000 -13.8470
# 5 21.3166 -0.3771 51.9060 0.0000 70.8306 0.0000
# 6 0.0000 0.0000 0.0000 -13.8470 0.0000 -6.0037
#
#
#
# Elastic Compliance Matrix: (Units=1/GPa)
#
#
# Indices 1 2 3 4 5 6 
#
# 1 0.008404 -0.000468 -0.002462 0.000000 -0.000727 0.000000
# 2 -0.000468 0.010811 -0.000184 0.000000 0.000333 0.000000
# 3 -0.002462 -0.000184 0.004406 0.000000 -0.002489 0.000000
# 4 0.000000 0.000000 0.000000 0.026842 0.000000 -0.061908
# 5 -0.000727 0.000333 -0.002489 0.000000 0.016163 0.000000
# 6 0.000000 0.000000 0.000000 -0.061908 0.000000 -0.023779
#
#
# Mechanical properties :
#
#
# Convention : Reuss Voigt Hill
#
# Bulk Modulus (GPa) = 57.49124 86.04856 71.76990
# Shear Modulus (GPa) = 91.12059 43.45246 67.28653
#
# Velocity S-wave (km/s) = 5.81020 4.01227 4.99283
# Velocity P-wave (km/s) = 8.14314 7.30368 7.73481
#
# Compressibility (1/GPa) = 0.01739395
#
# Stress axis : x y z
#
# Youngs Moduli (GPa) = 118.99126 92.49715 226.94618
#
# Poissons Ratio (x) = 0.04328 0.55874
# Poissons Ratio (y) = 0.05568 0.04171
# Poissons Ratio (z) = 0.29295 0.01700
#
# Static dielectric constant tensor:
#      x y z
#    x 2.009010 0.000000 0.058090 
#    y 0.000000 2.081290 0.000000 
#    z 0.058090 0.000000 2.150820 
# 
# From -- ./inp_files/3278.got.cif
#   From: 2010.05.17/outbox.cif.g08.bks.cpg/sg3_2_cif.got.tgz:3278.got - 2010.06.03 18:33:08.
