data_PCOD9112709
_publ_section_title
;
Structure prediction by ZEFSAII (Michael W. Deem and Ramdas Pophale) SiO2 
 PCOD9112709
Probable space group: P 2
;
_chemical_formula_sum "Si O2"
_cell_formula_units_Z 14
_cell_length_a 7.963262
_cell_length_b 17.239717
_cell_length_c 9.351792
_cell_angle_alpha 90.000000
_cell_angle_beta 147.354598
_cell_angle_gamma 90.000000
_cell_volume 692.560412
_symmetry_space_group_name_H-M "P 2"
_symmetry_group_IT_number 3
_symmetry_cell_setting 'monoclinic'
loop_
_space_group_symop_operation_xyz
x,y,z
-x,y,-z
loop_
_atom_site_type_symbol
_atom_site_label
_atom_site_fract_x
_atom_site_fract_y
_atom_site_fract_z
Si Si1 0.129968 0.437690 0.754125
Si Si2 0.694708 0.013758 0.379226
Si Si3 0.936389 0.928799 0.121965
Si Si4 0.871474 0.605033 0.247573
Si Si5 0.419073 0.183983 0.608076
Si Si6 0.870273 0.774082 0.246646
Si Si7 0.203589 0.272333 0.894130
O O1 0.028748 0.521553 0.743801
O O2 0.072826 0.360186 0.803254
O O3 0.000000 0.426970 0.500000
O O4 0.500000 0.442786 0.000000
O O5 0.575581 0.101331 0.309879
O O6 0.000000 0.009778 0.500000
O O7 0.414483 0.962013 0.116925
O O8 0.818673 0.983622 0.621052
O O9 0.966142 0.845075 0.216470
O O10 0.000000 0.925452 0.000000
O O11 0.963681 0.689004 0.252484
O O12 0.000000 0.604231 0.500000
O O13 0.500000 0.605851 0.000000
O O14 0.500000 0.174522 0.500000
O O15 0.071939 0.219009 0.363417
O O16 0.662018 0.240434 0.861065
O O17 0.000000 0.783291 0.500000
O O18 0.500000 0.775486 0.000000
O O19 0.500000 0.271061 0.000000
#
# Coordination Sequence:
#
# PCOD9112709 Si02
#       7
#     2   2   2   2   2   2   2
#     4   9  16  29  51  82 113 140 181 235 278 314
#     4  12  25  43  63  83 108 146 194 236 277 331
#     4  12  24  39  59  86 118 149 183 229 287 338
#     4   8  15  27  48  79 110 140 179 230 275 313
#     4  12  25  41  58  82 116 149 184 231 288 339
#     4  10  19  34  56  82 112 147 189 229 271 327
#     4  11  21  37  60  86 112 147 191 234 277 330
#
# _framework density 20.214842999999998
#
# number of rings (size 3 to 8) (size 9 to 14) (size 15 to 20)
#    0.000    1.429    0.000    8.143    0.000    0.000 
#    0.000    0.000    0.000    1.714    0.000    0.000 
#    0.000    0.000    0.000    0.000    0.000    0.000 
#
# Total GULP energy -78183.051157 kJ/mol
# GULP energy per Si atom -5584.503654 kJ/mol
# Density = 2.016883 g / cm^3
# Si number density = 20.214843 Si / 1000 Ang^3
#
#
#
# Elastic Constant Matrix: (Units=GPa)
#
#
# Indices 1 2 3 4 5 6 
#
# 1 48.8290 30.0062 7.7076 0.0000 -5.9439 0.0000
# 2 30.0062 169.7549 36.0981 0.0000 -6.5374 0.0000
# 3 7.7076 36.0981 141.8888 0.0000 -0.4144 0.0000
# 4 0.0000 0.0000 0.0000 34.4290 0.0000 -6.4671
# 5 -5.9439 -6.5374 -0.4144 0.0000 21.2323 0.0000
# 6 0.0000 0.0000 0.0000 -6.4671 0.0000 -7.8583
#
#
#
# Elastic Compliance Matrix: (Units=1/GPa)
#
#
# Indices 1 2 3 4 5 6 
#
# 1 0.023577 -0.003902 -0.000272 0.000000 0.005394 0.000000
# 2 -0.003902 0.006950 -0.001553 0.000000 0.001017 0.000000
# 3 -0.000272 -0.001553 0.007457 0.000000 -0.000409 0.000000
# 4 0.000000 0.000000 0.000000 0.025156 0.000000 -0.020703
# 5 0.005394 0.001017 -0.000409 0.000000 0.048913 0.000000
# 6 0.000000 0.000000 0.000000 -0.020703 0.000000 -0.110217
#
#
# Mechanical properties :
#
#
# Convention : Reuss Voigt Hill
#
# Bulk Modulus (GPa) = 37.69507 56.45517 47.07512
# Shear Modulus (GPa) = 225.89315 28.67132 127.28224
#
# Velocity S-wave (km/s) = 10.58247 3.77016 7.94364
# Velocity P-wave (km/s) = 12.96172 6.85130 10.36693
#
# Compressibility (1/GPa) = 0.02652867
#
# Stress axis : x y z
#
# Youngs Moduli (GPa) = 42.41428 143.88444 134.11061
#
# Poissons Ratio (x) = 0.56142 0.03652
# Poissons Ratio (y) = 0.16550 0.20831
# Poissons Ratio (z) = 0.01155 0.22349
#
# Static dielectric constant tensor:
#      x y z
#    x 1.691710 0.000000 -0.000690 
#    y 0.000000 1.801040 0.000000 
#    z -0.000690 0.000000 1.678590 
# 
# From -- ./inp_files/6164.got.cif
#   From: 2010.05.17/outbox.cif.g08.bks.cpg/sg3_4_cif.got.tgz:6164.got - 2010.06.03 18:33:08.
