data_PCOD9112858
_publ_section_title
;
Structure prediction by ZEFSAII (Michael W. Deem and Ramdas Pophale) SiO2 
 PCOD9112858
Probable space group: P 2
;
_chemical_formula_sum "Si O2"
_cell_formula_units_Z 12
_cell_length_a 9.229016
_cell_length_b 7.495402
_cell_length_c 7.799577
_cell_angle_alpha 90.000000
_cell_angle_beta 111.578652
_cell_angle_gamma 90.000000
_cell_volume 501.722953
_symmetry_space_group_name_H-M "P 2"
_symmetry_group_IT_number 3
_symmetry_cell_setting 'monoclinic'
loop_
_space_group_symop_operation_xyz
x,y,z
-x,y,-z
loop_
_atom_site_type_symbol
_atom_site_label
_atom_site_fract_x
_atom_site_fract_y
_atom_site_fract_z
Si Si1 0.241184 0.900810 0.731103
Si Si2 0.165734 0.278731 0.149990
Si Si3 0.271381 0.665167 0.255970
Si Si4 0.510279 0.178188 0.293608
Si Si5 0.082941 0.976076 0.302888
Si Si6 0.394805 0.581602 0.694341
O O1 0.149091 0.906879 0.510845
O O2 0.291424 0.695877 0.779732
O O3 0.102745 0.962532 0.793786
O O4 0.390120 0.026738 0.758834
O O5 0.178827 0.490043 0.160391
O O6 0.330727 0.202423 0.155101
O O7 0.144577 0.178477 0.321864
O O8 0.000000 0.228089 0.000000
O O9 0.172544 0.845062 0.211092
O O10 0.328070 0.620231 0.475103
O O11 0.433098 0.667261 0.224858
O O12 0.500000 0.151621 0.500000
O O13 0.588474 0.369799 0.285990
#
# Coordination Sequence:
#
# PCOD9112858 Si02
#       6
#     2   2   2   2   2   2
#     4  10  20  31  56  85 112 137 172 228 277 316
#     4  11  22  36  56  80 109 145 183 222 262 316
#     4   9  17  32  53  75 107 137 180 222 264 311
#     4  11  18  34  58  80 105 142 185 223 262 311
#     4  10  20  34  52  84 114 140 173 222 277 319
#     4   9  16  30  53  81 102 136 179 225 265 311
#
# _framework density 23.917581999999999
#
# number of rings (size 3 to 8) (size 9 to 14) (size 15 to 20)
#    0.000    2.000    5.000    1.000    2.333    2.000 
#    0.000    4.167    0.000    0.000    0.000    0.000 
#    0.000    0.000    0.000    0.000    0.000    0.000 
#
# Total GULP energy -66930.557054 kJ/mol
# GULP energy per Si atom -5577.546421 kJ/mol
# Density = 2.386314 g / cm^3
# Si number density = 23.917582 Si / 1000 Ang^3
#
#
#
# Elastic Constant Matrix: (Units=GPa)
#
#
# Indices 1 2 3 4 5 6 
#
# 1 79.1030 54.0017 23.2225 0.0000 36.1399 0.0000
# 2 54.0017 105.1234 2.7288 0.0000 8.7000 0.0000
# 3 23.2225 2.7288 67.5096 0.0000 21.6593 0.0000
# 4 0.0000 0.0000 0.0000 -7.0635 0.0000 -1.5105
# 5 36.1399 8.7000 21.6593 0.0000 26.3149 0.0000
# 6 0.0000 0.0000 0.0000 -1.5105 0.0000 23.1622
#
#
#
# Elastic Compliance Matrix: (Units=1/GPa)
#
#
# Indices 1 2 3 4 5 6 
#
# 1 0.085272 -0.034721 0.008099 0.000000 -0.112297 0.000000
# 2 -0.034721 0.023956 -0.002422 0.000000 0.041758 0.000000
# 3 0.008099 -0.002422 0.020975 0.000000 -0.027587 0.000000
# 4 0.000000 0.000000 0.000000 -0.139627 0.000000 -0.009106
# 5 -0.112297 0.041758 -0.027587 0.000000 0.201127 0.000000
# 6 0.000000 0.000000 0.000000 -0.009106 0.000000 0.042580
#
#
# Mechanical properties :
#
#
# Convention : Reuss Voigt Hill
#
# Bulk Modulus (GPa) = 13.86644 45.73800 29.80222
# Shear Modulus (GPa) = 15.80228 19.93492 17.86860
#
# Velocity S-wave (km/s) = 2.57319 2.89014 2.73626
# Velocity P-wave (km/s) = 3.82604 5.50472 4.74028
#
# Compressibility (1/GPa) = 0.07211657
#
# Stress axis : x y z
#
# Youngs Moduli (GPa) = 11.72712 41.74380 47.67499
#
# Poissons Ratio (x) = 1.44938 -0.38614
# Poissons Ratio (y) = 0.40718 0.11547
# Poissons Ratio (z) = -0.09498 0.10110
#
# Static dielectric constant tensor:
#      x y z
#    x 1.956490 0.000000 -0.047770 
#    y 0.000000 1.885420 0.000000 
#    z -0.047770 0.000000 2.013750 
# 
# From -- ./inp_files/5613.got.cif
#   From: 2010.05.17/outbox.cif.g08.bks.cpg/sg3_3_cif.got.tgz:5613.got - 2010.06.03 18:33:08.
