data_PCOD9112292
_publ_section_title
;
Structure prediction by ZEFSAII (Michael W. Deem and Ramdas Pophale) SiO2 
 PCOD9112292
Probable space group: P -1
;
_chemical_formula_sum "Si O2"
_cell_formula_units_Z 15
_cell_length_a 8.690442
_cell_length_b 19.852223
_cell_length_c 5.571317
_cell_angle_alpha 61.426835
_cell_angle_beta 107.100804
_cell_angle_gamma 131.975063
_cell_volume 627.060455
_symmetry_space_group_name_H-M "P -1"
_symmetry_group_IT_number 2
_symmetry_cell_setting 'triclinic'
loop_
_space_group_symop_operation_xyz
x,y,z
-x,-y,-z
loop_
_atom_site_type_symbol
_atom_site_label
_atom_site_fract_x
_atom_site_fract_y
_atom_site_fract_z
Si Si1 0.248761 0.298239 0.941936
Si Si2 0.665482 0.081188 0.627284
Si Si3 0.898118 0.583183 0.846120
Si Si4 0.500000 0.500000 0.000000
Si Si5 0.363058 0.248775 0.578881
Si Si6 0.582905 0.905155 0.127847
Si Si7 0.148612 0.770842 0.916150
Si Si8 0.162323 0.585019 0.608873
O O1 0.373081 0.413689 0.872455
O O2 0.292608 0.260659 0.267114
O O3 0.002403 0.240813 0.933165
O O4 0.307265 0.274222 0.760577
O O5 0.539091 0.108678 0.663103
O O6 0.853987 0.173877 0.410461
O O7 0.500000 0.000000 0.500000
O O8 0.707311 0.019306 0.917335
O O9 0.055384 0.662324 0.980122
O O10 0.037186 0.615709 0.622960
O O11 0.696164 0.574482 0.780833
O O12 0.807404 0.473596 0.077343
O O13 0.300975 0.140358 0.739789
O O14 0.614795 0.329822 0.536564
O O15 0.386477 0.835092 0.981946
O O16 0.000000 0.500000 0.500000
#
# Coordination Sequence:
#
# PCOD9112292 Si02
#       8
#     2   2   2   1   2   2   2   2
#     4  11  27  44  66  97 141 183 225 272 342 392
#     4   9  20  40  70 100 126 166 224 278 334 404
#     4  10  21  37  60  91 122 169 218 267 325 382
#     4  10  20  46  60  90 134 182 220 268 320 396
#     4  12  26  44  66 100 138 177 222 284 336 394
#     4  10  22  40  72  97 129 171 225 278 336 400
#     4  10  22  41  66  94 129 175 224 273 328 413
#     4  11  22  36  59  89 127 167 224 276 325 386
#
# _framework density 23.921136000000001
#
# number of rings (size 3 to 8) (size 9 to 14) (size 15 to 20)
#    0.000    1.600    1.333    2.400    9.333    0.533 
#    7.200    1.333    0.000    0.000    0.000    0.000 
#    0.000    0.000    0.000    0.000    0.000    0.000 
#
# Total GULP energy -83511.232259 kJ/mol
# GULP energy per Si atom -5567.415484 kJ/mol
# Density = 2.386669 g / cm^3
# Si number density = 23.921136 Si / 1000 Ang^3
#
#
#
# Elastic Constant Matrix: (Units=GPa)
#
#
# Indices 1 2 3 4 5 6 
#
# 1 69.9166 9.9925 62.8166 -6.8948 -24.6182 -25.7058
# 2 9.9925 49.1607 26.0875 -6.6023 3.6849 -25.9701
# 3 62.8166 26.0875 110.1504 -1.4884 -18.0727 -16.2409
# 4 -6.8948 -6.6023 -1.4884 37.5729 -0.5566 -5.7094
# 5 -24.6182 3.6849 -18.0727 -0.5566 40.2276 11.9396
# 6 -25.7058 -25.9701 -16.2409 -5.7094 11.9396 40.1856
#
#
#
# Elastic Compliance Matrix: (Units=1/GPa)
#
#
# Indices 1 2 3 4 5 6 
#
# 1 0.068933 0.040000 -0.039362 0.026774 0.004432 0.056525
# 2 0.040000 0.068284 -0.031411 0.027812 -0.014915 0.065404
# 3 -0.039362 -0.031411 0.034259 -0.016687 0.004432 -0.035320
# 4 0.026774 0.027812 -0.016687 0.041057 -0.003552 0.035245
# 5 0.004432 -0.014915 0.004432 -0.003552 0.035661 -0.016113
# 6 0.056525 0.065404 -0.035320 0.035245 -0.016113 0.098830
#
#
# Mechanical properties :
#
#
# Convention : Reuss Voigt Hill
#
# Bulk Modulus (GPa) = 9.09668 47.44676 28.27172
# Shear Modulus (GPa) = 11.23058 32.28597 21.75827
#
# Velocity S-wave (km/s) = 2.16911 3.67779 3.01920
# Velocity P-wave (km/s) = 3.17560 6.15732 4.89882
#
# Compressibility (1/GPa) = 0.10993022
#
# Stress axis : x y z
#
# Youngs Moduli (GPa) = 14.50678 14.64480 29.18943
#
# Poissons Ratio (x) = -0.58579 1.14894
# Poissons Ratio (y) = -0.58027 0.91687
# Poissons Ratio (z) = 0.57101 0.46001
#
# Static dielectric constant tensor:
#      x y z
#    x 2.213310 -0.028750 0.238200 
#    y -0.028750 1.910580 0.044530 
#    z 0.238200 0.044530 2.205560 
# 
# From -- ./inp_files/37468.got.cif
#   From: 2010.05.17/outbox.cif.g08.bks.cpg/sg2_19_cif.got.tgz:37468.got - 2010.06.03 11:33:40.
