data_PCOD9112947
_publ_section_title
;
Structure prediction by ZEFSAII (Michael W. Deem and Ramdas Pophale) SiO2 
 PCOD9112947
Probable space group: P 2
;
_chemical_formula_sum "Si O2"
_cell_formula_units_Z 13
_cell_length_a 7.757605
_cell_length_b 10.172347
_cell_length_c 10.796008
_cell_angle_alpha 90.000000
_cell_angle_beta 138.221618
_cell_angle_gamma 90.000000
_cell_volume 567.609949
_symmetry_space_group_name_H-M "P 2"
_symmetry_group_IT_number 3
_symmetry_cell_setting 'monoclinic'
loop_
_space_group_symop_operation_xyz
x,y,z
-x,y,-z
loop_
_atom_site_type_symbol
_atom_site_label
_atom_site_fract_x
_atom_site_fract_y
_atom_site_fract_z
Si Si1 0.789875 0.271210 0.501667
Si Si2 0.958439 0.003631 0.622472
Si Si3 0.867062 0.755467 0.736443
Si Si4 0.500000 0.978706 0.000000
Si Si5 0.535768 0.490643 0.212255
Si Si6 0.409198 0.780549 0.171033
Si Si7 0.047842 0.476359 0.788627
O O1 0.588897 0.375425 0.337893
O O2 0.000000 0.262241 0.500000
O O3 0.896361 0.344101 0.679795
O O4 0.746582 0.120045 0.513867
O O5 0.891832 0.863635 0.644625
O O6 0.000000 0.982206 0.500000
O O7 0.223764 0.051481 0.836715
O O8 0.660923 0.808792 0.725045
O O9 0.858029 0.602893 0.691242
O O10 0.138779 0.753611 0.955761
O O11 0.485154 0.888610 0.867759
O O12 0.559378 0.643396 0.260846
O O13 0.750735 0.483626 0.218959
O O14 0.243337 0.472227 0.007857
#
# Coordination Sequence:
#
# PCOD9112947 Si02
#       7
#     2   2   2   1   2   2   2
#     4   9  19  32  51  78 108 144 186 224 268 330
#     4  10  21  36  55  82 118 153 188 230 281 337
#     4   9  18  33  57  86 114 144 186 237 283 333
#     4  10  20  36  60  86 114 148 188 236 288 340
#     4   9  16  30  53  78 109 142 181 230 278 330
#     4   9  17  33  58  87 112 143 187 236 287 333
#     4   9  17  31  54  81 107 140 182 229 277 325
#
# _framework density 22.903051000000001
#
# number of rings (size 3 to 8) (size 9 to 14) (size 15 to 20)
#    0.000    2.769    0.000    2.769    0.000    6.769 
#    0.000    3.077    0.000   25.846    0.000    0.000 
#    0.000    0.000    0.000    0.000    0.000    0.000 
#
# Total GULP energy -72433.986437 kJ/mol
# GULP energy per Si atom -5571.845111 kJ/mol
# Density = 2.285092 g / cm^3
# Si number density = 22.903051 Si / 1000 Ang^3
#
#
#
# Elastic Constant Matrix: (Units=GPa)
#
#
# Indices 1 2 3 4 5 6 
#
# 1 49.6465 29.0826 11.0170 0.0000 -14.3721 0.0000
# 2 29.0826 127.0875 36.4820 0.0000 -20.9145 0.0000
# 3 11.0170 36.4820 85.4953 0.0000 -0.0460 0.0000
# 4 0.0000 0.0000 0.0000 29.1972 0.0000 1.3079
# 5 -14.3721 -20.9145 -0.0460 0.0000 21.0003 0.0000
# 6 0.0000 0.0000 0.0000 1.3079 0.0000 -15.4535
#
#
#
# Elastic Compliance Matrix: (Units=1/GPa)
#
#
# Indices 1 2 3 4 5 6 
#
# 1 0.026826 -0.002983 -0.002176 0.000000 0.015384 0.000000
# 2 -0.002983 0.011353 -0.004455 0.000000 0.009256 0.000000
# 3 -0.002176 -0.004455 0.013875 0.000000 -0.005896 0.000000
# 4 0.000000 0.000000 0.000000 0.034120 0.000000 0.002888
# 5 0.015384 0.009256 -0.005896 0.000000 0.067352 0.000000
# 6 0.000000 0.000000 0.000000 0.002888 0.000000 -0.064466
#
#
# Mechanical properties :
#
#
# Convention : Reuss Voigt Hill
#
# Bulk Modulus (GPa) = 30.46303 46.15472 38.30887
# Shear Modulus (GPa) = 41.93575 19.32532 30.63054
#
# Velocity S-wave (km/s) = 4.28367 2.90795 3.66102
# Velocity P-wave (km/s) = 6.14786 5.60989 5.88503
#
# Compressibility (1/GPa) = 0.03282668
#
# Stress axis : x y z
#
# Youngs Moduli (GPa) = 37.27752 88.08015 72.07264
#
# Poissons Ratio (x) = 0.26270 0.15682
# Poissons Ratio (y) = 0.11118 0.32110
# Poissons Ratio (z) = 0.08111 0.39242
#
# Static dielectric constant tensor:
#      x y z
#    x 1.946300 0.000000 0.070040 
#    y 0.000000 1.853730 0.000000 
#    z 0.070040 0.000000 1.915600 
# 
# From -- ./inp_files/10844.got.cif
#   From: 2010.05.17/outbox.cif.g08.bks.cpg/sg3_6_cif.got.tgz:10844.got - 2010.06.03 18:33:08.
