data_PCOD9112241
_publ_section_title
;
Structure prediction by ZEFSAII (Michael W. Deem and Ramdas Pophale) SiO2 
 PCOD9112241
Probable space group: P -1
;
_chemical_formula_sum "Si O2"
_cell_formula_units_Z 16
_cell_length_a 7.846720
_cell_length_b 11.542914
_cell_length_c 11.338574
_cell_angle_alpha 90.654916
_cell_angle_beta 139.484112
_cell_angle_gamma 92.951361
_cell_volume 664.274525
_symmetry_space_group_name_H-M "P -1"
_symmetry_group_IT_number 2
_symmetry_cell_setting 'triclinic'
loop_
_space_group_symop_operation_xyz
x,y,z
-x,-y,-z
loop_
_atom_site_type_symbol
_atom_site_label
_atom_site_fract_x
_atom_site_fract_y
_atom_site_fract_z
Si Si1 0.175929 0.047002 0.701737
Si Si2 0.364370 0.420465 0.630780
Si Si3 0.898727 0.179804 0.744360
Si Si4 0.411323 0.740678 0.086583
Si Si5 0.168107 0.657696 0.503816
Si Si6 0.325459 0.206304 0.445262
Si Si7 0.078295 0.135675 0.075009
Si Si8 0.265154 0.813529 0.770819
O O1 0.332387 0.170292 0.755042
O O2 0.993408 0.075365 0.715511
O O3 0.374213 0.948368 0.828650
O O4 0.000000 0.000000 0.500000
O O5 0.578965 0.374890 0.832582
O O6 0.358638 0.554749 0.598001
O O7 0.366680 0.340811 0.513831
O O8 0.098227 0.389704 0.567751
O O9 0.892111 0.289300 0.654073
O O10 0.595016 0.154385 0.626955
O O11 0.099054 0.196863 0.958640
O O12 0.171532 0.810127 0.000019
O O13 0.381019 0.732771 0.929486
O O14 0.280767 0.759494 0.651003
O O15 0.040397 0.174082 0.353597
O O16 0.291838 0.168854 0.289907
O O17 0.000000 0.000000 0.000000
#
# Coordination Sequence:
#
# PCOD9112241 Si02
#       8
#     2   2   2   2   2   2   2   2
#     4  12  23  38  63  95 126 169 212 263 323 387
#     4  10  20  45  68  86 130 170 219 268 320 374
#     4  12  23  40  66  94 131 168 215 263 326 385
#     4  11  22  41  64  91 131 172 210 267 321 383
#     4  10  22  40  67  96 120 173 218 269 320 374
#     4  10  23  43  63  91 133 172 209 263 319 384
#     4  11  26  41  64  97 132 174 215 256 322 397
#     4  10  22  41  62  96 131 164 218 263 323 386
#
# _framework density 24.086425999999999
#
# number of rings (size 3 to 8) (size 9 to 14) (size 15 to 20)
#    0.000    1.250    3.750    2.625    1.750    3.000 
#    0.000    0.625    0.000    0.000    0.000    0.000 
#    0.000    0.000    0.000    0.000    0.000    0.000 
#
# Total GULP energy -89381.096625 kJ/mol
# GULP energy per Si atom -5586.318539 kJ/mol
# Density = 2.403160 g / cm^3
# Si number density = 24.086426 Si / 1000 Ang^3
#
#
#
# Elastic Constant Matrix: (Units=GPa)
#
#
# Indices 1 2 3 4 5 6 
#
# 1 75.9900 6.7719 14.2473 2.8996 -18.2645 -3.4546
# 2 6.7719 133.4898 15.0323 -34.6811 -22.4711 -11.0705
# 3 14.2473 15.0323 103.6953 -15.2089 -32.3482 4.4147
# 4 2.8996 -34.6811 -15.2089 28.5711 0.4148 -5.9067
# 5 -18.2645 -22.4711 -32.3482 0.4148 48.1553 -7.8972
# 6 -3.4546 -11.0705 4.4147 -5.9067 -7.8972 29.4710
#
#
#
# Elastic Compliance Matrix: (Units=1/GPa)
#
#
# Indices 1 2 3 4 5 6 
#
# 1 0.014857 0.000511 -0.000403 -0.000456 0.006191 0.003561
# 2 0.000511 0.017378 0.005005 0.026583 0.013877 0.014885
# 3 -0.000403 0.005005 0.015051 0.015209 0.013172 0.006156
# 4 -0.000456 0.026583 0.015209 0.081467 0.026860 0.031179
# 5 0.006191 0.013877 0.013172 0.026860 0.041566 0.020487
# 6 0.003561 0.014885 0.006156 0.031179 0.020487 0.050757
#
#
# Mechanical properties :
#
#
# Convention : Reuss Voigt Hill
#
# Bulk Modulus (GPa) = 17.38754 42.80867 30.09810
# Shear Modulus (GPa) = 21.73709 39.71437 30.72573
#
# Velocity S-wave (km/s) = 3.00736 4.06498 3.57549
# Velocity P-wave (km/s) = 4.39243 6.31218 5.43770
#
# Compressibility (1/GPa) = 0.05751246
#
# Stress axis : x y z
#
# Youngs Moduli (GPa) = 67.30892 57.54243 66.44040
#
# Poissons Ratio (x) = -0.02939 0.02674
# Poissons Ratio (y) = -0.03438 -0.33252
# Poissons Ratio (z) = 0.02709 -0.28799
#
# Static dielectric constant tensor:
#      x y z
#    x 2.033570 0.042300 0.004740 
#    y 0.042300 1.929160 -0.041530 
#    z 0.004740 -0.041530 1.973910 
# 
# From -- ./inp_files/347262.got.cif
#   From: 2010.05.17/outbox.cif.g08.bks.cpg/sg2_174_cif.got.tgz:347262.got - 2010.06.03 11:33:40.
