data_PCOD9112771
_publ_section_title
;
Structure prediction by ZEFSAII (Michael W. Deem and Ramdas Pophale) SiO2 
 PCOD9112771
Probable space group: P 2
;
_chemical_formula_sum "Si O2"
_cell_formula_units_Z 13
_cell_length_a 18.252278
_cell_length_b 6.617899
_cell_length_c 13.144443
_cell_angle_alpha 90.000000
_cell_angle_beta 157.978421
_cell_angle_gamma 90.000000
_cell_volume 595.332285
_symmetry_space_group_name_H-M "P 2"
_symmetry_group_IT_number 3
_symmetry_cell_setting 'monoclinic'
loop_
_space_group_symop_operation_xyz
x,y,z
-x,y,-z
loop_
_atom_site_type_symbol
_atom_site_label
_atom_site_fract_x
_atom_site_fract_y
_atom_site_fract_z
Si Si1 0.639110 0.958520 0.336500
Si Si2 0.699241 0.971238 0.634199
Si Si3 0.716817 0.605764 0.275503
Si Si4 0.240798 0.967242 0.071489
Si Si5 0.799976 0.873763 0.201603
Si Si6 0.936979 0.321219 0.698932
Si Si7 0.000000 0.331808 0.000000
O O1 0.708861 0.868752 0.535951
O O2 0.691303 0.806397 0.313103
O O3 0.755425 0.165312 0.474191
O O4 0.405025 0.988322 0.041838
O O5 0.470355 0.008458 0.355292
O O6 0.781046 0.873027 0.843541
O O7 0.816401 0.180040 0.776892
O O8 0.771247 0.673928 0.232414
O O9 0.879746 0.470055 0.536335
O O10 0.500000 0.509287 0.000000
O O11 0.181707 0.842922 0.895608
O O12 0.119283 0.174430 0.912133
O O13 0.000000 0.972475 0.500000
O O14 0.969405 0.428517 0.850199
#
# Coordination Sequence:
#
# PCOD9112771 Si02
#       7
#     2   2   2   2   2   2   1
#     4   9  19  37  59  80 109 145 185 234 277 323
#     4   8  15  31  57  87 109 138 182 228 282 333
#     4  10  22  37  54  81 113 147 191 227 263 330
#     4   9  17  31  57  85 110 143 183 226 279 332
#     4  10  20  36  53  77 114 147 182 227 267 321
#     4  10  19  36  60  84 110 147 184 228 284 327
#     4   8  16  32  56  86 112 136 184 232 272 336
#
# _framework density 21.836545999999998
#
# number of rings (size 3 to 8) (size 9 to 14) (size 15 to 20)
#    0.000    2.769    0.000    0.923    0.000    3.077 
#    0.000   17.692    0.000    0.000    0.000   19.385 
#    0.000    0.000    0.000    0.000    0.000    0.000 
#
# Total GULP energy -72447.276382 kJ/mol
# GULP energy per Si atom -5572.867414 kJ/mol
# Density = 2.178684 g / cm^3
# Si number density = 21.836546 Si / 1000 Ang^3
#
#
#
# Elastic Constant Matrix: (Units=GPa)
#
#
# Indices 1 2 3 4 5 6 
#
# 1 130.2587 26.7619 51.1521 0.0000 -40.5154 0.0000
# 2 26.7619 32.9575 32.9796 0.0000 -6.2452 0.0000
# 3 51.1521 32.9796 118.0128 0.0000 -17.4399 0.0000
# 4 0.0000 0.0000 0.0000 92.4695 0.0000 -50.0153
# 5 -40.5154 -6.2452 -17.4399 0.0000 51.2982 0.0000
# 6 0.0000 0.0000 0.0000 -50.0153 0.0000 30.8773
#
#
#
# Elastic Compliance Matrix: (Units=1/GPa)
#
#
# Indices 1 2 3 4 5 6 
#
# 1 0.012472 -0.006072 -0.002488 0.000000 0.008266 0.000000
# 2 -0.006072 0.045146 -0.010404 0.000000 -0.002836 0.000000
# 3 -0.002488 -0.010404 0.012616 0.000000 0.001058 0.000000
# 4 0.000000 0.000000 0.000000 0.087303 0.000000 0.141414
# 5 0.008266 -0.002836 0.001058 0.000000 0.026036 0.000000
# 6 0.000000 0.000000 0.000000 0.141414 0.000000 0.261449
#
#
# Mechanical properties :
#
#
# Convention : Reuss Voigt Hill
#
# Bulk Modulus (GPa) = 30.95304 55.89073 43.42188
# Shear Modulus (GPa) = 10.12723 46.28468 28.20596
#
# Velocity S-wave (km/s) = 2.15588 4.60890 3.59790
# Velocity P-wave (km/s) = 4.51694 7.34665 6.09820
#
# Compressibility (1/GPa) = 0.03230701
#
# Stress axis : x y z
#
# Youngs Moduli (GPa) = 80.17686 22.15046 79.26691
#
# Poissons Ratio (x) = 0.13450 0.19719
# Poissons Ratio (y) = 0.48684 0.82466
# Poissons Ratio (z) = 0.19946 0.23044
#
# Static dielectric constant tensor:
#      x y z
#    x 1.854040 0.000000 -0.035630 
#    y 0.000000 1.754140 0.000000 
#    z -0.035630 0.000000 1.836610 
# 
# From -- ./inp_files/12039.got.cif
#   From: 2010.05.17/outbox.cif.g08.bks.cpg/sg3_7_cif.got.tgz:12039.got - 2010.06.03 18:33:08.
