data_PCOD9112386
_publ_section_title
;
Structure prediction by ZEFSAII (Michael W. Deem and Ramdas Pophale) SiO2 
 PCOD9112386
Probable space group: P -1
;
_chemical_formula_sum "Si O2"
_cell_formula_units_Z 16
_cell_length_a 6.921725
_cell_length_b 11.297189
_cell_length_c 13.436993
_cell_angle_alpha 105.936496
_cell_angle_beta 134.043575
_cell_angle_gamma 92.945987
_cell_volume 680.163709
_symmetry_space_group_name_H-M "P -1"
_symmetry_group_IT_number 2
_symmetry_cell_setting 'triclinic'
loop_
_space_group_symop_operation_xyz
x,y,z
-x,-y,-z
loop_
_atom_site_type_symbol
_atom_site_label
_atom_site_fract_x
_atom_site_fract_y
_atom_site_fract_z
Si Si1 0.772063 0.132025 0.643445
Si Si2 0.257851 0.120075 0.670403
Si Si3 0.691619 0.133596 0.995850
Si Si4 0.694876 0.654381 0.397122
Si Si5 0.539730 0.648359 0.763426
Si Si6 0.009094 0.358093 0.301115
Si Si7 0.845713 0.894038 0.054064
Si Si8 0.753256 0.342549 0.537531
O O1 0.695832 0.249145 0.590572
O O2 0.065867 0.156126 0.692362
O O3 0.500000 0.000000 0.500000
O O4 0.888490 0.110354 0.787300
O O5 0.388546 0.231826 0.659986
O O6 0.516397 0.103049 0.822332
O O7 0.000000 0.000000 0.500000
O O8 0.906937 0.273528 0.145562
O O9 0.858051 0.031423 0.042559
O O10 0.430972 0.119643 0.977526
O O11 0.477134 0.503565 0.276080
O O12 0.809792 0.684350 0.558550
O O13 0.972201 0.660138 0.429802
O O14 0.264693 0.642461 0.731609
O O15 0.485367 0.685374 0.640090
O O16 0.779966 0.769111 0.929306
O O17 0.175194 0.508552 0.369144
#
# Coordination Sequence:
#
# PCOD9112386 Si02
#       8
#     2   2   2   2   2   2   2   2
#     4  10  21  35  49  72 104 137 169 202 246 295
#     4  10  21  31  51  78 102 132 165 207 249 298
#     4   9  18  28  45  75 105 126 159 204 256 296
#     4   8  15  26  45  74 100 125 157 203 257 292
#     4   8  14  27  46  71 100 125 158 207 253 290
#     4   8  14  26  46  72 101 126 156 205 255 294
#     4   9  18  29  47  72 100 134 161 204 249 295
#     4   8  15  28  48  69  95 131 166 201 242 295
#
# _framework density 23.52375
#
# number of rings (size 3 to 8) (size 9 to 14) (size 15 to 20)
#    0.000    3.250    0.000    1.500   10.500    1.000 
#    0.000    5.625    0.000    0.750    0.000    1.750 
#    0.000    0.000    0.000    0.000    0.000    0.000 
#
# Total GULP energy -89184.455946 kJ/mol
# GULP energy per Si atom -5574.028497 kJ/mol
# Density = 2.347021 g / cm^3
# Si number density = 23.523750 Si / 1000 Ang^3
#
#
#
# Elastic Constant Matrix: (Units=GPa)
#
#
# Indices 1 2 3 4 5 6 
#
# 1 100.7897 18.2602 16.4725 -7.1561 -11.0296 18.6170
# 2 18.2602 190.2261 123.8914 -22.7254 -13.2253 10.9138
# 3 16.4725 123.8914 224.2362 -6.4034 -23.6381 -1.3822
# 4 -7.1561 -22.7254 -6.4034 20.8486 1.6396 1.3428
# 5 -11.0296 -13.2253 -23.6381 1.6396 31.7583 0.3546
# 6 18.6170 10.9138 -1.3822 1.3428 0.3546 24.5353
#
#
#
# Elastic Compliance Matrix: (Units=1/GPa)
#
#
# Indices 1 2 3 4 5 6 
#
# 1 0.012642 0.000903 -0.000924 0.005401 0.003916 -0.010398
# 2 0.000903 0.010358 -0.005528 0.010295 0.000050 -0.006168
# 3 -0.000924 -0.005528 0.007836 -0.004448 0.003397 0.003796
# 4 0.005401 0.010295 -0.004448 0.060473 -0.000133 -0.012236
# 5 0.003916 0.000050 0.003397 -0.000133 0.035440 -0.003307
# 6 -0.010398 -0.006168 0.003796 -0.012236 -0.003307 0.052322
#
#
# Mechanical properties :
#
#
# Convention : Reuss Voigt Hill
#
# Bulk Modulus (GPa) = 50.66811 92.50004 71.58407
# Shear Modulus (GPa) = 25.41304 39.20365 32.30834
#
# Velocity S-wave (km/s) = 3.29038 4.08678 3.71001
# Velocity P-wave (km/s) = 6.00178 7.85343 6.98919
#
# Compressibility (1/GPa) = 0.01973628
#
# Stress axis : x y z
#
# Youngs Moduli (GPa) = 79.10267 96.54709 127.61546
#
# Poissons Ratio (x) = -0.08714 0.11797
# Poissons Ratio (y) = -0.07140 0.70542
# Poissons Ratio (z) = 0.07313 0.53368
#
# Static dielectric constant tensor:
#      x y z
#    x 2.039510 -0.005570 0.005120 
#    y -0.005570 1.894570 -0.013950 
#    z 0.005120 -0.013950 1.853120 
# 
# From -- ./inp_files/436379.got.cif
#   From: 2010.05.17/outbox.cif.g08.bks.cpg/sg2_219_cif.got.tgz:436379.got - 2010.06.03 11:33:40.
