data_PCOD9112365
_publ_section_title
;
Structure prediction by ZEFSAII (Michael W. Deem and Ramdas Pophale) SiO2 
 PCOD9112365
Probable space group: P -1
;
_chemical_formula_sum "Si O2"
_cell_formula_units_Z 9
_cell_length_a 4.965071
_cell_length_b 11.159538
_cell_length_c 8.843366
_cell_angle_alpha 42.528349
_cell_angle_beta 100.570279
_cell_angle_gamma 113.381984
_cell_volume 299.283260
_symmetry_space_group_name_H-M "P -1"
_symmetry_group_IT_number 2
_symmetry_cell_setting 'triclinic'
loop_
_space_group_symop_operation_xyz
x,y,z
-x,-y,-z
loop_
_atom_site_type_symbol
_atom_site_label
_atom_site_fract_x
_atom_site_fract_y
_atom_site_fract_z
Si Si1 0.462262 0.818578 0.560818
Si Si2 0.000000 0.500000 0.000000
Si Si3 0.492093 0.258582 0.885395
Si Si4 0.942673 0.117622 0.173376
Si Si5 0.908942 0.633931 0.483362
O O1 0.008505 0.710057 0.865019
O O2 0.500000 0.000000 0.500000
O O3 0.782456 0.907175 0.426923
O O4 0.313611 0.621420 0.819904
O O5 0.784511 0.218333 0.560199
O O6 0.722449 0.481635 0.737097
O O7 0.306375 0.284495 0.699894
O O8 0.706707 0.145079 0.005065
O O9 0.247825 0.167683 0.071594
O O10 0.000000 0.500000 0.500000
#
# Coordination Sequence:
#
# PCOD9112365 Si02
#       5
#     2   1   2   2   2
#     4  10  23  45  73 105 141 188 237 290 354 419
#     4  10  20  48  70  96 148 184 234 284 352 418
#     4  11  23  44  71 104 144 181 236 292 354 415
#     4  11  24  45  69 109 138 189 231 295 348 424
#     4  11  22  45  75 104 141 191 233 289 359 417
#
# _framework density 30.071846000000001
#
# number of rings (size 3 to 8) (size 9 to 14) (size 15 to 20)
#    0.000    1.333    4.444    0.000    0.000    2.667 
#   12.000    5.556    0.000    0.000    0.000    0.000 
#    0.000    0.000    0.000    0.000    0.000    0.000 
#
# Total GULP energy -50332.099945 kJ/mol
# GULP energy per Si atom -5592.455549 kJ/mol
# Density = 3.000340 g / cm^3
# Si number density = 30.071846 Si / 1000 Ang^3
#
#
#
# Elastic Constant Matrix: (Units=GPa)
#
#
# Indices 1 2 3 4 5 6 
#
# 1 184.5544 51.2498 82.6021 -9.2572 -13.4984 32.9263
# 2 51.2498 179.0983 52.9194 -24.2775 -9.5734 38.0729
# 3 82.6021 52.9194 221.6796 -67.5947 -36.3102 22.1520
# 4 -9.2572 -24.2775 -67.5947 46.9284 25.1189 -15.5740
# 5 -13.4984 -9.5734 -36.3102 25.1189 99.7757 -4.9432
# 6 32.9263 38.0729 22.1520 -15.5740 -4.9432 62.4533
#
#
#
# Elastic Compliance Matrix: (Units=1/GPa)
#
#
# Indices 1 2 3 4 5 6 
#
# 1 0.008049 -0.001136 -0.004328 -0.006979 0.000980 -0.003679
# 2 -0.001136 0.006911 -0.000372 0.001958 -0.000268 -0.003015
# 3 -0.004328 -0.000372 0.010514 0.015205 -0.000497 0.002531
# 4 -0.006979 0.001958 0.015205 0.049708 -0.007296 0.008911
# 5 0.000980 -0.000268 -0.000497 -0.007296 0.011732 -0.001067
# 6 -0.003679 -0.003015 0.002531 0.008911 -0.001067 0.021029
#
#
# Mechanical properties :
#
#
# Convention : Reuss Voigt Hill
#
# Bulk Modulus (GPa) = 72.45437 106.54167 89.49802
# Shear Modulus (GPa) = 40.25249 68.40220 54.32735
#
# Velocity S-wave (km/s) = 3.66258 4.77448 4.25501
# Velocity P-wave (km/s) = 6.48321 8.11789 7.34616
#
# Compressibility (1/GPa) = 0.01380179
#
# Stress axis : x y z
#
# Youngs Moduli (GPa) = 124.23992 144.70689 95.10852
#
# Poissons Ratio (x) = 0.16440 0.41163
# Poissons Ratio (y) = 0.14115 0.03537
# Poissons Ratio (z) = 0.53771 0.05382
#
# Static dielectric constant tensor:
#      x y z
#    x 0.000000 0.000000 0.000000 
#    y 0.000000 0.000000 0.000000 
#    z 0.000000 0.000000 0.000000 
# 
# From -- ./inp_files/132738.got.cif
#   From: 2010.05.17/outbox.cif.g08.bks.cpg/sg2_67_cif.got.tgz:132738.got - 2010.06.03 11:33:40.
