data_PCOD9112348
_publ_section_title
;
Structure prediction by ZEFSAII (Michael W. Deem and Ramdas Pophale) SiO2 
 PCOD9112348
Probable space group: P -1
;
_chemical_formula_sum "Si O2"
_cell_formula_units_Z 9
_cell_length_a 7.886674
_cell_length_b 7.996555
_cell_length_c 8.954489
_cell_angle_alpha 75.539190
_cell_angle_beta 97.326155
_cell_angle_gamma 144.381989
_cell_volume 315.598962
_symmetry_space_group_name_H-M "P -1"
_symmetry_group_IT_number 2
_symmetry_cell_setting 'triclinic'
loop_
_space_group_symop_operation_xyz
x,y,z
-x,-y,-z
loop_
_atom_site_type_symbol
_atom_site_label
_atom_site_fract_x
_atom_site_fract_y
_atom_site_fract_z
Si Si1 0.320867 0.186500 0.100228
Si Si2 0.645974 0.192083 0.319775
Si Si3 0.248764 0.230675 0.693054
Si Si4 0.500000 0.000000 0.000000
Si Si5 0.122450 0.352894 0.385537
O O1 0.498828 0.253826 0.248605
O O2 0.329697 0.038106 0.015828
O O3 0.500000 0.500000 0.000000
O O4 0.008483 0.046677 0.834838
O O5 0.606346 0.076659 0.174039
O O6 0.994538 0.439767 0.329447
O O7 0.500000 0.000000 0.500000
O O8 0.204867 0.368035 0.558358
O O9 0.584652 0.458372 0.711215
O O10 0.132323 0.983839 0.623729
#
# Coordination Sequence:
#
# PCOD9112348 Si02
#       5
#     2   2   2   1   2
#     4  10  22  47  82 121 173 227 288 367 443 532
#     4  10  20  46  83 118 169 231 292 362 446 532
#     4  10  22  43  79 120 169 219 297 364 439 534
#     4   8  22  42  82 118 176 216 292 372 430 526
#     4  10  21  44  77 123 162 229 293 361 443 535
#
# _framework density 28.517202000000001
#
# number of rings (size 3 to 8) (size 9 to 14) (size 15 to 20)
#    1.333    0.889    2.222    0.000    0.000    1.778 
#    0.000   12.222    0.000    0.000    0.000    0.000 
#    0.000    0.000    0.000    0.000    0.000    0.000 
#
# Total GULP energy -50155.299492 kJ/mol
# GULP energy per Si atom -5572.811055 kJ/mol
# Density = 2.845230 g / cm^3
# Si number density = 28.517202 Si / 1000 Ang^3
#
#
#
# Elastic Constant Matrix: (Units=GPa)
#
#
# Indices 1 2 3 4 5 6 
#
# 1 255.5407 50.5583 66.1702 -13.8116 8.3939 46.8110
# 2 50.5583 80.4553 29.5870 3.4668 -8.1092 37.8727
# 3 66.1702 29.5870 206.5651 3.8643 -10.0827 21.2808
# 4 -13.8116 3.4668 3.8643 56.0618 -9.6099 -8.5905
# 5 8.3939 -8.1092 -10.0827 -9.6099 81.3248 12.0795
# 6 46.8110 37.8727 21.2808 -8.5905 12.0795 51.7291
#
#
#
# Elastic Compliance Matrix: (Units=1/GPa)
#
#
# Indices 1 2 3 4 5 6 
#
# 1 0.005086 -0.001535 -0.001156 0.000951 -0.000297 -0.002776
# 2 -0.001535 0.021585 -0.000723 -0.003349 0.004149 -0.015641
# 3 -0.001156 -0.000723 0.005464 -0.000628 0.000793 -0.000962
# 4 0.000951 -0.003349 -0.000628 0.019238 0.001050 0.004799
# 5 -0.000297 0.004149 0.000793 0.001050 0.013878 -0.006162
# 6 -0.002776 -0.015641 -0.000962 0.004799 -0.006162 0.035926
#
#
# Mechanical properties :
#
#
# Convention : Reuss Voigt Hill
#
# Bulk Modulus (GPa) = 39.51453 92.79913 66.15683
# Shear Modulus (GPa) = 42.93963 64.23951 53.58957
#
# Velocity S-wave (km/s) = 3.88460 4.75137 4.33968
# Velocity P-wave (km/s) = 5.83152 7.91914 6.95411
#
# Compressibility (1/GPa) = 0.02530714
#
# Stress axis : x y z
#
# Youngs Moduli (GPa) = 196.62271 46.32763 182.99975
#
# Poissons Ratio (x) = 0.07113 0.21148
# Poissons Ratio (y) = 0.30188 0.13237
# Poissons Ratio (z) = 0.22722 0.03351
#
# Static dielectric constant tensor:
#      x y z
#    x 2.237380 -0.073280 0.050570 
#    y -0.073280 2.293490 0.033830 
#    z 0.050570 0.033830 2.385010 
# 
# From -- ./inp_files/146006.got.cif
#   From: 2010.05.17/outbox.cif.g08.bks.cpg/sg2_74_cif.got.tgz:146006.got - 2010.06.03 11:33:40.
