data_PCOD9112381
_publ_section_title
;
Structure prediction by ZEFSAII (Michael W. Deem and Ramdas Pophale) SiO2 
 PCOD9112381
Probable space group: P -1
;
_chemical_formula_sum "Si O2"
_cell_formula_units_Z 12
_cell_length_a 5.202127
_cell_length_b 13.538372
_cell_length_c 14.094009
_cell_angle_alpha 51.319359
_cell_angle_beta 69.641197
_cell_angle_gamma 77.448999
_cell_volume 726.473721
_symmetry_space_group_name_H-M "P -1"
_symmetry_group_IT_number 2
_symmetry_cell_setting 'triclinic'
loop_
_space_group_symop_operation_xyz
x,y,z
-x,-y,-z
loop_
_atom_site_type_symbol
_atom_site_label
_atom_site_fract_x
_atom_site_fract_y
_atom_site_fract_z
Si Si1 0.551660 0.724938 0.844164
Si Si2 0.045110 0.377642 0.001192
Si Si3 0.925408 0.565489 0.752192
Si Si4 0.316411 0.006141 0.425270
Si Si5 0.121397 0.396159 0.476966
Si Si6 0.681684 0.260735 0.505180
O O1 0.695188 0.693234 0.945364
O O2 0.685458 0.625147 0.811760
O O3 0.624917 0.863587 0.714492
O O4 0.227854 0.705411 0.903493
O O5 0.048891 0.440663 0.859303
O O6 0.000000 0.500000 0.000000
O O7 0.161553 0.672474 0.644524
O O8 0.826594 0.544429 0.670085
O O9 0.500000 0.000000 0.500000
O O10 0.370655 0.883609 0.427167
O O11 0.000000 0.000000 0.500000
O O12 0.400402 0.334373 0.513991
O O13 0.000000 0.500000 0.500000
O O14 0.894642 0.288719 0.545792
#
# Coordination Sequence:
#
# PCOD9112381 Si02
#       6
#     2   2   2   2   2   2
#     4  11  21  32  49  77 108 145 169 194 255 319
#     4  10  21  31  48  73 108 141 172 205 246 311
#     4   9  20  31  54  72 110 130 173 209 263 296
#     4  12  21  34  52  76 111 145 174 204 252 323
#     4  10  21  35  54  78 103 130 178 225 272 301
#     4  10  21  33  53  77 106 134 172 212 269 304
#
# _framework density 16.518148
#
# number of rings (size 3 to 8) (size 9 to 14) (size 15 to 20)
#    1.000    0.667    1.667    5.500    9.333    0.000 
#    0.000    0.000    0.000    0.000    0.000    7.000 
#    0.000    0.000    0.000    0.000    0.000    0.000 
#
# Total GULP energy -66875.569098 kJ/mol
# GULP energy per Si atom -5572.964092 kJ/mol
# Density = 1.648055 g / cm^3
# Si number density = 16.518148 Si / 1000 Ang^3
#
#
#
# Elastic Constant Matrix: (Units=GPa)
#
#
# Indices 1 2 3 4 5 6 
#
# 1 74.2860 -4.8898 -9.7398 -1.8165 -5.6425 5.5369
# 2 -4.8898 50.7219 -2.9964 -0.3456 -5.4692 -1.3006
# 3 -9.7398 -2.9964 61.0558 -14.6621 -1.2991 9.1469
# 4 -1.8165 -0.3456 -14.6621 18.7142 4.5339 -3.3578
# 5 -5.6425 -5.4692 -1.2991 4.5339 18.0245 -5.6160
# 6 5.5369 -1.3006 9.1469 -3.3578 -5.6160 22.1788
#
#
#
# Elastic Compliance Matrix: (Units=1/GPa)
#
#
# Indices 1 2 3 4 5 6 
#
# 1 0.014707 0.001948 0.003775 0.002879 0.003567 -0.003775
# 2 0.001948 0.020860 0.001173 0.000023 0.007706 0.002208
# 3 0.003775 0.001173 0.022388 0.017343 -0.003846 -0.008455
# 4 0.002879 0.000023 0.017343 0.070982 -0.016068 -0.001193
# 5 0.003567 0.007706 -0.003846 -0.016068 0.067636 0.015841
# 6 -0.003775 0.002208 -0.008455 -0.001193 0.015841 0.053478
#
#
# Mechanical properties :
#
#
# Convention : Reuss Voigt Hill
#
# Bulk Modulus (GPa) = 13.93776 16.75686 15.34731
# Shear Modulus (GPa) = 19.21790 25.36280 22.29035
#
# Velocity S-wave (km/s) = 3.41463 3.92273 3.67747
# Velocity P-wave (km/s) = 4.89922 5.53928 5.22906
#
# Compressibility (1/GPa) = 0.07174753
#
# Stress axis : x y z
#
# Youngs Moduli (GPa) = 67.99323 47.93826 44.66721
#
# Poissons Ratio (x) = -0.09340 -0.16860
# Poissons Ratio (y) = -0.13247 -0.05240
# Poissons Ratio (z) = -0.25665 -0.05624
#
# Static dielectric constant tensor:
#      x y z
#    x 1.592070 0.008320 0.012430 
#    y 0.008320 1.528060 0.004430 
#    z 0.012430 0.004430 1.580530 
# 
# From -- ./inp_files/481006.got.cif
#   From: 2010.05.17/outbox.cif.g08.bks.cpg/sg2_241_cif.got.tgz:481006.got - 2010.06.03 11:33:40.
