data_PCOD9112278
_publ_section_title
;
Structure prediction by ZEFSAII (Michael W. Deem and Ramdas Pophale) SiO2 
 PCOD9112278
Probable space group: P -1
;
_chemical_formula_sum "Si O2"
_cell_formula_units_Z 13
_cell_length_a 9.853592
_cell_length_b 8.853321
_cell_length_c 9.502285
_cell_angle_alpha 90.920654
_cell_angle_beta 134.955099
_cell_angle_gamma 60.265633
_cell_volume 427.365150
_symmetry_space_group_name_H-M "P -1"
_symmetry_group_IT_number 2
_symmetry_cell_setting 'triclinic'
loop_
_space_group_symop_operation_xyz
x,y,z
-x,-y,-z
loop_
_atom_site_type_symbol
_atom_site_label
_atom_site_fract_x
_atom_site_fract_y
_atom_site_fract_z
Si Si1 0.609262 0.709091 0.824403
Si Si2 0.058027 0.244421 0.779005
Si Si3 0.000000 0.000000 0.500000
Si Si4 0.812529 0.411755 0.223183
Si Si5 0.328093 0.321247 0.628194
Si Si6 0.837595 0.882979 0.871763
Si Si7 0.181428 0.873982 0.371429
O O1 0.749720 0.497663 0.018731
O O2 0.487038 0.667199 0.597059
O O3 0.770192 0.743889 0.831274
O O4 0.684578 0.805703 0.007622
O O5 0.823178 0.475043 0.572603
O O6 0.034286 0.100938 0.675290
O O7 0.963225 0.190883 0.848812
O O8 0.182991 0.759581 0.718248
O O9 0.277133 0.906162 0.601831
O O10 0.629438 0.611577 0.196217
O O11 0.103154 0.317195 0.478437
O O12 0.582775 0.111305 0.744722
O O13 0.899430 0.938417 0.777672
#
# Coordination Sequence:
#
# PCOD9112278 Si02
#       7
#     2   2   1   2   2   2   2
#     4   9  23  43  70 100 135 184 233 276 349 412
#     4   9  22  44  65 104 133 183 231 270 355 403
#     4  12  26  42  68 100 146 184 218 306 342 400
#     4  10  22  44  67 104 143 178 236 280 348 414
#     4  10  20  45  73  98 140 185 229 289 337 416
#     4  10  23  43  72 101 135 186 230 282 351 402
#     4  12  23  46  65 102 145 174 234 291 338 416
#
# _framework density 30.418956000000001
#
# number of rings (size 3 to 8) (size 9 to 14) (size 15 to 20)
#    0.923    0.923    1.538    1.846    0.000    3.077 
#    5.538    2.308    0.000    0.000    0.000    0.000 
#    0.000    0.000    0.000    0.000    0.000    0.000 
#
# Total GULP energy -72369.043821 kJ/mol
# GULP energy per Si atom -5566.849525 kJ/mol
# Density = 3.034972 g / cm^3
# Si number density = 30.418956 Si / 1000 Ang^3
#
#
#
# Elastic Constant Matrix: (Units=GPa)
#
#
# Indices 1 2 3 4 5 6 
#
# 1 178.7511 77.7334 90.1072 3.7838 -30.3929 25.5913
# 2 77.7334 203.1486 101.5584 -8.9205 7.4400 56.5961
# 3 90.1072 101.5584 258.4897 35.8408 -11.9569 49.3080
# 4 3.7838 -8.9205 35.8408 47.7278 19.7823 -2.9002
# 5 -30.3929 7.4400 -11.9569 19.7823 72.5304 4.7172
# 6 25.5913 56.5961 49.3080 -2.9002 4.7172 65.1336
#
#
#
# Elastic Compliance Matrix: (Units=1/GPa)
#
#
# Indices 1 2 3 4 5 6 
#
# 1 0.008150 -0.002591 -0.001331 -0.001796 0.003971 -0.000311
# 2 -0.002591 0.008693 -0.002578 0.004962 -0.003488 -0.004111
# 3 -0.001331 -0.002578 0.007069 -0.007126 0.003019 -0.003125
# 4 -0.001796 0.004962 -0.007126 0.032402 -0.011538 0.004067
# 5 0.003971 -0.003488 0.003019 -0.011538 0.019633 -0.002750
# 6 -0.000311 -0.004111 -0.003125 0.004067 -0.002750 0.021793
#
#
# Mechanical properties :
#
#
# Convention : Reuss Voigt Hill
#
# Bulk Modulus (GPa) = 91.63018 131.02082 111.32550
# Shear Modulus (GPa) = 43.71509 61.81105 52.76307
#
# Velocity S-wave (km/s) = 3.79502 4.51265 4.16931
# Velocity P-wave (km/s) = 7.02788 8.38556 7.73656
#
# Compressibility (1/GPa) = 0.01091344
#
# Stress axis : x y z
#
# Youngs Moduli (GPa) = 122.70340 115.03035 141.46206
#
# Poissons Ratio (x) = 0.29801 0.18830
# Poissons Ratio (y) = 0.31789 0.36463
# Poissons Ratio (z) = 0.16333 0.29650
#
# Static dielectric constant tensor:
#      x y z
#    x 2.612200 -0.148480 -0.245250 
#    y -0.148480 2.434800 0.247070 
#    z -0.245250 0.247070 2.513340 
# 
# From -- ./inp_files/412478.got.cif
#   From: 2010.05.17/outbox.cif.g08.bks.cpg/sg2_207_cif.got.tgz:412478.got - 2010.06.03 11:33:40.
