data_PCOD9112748
_publ_section_title
;
Structure prediction by ZEFSAII (Michael W. Deem and Ramdas Pophale) SiO2 
 PCOD9112748
Probable space group: P 2
;
_chemical_formula_sum "Si O2"
_cell_formula_units_Z 16
_cell_length_a 14.554427
_cell_length_b 5.459501
_cell_length_c 9.859421
_cell_angle_alpha 90.000000
_cell_angle_beta 76.811444
_cell_angle_gamma 90.000000
_cell_volume 762.765364
_symmetry_space_group_name_H-M "P 2"
_symmetry_group_IT_number 3
_symmetry_cell_setting 'monoclinic'
loop_
_space_group_symop_operation_xyz
x,y,z
-x,y,-z
loop_
_atom_site_type_symbol
_atom_site_label
_atom_site_fract_x
_atom_site_fract_y
_atom_site_fract_z
Si Si1 0.973300 0.962920 0.163312
Si Si2 0.133041 0.456599 0.744217
Si Si3 0.894622 0.317201 0.550121
Si Si4 0.514952 0.171002 0.831447
Si Si5 0.559286 0.670513 0.120345
Si Si6 0.269559 0.071754 0.216801
Si Si7 0.135266 0.694090 0.221167
Si Si8 0.757742 0.421556 0.026096
O O1 0.903669 0.736585 0.225389
O O2 0.069185 0.921140 0.212384
O O3 0.939240 0.238416 0.194001
O O4 0.000000 0.927513 0.000000
O O5 0.145394 0.406515 0.580682
O O6 0.215857 0.398756 0.824831
O O7 0.808062 0.184482 0.655498
O O8 0.912245 0.544738 0.644040
O O9 0.000000 0.198294 0.500000
O O10 0.453939 0.935702 0.807615
O O11 0.483339 0.435111 0.787801
O O12 0.624627 0.117618 0.771756
O O13 0.500000 0.193556 0.000000
O O14 0.666070 0.594648 0.052900
O O15 0.500000 0.693750 0.000000
O O16 0.239062 0.788737 0.224394
O O17 0.261890 0.189600 0.066919
O O18 0.151991 0.542542 0.078631
#
# Coordination Sequence:
#
# PCOD9112748 Si02
#       8
#     2   2   2   2   2   2   2   2
#     4  12  24  43  66  92 131 175 225 283 330 383
#     4  12  27  43  64  95 135 178 222 270 341 395
#     4  11  25  43  62  95 135 187 228 271 325 397
#     4  10  19  35  61  97 128 157 210 275 336 385
#     4  10  19  35  61  95 128 157 202 269 343 386
#     4  11  23  39  67 100 129 174 229 278 330 400
#     4  11  23  38  66  91 130 173 232 270 327 387
#     4  11  23  40  64 103 129 171 218 284 338 404
#
# _framework density 20.976306000000001
#
# number of rings (size 3 to 8) (size 9 to 14) (size 15 to 20)
#    0.000    1.000    5.000    3.375    5.250    0.500 
#    0.000    0.000    0.000    0.750    0.000    0.000 
#    0.000    0.000    0.000    0.000    0.000    0.000 
#
# Total GULP energy -89235.508286 kJ/mol
# GULP energy per Si atom -5577.219268 kJ/mol
# Density = 2.092856 g / cm^3
# Si number density = 20.976306 Si / 1000 Ang^3
#
#
#
# Elastic Constant Matrix: (Units=GPa)
#
#
# Indices 1 2 3 4 5 6 
#
# 1 71.0180 -3.8181 37.6290 0.0000 -9.1201 0.0000
# 2 -3.8181 67.9986 -3.1946 0.0000 -6.8449 0.0000
# 3 37.6290 -3.1946 96.6455 0.0000 3.7564 0.0000
# 4 0.0000 0.0000 0.0000 15.2318 0.0000 -6.9427
# 5 -9.1201 -6.8449 3.7564 0.0000 29.1372 0.0000
# 6 0.0000 0.0000 0.0000 -6.9427 0.0000 27.1578
#
#
#
# Elastic Compliance Matrix: (Units=1/GPa)
#
#
# Indices 1 2 3 4 5 6 
#
# 1 0.019185 0.001454 -0.007707 0.000000 0.007340 0.000000
# 2 0.001454 0.015185 -0.000222 0.000000 0.004051 0.000000
# 3 -0.007707 -0.000222 0.013504 0.000000 -0.004205 0.000000
# 4 0.000000 0.000000 0.000000 0.074311 0.000000 0.018997
# 5 0.007340 0.004051 -0.004205 0.000000 0.038112 0.000000
# 6 0.000000 0.000000 0.000000 0.018997 0.000000 0.041678
#
#
# Mechanical properties :
#
#
# Convention : Reuss Voigt Hill
#
# Bulk Modulus (GPa) = 28.63261 32.98830 30.81046
# Shear Modulus (GPa) = 22.06855 27.97509 25.02182
#
# Velocity S-wave (km/s) = 3.24708 3.65588 3.45753
# Velocity P-wave (km/s) = 5.26666 5.79493 5.53710
#
# Compressibility (1/GPa) = 0.03492521
#
# Stress axis : x y z
#
# Youngs Moduli (GPa) = 52.12308 65.85364 74.05228
#
# Poissons Ratio (x) = -0.09575 0.57073
# Poissons Ratio (y) = -0.07579 0.01641
# Poissons Ratio (z) = 0.40172 0.01460
#
# Static dielectric constant tensor:
#      x y z
#    x 1.780330 0.000000 0.007650 
#    y 0.000000 1.867990 0.000000 
#    z 0.007650 0.000000 1.767130 
# 
# From -- ./inp_files/8300.got.cif
#   From: 2010.05.17/outbox.cif.g08.bks.cpg/sg3_5_cif.got.tgz:8300.got - 2010.06.03 18:33:08.
