data_PCOD9113040
_publ_section_title
;
Structure prediction by ZEFSAII (Michael W. Deem and Ramdas Pophale) SiO2 
 PCOD9113040
Probable space group: P 2
;
_chemical_formula_sum "Si O2"
_cell_formula_units_Z 16
_cell_length_a 9.273110
_cell_length_b 18.727073
_cell_length_c 8.157894
_cell_angle_alpha 90.000000
_cell_angle_beta 147.284245
_cell_angle_gamma 90.000000
_cell_volume 765.678281
_symmetry_space_group_name_H-M "P 2"
_symmetry_group_IT_number 3
_symmetry_cell_setting 'monoclinic'
loop_
_space_group_symop_operation_xyz
x,y,z
-x,y,-z
loop_
_atom_site_type_symbol
_atom_site_label
_atom_site_fract_x
_atom_site_fract_y
_atom_site_fract_z
Si Si1 0.392392 0.803130 0.082433
Si Si2 0.409823 0.342987 0.094474
Si Si3 0.772653 0.948564 0.162338
Si Si4 0.516029 0.186588 0.320432
Si Si5 0.886253 0.416871 0.706680
Si Si6 0.766415 0.569972 0.645269
Si Si7 0.979686 0.086271 0.174591
Si Si8 0.118690 0.726559 0.297874
O O1 0.628106 0.776580 0.425500
O O2 0.500000 0.803984 0.000000
O O3 0.306564 0.884722 0.035663
O O4 0.135513 0.752144 0.842342
O O5 0.474189 0.259725 0.183453
O O6 0.599236 0.381788 0.407045
O O7 0.500000 0.364392 0.000000
O O8 0.106011 0.368762 0.824823
O O9 0.000000 0.917590 0.500000
O O10 0.917965 0.015258 0.216667
O O11 0.500000 0.968683 0.000000
O O12 0.500000 0.204185 0.500000
O O13 0.772840 0.136560 0.539090
O O14 0.271961 0.136539 0.044863
O O15 0.838880 0.499485 0.611244
O O16 0.000000 0.418007 0.000000
O O17 0.500000 0.559876 0.500000
O O18 0.774896 0.646359 0.565105
O O19 0.000000 0.575904 0.000000
O O20 0.000000 0.068916 0.000000
O O21 0.000000 0.730710 0.000000
#
# Coordination Sequence:
#
# PCOD9113040 Si02
#       8
#     2   2   2   2   2   2   2   2
#     4  11  23  41  61  89 129 169 205 250 315 385
#     4  12  25  40  60  94 130 159 201 260 308 359
#     4  11  23  41  63  88 123 168 209 252 309 382
#     4  10  21  39  62  88 120 162 203 247 305 375
#     4  11  22  41  66  88 118 168 211 247 305 378
#     4  10  20  38  63  93 122 157 210 265 310 367
#     4  10  22  40  63  90 119 152 204 261 305 356
#     4  11  22  40  65  94 122 159 212 268 312 362
#
# _framework density 20.896507
#
# number of rings (size 3 to 8) (size 9 to 14) (size 15 to 20)
#    0.000    1.250    0.000    8.250    0.000    3.000 
#    0.000    8.750    0.000    0.000    0.000    0.000 
#    0.000    0.000    0.000    0.000    0.000    0.000 
#
# Total GULP energy -89332.705795 kJ/mol
# GULP energy per Si atom -5583.294112 kJ/mol
# Density = 2.084895 g / cm^3
# Si number density = 20.896507 Si / 1000 Ang^3
#
#
#
# Elastic Constant Matrix: (Units=GPa)
#
#
# Indices 1 2 3 4 5 6 
#
# 1 53.7926 36.6339 17.1151 0.0000 19.0988 0.0000
# 2 36.6339 136.2127 42.3770 0.0000 5.7302 0.0000
# 3 17.1151 42.3770 132.8167 0.0000 26.8040 0.0000
# 4 0.0000 0.0000 0.0000 122.8434 0.0000 -19.9912
# 5 19.0988 5.7302 26.8040 0.0000 35.1338 0.0000
# 6 0.0000 0.0000 0.0000 -19.9912 0.0000 33.0456
#
#
#
# Elastic Compliance Matrix: (Units=1/GPa)
#
#
# Indices 1 2 3 4 5 6 
#
# 1 0.028868 -0.007701 0.001951 0.000000 -0.015925 0.000000
# 2 -0.007701 0.010223 -0.003283 0.000000 0.005024 0.000000
# 3 0.001951 -0.003283 0.009966 0.000000 -0.008128 0.000000
# 4 0.000000 0.000000 0.000000 0.009029 0.000000 0.005462
# 5 -0.015925 0.005024 -0.008128 0.000000 0.042501 0.000000
# 6 0.000000 0.000000 0.000000 0.005462 0.000000 0.033566
#
#
# Mechanical properties :
#
#
# Convention : Reuss Voigt Hill
#
# Bulk Modulus (GPa) = 32.26872 57.23044 44.74958
# Shear Modulus (GPa) = 30.76012 53.31762 42.03887
#
# Velocity S-wave (km/s) = 3.84086 5.05673 4.49014
# Velocity P-wave (km/s) = 5.92834 7.84481 6.95292
#
# Compressibility (1/GPa) = 0.03098976
#
# Stress axis : x y z
#
# Youngs Moduli (GPa) = 34.64083 97.82192 100.34491
#
# Poissons Ratio (x) = 0.75331 -0.19577
# Poissons Ratio (y) = 0.26676 0.32945
# Poissons Ratio (z) = -0.06758 0.32117
#
# Static dielectric constant tensor:
#      x y z
#    x 1.749430 0.000000 0.002860 
#    y 0.000000 1.744640 0.000000 
#    z 0.002860 0.000000 1.713290 
# 
# From -- ./inp_files/6300.got.cif
#   From: 2010.05.17/outbox.cif.g08.bks.cpg/sg3_4_cif.got.tgz:6300.got - 2010.06.03 18:33:08.
