data_PCOD9113364
_publ_section_title
;
Structure prediction by ZEFSAII (Michael W. Deem and Ramdas Pophale) SiO2 
 PCOD9113364
Probable space group: P 2
;
_chemical_formula_sum "Si O2"
_cell_formula_units_Z 16
_cell_length_a 9.234023
_cell_length_b 9.527646
_cell_length_c 17.181095
_cell_angle_alpha 90.000000
_cell_angle_beta 30.031079
_cell_angle_gamma 90.000000
_cell_volume 756.493464
_symmetry_space_group_name_H-M "P 2"
_symmetry_group_IT_number 3
_symmetry_cell_setting 'monoclinic'
loop_
_space_group_symop_operation_xyz
x,y,z
-x,y,-z
loop_
_atom_site_type_symbol
_atom_site_label
_atom_site_fract_x
_atom_site_fract_y
_atom_site_fract_z
Si Si1 0.653853 0.023500 0.343542
Si Si2 0.702095 0.190126 0.831851
Si Si3 0.729438 0.710255 0.788154
Si Si4 0.953276 0.962105 0.433040
Si Si5 0.776973 0.314448 0.320208
Si Si6 0.546666 0.435982 0.152254
Si Si7 0.196817 0.528664 0.811411
Si Si8 0.910121 0.780476 0.875712
O O1 0.500000 0.013956 0.500000
O O2 0.757189 0.179634 0.272554
O O3 0.391241 0.970419 0.414475
O O4 0.933861 0.926457 0.211199
O O5 0.879614 0.066539 0.705400
O O6 0.544199 0.285064 0.839496
O O7 0.935454 0.292893 0.764258
O O8 0.500000 0.145497 0.000000
O O9 0.656597 0.555061 0.791522
O O10 0.861947 0.708644 0.813499
O O11 0.930627 0.806628 0.640845
O O12 0.412804 0.784942 0.939753
O O13 0.000000 0.004155 0.500000
O O14 0.500000 0.289354 0.500000
O O15 0.722838 0.462594 0.307367
O O16 0.576818 0.476115 0.229532
O O17 0.879674 0.460852 0.972686
O O18 0.118838 0.690800 0.835624
#
# Coordination Sequence:
#
# PCOD9113364 Si02
#       8
#     2   2   2   2   2   2   2   2
#     4  11  22  43  62  92 130 171 217 268 325 398
#     4  12  24  43  73  97 129 180 231 271 328 399
#     4  10  22  42  68  98 127 172 222 271 329 393
#     4  12  28  45  65  99 143 174 216 285 343 389
#     4  11  22  41  65  93 130 170 217 271 327 400
#     4  10  23  41  65  98 133 165 219 281 327 387
#     4  10  22  41  63  96 133 168 214 275 332 383
#     4  10  21  39  72  94 123 169 228 268 314 398
#
# _framework density 21.150214999999999
#
# number of rings (size 3 to 8) (size 9 to 14) (size 15 to 20)
#    0.000    1.250    5.000    0.750    8.750    0.500 
#    2.250    0.625    0.000    0.000    0.000    0.000 
#    0.000    0.000    0.000    0.000    0.000    0.000 
#
# Total GULP energy -89200.192262 kJ/mol
# GULP energy per Si atom -5575.012016 kJ/mol
# Density = 2.110208 g / cm^3
# Si number density = 21.150215 Si / 1000 Ang^3
#
#
#
# Elastic Constant Matrix: (Units=GPa)
#
#
# Indices 1 2 3 4 5 6 
#
# 1 91.4114 0.6866 23.1928 0.0000 -9.8779 0.0000
# 2 0.6866 49.7990 16.9488 0.0000 -12.0815 0.0000
# 3 23.1928 16.9488 26.3343 0.0000 -7.3880 0.0000
# 4 0.0000 0.0000 0.0000 31.0797 0.0000 -9.7174
# 5 -9.8779 -12.0815 -7.3880 0.0000 22.3068 0.0000
# 6 0.0000 0.0000 0.0000 -9.7174 0.0000 15.9949
#
#
#
# Elastic Compliance Matrix: (Units=1/GPa)
#
#
# Indices 1 2 3 4 5 6 
#
# 1 0.015667 0.006684 -0.016689 0.000000 0.005031 0.000000
# 2 0.006684 0.030447 -0.022078 0.000000 0.012138 0.000000
# 3 -0.016689 -0.022078 0.067748 0.000000 0.003090 0.000000
# 4 0.000000 0.000000 0.000000 0.039720 0.000000 0.024131
# 5 0.005031 0.012138 0.003090 0.000000 0.054655 0.000000
# 6 0.000000 0.000000 0.000000 0.024131 0.000000 0.077181
#
#
# Mechanical properties :
#
#
# Convention : Reuss Voigt Hill
#
# Bulk Modulus (GPa) = 20.12159 27.68900 23.90530
# Shear Modulus (GPa) = 13.65568 22.32405 17.98987
#
# Velocity S-wave (km/s) = 2.54373 3.25237 2.91963
# Velocity P-wave (km/s) = 4.26165 5.21765 4.76370
#
# Compressibility (1/GPa) = 0.04969785
#
# Stress axis : x y z
#
# Youngs Moduli (GPa) = 63.82727 32.84357 14.76069
#
# Poissons Ratio (x) = -0.21954 0.24634
# Poissons Ratio (y) = -0.42665 0.32588
# Poissons Ratio (z) = 1.06522 0.72511
#
# Static dielectric constant tensor:
#      x y z
#    x 1.877040 0.000000 0.015120 
#    y 0.000000 1.840880 0.000000 
#    z 0.015120 0.000000 1.763440 
# 
# From -- ./inp_files/15034.got.cif
#   From: 2010.05.17/outbox.cif.g08.bks.cpg/sg3_8_cif.got.tgz:15034.got - 2010.06.03 18:33:08.
