data_PCOD9113785
_publ_section_title
;
Structure prediction by ZEFSAII (Michael W. Deem and Ramdas Pophale) SiO2 
 PCOD9113785
Probable space group: P 2
;
_chemical_formula_sum "Si O2"
_cell_formula_units_Z 15
_cell_length_a 11.677812
_cell_length_b 5.540552
_cell_length_c 11.387317
_cell_angle_alpha 90.000000
_cell_angle_beta 58.835468
_cell_angle_gamma 90.000000
_cell_volume 630.448664
_symmetry_space_group_name_H-M "P 2"
_symmetry_group_IT_number 3
_symmetry_cell_setting 'monoclinic'
loop_
_space_group_symop_operation_xyz
x,y,z
-x,y,-z
loop_
_atom_site_type_symbol
_atom_site_label
_atom_site_fract_x
_atom_site_fract_y
_atom_site_fract_z
Si Si1 0.853300 0.404590 0.022285
Si Si2 0.878982 0.765672 0.631772
Si Si3 0.222728 0.037282 0.759881
Si Si4 0.918497 0.906827 0.872002
Si Si5 0.631934 0.430848 0.759688
Si Si6 0.557650 0.806383 0.201677
Si Si7 0.500000 0.084416 0.000000
Si Si8 0.295112 0.056285 0.450701
O O1 0.844881 0.662328 0.959540
O O2 0.853819 0.165996 0.938812
O O3 0.769780 0.297083 0.177692
O O4 0.000000 0.422038 0.000000
O O5 0.926711 0.878512 0.727929
O O6 0.746653 0.615187 0.733908
O O7 0.826012 0.954381 0.563323
O O8 0.000000 0.630277 0.500000
O O9 0.319773 0.860923 0.779826
O O10 0.572502 0.909617 0.659496
O O11 0.070963 0.934137 0.840463
O O12 0.485470 0.539005 0.812028
O O13 0.610688 0.240201 0.873691
O O14 0.679498 0.321609 0.611792
O O15 0.731858 0.051164 0.398230
O O16 0.564407 0.934942 0.071587
#
# Coordination Sequence:
#
# PCOD9113785 Si02
#       8
#     2   2   2   2   2   2   1   2
#     4  10  24  45  66 107 148 195 244 306 366 444
#     4  11  24  43  73 106 147 198 243 310 378 453
#     4  11  23  46  77 100 155 196 243 311 386 457
#     4  11  25  46  72 111 153 188 259 302 370 453
#     4  10  24  44  73 105 142 190 250 311 380 450
#     4  10  23  45  71 107 140 189 247 305 384 445
#     4  10  22  44  72 102 148 180 250 310 374 454
#     4  10  23  47  67 108 146 188 251 315 371 465
#
# _framework density 23.792581999999999
#
# number of rings (size 3 to 8) (size 9 to 14) (size 15 to 20)
#    0.000    1.600    1.333    2.000    3.733    5.867 
#   16.800    5.333    0.000    0.000    0.000    0.000 
#    0.000    0.000    0.000    0.000    0.000    0.000 
#
# Total GULP energy -83830.890881 kJ/mol
# GULP energy per Si atom -5588.726059 kJ/mol
# Density = 2.373843 g / cm^3
# Si number density = 23.792582 Si / 1000 Ang^3
#
#
#
# Elastic Constant Matrix: (Units=GPa)
#
#
# Indices 1 2 3 4 5 6 
#
# 1 143.0130 46.1932 59.9521 0.0000 20.0125 0.0000
# 2 46.1932 118.4565 60.4452 0.0000 15.5849 0.0000
# 3 59.9521 60.4452 189.3974 0.0000 40.2239 0.0000
# 4 0.0000 0.0000 0.0000 19.0488 0.0000 -3.2697
# 5 20.0125 15.5849 40.2239 0.0000 34.6311 0.0000
# 6 0.0000 0.0000 0.0000 -3.2697 0.0000 14.0993
#
#
#
# Elastic Compliance Matrix: (Units=1/GPa)
#
#
# Indices 1 2 3 4 5 6 
#
# 1 0.008695 -0.002312 -0.001551 0.000000 -0.002183 0.000000
# 2 -0.002312 0.010728 -0.002589 0.000000 -0.000485 0.000000
# 3 -0.001551 -0.002589 0.008176 0.000000 -0.007435 0.000000
# 4 0.000000 0.000000 0.000000 0.054673 0.000000 0.012679
# 5 -0.002183 -0.000485 -0.007435 0.000000 0.038991 0.000000
# 6 0.000000 0.000000 0.000000 0.012679 0.000000 0.073866
#
#
# Mechanical properties :
#
#
# Convention : Reuss Voigt Hill
#
# Bulk Modulus (GPa) = 68.04846 87.11642 77.58244
# Shear Modulus (GPa) = 23.48169 32.50761 27.99465
#
# Velocity S-wave (km/s) = 3.14496 3.70035 3.43390
# Velocity P-wave (km/s) = 6.46919 7.41291 6.95707
#
# Compressibility (1/GPa) = 0.01469541
#
# Stress axis : x y z
#
# Youngs Moduli (GPa) = 115.01240 93.21000 122.30646
#
# Poissons Ratio (x) = 0.21551 0.18967
# Poissons Ratio (y) = 0.26592 0.31667
# Poissons Ratio (z) = 0.17836 0.24133
#
# Static dielectric constant tensor:
#      x y z
#    x 1.919970 0.000000 -0.079870 
#    y 0.000000 2.002790 0.000000 
#    z -0.079870 0.000000 1.903370 
# 
# From -- ./inp_files/11278.got.cif
#   From: 2010.05.17/outbox.cif.g08.bks.cpg/sg3_6_cif.got.tgz:11278.got - 2010.06.03 18:33:08.
