data_PCOD9113862
_publ_section_title
;
Structure prediction by ZEFSAII (Michael W. Deem and Ramdas Pophale) SiO2 
 PCOD9113862
Probable space group: P 2
;
_chemical_formula_sum "Si O2"
_cell_formula_units_Z 11
_cell_length_a 14.344607
_cell_length_b 5.219198
_cell_length_c 8.522000
_cell_angle_alpha 90.000000
_cell_angle_beta 136.342269
_cell_angle_gamma 90.000000
_cell_volume 440.456043
_symmetry_space_group_name_H-M "P 2"
_symmetry_group_IT_number 3
_symmetry_cell_setting 'monoclinic'
loop_
_space_group_symop_operation_xyz
x,y,z
-x,y,-z
loop_
_atom_site_type_symbol
_atom_site_label
_atom_site_fract_x
_atom_site_fract_y
_atom_site_fract_z
Si Si1 0.264413 0.086590 0.650261
Si Si2 0.500000 0.305057 0.500000
Si Si3 0.012162 0.797808 0.680120
Si Si4 0.726933 0.095297 0.983049
Si Si5 0.673829 0.587187 0.475182
Si Si6 0.098227 0.444146 0.009871
O O1 0.322101 0.109338 0.897494
O O2 0.287799 0.355960 0.595316
O O3 0.325942 0.854538 0.619152
O O4 0.104345 0.013951 0.471252
O O5 0.540376 0.489027 0.403839
O O6 0.613962 0.120061 0.712467
O O7 0.000000 0.655086 0.500000
O O8 0.169952 0.860789 0.890063
O O9 0.988990 0.637255 0.806218
O O10 0.833739 0.307540 0.054250
O O11 0.780846 0.571556 0.747441
O O12 0.000000 0.269240 0.000000
#
# Coordination Sequence:
#
# PCOD9113862 Si02
#       6
#     2   1   2   2   2   2
#     4  11  25  48  77 111 149 193 251 313 383 443
#     4  10  26  52  74 110 152 208 256 308 368 458
#     4  10  23  40  72 112 148 195 238 319 380 449
#     4  10  25  45  73 107 154 199 249 309 373 447
#     4  11  26  47  75 108 146 199 252 308 372 446
#     4  11  22  38  71 107 152 192 241 308 380 445
#
# _framework density 24.974117
#
# number of rings (size 3 to 8) (size 9 to 14) (size 15 to 20)
#    0.000    1.455    1.818    1.091   10.182    2.909 
#    3.273    1.818    0.000    0.000    0.000    0.000 
#    0.000    0.000    0.000    0.000    0.000    0.000 
#
# Total GULP energy -61398.510912 kJ/mol
# GULP energy per Si atom -5581.682810 kJ/mol
# Density = 2.491727 g / cm^3
# Si number density = 24.974117 Si / 1000 Ang^3
#
#
#
# Elastic Constant Matrix: (Units=GPa)
#
#
# Indices 1 2 3 4 5 6 
#
# 1 81.0475 12.8528 19.1861 0.0000 -16.5613 0.0000
# 2 12.8528 77.4152 45.6925 0.0000 -21.4492 0.0000
# 3 19.1861 45.6925 100.8626 0.0000 -8.7522 0.0000
# 4 0.0000 0.0000 0.0000 28.5450 0.0000 -9.6631
# 5 -16.5613 -21.4492 -8.7522 0.0000 38.1441 0.0000
# 6 0.0000 0.0000 0.0000 -9.6631 0.0000 39.5931
#
#
#
# Elastic Compliance Matrix: (Units=1/GPa)
#
#
# Indices 1 2 3 4 5 6 
#
# 1 0.014025 0.000811 -0.002517 0.000000 0.005968 0.000000
# 2 0.000811 0.020649 -0.008643 0.000000 0.009980 0.000000
# 3 -0.002517 -0.008643 0.014072 0.000000 -0.002724 0.000000
# 4 0.000000 0.000000 0.000000 0.038187 0.000000 0.009320
# 5 0.005968 0.009980 -0.002724 0.000000 0.033795 0.000000
# 6 0.000000 0.000000 0.000000 0.009320 0.000000 0.027532
#
#
# Mechanical properties :
#
#
# Convention : Reuss Voigt Hill
#
# Bulk Modulus (GPa) = 35.65296 46.08756 40.87026
# Shear Modulus (GPa) = 28.04140 33.36269 30.70205
#
# Velocity S-wave (km/s) = 3.35448 3.65895 3.51002
# Velocity P-wave (km/s) = 5.41391 6.02866 5.72953
#
# Compressibility (1/GPa) = 0.02804816
#
# Stress axis : x y z
#
# Youngs Moduli (GPa) = 71.29997 48.42837 71.06218
#
# Poissons Ratio (x) = -0.03926 0.17889
# Poissons Ratio (y) = -0.05780 0.61416
# Poissons Ratio (z) = 0.17949 0.41855
#
# Static dielectric constant tensor:
#      x y z
#    x 2.130850 0.000000 -0.045800 
#    y 0.000000 2.067570 0.000000 
#    z -0.045800 0.000000 1.994400 
# 
# From -- ./inp_files/8422.got.cif
#   From: 2010.05.17/outbox.cif.g08.bks.cpg/sg3_5_cif.got.tgz:8422.got - 2010.06.03 18:33:08.
