data_PCOD9113850
_publ_section_title
;
Structure prediction by ZEFSAII (Michael W. Deem and Ramdas Pophale) SiO2 
 PCOD9113850
Probable space group: P 2
;
_chemical_formula_sum "Si O2"
_cell_formula_units_Z 12
_cell_length_a 14.907636
_cell_length_b 9.289983
_cell_length_c 9.812052
_cell_angle_alpha 90.000000
_cell_angle_beta 153.067332
_cell_angle_gamma 90.000000
_cell_volume 615.498778
_symmetry_space_group_name_H-M "P 2"
_symmetry_group_IT_number 3
_symmetry_cell_setting 'monoclinic'
loop_
_space_group_symop_operation_xyz
x,y,z
-x,y,-z
loop_
_atom_site_type_symbol
_atom_site_label
_atom_site_fract_x
_atom_site_fract_y
_atom_site_fract_z
Si Si1 0.965496 0.704740 0.297067
Si Si2 0.188879 0.008661 0.000142
Si Si3 0.879712 0.203498 0.692757
Si Si4 0.477781 0.654829 0.307270
Si Si5 0.420466 0.980018 0.600160
Si Si6 0.689210 0.503669 0.358083
O O1 0.921443 0.856043 0.163847
O O2 0.000000 0.742951 0.500000
O O3 0.142283 0.614049 0.469030
O O4 0.755224 0.622591 0.020471
O O5 0.306236 0.995303 0.301594
O O6 0.355575 0.034612 0.112962
O O7 0.038985 0.138290 0.805942
O O8 0.785244 0.347720 0.507419
O O9 0.713042 0.078851 0.484985
O O10 0.000000 0.225388 0.000000
O O11 0.500000 0.663030 0.500000
O O12 0.542716 0.809503 0.330929
O O13 0.610154 0.545853 0.401465
O O14 0.500000 0.506798 0.000000
#
# Coordination Sequence:
#
# PCOD9113850 Si02
#       6
#     2   2   2   2   2   2
#     4  11  22  42  67  92 125 167 211 262 318 370
#     4   9  18  38  62  92 118 152 206 262 308 362
#     4  10  23  39  61  90 123 167 209 251 309 377
#     4  11  22  42  71  96 119 163 216 266 313 367
#     4   9  17  38  64  92 120 148 204 267 308 356
#     4  12  27  44  58  91 139 172 204 257 316 376
#
# _framework density 19.496383999999999
#
# number of rings (size 3 to 8) (size 9 to 14) (size 15 to 20)
#    0.000    1.667    5.000    1.000    2.333    1.333 
#    9.000    0.000    0.000    0.000    0.000    0.000 
#    0.000    0.000    0.000    0.000    0.000    0.000 
#
# Total GULP energy -66883.455591 kJ/mol
# GULP energy per Si atom -5573.621299 kJ/mol
# Density = 1.945201 g / cm^3
# Si number density = 19.496384 Si / 1000 Ang^3
#
#
#
# Elastic Constant Matrix: (Units=GPa)
#
#
# Indices 1 2 3 4 5 6 
#
# 1 59.5182 49.4434 34.0083 0.0000 18.6136 0.0000
# 2 49.4434 95.2818 62.8930 0.0000 26.3967 0.0000
# 3 34.0083 62.8930 102.8299 0.0000 37.1252 0.0000
# 4 0.0000 0.0000 0.0000 26.4528 0.0000 22.4288
# 5 18.6136 26.3967 37.1252 0.0000 20.6932 0.0000
# 6 0.0000 0.0000 0.0000 22.4288 0.0000 2.8274
#
#
#
# Elastic Compliance Matrix: (Units=1/GPa)
#
#
# Indices 1 2 3 4 5 6 
#
# 1 0.032269 -0.014938 0.005859 0.000000 -0.020483 0.000000
# 2 -0.014938 0.025114 -0.010517 0.000000 0.000269 0.000000
# 3 0.005859 -0.010517 0.032017 0.000000 -0.049295 0.000000
# 4 0.000000 0.000000 0.000000 -0.006602 0.000000 0.052372
# 5 -0.020483 0.000269 -0.049295 0.000000 0.154845 0.000000
# 6 0.000000 0.000000 0.000000 0.052372 0.000000 -0.061768
#
#
# Mechanical properties :
#
#
# Convention : Reuss Voigt Hill
#
# Bulk Modulus (GPa) = 19.91719 61.14661 40.53190
# Shear Modulus (GPa) = 21.57010 17.41367 19.49189
#
# Velocity S-wave (km/s) = 3.32981 2.99184 3.16534
# Velocity P-wave (km/s) = 5.00216 6.58529 5.84754
#
# Compressibility (1/GPa) = 0.05020788
#
# Stress axis : x y z
#
# Youngs Moduli (GPa) = 30.98992 39.81793 31.23351
#
# Poissons Ratio (x) = 0.59479 -0.18300
# Poissons Ratio (y) = 0.46292 0.32850
# Poissons Ratio (z) = -0.18158 0.41878
#
# Static dielectric constant tensor:
#      x y z
#    x 1.710570 0.000000 -0.052290 
#    y 0.000000 1.668180 0.000000 
#    z -0.052290 0.000000 1.790100 
# 
# From -- ./inp_files/12501.got.cif
#   From: 2010.05.17/outbox.cif.g08.bks.cpg/sg3_7_cif.got.tgz:12501.got - 2010.06.03 18:33:08.
