data_PCOD9113490
_publ_section_title
;
Structure prediction by ZEFSAII (Michael W. Deem and Ramdas Pophale) SiO2 
 PCOD9113490
Probable space group: P 2
;
_chemical_formula_sum "Si O2"
_cell_formula_units_Z 13
_cell_length_a 11.133438
_cell_length_b 5.574449
_cell_length_c 16.845234
_cell_angle_alpha 90.000000
_cell_angle_beta 150.583994
_cell_angle_gamma 90.000000
_cell_volume 513.475689
_symmetry_space_group_name_H-M "P 2"
_symmetry_group_IT_number 3
_symmetry_cell_setting 'monoclinic'
loop_
_space_group_symop_operation_xyz
x,y,z
-x,y,-z
loop_
_atom_site_type_symbol
_atom_site_label
_atom_site_fract_x
_atom_site_fract_y
_atom_site_fract_z
Si Si1 0.176429 0.191290 0.496766
Si Si2 0.281211 0.350314 0.722531
Si Si3 0.776162 0.476896 0.007907
Si Si4 0.210313 0.730212 0.818538
Si Si5 0.574047 0.841891 0.765806
Si Si6 0.341735 0.604687 0.489141
Si Si7 0.000000 0.217074 0.000000
O O1 0.217255 0.384851 0.593116
O O2 0.260457 0.332988 0.467223
O O3 0.886911 0.151267 0.331919
O O4 0.317904 0.977115 0.619294
O O5 0.562578 0.279974 0.888670
O O6 0.240094 0.580617 0.754579
O O7 0.661978 0.695251 0.891762
O O8 0.814999 0.557208 0.118807
O O9 0.981432 0.373092 0.069072
O O10 0.903082 0.781555 0.644698
O O11 0.500000 0.832900 0.000000
O O12 0.537541 0.674693 0.669114
O O13 0.768602 0.046876 0.859368
O O14 0.500000 0.618427 0.500000
#
# Coordination Sequence:
#
# PCOD9113490 Si02
#       7
#     2   2   2   2   2   2   1
#     4  10  21  43  70 102 130 179 233 288 341 412
#     4   9  18  44  67  93 137 179 223 279 351 402
#     4  11  23  46  71  98 142 186 224 290 362 413
#     4   9  22  43  72  97 137 188 224 280 360 414
#     4  12  25  43  71 105 134 184 242 285 344 431
#     4  11  25  44  71 100 145 183 234 298 351 412
#     4  12  26  42  70  98 140 188 232 292 350 422
#
# _framework density 25.317655999999999
#
# number of rings (size 3 to 8) (size 9 to 14) (size 15 to 20)
#    0.000    1.538    3.077    0.462    6.462    0.615 
#   19.385    0.000    3.385    0.000    0.000    0.000 
#    0.000    0.000    0.000    0.000    0.000    0.000 
#
# Total GULP energy -72368.017535 kJ/mol
# GULP energy per Si atom -5566.770580 kJ/mol
# Density = 2.526003 g / cm^3
# Si number density = 25.317656 Si / 1000 Ang^3
#
#
#
# Elastic Constant Matrix: (Units=GPa)
#
#
# Indices 1 2 3 4 5 6 
#
# 1 162.3012 18.7834 8.6201 0.0000 9.2885 0.0000
# 2 18.7834 60.4380 5.4283 0.0000 15.0153 0.0000
# 3 8.6201 5.4283 86.3564 0.0000 16.0129 0.0000
# 4 0.0000 0.0000 0.0000 32.6005 0.0000 22.1523
# 5 9.2885 15.0153 16.0129 0.0000 41.4590 0.0000
# 6 0.0000 0.0000 0.0000 22.1523 0.0000 3.0187
#
#
#
# Elastic Compliance Matrix: (Units=1/GPa)
#
#
# Indices 1 2 3 4 5 6 
#
# 1 0.006428 -0.001805 -0.000412 0.000000 -0.000627 0.000000
# 2 -0.001805 0.018689 0.000200 0.000000 -0.006442 0.000000
# 3 -0.000412 0.000200 0.012500 0.000000 -0.004808 0.000000
# 4 0.000000 0.000000 0.000000 -0.007695 0.000000 0.056466
# 5 -0.000627 -0.006442 -0.004808 0.000000 0.028451 0.000000
# 6 0.000000 0.000000 0.000000 0.056466 0.000000 -0.083098
#
#
# Mechanical properties :
#
#
# Convention : Reuss Voigt Hill
#
# Bulk Modulus (GPa) = 29.77662 41.63992 35.70827
# Shear Modulus (GPa) = -526.52472 33.83322 -246.34575
#
# Velocity S-wave (km/s) = -14.43672 3.65958 -9.87488
# Velocity P-wave (km/s) = 16.31273 5.85998 10.76489
#
# Compressibility (1/GPa) = 0.03358340
#
# Stress axis : x y z
#
# Youngs Moduli (GPa) = 155.56817 53.50673 79.99996
#
# Poissons Ratio (x) = 0.09657 0.03295
# Poissons Ratio (y) = 0.28079 -0.01599
# Poissons Ratio (z) = 0.06407 -0.01069
#
# Static dielectric constant tensor:
#      x y z
#    x 2.011130 0.000000 0.097350 
#    y 0.000000 2.136090 0.000000 
#    z 0.097350 0.000000 2.189260 
# 
# From -- ./inp_files/15203.got.cif
#   From: 2010.05.17/outbox.cif.g08.bks.cpg/sg3_8_cif.got.tgz:15203.got - 2010.06.03 18:33:08.
