data_PCOD9113871
_publ_section_title
;
Structure prediction by ZEFSAII (Michael W. Deem and Ramdas Pophale) SiO2 
 PCOD9113871
Probable space group: P 2
;
_chemical_formula_sum "Si O2"
_cell_formula_units_Z 15
_cell_length_a 17.349912
_cell_length_b 9.528945
_cell_length_c 8.556397
_cell_angle_alpha 90.000000
_cell_angle_beta 32.595570
_cell_angle_gamma 90.000000
_cell_volume 762.051902
_symmetry_space_group_name_H-M "P 2"
_symmetry_group_IT_number 3
_symmetry_cell_setting 'monoclinic'
loop_
_space_group_symop_operation_xyz
x,y,z
-x,y,-z
loop_
_atom_site_type_symbol
_atom_site_label
_atom_site_fract_x
_atom_site_fract_y
_atom_site_fract_z
Si Si1 0.152901 0.500000 0.826839
Si Si2 0.034421 0.995670 0.258334
Si Si3 0.128554 0.306162 0.169915
Si Si4 0.733302 0.811752 0.322943
Si Si5 0.500000 0.904417 0.500000
Si Si6 0.378915 0.287715 0.341148
Si Si7 0.261296 0.018666 0.410236
Si Si8 0.385245 0.148319 0.890239
O O1 0.195938 0.661596 0.771447
O O2 0.282797 0.424207 0.515153
O O3 0.152641 0.419438 0.994089
O O4 0.000000 0.485142 0.000000
O O5 0.000000 0.961529 0.500000
O O6 0.078466 0.158859 0.180449
O O7 0.152834 0.901962 0.972110
O O8 0.890119 0.983706 0.405897
O O9 0.000000 0.356023 0.500000
O O10 0.261767 0.255961 0.050119
O O11 0.587383 0.812281 0.472878
O O12 0.699076 0.892673 0.542804
O O13 0.393436 0.017205 0.760639
O O14 0.268736 0.160707 0.498248
O O15 0.468843 0.236652 0.338979
O O16 0.500000 0.303756 0.000000
O O17 0.360023 0.067056 0.097085
#
# Coordination Sequence:
#
# PCOD9113871 Si02
#       8
#     2   2   2   2   1   2   2   2
#     4  12  27  46  64  96 143 184 228 270 339 421
#     4  11  20  39  67  97 125 169 227 283 330 385
#     4  11  22  41  70 101 131 173 229 285 339 391
#     4  12  26  41  64  97 135 185 220 275 342 409
#     4  12  22  42  64  98 132 166 230 276 348 392
#     4  10  23  41  69  98 128 171 219 283 337 388
#     4  11  20  40  67  95 129 165 229 278 334 384
#     4  11  21  41  70 102 130 163 230 294 334 398
#
# _framework density 19.683696999999999
#
# number of rings (size 3 to 8) (size 9 to 14) (size 15 to 20)
#    0.000    0.800    5.333    3.600    1.867    1.600 
#    2.400    1.333    0.000    0.000    0.000    0.000 
#    0.000    0.000    0.000    0.000    0.000    0.000 
#
# Total GULP energy -83724.298429 kJ/mol
# GULP energy per Si atom -5581.619895 kJ/mol
# Density = 1.963890 g / cm^3
# Si number density = 19.683697 Si / 1000 Ang^3
#
#
#
# Elastic Constant Matrix: (Units=GPa)
#
#
# Indices 1 2 3 4 5 6 
#
# 1 142.0404 45.0455 45.2454 0.0000 -19.7248 0.0000
# 2 45.0455 101.7619 40.8046 0.0000 7.8141 0.0000
# 3 45.2454 40.8046 77.5252 0.0000 -4.0379 0.0000
# 4 0.0000 0.0000 0.0000 12.2998 0.0000 -10.8715
# 5 -19.7248 7.8141 -4.0379 0.0000 34.6529 0.0000
# 6 0.0000 0.0000 0.0000 -10.8715 0.0000 20.4096
#
#
#
# Elastic Compliance Matrix: (Units=1/GPa)
#
#
# Indices 1 2 3 4 5 6 
#
# 1 0.010206 -0.003460 -0.003815 0.000000 0.006145 0.000000
# 2 -0.003460 0.014090 -0.005700 0.000000 -0.005811 0.000000
# 3 -0.003815 -0.005700 0.018190 0.000000 0.001233 0.000000
# 4 0.000000 0.000000 0.000000 0.153637 0.000000 0.081837
# 5 0.006145 -0.005811 0.001233 0.000000 0.033809 0.000000
# 6 0.000000 0.000000 0.000000 0.081837 0.000000 0.092588
#
#
# Mechanical properties :
#
#
# Convention : Reuss Voigt Hill
#
# Bulk Modulus (GPa) = 60.47234 64.83539 62.65387
# Shear Modulus (GPa) = 14.12500 26.15458 20.13979
#
# Velocity S-wave (km/s) = 2.68171 3.64915 3.20217
# Velocity P-wave (km/s) = 6.35433 7.12497 6.75065
#
# Compressibility (1/GPa) = 0.01653649
#
# Stress axis : x y z
#
# Youngs Moduli (GPa) = 97.97997 70.97250 54.97535
#
# Poissons Ratio (x) = 0.24555 0.20976
# Poissons Ratio (y) = 0.33899 0.31334
# Poissons Ratio (z) = 0.37384 0.40451
#
# Static dielectric constant tensor:
#      x y z
#    x 1.758720 0.000000 0.035740 
#    y 0.000000 1.633980 0.000000 
#    z 0.035740 0.000000 1.785390 
# 
# From -- ./inp_files/9143.got.cif
#   From: 2010.05.17/outbox.cif.g08.bks.cpg/sg3_5_cif.got.tgz:9143.got - 2010.06.03 18:33:08.
