data_PCOD9113846
_publ_section_title
;
Structure prediction by ZEFSAII (Michael W. Deem and Ramdas Pophale) SiO2 
 PCOD9113846
Probable space group: P 2
;
_chemical_formula_sum "Si O2"
_cell_formula_units_Z 16
_cell_length_a 7.529580
_cell_length_b 13.825490
_cell_length_c 8.224709
_cell_angle_alpha 90.000000
_cell_angle_beta 56.918038
_cell_angle_gamma 90.000000
_cell_volume 717.396319
_symmetry_space_group_name_H-M "P 2"
_symmetry_group_IT_number 3
_symmetry_cell_setting 'monoclinic'
loop_
_space_group_symop_operation_xyz
x,y,z
-x,y,-z
loop_
_atom_site_type_symbol
_atom_site_label
_atom_site_fract_x
_atom_site_fract_y
_atom_site_fract_z
Si Si1 0.744944 0.968680 0.817064
Si Si2 0.943842 0.446365 0.355631
Si Si3 0.803485 0.570189 0.982919
Si Si4 0.636293 0.098841 0.597777
Si Si5 0.386783 0.615606 0.393535
Si Si6 0.247300 0.151741 0.983361
Si Si7 0.099179 0.246575 0.718812
Si Si8 0.256166 0.752959 0.184196
O O1 0.835809 0.860420 0.776757
O O2 0.746569 0.008184 0.630740
O O3 0.500000 0.958142 0.000000
O O4 0.835582 0.050285 0.895788
O O5 0.778165 0.532641 0.470820
O O6 0.848065 0.359036 0.299450
O O7 0.000000 0.399957 0.500000
O O8 0.159071 0.491888 0.176262
O O9 0.847977 0.675288 0.883512
O O10 0.577137 0.573912 0.184197
O O11 0.000000 0.546789 0.000000
O O12 0.500000 0.075395 0.500000
O O13 0.490030 0.134824 0.820056
O O14 0.790543 0.185998 0.476177
O O15 0.500000 0.652736 0.500000
O O16 0.270666 0.700422 0.351790
O O17 0.175954 0.188684 0.840265
O O18 0.153664 0.232880 0.148345
O O19 0.500000 0.757357 0.000000
#
# Coordination Sequence:
#
# PCOD9113846 Si02
#       8
#     2   2   2   2   2   2   2   2
#     4   9  18  37  65  88 123 167 205 256 319 377
#     4  12  26  42  64  93 132 173 218 270 321 387
#     4  11  23  43  66  92 130 168 215 270 323 381
#     4   9  19  37  59  88 123 158 206 261 307 376
#     4  11  23  41  67  94 131 172 214 271 322 383
#     4   9  20  39  59  85 122 158 202 257 309 367
#     4  10  23  38  59  88 122 159 206 258 310 370
#     4   9  20  40  64  94 128 167 212 263 323 388
#
# _framework density 22.302873999999999
#
# number of rings (size 3 to 8) (size 9 to 14) (size 15 to 20)
#    0.000    2.000    2.500    0.000    3.500    3.000 
#    2.250    3.750    0.000    0.000    0.000    0.000 
#    0.000    0.000    0.000    0.000    0.000    0.000 
#
# Total GULP energy -89163.696603 kJ/mol
# GULP energy per Si atom -5572.731038 kJ/mol
# Density = 2.225211 g / cm^3
# Si number density = 22.302874 Si / 1000 Ang^3
#
#
#
# Elastic Constant Matrix: (Units=GPa)
#
#
# Indices 1 2 3 4 5 6 
#
# 1 42.4784 10.8170 14.3987 0.0000 12.1659 0.0000
# 2 10.8170 146.8669 55.1875 0.0000 4.6105 0.0000
# 3 14.3987 55.1875 123.4376 0.0000 0.4758 0.0000
# 4 0.0000 0.0000 0.0000 16.2606 0.0000 -12.9326
# 5 12.1659 4.6105 0.4758 0.0000 32.5797 0.0000
# 6 0.0000 0.0000 0.0000 -12.9326 0.0000 1.3098
#
#
#
# Elastic Compliance Matrix: (Units=1/GPa)
#
#
# Indices 1 2 3 4 5 6 
#
# 1 0.027598 -0.000623 -0.002901 0.000000 -0.010175 0.000000
# 2 -0.000623 0.008238 -0.003607 0.000000 -0.000880 0.000000
# 3 -0.002901 -0.003607 0.010047 0.000000 0.001447 0.000000
# 4 0.000000 0.000000 0.000000 -0.008974 0.000000 -0.088607
# 5 -0.010175 -0.000880 0.001447 0.000000 0.034597 0.000000
# 6 0.000000 0.000000 0.000000 -0.088607 0.000000 -0.111408
#
#
# Mechanical properties :
#
#
# Convention : Reuss Voigt Hill
#
# Bulk Modulus (GPa) = 31.62609 52.62102 42.12356
# Shear Modulus (GPa) = -331.12173 25.52199 -152.79987
#
# Velocity S-wave (km/s) = -12.19788 3.38647 -8.28613
# Velocity P-wave (km/s) = 13.57105 6.23987 8.52166
#
# Compressibility (1/GPa) = 0.03161946
#
# Stress axis : x y z
#
# Youngs Moduli (GPa) = 36.23501 121.39206 99.53458
#
# Poissons Ratio (x) = 0.07562 0.28880
# Poissons Ratio (y) = 0.02257 0.35902
# Poissons Ratio (z) = 0.10514 0.43786
#
# Static dielectric constant tensor:
#      x y z
#    x 2.158490 0.000000 -0.029830 
#    y 0.000000 1.790860 0.000000 
#    z -0.029830 0.000000 1.921400 
# 
# From -- ./inp_files/5981.got.cif
#   From: 2010.05.17/outbox.cif.g08.bks.cpg/sg3_3_cif.got.tgz:5981.got - 2010.06.03 18:33:08.
