data_PCOD9113256
_publ_section_title
;
Structure prediction by ZEFSAII (Michael W. Deem and Ramdas Pophale) SiO2 
 PCOD9113256
Probable space group: P 2
;
_chemical_formula_sum "Si O2"
_cell_formula_units_Z 14
_cell_length_a 8.566762
_cell_length_b 11.282180
_cell_length_c 9.002966
_cell_angle_alpha 90.000000
_cell_angle_beta 47.684270
_cell_angle_gamma 90.000000
_cell_volume 643.430991
_symmetry_space_group_name_H-M "P 2"
_symmetry_group_IT_number 3
_symmetry_cell_setting 'monoclinic'
loop_
_space_group_symop_operation_xyz
x,y,z
-x,y,-z
loop_
_atom_site_type_symbol
_atom_site_label
_atom_site_fract_x
_atom_site_fract_y
_atom_site_fract_z
Si Si1 0.291148 0.105260 0.227574
Si Si2 0.947575 0.865178 0.696098
Si Si3 0.605521 0.420121 0.091014
Si Si4 0.071891 0.636732 0.123320
Si Si5 0.027400 0.256025 0.183998
Si Si6 0.169893 0.469882 0.527521
Si Si7 0.729904 0.055899 0.417283
O O1 0.131340 0.201415 0.265995
O O2 0.304460 0.109961 0.395435
O O3 0.500000 0.121736 0.000000
O O4 0.205344 0.975273 0.240083
O O5 0.000000 0.813721 0.500000
O O6 0.860619 0.763724 0.857141
O O7 0.148629 0.931558 0.639821
O O8 0.407670 0.449309 0.321704
O O9 0.500000 0.389792 0.000000
O O10 0.745833 0.538127 0.980794
O O11 0.773238 0.316570 0.028882
O O12 0.880655 0.589683 0.349951
O O13 0.000000 0.643984 0.000000
O O14 0.884233 0.365239 0.323504
O O15 0.879431 0.146711 0.229542
O O16 0.000000 0.465307 0.500000
O O17 0.500000 0.040163 0.500000
#
# Coordination Sequence:
#
# PCOD9113256 Si02
#       7
#     2   2   2   2   2   2   2
#     4  10  21  37  66  98 124 168 223 267 315 391
#     4   9  21  44  67  89 129 172 223 270 317 395
#     4  11  23  40  69  98 126 178 226 264 319 384
#     4  11  25  44  65  97 134 167 217 281 337 387
#     4  10  21  39  67  98 131 170 223 263 315 390
#     4  11  21  42  68  97 129 172 224 270 312 395
#     4  10  22  42  64  98 136 174 209 272 341 384
#
# _framework density 21.758355000000002
#
# number of rings (size 3 to 8) (size 9 to 14) (size 15 to 20)
#    0.000    1.714    2.857    3.000    2.000    2.286 
#   10.286    2.143    0.000    0.000    0.000    0.000 
#    0.000    0.000    0.000    0.000    0.000    0.000 
#
# Total GULP energy -78219.475695 kJ/mol
# GULP energy per Si atom -5587.105407 kJ/mol
# Density = 2.170883 g / cm^3
# Si number density = 21.758355 Si / 1000 Ang^3
#
#
#
# Elastic Constant Matrix: (Units=GPa)
#
#
# Indices 1 2 3 4 5 6 
#
# 1 91.2345 39.3935 39.5164 0.0000 -14.3810 0.0000
# 2 39.3935 95.8766 28.5298 0.0000 4.0961 0.0000
# 3 39.5164 28.5298 130.1675 0.0000 -23.2922 0.0000
# 4 0.0000 0.0000 0.0000 3.9256 0.0000 44.4981
# 5 -14.3810 4.0961 -23.2922 0.0000 35.3599 0.0000
# 6 0.0000 0.0000 0.0000 44.4981 0.0000 -71.5899
#
#
#
# Elastic Compliance Matrix: (Units=1/GPa)
#
#
# Indices 1 2 3 4 5 6 
#
# 1 0.015366 -0.005815 -0.002439 0.000000 0.005316 0.000000
# 2 -0.005815 0.013707 -0.002206 0.000000 -0.005406 0.000000
# 3 -0.002439 -0.002206 0.009947 0.000000 0.005816 0.000000
# 4 0.000000 0.000000 0.000000 0.031661 0.000000 0.019680
# 5 0.005316 -0.005406 0.005816 0.000000 0.034900 0.000000
# 6 0.000000 0.000000 0.000000 0.019680 0.000000 -0.001736
#
#
# Mechanical properties :
#
#
# Convention : Reuss Voigt Hill
#
# Bulk Modulus (GPa) = 55.25017 59.12867 57.18942
# Shear Modulus (GPa) = 38.22668 7.52838 22.87753
#
# Velocity S-wave (km/s) = 4.19605 1.86212 3.24610
# Velocity P-wave (km/s) = 6.99454 5.64424 6.35535
#
# Compressibility (1/GPa) = 0.01809949
#
# Stress axis : x y z
#
# Youngs Moduli (GPa) = 65.07897 72.95684 100.53157
#
# Poissons Ratio (x) = 0.42423 0.24520
# Poissons Ratio (y) = 0.37843 0.22180
# Poissons Ratio (z) = 0.15873 0.16096
#
# Static dielectric constant tensor:
#      x y z
#    x 1.823690 0.000000 0.022380 
#    y 0.000000 1.784370 0.000000 
#    z 0.022380 0.000000 1.864130 
# 
# From -- ./inp_files/5939.got.cif
#   From: 2010.05.17/outbox.cif.g08.bks.cpg/sg3_3_cif.got.tgz:5939.got - 2010.06.03 18:33:08.
