data_PCOD9113987
_publ_section_title
;
Structure prediction by ZEFSAII (Michael W. Deem and Ramdas Pophale) SiO2 
 PCOD9113987
Probable space group: P 2
;
_chemical_formula_sum "Si O2"
_cell_formula_units_Z 14
_cell_length_a 16.228989
_cell_length_b 7.223648
_cell_length_c 8.370590
_cell_angle_alpha 90.000000
_cell_angle_beta 138.765514
_cell_angle_gamma 90.000000
_cell_volume 646.819700
_symmetry_space_group_name_H-M "P 2"
_symmetry_group_IT_number 3
_symmetry_cell_setting 'monoclinic'
loop_
_space_group_symop_operation_xyz
x,y,z
-x,y,-z
loop_
_atom_site_type_symbol
_atom_site_label
_atom_site_fract_x
_atom_site_fract_y
_atom_site_fract_z
Si Si1 0.361093 0.703730 0.368618
Si Si2 0.190860 0.057012 0.052080
Si Si3 0.432836 0.438555 0.737663
Si Si4 0.048382 0.846863 0.254520
Si Si5 0.900855 0.466444 0.495599
Si Si6 0.689074 0.388797 0.950833
Si Si7 0.195763 0.185443 0.404471
O O1 0.500000 0.733559 0.500000
O O2 0.370880 0.614495 0.558998
O O3 0.299706 0.541260 0.172033
O O4 0.284741 0.892233 0.240172
O O5 0.252358 0.193636 0.014850
O O6 0.164700 0.177954 0.172190
O O7 0.062773 0.957251 0.818911
O O8 0.543382 0.370579 0.781178
O O9 0.332269 0.276288 0.616853
O O10 0.500000 0.488831 0.000000
O O11 0.071776 0.657946 0.378084
O O12 0.170144 0.977410 0.426526
O O13 0.000000 0.819592 0.000000
O O14 0.894998 0.312371 0.623393
O O15 0.000000 0.429788 0.500000
O O16 0.766544 0.464485 0.213581
#
# Coordination Sequence:
#
# PCOD9113987 Si02
#       7
#     2   2   2   2   2   2   2
#     4  10  24  42  72 105 140 184 232 288 350 419
#     4  11  24  45  73 107 136 185 238 288 347 426
#     4  11  23  46  70 103 141 186 233 283 355 416
#     4  10  26  45  69 104 135 184 241 285 350 418
#     4  12  26  45  71  97 141 182 229 299 348 419
#     4  11  24  44  73 103 143 184 229 288 353 422
#     4  11  25  43  71  97 141 184 231 289 350 416
#
# _framework density 21.644359999999999
#
# number of rings (size 3 to 8) (size 9 to 14) (size 15 to 20)
#    0.000    1.143    2.857    1.714    6.000    5.714 
#    0.000    2.143    0.000    0.000    0.000    0.000 
#    0.000    0.000    0.000    0.000    0.000    0.000 
#
# Total GULP energy -78310.770521 kJ/mol
# GULP energy per Si atom -5593.626466 kJ/mol
# Density = 2.159510 g / cm^3
# Si number density = 21.644360 Si / 1000 Ang^3
#
#
#
# Elastic Constant Matrix: (Units=GPa)
#
#
# Indices 1 2 3 4 5 6 
#
# 1 105.4735 68.2972 24.2669 0.0000 5.9650 0.0000
# 2 68.2972 137.0759 70.5729 0.0000 -4.5292 0.0000
# 3 24.2669 70.5729 99.4630 0.0000 -0.7018 0.0000
# 4 0.0000 0.0000 0.0000 23.6924 0.0000 12.9853
# 5 5.9650 -4.5292 -0.7018 0.0000 31.2214 0.0000
# 6 0.0000 0.0000 0.0000 12.9853 0.0000 27.7574
#
#
#
# Elastic Compliance Matrix: (Units=1/GPa)
#
#
# Indices 1 2 3 4 5 6 
#
# 1 0.014873 -0.008921 0.002672 0.000000 -0.004076 0.000000
# 2 -0.008921 0.016914 -0.009797 0.000000 0.003938 0.000000
# 3 0.002672 -0.009797 0.016342 0.000000 -0.001564 0.000000
# 4 0.000000 0.000000 0.000000 0.056761 0.000000 -0.026554
# 5 -0.004076 0.003938 -0.001564 0.000000 0.033344 0.000000
# 6 0.000000 0.000000 0.000000 -0.026554 0.000000 0.048449
#
#
# Mechanical properties :
#
#
# Convention : Reuss Voigt Hill
#
# Bulk Modulus (GPa) = 62.35028 74.25404 68.30216
# Shear Modulus (GPa) = 22.30938 28.45926 25.38432
#
# Velocity S-wave (km/s) = 3.21397 3.63003 3.42832
# Velocity P-wave (km/s) = 6.53009 7.20766 6.87723
#
# Compressibility (1/GPa) = 0.01603842
#
# Stress axis : x y z
#
# Youngs Moduli (GPa) = 67.23436 59.12242 61.19112
#
# Poissons Ratio (x) = 0.52743 -0.16352
# Poissons Ratio (y) = 0.59980 0.59948
# Poissons Ratio (z) = -0.17967 0.57921
#
# Static dielectric constant tensor:
#      x y z
#    x 1.835480 0.000000 0.011790 
#    y 0.000000 1.755060 0.000000 
#    z 0.011790 0.000000 1.797510 
# 
# From -- ./inp_files/8823.got.cif
#   From: 2010.05.17/outbox.cif.g08.bks.cpg/sg3_5_cif.got.tgz:8823.got - 2010.06.03 18:33:08.
