data_PCOD9113673
_publ_section_title
;
Structure prediction by ZEFSAII (Michael W. Deem and Ramdas Pophale) SiO2 
 PCOD9113673
Probable space group: P 2
;
_chemical_formula_sum "Si O2"
_cell_formula_units_Z 14
_cell_length_a 14.031723
_cell_length_b 8.715207
_cell_length_c 5.125761
_cell_angle_alpha 90.000000
_cell_angle_beta 101.450684
_cell_angle_gamma 90.000000
_cell_volume 614.349704
_symmetry_space_group_name_H-M "P 2"
_symmetry_group_IT_number 3
_symmetry_cell_setting 'monoclinic'
loop_
_space_group_symop_operation_xyz
x,y,z
-x,y,-z
loop_
_atom_site_type_symbol
_atom_site_label
_atom_site_fract_x
_atom_site_fract_y
_atom_site_fract_z
Si Si1 0.237874 0.904770 0.171678
Si Si2 0.313289 0.191278 0.955992
Si Si3 0.850656 0.134649 0.477936
Si Si4 0.609361 0.353490 0.477220
Si Si5 0.063862 0.426392 0.278090
Si Si6 0.905265 0.822088 0.288439
Si Si7 0.750926 0.624072 0.520155
O O1 0.288958 0.753614 0.305511
O O2 0.219517 0.032194 0.381551
O O3 0.129198 0.840420 0.031785
O O4 0.297225 0.008610 0.998264
O O5 0.209181 0.235045 0.765393
O O6 0.386576 0.234655 0.762923
O O7 0.339448 0.281414 0.234930
O O8 0.910938 0.246417 0.692464
O O9 0.904785 0.002385 0.354992
O O10 0.500000 0.387665 0.500000
O O11 0.666149 0.504946 0.408568
O O12 0.164166 0.516851 0.319689
O O13 0.000000 0.452189 0.500000
O O14 0.000000 0.471168 0.000000
O O15 0.812084 0.724452 0.342519
O O16 0.000000 0.766019 0.500000
#
# Coordination Sequence:
#
# PCOD9113673 Si02
#       7
#     2   2   2   2   2   2   2
#     4  10  23  42  72  99 143 196 236 293 360 420
#     4  11  22  48  73 104 137 179 237 297 361 429
#     4  10  22  41  68  98 140 188 240 293 346 413
#     4  12  27  48  81 106 137 184 241 303 374 434
#     4  12  28  40  65 101 143 190 244 292 352 421
#     4  10  23  39  64  98 148 197 244 281 348 421
#     4  11  26  43  68 101 149 189 236 301 360 430
#
# _framework density 22.788328
#
# number of rings (size 3 to 8) (size 9 to 14) (size 15 to 20)
#    0.000    1.143    2.857    1.286   14.000    1.143 
#    0.000    0.714    6.286    0.000    0.000    0.000 
#    0.000    0.000    0.000    0.000    0.000    0.000 
#
# Total GULP energy -78030.018229 kJ/mol
# GULP energy per Si atom -5573.572731 kJ/mol
# Density = 2.273646 g / cm^3
# Si number density = 22.788328 Si / 1000 Ang^3
#
#
#
# Elastic Constant Matrix: (Units=GPa)
#
#
# Indices 1 2 3 4 5 6 
#
# 1 62.9361 31.4835 17.1811 0.0000 5.4016 0.0000
# 2 31.4835 118.4393 18.1790 0.0000 -2.0480 0.0000
# 3 17.1811 18.1790 96.7435 0.0000 -8.6608 0.0000
# 4 0.0000 0.0000 0.0000 31.1246 0.0000 -7.0355
# 5 5.4016 -2.0480 -8.6608 0.0000 28.2007 0.0000
# 6 0.0000 0.0000 0.0000 -7.0355 0.0000 23.3524
#
#
#
# Elastic Compliance Matrix: (Units=1/GPa)
#
#
# Indices 1 2 3 4 5 6 
#
# 1 0.019556 -0.004822 -0.003017 0.000000 -0.005022 0.000000
# 2 -0.004822 0.009883 -0.000878 0.000000 0.001372 0.000000
# 3 -0.003017 -0.000878 0.011397 0.000000 0.004014 0.000000
# 4 0.000000 0.000000 0.000000 0.034477 0.000000 0.010387
# 5 -0.005022 0.001372 0.004014 0.000000 0.037755 0.000000
# 6 0.000000 0.000000 0.000000 0.010387 0.000000 0.045951
#
#
# Mechanical properties :
#
#
# Convention : Reuss Voigt Hill
#
# Bulk Modulus (GPa) = 42.73020 45.75626 44.24323
# Shear Modulus (GPa) = 27.13657 30.62055 28.87856
#
# Velocity S-wave (km/s) = 3.45456 3.66962 3.56371
# Velocity P-wave (km/s) = 5.89097 6.17067 6.03244
#
# Compressibility (1/GPa) = 0.02340265
#
# Stress axis : x y z
#
# Youngs Moduli (GPa) = 51.13535 101.17911 87.74500
#
# Poissons Ratio (x) = 0.48791 0.26468
# Poissons Ratio (y) = 0.24659 0.07704
# Poissons Ratio (z) = 0.15425 0.08884
#
# Static dielectric constant tensor:
#      x y z
#    x 1.907690 0.000000 -0.012940 
#    y 0.000000 1.845490 0.000000 
#    z -0.012940 0.000000 1.968850 
# 
# From -- ./inp_files/3189.got.cif
#   From: 2010.05.17/outbox.cif.g08.bks.cpg/sg3_2_cif.got.tgz:3189.got - 2010.06.03 18:33:08.
