data_PCOD9113597
_publ_section_title
;
Structure prediction by ZEFSAII (Michael W. Deem and Ramdas Pophale) SiO2 
 PCOD9113597
Probable space group: P 2
;
_chemical_formula_sum "Si O2"
_cell_formula_units_Z 16
_cell_length_a 11.953050
_cell_length_b 8.032114
_cell_length_c 9.418495
_cell_angle_alpha 90.000000
_cell_angle_beta 50.389311
_cell_angle_gamma 90.000000
_cell_volume 696.631614
_symmetry_space_group_name_H-M "P 2"
_symmetry_group_IT_number 3
_symmetry_cell_setting 'monoclinic'
loop_
_space_group_symop_operation_xyz
x,y,z
-x,y,-z
loop_
_atom_site_type_symbol
_atom_site_label
_atom_site_fract_x
_atom_site_fract_y
_atom_site_fract_z
Si Si1 0.802430 0.282750 0.587175
Si Si2 0.572529 0.516632 0.737155
Si Si3 0.322482 0.782399 0.544589
Si Si4 0.696440 0.661281 0.923421
Si Si5 0.118184 0.122994 0.023436
Si Si6 0.941467 0.932424 0.398862
Si Si7 0.066596 0.430077 0.232564
Si Si8 0.386124 0.918846 0.787747
O O1 0.637827 0.334183 0.696592
O O2 0.850095 0.334252 0.706248
O O3 0.899347 0.405226 0.409096
O O4 0.847662 0.096225 0.519258
O O5 0.612445 0.608001 0.560270
O O6 0.653871 0.630136 0.794056
O O7 0.405053 0.527909 0.911841
O O8 0.167201 0.818110 0.601762
O O9 0.320893 0.802248 0.714586
O O10 0.442951 0.915477 0.386446
O O11 0.861661 0.611177 0.822981
O O12 0.643898 0.832356 0.036138
O O13 0.284991 0.079927 0.856817
O O14 0.097995 0.317416 0.072094
O O15 0.000000 0.077300 0.000000
O O16 0.066651 0.011590 0.199513
O O17 0.000000 0.860598 0.500000
#
# Coordination Sequence:
#
# PCOD9113597 Si02
#       8
#     2   2   2   2   2   2   2   2
#     4   9  17  35  56  79 110 141 177 227 275 328
#     4   9  19  35  58  81 108 142 187 231 274 327
#     4  10  22  40  57  81 113 154 187 227 281 332
#     4   9  19  36  56  82 109 142 185 232 274 325
#     4  11  21  38  57  82 114 147 187 234 278 328
#     4  11  21  38  59  84 114 146 187 233 280 331
#     4   9  18  35  55  78 110 142 177 225 279 325
#     4  10  22  40  57  79 118 150 187 231 275 333
#
# _framework density 22.967663000000002
#
# number of rings (size 3 to 8) (size 9 to 14) (size 15 to 20)
#    0.000    2.250    3.750    0.000    1.750    2.000 
#    6.750    0.000    0.000    0.000    0.000    0.000 
#    0.000    0.000    0.000    0.000    0.000    0.000 
#
# Total GULP energy -89298.245440 kJ/mol
# GULP energy per Si atom -5581.140340 kJ/mol
# Density = 2.291539 g / cm^3
# Si number density = 22.967663 Si / 1000 Ang^3
#
#
#
# Elastic Constant Matrix: (Units=GPa)
#
#
# Indices 1 2 3 4 5 6 
#
# 1 82.1157 0.6143 9.3473 0.0000 -9.7015 0.0000
# 2 0.6143 20.7976 4.7995 0.0000 0.0538 0.0000
# 3 9.3473 4.7995 32.4208 0.0000 6.4911 0.0000
# 4 0.0000 0.0000 0.0000 24.9165 0.0000 -8.0332
# 5 -9.7015 0.0538 6.4911 0.0000 39.0501 0.0000
# 6 0.0000 0.0000 0.0000 -8.0332 0.0000 27.7096
#
#
#
# Elastic Compliance Matrix: (Units=1/GPa)
#
#
# Indices 1 2 3 4 5 6 
#
# 1 0.013189 0.000689 -0.004717 0.000000 0.004060 0.000000
# 2 0.000689 0.049873 -0.007864 0.000000 0.001410 0.000000
# 3 -0.004717 -0.007864 0.034758 0.000000 -0.006939 0.000000
# 4 0.000000 0.000000 0.000000 0.044272 0.000000 0.012835
# 5 0.004060 0.001410 -0.006939 0.000000 0.027768 0.000000
# 6 0.000000 0.000000 0.000000 0.012835 0.000000 0.039809
#
#
# Mechanical properties :
#
#
# Convention : Reuss Voigt Hill
#
# Bulk Modulus (GPa) = 13.50712 18.31738 15.91225
# Shear Modulus (GPa) = 19.36975 26.37342 22.87158
#
# Velocity S-wave (km/s) = 2.90720 3.39231 3.15908
# Velocity P-wave (km/s) = 4.14280 4.83077 4.49995
#
# Compressibility (1/GPa) = 0.07403501
#
# Stress axis : x y z
#
# Youngs Moduli (GPa) = 75.81822 20.05081 28.77042
#
# Poissons Ratio (x) = -0.01381 0.13572
# Poissons Ratio (y) = -0.05221 0.22625
# Poissons Ratio (z) = 0.35767 0.15768
#
# Static dielectric constant tensor:
#      x y z
#    x 1.859920 0.000000 -0.010910 
#    y 0.000000 1.856090 0.000000 
#    z -0.010910 0.000000 1.866690 
# 
# From -- ./inp_files/7419.got.cif
#   From: 2010.05.17/outbox.cif.g08.bks.cpg/sg3_4_cif.got.tgz:7419.got - 2010.06.03 18:33:08.
