data_PCOD9113206
_publ_section_title
;
Structure prediction by ZEFSAII (Michael W. Deem and Ramdas Pophale) SiO2 
 PCOD9113206
Probable space group: P 2
;
_chemical_formula_sum "Si O2"
_cell_formula_units_Z 12
_cell_length_a 19.504112
_cell_length_b 8.033350
_cell_length_c 9.907912
_cell_angle_alpha 90.000000
_cell_angle_beta 154.099886
_cell_angle_gamma 90.000000
_cell_volume 678.096026
_symmetry_space_group_name_H-M "P 2"
_symmetry_group_IT_number 3
_symmetry_cell_setting 'monoclinic'
loop_
_space_group_symop_operation_xyz
x,y,z
-x,y,-z
loop_
_atom_site_type_symbol
_atom_site_label
_atom_site_fract_x
_atom_site_fract_y
_atom_site_fract_z
Si Si1 0.587405 0.685100 0.796057
Si Si2 0.118121 0.874959 0.595380
Si Si3 0.118121 0.495242 0.595381
Si Si4 0.637149 0.685101 0.351349
Si Si5 0.841078 0.368877 0.631924
Si Si6 0.158922 0.001325 0.368076
O O1 0.500000 0.685101 0.500000
O O2 0.449816 0.685099 0.661071
O O3 0.707825 0.839640 0.035668
O O4 0.707825 0.530560 0.035667
O O5 0.060318 0.685100 0.460435
O O6 0.126027 0.970897 0.468816
O O7 0.000000 0.942684 0.500000
O O8 0.126027 0.399304 0.468817
O O9 0.000000 0.427516 0.500000
O O10 0.737591 0.520342 0.502608
O O11 0.737589 0.849862 0.502606
O O12 0.500000 0.685101 0.000000
O O13 0.768538 0.185101 0.519825
O O14 0.000000 0.371684 0.000000
O O15 0.000000 0.998517 0.000000
#
# Coordination Sequence:
#
# PCOD9113206 Si02
#       6
#     2   2   2   2   2   2
#     4  10  21  34  58  94 111 152 202 229 298 358
#     4   9  19  37  58  85 115 156 192 236 292 343
#     4   9  19  37  58  85 115 156 192 236 292 343
#     4  12  21  40  62  88 119 158 190 248 304 338
#     4  11  24  39  61  90 117 157 203 240 288 352
#     4  11  24  39  61  90 117 157 203 240 288 352
#
# _framework density 17.696608000000001
#
# number of rings (size 3 to 8) (size 9 to 14) (size 15 to 20)
#    1.000    0.667    5.000    0.500    4.667    1.333 
#    0.000    0.000    0.000    2.000    0.000    0.000 
#    0.000    0.000    0.000    0.000    0.000    0.000 
#
# Total GULP energy -66838.944478 kJ/mol
# GULP energy per Si atom -5569.912040 kJ/mol
# Density = 1.765633 g / cm^3
# Si number density = 17.696608 Si / 1000 Ang^3
#
#
#
# Elastic Constant Matrix: (Units=GPa)
#
#
# Indices 1 2 3 4 5 6 
#
# 1 180.8046 57.9664 68.7308 0.0000 -2.7906 0.0000
# 2 57.9664 118.4402 49.5870 0.0000 11.2000 0.0000
# 3 68.7308 49.5870 110.2622 0.0000 -18.8346 0.0000
# 4 0.0000 0.0000 0.0000 -4.2225 0.0000 -15.9072
# 5 -2.7906 11.2000 -18.8346 0.0000 35.9743 0.0000
# 6 0.0000 0.0000 0.0000 -15.9072 0.0000 -12.0594
#
#
#
# Elastic Compliance Matrix: (Units=1/GPa)
#
#
# Indices 1 2 3 4 5 6 
#
# 1 0.007696 -0.001979 -0.004063 0.000000 -0.000914 0.000000
# 2 -0.001979 0.012367 -0.005505 0.000000 -0.006886 0.000000
# 3 -0.004063 -0.005505 0.015723 0.000000 0.009630 0.000000
# 4 0.000000 0.000000 0.000000 0.059665 0.000000 -0.078702
# 5 -0.000914 -0.006886 0.009630 0.000000 0.034912 0.000000
# 6 0.000000 0.000000 0.000000 -0.078702 0.000000 0.020891
#
#
# Mechanical properties :
#
#
# Convention : Reuss Voigt Hill
#
# Bulk Modulus (GPa) = 78.78798 84.67504 81.73151
# Shear Modulus (GPa) = 27.99900 19.48667 23.74283
#
# Velocity S-wave (km/s) = 3.98196 3.32196 3.66684
# Velocity P-wave (km/s) = 8.10922 7.91618 8.01329
#
# Compressibility (1/GPa) = 0.01269229
#
# Stress axis : x y z
#
# Youngs Moduli (GPa) = 129.94162 80.85892 63.60247
#
# Poissons Ratio (x) = 0.16000 0.25844
# Poissons Ratio (y) = 0.25712 0.35010
# Poissons Ratio (z) = 0.52800 0.44509
#
# Static dielectric constant tensor:
#      x y z
#    x 1.613690 0.000000 -0.016780 
#    y 0.000000 1.635320 0.000000 
#    z -0.016780 0.000000 1.603220 
# 
# From -- ./inp_files/9100.got.cif
#   From: 2010.05.17/outbox.cif.g08.bks.cpg/sg3_5_cif.got.tgz:9100.got - 2010.06.03 18:33:08.
