data_PCOD9113937
_publ_section_title
;
Structure prediction by ZEFSAII (Michael W. Deem and Ramdas Pophale) SiO2 
 PCOD9113937
Probable space group: P 2
;
_chemical_formula_sum "Si O2"
_cell_formula_units_Z 12
_cell_length_a 21.559102
_cell_length_b 5.175201
_cell_length_c 5.214346
_cell_angle_alpha 90.000000
_cell_angle_beta 51.277849
_cell_angle_gamma 90.000000
_cell_volume 453.897038
_symmetry_space_group_name_H-M "P 2"
_symmetry_group_IT_number 3
_symmetry_cell_setting 'monoclinic'
loop_
_space_group_symop_operation_xyz
x,y,z
-x,y,-z
loop_
_atom_site_type_symbol
_atom_site_label
_atom_site_fract_x
_atom_site_fract_y
_atom_site_fract_z
Si Si1 0.782216 0.870180 0.732111
Si Si2 0.861534 0.492119 0.885978
Si Si3 0.696309 0.251892 0.314961
Si Si4 0.375377 0.590470 0.865352
Si Si5 0.912679 0.208246 0.228841
Si Si6 0.574395 0.076210 0.993705
O O1 0.838816 0.764963 0.815934
O O2 0.718385 0.648600 0.825200
O O3 0.843235 0.994308 0.374312
O O4 0.725268 0.091169 0.993728
O O5 0.894038 0.335256 0.554009
O O6 0.775878 0.386573 0.196465
O O7 0.912665 0.425567 0.004347
O O8 0.654186 0.059303 0.615830
O O9 0.633644 0.472840 0.395230
O O10 0.418254 0.360520 0.905546
O O11 0.420352 0.853061 0.809097
O O12 0.000000 0.086844 0.000000
O O13 0.500000 0.047399 0.000000
#
# Coordination Sequence:
#
# PCOD9113937 Si02
#       6
#     2   2   2   2   2   2
#     4  10  23  45  75 105 140 207 255 320 373 466
#     4  10  24  41  74 106 146 200 260 313 381 461
#     4  10  24  44  72 103 137 198 255 313 371 460
#     4  11  24  47  69 105 147 193 253 310 377 458
#     4  11  24  46  70 111 157 202 252 321 395 464
#     4  12  27  45  71 109 154 194 251 320 391 458
#
# _framework density 26.437715000000001
#
# number of rings (size 3 to 8) (size 9 to 14) (size 15 to 20)
#    0.000    1.333    1.667    2.000    9.333    4.000 
#    3.000    3.333    0.000    0.000    0.000    0.000 
#    0.000    0.000    0.000    0.000    0.000    0.000 
#
# Total GULP energy -67141.606967 kJ/mol
# GULP energy per Si atom -5595.133914 kJ/mol
# Density = 2.637754 g / cm^3
# Si number density = 26.437715 Si / 1000 Ang^3
#
#
#
# Elastic Constant Matrix: (Units=GPa)
#
#
# Indices 1 2 3 4 5 6 
#
# 1 74.5793 23.0588 31.4495 0.0000 2.1292 0.0000
# 2 23.0588 137.6485 17.2999 0.0000 5.0889 0.0000
# 3 31.4495 17.2999 100.8630 0.0000 0.5527 0.0000
# 4 0.0000 0.0000 0.0000 2.5449 0.0000 -4.4798
# 5 2.1292 5.0889 0.5527 0.0000 38.2794 0.0000
# 6 0.0000 0.0000 0.0000 -4.4798 0.0000 21.0151
#
#
#
# Elastic Compliance Matrix: (Units=1/GPa)
#
#
# Indices 1 2 3 4 5 6 
#
# 1 0.016023 -0.002081 -0.004636 0.000000 -0.000548 0.000000
# 2 -0.002081 0.007731 -0.000672 0.000000 -0.000902 0.000000
# 3 -0.004636 -0.000672 0.011474 0.000000 0.000182 0.000000
# 4 0.000000 0.000000 0.000000 0.628963 0.000000 0.134076
# 5 -0.000548 -0.000902 0.000182 0.000000 0.026271 0.000000
# 6 0.000000 0.000000 0.000000 0.134076 0.000000 0.076166
#
#
# Mechanical properties :
#
#
# Convention : Reuss Voigt Hill
#
# Bulk Modulus (GPa) = 48.90093 50.74525 49.82309
# Shear Modulus (GPa) = 6.34337 28.45338 17.39838
#
# Velocity S-wave (km/s) = 1.55067 3.28417 2.56811
# Velocity P-wave (km/s) = 4.66293 5.79802 5.26117
#
# Compressibility (1/GPa) = 0.02044951
#
# Stress axis : x y z
#
# Youngs Moduli (GPa) = 62.41184 129.34322 87.15165
#
# Poissons Ratio (x) = 0.26919 0.40403
# Poissons Ratio (y) = 0.12989 0.05858
# Poissons Ratio (z) = 0.28934 0.08694
#
# Static dielectric constant tensor:
#      x y z
#    x 2.163690 0.000000 0.049010 
#    y 0.000000 2.094490 0.000000 
#    z 0.049010 0.000000 2.049590 
# 
# From -- ./inp_files/3812.got.cif
#   From: 2010.05.17/outbox.cif.g08.bks.cpg/sg3_2_cif.got.tgz:3812.got - 2010.06.03 18:33:08.
