data_PCOD9113323
_publ_section_title
;
Structure prediction by ZEFSAII (Michael W. Deem and Ramdas Pophale) SiO2 
 PCOD9113323
Probable space group: P 2
;
_chemical_formula_sum "Si O2"
_cell_formula_units_Z 14
_cell_length_a 8.635715
_cell_length_b 16.216241
_cell_length_c 8.408451
_cell_angle_alpha 90.000000
_cell_angle_beta 146.575022
_cell_angle_gamma 90.000000
_cell_volume 648.624898
_symmetry_space_group_name_H-M "P 2"
_symmetry_group_IT_number 3
_symmetry_cell_setting 'monoclinic'
loop_
_space_group_symop_operation_xyz
x,y,z
-x,y,-z
loop_
_atom_site_type_symbol
_atom_site_label
_atom_site_fract_x
_atom_site_fract_y
_atom_site_fract_z
Si Si1 0.693872 0.648160 0.813849
Si Si2 0.303754 0.463949 0.184738
Si Si3 0.250648 0.291704 0.084633
Si Si4 0.162212 0.209223 0.478874
Si Si5 0.985578 0.938561 0.172559
Si Si6 0.478800 0.051656 0.668053
Si Si7 0.795321 0.775284 0.183349
O O1 0.500000 0.676524 0.500000
O O2 0.598497 0.555153 0.782406
O O3 0.722269 0.707193 0.988360
O O4 0.000000 0.644783 0.000000
O O5 0.500000 0.435590 0.500000
O O6 0.280992 0.386189 0.046976
O O7 0.000000 0.477277 0.000000
O O8 0.578275 0.263594 0.370908
O O9 0.000000 0.304024 0.000000
O O10 0.100227 0.216746 0.864350
O O11 0.308691 0.120608 0.618759
O O12 0.000000 0.236679 0.500000
O O13 0.918204 0.857330 0.211023
O O14 0.281478 0.972359 0.484453
O O15 0.000000 0.915457 0.000000
O O16 0.766836 0.015900 0.986387
O O17 0.500000 0.082278 0.500000
O O18 0.000000 0.744855 0.500000
O O19 0.500000 0.801387 0.000000
#
# Coordination Sequence:
#
# PCOD9113323 Si02
#       7
#     2   2   2   2   2   2   2
#     4  10  21  40  66  91 121 163 212 260 308 369
#     4   9  18  35  62  93 115 149 209 263 301 355
#     4  11  21  39  64  88 118 161 209 256 306 367
#     4  12  25  39  58  90 128 162 200 253 320 379
#     4  10  22  40  63  86 113 155 208 257 304 365
#     4  10  21  39  62  87 113 153 209 259 303 363
#     4  12  25  40  60  93 131 163 201 252 320 386
#
# _framework density 21.584123000000002
#
# number of rings (size 3 to 8) (size 9 to 14) (size 15 to 20)
#    0.000    1.429    0.000    6.429    0.000    4.571 
#    0.000    2.143    0.000    0.000    0.000    0.000 
#    0.000    0.000    0.000    0.000    0.000    0.000 
#
# Total GULP energy -77959.044570 kJ/mol
# GULP energy per Si atom -5568.503184 kJ/mol
# Density = 2.153500 g / cm^3
# Si number density = 21.584123 Si / 1000 Ang^3
#
#
#
# Elastic Constant Matrix: (Units=GPa)
#
#
# Indices 1 2 3 4 5 6 
#
# 1 63.4693 42.2968 21.9456 0.0000 14.8346 0.0000
# 2 42.2968 79.0573 2.9773 0.0000 -13.7423 0.0000
# 3 21.9456 2.9773 113.4613 0.0000 10.8230 0.0000
# 4 0.0000 0.0000 0.0000 -5.2501 0.0000 -41.5188
# 5 14.8346 -13.7423 10.8230 0.0000 27.4096 0.0000
# 6 0.0000 0.0000 0.0000 -41.5188 0.0000 -119.7317
#
#
#
# Elastic Compliance Matrix: (Units=1/GPa)
#
#
# Indices 1 2 3 4 5 6 
#
# 1 0.049539 -0.033591 -0.004714 0.000000 -0.041792 0.000000
# 2 -0.033591 0.036759 0.002120 0.000000 0.035773 0.000000
# 3 -0.004714 0.002120 0.009690 0.000000 -0.000212 0.000000
# 4 0.000000 0.000000 0.000000 0.109323 0.000000 -0.037909
# 5 -0.041792 0.035773 -0.000212 0.000000 0.077121 0.000000
# 6 0.000000 0.000000 0.000000 -0.037909 0.000000 0.004794
#
#
# Mechanical properties :
#
#
# Convention : Reuss Voigt Hill
#
# Bulk Modulus (GPa) = 42.33937 43.38082 42.86010
# Shear Modulus (GPa) = 13.60662 -6.92990 3.33836
#
# Velocity S-wave (km/s) = 2.51350 -1.79377 1.24500
# Velocity P-wave (km/s) = 5.29926 3.98145 4.68690
#
# Compressibility (1/GPa) = 0.02361868
#
# Stress axis : x y z
#
# Youngs Moduli (GPa) = 20.18610 27.20404 103.20010
#
# Poissons Ratio (x) = 0.91381 0.48647
# Poissons Ratio (y) = 0.67807 -0.21881
# Poissons Ratio (z) = 0.09515 -0.05768
#
# Static dielectric constant tensor:
#      x y z
#    x 2.302450 0.000000 -0.747050 
#    y 0.000000 1.825450 0.000000 
#    z -0.747050 0.000000 2.782410 
# 
# From -- ./inp_files/6252.got.cif
#   From: 2010.05.17/outbox.cif.g08.bks.cpg/sg3_4_cif.got.tgz:6252.got - 2010.06.03 18:33:08.
