data_PCOD9113875
_publ_section_title
;
Structure prediction by ZEFSAII (Michael W. Deem and Ramdas Pophale) SiO2 
 PCOD9113875
Probable space group: P 2
;
_chemical_formula_sum "Si O2"
_cell_formula_units_Z 15
_cell_length_a 20.557129
_cell_length_b 6.799448
_cell_length_c 12.229706
_cell_angle_alpha 90.000000
_cell_angle_beta 156.543589
_cell_angle_gamma 90.000000
_cell_volume 680.442074
_symmetry_space_group_name_H-M "P 2"
_symmetry_group_IT_number 3
_symmetry_cell_setting 'monoclinic'
loop_
_space_group_symop_operation_xyz
x,y,z
-x,y,-z
loop_
_atom_site_type_symbol
_atom_site_label
_atom_site_fract_x
_atom_site_fract_y
_atom_site_fract_z
Si Si1 0.629482 0.985820 0.301074
Si Si2 0.942342 0.879052 0.534019
Si Si3 0.109916 0.241882 0.414469
Si Si4 0.500000 0.435714 0.500000
Si Si5 0.309674 0.633644 0.720779
Si Si6 0.868176 0.427190 0.888257
Si Si7 0.762081 0.771211 0.845811
Si Si8 0.580197 0.138457 0.452872
O O1 0.705717 0.766918 0.411774
O O2 0.538694 0.036870 0.273437
O O3 0.785530 0.117042 0.511834
O O4 0.500000 0.998946 0.000000
O O5 0.776434 0.767547 0.317564
O O6 0.000000 0.841381 0.500000
O O7 0.909717 0.107767 0.509793
O O8 0.093822 0.822192 0.847543
O O9 0.214064 0.435712 0.587838
O O10 0.938495 0.316537 0.103769
O O11 0.647108 0.591480 0.710738
O O12 0.464145 0.278939 0.346702
O O13 0.500000 0.581500 0.000000
O O14 0.844863 0.657532 0.872676
O O15 0.708300 0.306027 0.614154
O O16 0.000000 0.396971 0.000000
O O17 0.660636 0.962790 0.650078
#
# Coordination Sequence:
#
# PCOD9113875 Si02
#       8
#     2   2   2   1   2   2   2   2
#     4  10  23  42  65 101 140 177 229 286 360 427
#     4  11  25  46  72 104 142 192 243 295 359 422
#     4  11  21  42  65 101 139 176 232 286 355 427
#     4  10  26  48  66 100 134 186 248 286 368 426
#     4  10  23  45  68 102 145 184 237 290 358 432
#     4  11  22  37  68 103 128 170 229 281 354 422
#     4  11  24  46  69  98 137 183 241 297 347 431
#     4  11  23  44  70  96 140 182 229 299 354 423
#
# _framework density 22.044491000000001
#
# number of rings (size 3 to 8) (size 9 to 14) (size 15 to 20)
#    0.000    1.333    4.000    0.800    1.867    1.600 
#   19.200    0.000    0.000    0.000    0.000    0.000 
#    0.000    0.000    0.000    0.000    0.000    0.000 
#
# Total GULP energy -83564.256216 kJ/mol
# GULP energy per Si atom -5570.950414 kJ/mol
# Density = 2.199432 g / cm^3
# Si number density = 22.044491 Si / 1000 Ang^3
#
#
#
# Elastic Constant Matrix: (Units=GPa)
#
#
# Indices 1 2 3 4 5 6 
#
# 1 93.3002 21.2964 25.7619 0.0000 -15.4539 0.0000
# 2 21.2964 126.6070 16.1091 0.0000 -11.4846 0.0000
# 3 25.7619 16.1091 64.8417 0.0000 -9.1665 0.0000
# 4 0.0000 0.0000 0.0000 29.2684 0.0000 20.9573
# 5 -15.4539 -11.4846 -9.1665 0.0000 20.6696 0.0000
# 6 0.0000 0.0000 0.0000 20.9573 0.0000 47.5229
#
#
#
# Elastic Compliance Matrix: (Units=1/GPa)
#
#
# Indices 1 2 3 4 5 6 
#
# 1 0.013309 -0.001045 -0.003951 0.000000 0.007618 0.000000
# 2 -0.001045 0.008540 -0.001223 0.000000 0.003422 0.000000
# 3 -0.003951 -0.001223 0.017905 0.000000 0.004307 0.000000
# 4 0.000000 0.000000 0.000000 0.049934 0.000000 -0.022021
# 5 0.007618 0.003422 0.004307 0.000000 0.057887 0.000000
# 6 0.000000 0.000000 0.000000 -0.022021 0.000000 0.030753
#
#
# Mechanical properties :
#
#
# Convention : Reuss Voigt Hill
#
# Bulk Modulus (GPa) = 36.60856 45.67595 41.14226
# Shear Modulus (GPa) = 25.01595 34.26429 29.64012
#
# Velocity S-wave (km/s) = 3.37232 3.94677 3.67080
# Velocity P-wave (km/s) = 5.63969 6.44470 6.05559
#
# Compressibility (1/GPa) = 0.02731601
#
# Stress axis : x y z
#
# Youngs Moduli (GPa) = 75.13445 117.09338 55.85135
#
# Poissons Ratio (x) = 0.12236 0.22069
# Poissons Ratio (y) = 0.07851 0.06830
# Poissons Ratio (z) = 0.29688 0.14319
#
# Static dielectric constant tensor:
#      x y z
#    x 1.857810 0.000000 -0.014200 
#    y 0.000000 1.856530 0.000000 
#    z -0.014200 0.000000 1.838800 
# 
# From -- ./inp_files/12620.got.cif
#   From: 2010.05.17/outbox.cif.g08.bks.cpg/sg3_7_cif.got.tgz:12620.got - 2010.06.03 18:33:08.
