data_PCOD9113533
_publ_section_title
;
Structure prediction by ZEFSAII (Michael W. Deem and Ramdas Pophale) SiO2 
 PCOD9113533
Probable space group: P 2
;
_chemical_formula_sum "Si O2"
_cell_formula_units_Z 16
_cell_length_a 11.501307
_cell_length_b 11.775302
_cell_length_c 9.010848
_cell_angle_alpha 90.000000
_cell_angle_beta 135.362500
_cell_angle_gamma 90.000000
_cell_volume 857.442006
_symmetry_space_group_name_H-M "P 2"
_symmetry_group_IT_number 3
_symmetry_cell_setting 'monoclinic'
loop_
_space_group_symop_operation_xyz
x,y,z
-x,y,-z
loop_
_atom_site_type_symbol
_atom_site_label
_atom_site_fract_x
_atom_site_fract_y
_atom_site_fract_z
Si Si1 0.896318 0.862500 0.678512
Si Si2 0.749770 0.852121 0.851908
Si Si3 0.607302 0.039891 0.880044
Si Si4 0.141593 0.213336 0.030834
Si Si5 0.091057 0.289270 0.443327
Si Si6 0.247201 0.049981 0.661259
Si Si7 0.685687 0.392169 0.600684
Si Si8 0.178923 0.642178 0.241634
O O1 0.847288 0.728109 0.641925
O O2 0.090112 0.864541 0.896298
O O3 0.845223 0.942633 0.497174
O O4 0.802338 0.905861 0.741759
O O5 0.721177 0.721400 0.784319
O O6 0.604621 0.919512 0.795139
O O7 0.712511 0.129116 0.881115
O O8 0.420317 0.073649 0.736308
O O9 0.701733 0.028612 0.122677
O O10 0.207818 0.316076 0.189693
O O11 0.000000 0.152241 0.000000
O O12 0.051318 0.264885 0.806300
O O13 0.148779 0.166022 0.552449
O O14 0.247621 0.347093 0.500261
O O15 0.000000 0.349638 0.500000
O O16 0.500000 0.380849 0.500000
O O17 0.737254 0.523747 0.651550
O O18 0.000000 0.626028 0.000000
#
# Coordination Sequence:
#
# PCOD9113533 Si02
#       8
#     2   2   2   2   2   2   2   2
#     4   8  18  34  58  84 109 147 188 233 276 341
#     4   8  18  33  58  83 111 143 191 234 279 330
#     4  11  22  35  52  84 121 153 179 235 290 343
#     4  10  22  36  58  81 109 149 196 235 276 343
#     4  11  22  40  61  84 114 158 196 235 284 347
#     4  11  23  35  53  82 124 151 184 228 293 346
#     4  11  23  38  62  89 115 147 193 245 293 339
#     4   8  17  37  60  85 110 144 194 243 278 328
#
# _framework density 18.660155
#
# number of rings (size 3 to 8) (size 9 to 14) (size 15 to 20)
#    0.750    1.500    1.250    2.625    5.250    1.500 
#    0.000    0.000    8.250    0.000    0.000    0.000 
#    0.000    0.000    0.000    0.000    0.000    0.000 
#
# Total GULP energy -89089.713038 kJ/mol
# GULP energy per Si atom -5568.107065 kJ/mol
# Density = 1.861768 g / cm^3
# Si number density = 18.660155 Si / 1000 Ang^3
#
#
#
# Elastic Constant Matrix: (Units=GPa)
#
#
# Indices 1 2 3 4 5 6 
#
# 1 121.1706 46.6673 15.7273 0.0000 -0.8406 0.0000
# 2 46.6673 91.3950 17.9657 0.0000 4.3665 0.0000
# 3 15.7273 17.9657 37.9023 0.0000 3.1196 0.0000
# 4 0.0000 0.0000 0.0000 -10.5072 0.0000 -23.6318
# 5 -0.8406 4.3665 3.1196 0.0000 12.8927 0.0000
# 6 0.0000 0.0000 0.0000 -23.6318 0.0000 -15.6181
#
#
#
# Elastic Compliance Matrix: (Units=1/GPa)
#
#
# Indices 1 2 3 4 5 6 
#
# 1 0.010514 -0.005077 -0.002198 0.000000 0.002937 0.000000
# 2 -0.005077 0.014614 -0.004475 0.000000 -0.004198 0.000000
# 3 -0.002198 -0.004475 0.029899 0.000000 -0.005862 0.000000
# 4 0.000000 0.000000 0.000000 0.039604 0.000000 -0.059925
# 5 0.002937 -0.004198 -0.005862 0.000000 0.080595 0.000000
# 6 0.000000 0.000000 0.000000 -0.059925 0.000000 0.026644
#
#
# Mechanical properties :
#
#
# Convention : Reuss Voigt Hill
#
# Bulk Modulus (GPa) = 31.71811 45.68759 38.70285
# Shear Modulus (GPa) = 21.19737 8.69397 14.94567
#
# Velocity S-wave (km/s) = 3.37407 2.16084 2.83316
# Velocity P-wave (km/s) = 5.67572 5.54642 5.61145
#
# Compressibility (1/GPa) = 0.03152773
#
# Stress axis : x y z
#
# Youngs Moduli (GPa) = 95.11407 68.42794 33.44561
#
# Poissons Ratio (x) = 0.34738 0.07351
# Poissons Ratio (y) = 0.48286 0.14967
# Poissons Ratio (z) = 0.20906 0.30621
#
# Static dielectric constant tensor:
#      x y z
#    x 1.698720 0.000000 -0.002160 
#    y 0.000000 1.628950 0.000000 
#    z -0.002160 0.000000 1.648510 
# 
# From -- ./inp_files/7673.got.cif
#   From: 2010.05.17/outbox.cif.g08.bks.cpg/sg3_4_cif.got.tgz:7673.got - 2010.06.03 18:33:08.
