data_PCOD9113927
_publ_section_title
;
Structure prediction by ZEFSAII (Michael W. Deem and Ramdas Pophale) SiO2 
 PCOD9113927
Probable space group: P 2
;
_chemical_formula_sum "Si O2"
_cell_formula_units_Z 14
_cell_length_a 21.287340
_cell_length_b 5.172740
_cell_length_c 7.968168
_cell_angle_alpha 90.000000
_cell_angle_beta 45.100060
_cell_angle_gamma 90.000000
_cell_volume 621.502170
_symmetry_space_group_name_H-M "P 2"
_symmetry_group_IT_number 3
_symmetry_cell_setting 'monoclinic'
loop_
_space_group_symop_operation_xyz
x,y,z
-x,y,-z
loop_
_atom_site_type_symbol
_atom_site_label
_atom_site_fract_x
_atom_site_fract_y
_atom_site_fract_z
Si Si1 0.740782 0.793510 0.121062
Si Si2 0.008542 0.947913 0.179979
Si Si3 0.708711 0.203277 0.418055
Si Si4 0.809988 0.931129 0.660701
Si Si5 0.395458 0.419078 0.706924
Si Si6 0.120238 0.434055 0.032019
Si Si7 0.707069 0.408608 0.759473
O O1 0.782978 0.979978 0.904958
O O2 0.810393 0.555647 0.965130
O O3 0.643614 0.706777 0.249606
O O4 0.734129 0.907175 0.321185
O O5 0.056773 0.189584 0.180536
O O6 0.913322 0.886085 0.438521
O O7 0.064826 0.684373 0.083125
O O8 0.000000 0.021988 0.000000
O O9 0.650636 0.273691 0.363137
O O10 0.662142 0.323079 0.668429
O O11 0.805186 0.337860 0.237719
O O12 0.749664 0.693902 0.703207
O O13 0.784671 0.196892 0.621071
O O14 0.500000 0.399483 0.500000
O O15 0.358616 0.354041 0.960864
#
# Coordination Sequence:
#
# PCOD9113927 Si02
#       7
#     2   2   2   2   2   2   2
#     4  10  23  45  67  98 137 183 224 284 349 412
#     4  12  23  39  62  95 135 176 233 285 325 387
#     4  11  22  44  72  95 141 181 226 277 347 409
#     4  11  24  44  65 101 138 181 234 281 341 402
#     4  10  24  45  72 104 137 173 227 284 349 420
#     4  11  23  40  61  96 130 183 225 274 337 390
#     4  11  24  43  72 100 137 184 225 278 346 415
#
# _framework density 22.526067000000001
#
# number of rings (size 3 to 8) (size 9 to 14) (size 15 to 20)
#    0.000    1.143    2.857    3.000    4.000    1.714 
#    2.571    0.000    0.000    0.000    0.000    0.000 
#    0.000    0.000    0.000    0.000    0.000    0.000 
#
# Total GULP energy -78029.305561 kJ/mol
# GULP energy per Si atom -5573.521826 kJ/mol
# Density = 2.247480 g / cm^3
# Si number density = 22.526067 Si / 1000 Ang^3
#
#
#
# Elastic Constant Matrix: (Units=GPa)
#
#
# Indices 1 2 3 4 5 6 
#
# 1 86.3453 32.1077 70.3712 0.0000 1.9117 0.0000
# 2 32.1077 109.1529 29.5905 0.0000 -3.3168 0.0000
# 3 70.3712 29.5905 134.8943 0.0000 -7.3904 0.0000
# 4 0.0000 0.0000 0.0000 22.1195 0.0000 3.9749
# 5 1.9117 -3.3168 -7.3904 0.0000 46.9080 0.0000
# 6 0.0000 0.0000 0.0000 3.9749 0.0000 18.1676
#
#
#
# Elastic Compliance Matrix: (Units=1/GPa)
#
#
# Indices 1 2 3 4 5 6 
#
# 1 0.021672 -0.003566 -0.010678 0.000000 -0.002818 0.000000
# 2 -0.003566 0.010333 -0.000362 0.000000 0.000819 0.000000
# 3 -0.010678 -0.000362 0.013199 0.000000 0.002489 0.000000
# 4 0.000000 0.000000 0.000000 0.047059 0.000000 -0.010296
# 5 -0.002818 0.000819 0.002489 0.000000 0.021883 0.000000
# 6 0.000000 0.000000 0.000000 -0.010296 0.000000 0.057296
#
#
# Mechanical properties :
#
#
# Convention : Reuss Voigt Hill
#
# Bulk Modulus (GPa) = 62.52389 66.05902 64.29146
# Shear Modulus (GPa) = 24.27350 30.66057 27.46704
#
# Velocity S-wave (km/s) = 3.28620 3.69333 3.49570
# Velocity P-wave (km/s) = 6.49733 6.89760 6.70045
#
# Compressibility (1/GPa) = 0.01599389
#
# Stress axis : x y z
#
# Youngs Moduli (GPa) = 46.14153 96.77462 75.76070
#
# Poissons Ratio (x) = 0.34509 0.80899
# Poissons Ratio (y) = 0.16454 0.02740
# Poissons Ratio (z) = 0.49271 0.03499
#
# Static dielectric constant tensor:
#      x y z
#    x 2.019060 0.000000 0.112720 
#    y 0.000000 1.979200 0.000000 
#    z 0.112720 0.000000 1.821570 
# 
# From -- ./inp_files/9319.got.cif
#   From: 2010.05.17/outbox.cif.g08.bks.cpg/sg3_5_cif.got.tgz:9319.got - 2010.06.03 18:33:08.
