data_PCOD9113313
_publ_section_title
;
Structure prediction by ZEFSAII (Michael W. Deem and Ramdas Pophale) SiO2 
 PCOD9113313
Probable space group: P 2
;
_chemical_formula_sum "Si O2"
_cell_formula_units_Z 16
_cell_length_a 5.239335
_cell_length_b 22.638965
_cell_length_c 5.288718
_cell_angle_alpha 90.000000
_cell_angle_beta 83.921572
_cell_angle_gamma 90.000000
_cell_volume 623.784533
_symmetry_space_group_name_H-M "P 2"
_symmetry_group_IT_number 3
_symmetry_cell_setting 'monoclinic'
loop_
_space_group_symop_operation_xyz
x,y,z
-x,y,-z
loop_
_atom_site_type_symbol
_atom_site_label
_atom_site_fract_x
_atom_site_fract_y
_atom_site_fract_z
Si Si1 0.667311 0.642550 0.225560
Si Si2 0.774823 0.011212 0.332680
Si Si3 0.323780 0.138646 0.768693
Si Si4 0.320406 0.517881 0.767183
Si Si5 0.338155 0.887766 0.777137
Si Si6 0.678533 0.265305 0.232863
Si Si7 0.321158 0.391650 0.767192
Si Si8 0.221408 0.765847 0.661949
O O1 0.500000 0.647205 0.500000
O O2 0.825941 0.581113 0.234709
O O3 0.762360 0.708974 0.162430
O O4 0.500000 0.630046 0.000000
O O5 0.500000 0.015946 0.500000
O O6 0.754546 0.954161 0.155978
O O7 0.000000 0.995562 0.500000
O O8 0.826280 0.076916 0.226379
O O9 0.500000 0.139337 0.500000
O O10 0.180444 0.201860 0.775832
O O11 0.500000 0.136130 0.000000
O O12 0.500000 0.518859 0.500000
O O13 0.177084 0.454649 0.772257
O O14 0.500000 0.514557 0.000000
O O15 0.500000 0.893936 0.500000
O O16 0.152366 0.832336 0.752718
O O17 0.500000 0.867895 0.000000
O O18 0.500000 0.265278 0.500000
O O19 0.821765 0.328329 0.226134
O O20 0.500000 0.264458 0.000000
O O21 0.500000 0.391685 0.500000
O O22 0.500000 0.390580 0.000000
O O23 0.500000 0.771982 0.500000
O O24 0.000000 0.746400 0.500000
#
# Coordination Sequence:
#
# PCOD9113313 Si02
#       8
#     2   2   2   2   2   2   2   2
#     4   9  17  31  49  73 103 140 180 225 274 328
#     4  10  21  39  60  86 116 151 190 234 282 336
#     4   9  17  31  49  73 103 140 180 225 274 328
#     4   8  13  21  36  58  90 126 167 212 262 316
#     4  10  21  40  62  88 118 152 190 234 282 336
#     4   8  13  21  36  58  90 126 167 212 262 316
#     4   8  12  18  30  54  85 122 162 208 258 312
#     4  10  21  39  60  86 116 151 190 234 282 336
#
# _framework density 25.649885000000001
#
# number of rings (size 3 to 8) (size 9 to 14) (size 15 to 20)
#    0.000    3.000    0.000    1.125    0.000    0.000 
#    0.000   25.000    0.000    0.000    0.000    0.875 
#    0.000    0.000    0.000  110.750    0.000    6.500 
#
# Total GULP energy -89182.803822 kJ/mol
# GULP energy per Si atom -5573.925239 kJ/mol
# Density = 2.559150 g / cm^3
# Si number density = 25.649885 Si / 1000 Ang^3
#
#
#
# Elastic Constant Matrix: (Units=GPa)
#
#
# Indices 1 2 3 4 5 6 
#
# 1 60.5267 -28.8073 25.7370 0.0000 -29.0978 0.0000
# 2 -28.8073 288.5200 -38.7099 0.0000 -3.5172 0.0000
# 3 25.7370 -38.7099 161.3046 0.0000 -23.1893 0.0000
# 4 0.0000 0.0000 0.0000 10.4661 0.0000 35.4206
# 5 -29.0978 -3.5172 -23.1893 0.0000 59.5923 0.0000
# 6 0.0000 0.0000 0.0000 35.4206 0.0000 -43.4269
#
#
#
# Elastic Compliance Matrix: (Units=1/GPa)
#
#
# Indices 1 2 3 4 5 6 
#
# 1 0.023595 0.002271 -0.001636 0.000000 0.011018 0.000000
# 2 0.002271 0.003819 0.000790 0.000000 0.001642 0.000000
# 3 -0.001636 0.000790 0.006930 0.000000 0.001944 0.000000
# 4 0.000000 0.000000 0.000000 0.025409 0.000000 0.020724
# 5 0.011018 0.001642 0.001944 0.000000 0.023014 0.000000
# 6 0.000000 0.000000 0.000000 0.020724 0.000000 -0.006124
#
#
# Mechanical properties :
#
#
# Convention : Reuss Voigt Hill
#
# Bulk Modulus (GPa) = 26.88657 47.42121 37.15389
# Shear Modulus (GPa) = 58.01118 42.13509 50.07313
#
# Velocity S-wave (km/s) = 4.76084 4.05742 4.42314
# Velocity P-wave (km/s) = 6.38167 6.36225 6.37197
#
# Compressibility (1/GPa) = 0.03719329
#
# Stress axis : x y z
#
# Youngs Moduli (GPa) = 42.38200 261.86930 144.30870
#
# Poissons Ratio (x) = -0.59462 0.23605
# Poissons Ratio (y) = -0.09624 -0.11402
# Poissons Ratio (z) = 0.06933 -0.20690
#
# Static dielectric constant tensor:
#      x y z
#    x 2.085820 0.000000 0.121570 
#    y 0.000000 2.111810 0.000000 
#    z 0.121570 0.000000 2.060670 
# 
# From -- ./inp_files/697.got.cif
#   From: 2010.05.17/outbox.cif.g08.bks.cpg/sg3_1_cif.got.tgz:697.got - 2010.06.03 18:33:08.
