data_PCOD9113039
_publ_section_title
;
Structure prediction by ZEFSAII (Michael W. Deem and Ramdas Pophale) SiO2 
 PCOD9113039
Probable space group: P 2
;
_chemical_formula_sum "Si O2"
_cell_formula_units_Z 16
_cell_length_a 10.980890
_cell_length_b 9.524584
_cell_length_c 9.722961
_cell_angle_alpha 90.000000
_cell_angle_beta 125.142538
_cell_angle_gamma 90.000000
_cell_volume 831.549483
_symmetry_space_group_name_H-M "P 2"
_symmetry_group_IT_number 3
_symmetry_cell_setting 'monoclinic'
loop_
_space_group_symop_operation_xyz
x,y,z
-x,y,-z
loop_
_atom_site_type_symbol
_atom_site_label
_atom_site_fract_x
_atom_site_fract_y
_atom_site_fract_z
Si Si1 0.139181 0.219450 0.504328
Si Si2 0.701565 0.429010 0.747544
Si Si3 0.154842 0.829187 0.240429
Si Si4 0.334331 0.677693 0.835431
Si Si5 0.129992 0.161956 0.187389
Si Si6 0.843157 0.658815 0.003262
Si Si7 0.168602 0.892138 0.563417
Si Si8 0.639201 0.462616 0.393804
O O1 0.087402 0.205251 0.313516
O O2 0.282458 0.318167 0.601422
O O3 0.000000 0.275773 0.500000
O O4 0.175008 0.060430 0.570952
O O5 0.731392 0.262167 0.758415
O O6 0.827543 0.508487 0.917733
O O7 0.699569 0.487246 0.588909
O O8 0.539083 0.454324 0.706437
O O9 0.239423 0.755739 0.167143
O O10 0.201370 0.834998 0.430454
O O11 0.147552 0.993943 0.197183
O O12 0.998686 0.740789 0.134342
O O13 0.282390 0.827016 0.744347
O O14 0.319912 0.574496 0.695875
O O15 0.500000 0.676509 0.000000
O O16 0.232601 0.641726 0.899391
O O17 0.000000 0.198081 0.000000
O O18 0.000000 0.852415 0.500000
#
# Coordination Sequence:
#
# PCOD9113039 Si02
#       8
#     2   2   2   2   2   2   2   2
#     4   9  21  40  64  90 121 158 207 256 315 372
#     4  10  22  40  64  86 124 165 207 253 316 371
#     4  10  21  39  62  91 124 155 209 257 312 367
#     4  12  24  41  61  91 128 166 210 254 308 371
#     4  10  20  38  63  93 120 157 203 262 304 363
#     4  11  21  38  61  91 122 163 202 258 304 368
#     4  10  20  40  65  89 122 164 203 256 312 370
#     4  10  22  44  60  86 124 167 207 255 311 378
#
# _framework density 19.241188000000001
#
# number of rings (size 3 to 8) (size 9 to 14) (size 15 to 20)
#    0.000    1.750    3.750    0.750    1.750    1.500 
#    6.750    0.625    0.000    0.000    0.000    0.000 
#    0.000    0.000    0.000    0.000    0.000    0.000 
#
# Total GULP energy -89132.982898 kJ/mol
# GULP energy per Si atom -5570.811431 kJ/mol
# Density = 1.919739 g / cm^3
# Si number density = 19.241188 Si / 1000 Ang^3
#
#
#
# Elastic Constant Matrix: (Units=GPa)
#
#
# Indices 1 2 3 4 5 6 
#
# 1 83.1586 45.7557 29.2771 0.0000 -26.1123 0.0000
# 2 45.7557 85.2045 47.5146 0.0000 -4.8744 0.0000
# 3 29.2771 47.5146 77.7864 0.0000 -9.4659 0.0000
# 4 0.0000 0.0000 0.0000 8.8236 0.0000 -7.4852
# 5 -26.1123 -4.8744 -9.4659 0.0000 24.8537 0.0000
# 6 0.0000 0.0000 0.0000 -7.4852 0.0000 20.4163
#
#
#
# Elastic Compliance Matrix: (Units=1/GPa)
#
#
# Indices 1 2 3 4 5 6 
#
# 1 0.027794 -0.014225 0.001512 0.000000 0.026988 0.000000
# 2 -0.014225 0.025091 -0.011736 0.000000 -0.014494 0.000000
# 3 0.001512 -0.011736 0.020310 0.000000 0.007022 0.000000
# 4 0.000000 0.000000 0.000000 0.164492 0.000000 0.060308
# 5 0.026988 -0.014494 0.007022 0.000000 0.068422 0.000000
# 6 0.000000 0.000000 0.000000 0.060308 0.000000 0.071091
#
#
# Mechanical properties :
#
#
# Convention : Reuss Voigt Hill
#
# Bulk Modulus (GPa) = 41.15758 54.58269 47.87013
# Shear Modulus (GPa) = 11.51551 19.05887 15.28719
#
# Velocity S-wave (km/s) = 2.44904 3.15067 2.82175
# Velocity P-wave (km/s) = 5.42530 6.45483 5.96233
#
# Compressibility (1/GPa) = 0.02429686
#
# Stress axis : x y z
#
# Youngs Moduli (GPa) = 35.97900 39.85474 49.23660
#
# Poissons Ratio (x) = 0.56694 -0.07446
# Poissons Ratio (y) = 0.51180 0.57786
# Poissons Ratio (z) = -0.05441 0.46775
#
# Static dielectric constant tensor:
#      x y z
#    x 1.697090 0.000000 -0.013970 
#    y 0.000000 1.692580 0.000000 
#    z -0.013970 0.000000 1.676230 
# 
# From -- ./inp_files/7470.got.cif
#   From: 2010.05.17/outbox.cif.g08.bks.cpg/sg3_4_cif.got.tgz:7470.got - 2010.06.03 18:33:08.
