data_PCOD9113561
_publ_section_title
;
Structure prediction by ZEFSAII (Michael W. Deem and Ramdas Pophale) SiO2 
 PCOD9113561
Probable space group: P 2
;
_chemical_formula_sum "Si O2"
_cell_formula_units_Z 12
_cell_length_a 10.660753
_cell_length_b 4.970250
_cell_length_c 10.951648
_cell_angle_alpha 90.000000
_cell_angle_beta 94.050733
_cell_angle_gamma 90.000000
_cell_volume 578.841047
_symmetry_space_group_name_H-M "P 2"
_symmetry_group_IT_number 3
_symmetry_cell_setting 'monoclinic'
loop_
_space_group_symop_operation_xyz
x,y,z
-x,y,-z
loop_
_atom_site_type_symbol
_atom_site_label
_atom_site_fract_x
_atom_site_fract_y
_atom_site_fract_z
Si Si1 0.766856 0.606310 0.247935
Si Si2 0.468790 0.481971 0.634860
Si Si3 0.176908 0.198108 0.111259
Si Si4 0.409063 0.981697 0.232890
Si Si5 0.630338 0.616627 0.992322
Si Si6 0.898256 0.085713 0.160900
O O1 0.674628 0.581619 0.356336
O O2 0.814816 0.312269 0.217997
O O3 0.879892 0.818864 0.240711
O O4 0.675399 0.689334 0.130065
O O5 0.500000 0.398688 0.500000
O O6 0.502684 0.231585 0.725506
O O7 0.555658 0.733204 0.678927
O O8 0.264338 0.076340 0.222960
O O9 0.257789 0.454330 0.068526
O O10 0.036711 0.212330 0.154446
O O11 0.151573 0.038003 0.981738
O O12 0.410477 0.862716 0.096104
O O13 0.500000 0.452777 0.000000
#
# Coordination Sequence:
#
# PCOD9113561 Si02
#       6
#     2   2   2   2   2   2
#     4  11  22  39  61  92 128 168 207 260 312 386
#     4  12  27  44  65  91 126 173 222 268 320 368
#     4  10  22  38  60  97 137 167 203 246 326 396
#     4  12  22  40  66  90 129 165 210 271 317 382
#     4  11  21  36  63  98 133 162 208 259 338 383
#     4  10  23  35  63  92 137 169 198 248 317 395
#
# _framework density 20.731082000000001
#
# number of rings (size 3 to 8) (size 9 to 14) (size 15 to 20)
#    0.000    1.000    5.000    1.500    2.333    3.333 
#    0.000    0.000    0.000    6.000    0.000    0.000 
#    0.000    0.000    0.000    0.000    0.000    0.000 
#
# Total GULP energy -66894.239751 kJ/mol
# GULP energy per Si atom -5574.519979 kJ/mol
# Density = 2.068390 g / cm^3
# Si number density = 20.731082 Si / 1000 Ang^3
#
#
#
# Elastic Constant Matrix: (Units=GPa)
#
#
# Indices 1 2 3 4 5 6 
#
# 1 113.6151 11.3718 20.7216 0.0000 -17.3434 0.0000
# 2 11.3718 88.2979 16.0706 0.0000 -2.1515 0.0000
# 3 20.7216 16.0706 46.8505 0.0000 -23.6689 0.0000
# 4 0.0000 0.0000 0.0000 17.6143 0.0000 -1.4099
# 5 -17.3434 -2.1515 -23.6689 0.0000 25.8679 0.0000
# 6 0.0000 0.0000 0.0000 -1.4099 0.0000 17.0170
#
#
#
# Elastic Compliance Matrix: (Units=1/GPa)
#
#
# Indices 1 2 3 4 5 6 
#
# 1 0.009960 -0.000895 -0.001417 0.000000 0.005307 0.000000
# 2 -0.000895 0.012545 -0.006850 0.000000 -0.005824 0.000000
# 3 -0.001417 -0.006850 0.043799 0.000000 0.038556 0.000000
# 4 0.000000 0.000000 0.000000 0.057151 0.000000 0.004735
# 5 0.005307 -0.005824 0.038556 0.000000 0.077010 0.000000
# 6 0.000000 0.000000 0.000000 0.004735 0.000000 0.059157
#
#
# Mechanical properties :
#
#
# Convention : Reuss Voigt Hill
#
# Bulk Modulus (GPa) = 20.84203 38.34350 29.59277
# Shear Modulus (GPa) = 17.01024 25.47313 21.24169
#
# Velocity S-wave (km/s) = 2.86758 3.50914 3.20446
# Velocity P-wave (km/s) = 4.58687 5.91224 5.29122
#
# Compressibility (1/GPa) = 0.04797997
#
# Stress axis : x y z
#
# Youngs Moduli (GPa) = 100.40385 79.71055 22.83137
#
# Poissons Ratio (x) = 0.07138 0.03235
# Poissons Ratio (y) = 0.08991 0.15639
# Poissons Ratio (z) = 0.14228 0.54599
#
# Static dielectric constant tensor:
#      x y z
#    x 1.835540 0.000000 -0.004690 
#    y 0.000000 1.817710 0.000000 
#    z -0.004690 0.000000 1.711630 
# 
# From -- ./inp_files/10261.got.cif
#   From: 2010.05.17/outbox.cif.g08.bks.cpg/sg3_6_cif.got.tgz:10261.got - 2010.06.03 18:33:08.
