data_PCOD9113901
_publ_section_title
;
Structure prediction by ZEFSAII (Michael W. Deem and Ramdas Pophale) SiO2 
 PCOD9113901
Probable space group: P 2
;
_chemical_formula_sum "Si O2"
_cell_formula_units_Z 16
_cell_length_a 7.768421
_cell_length_b 9.356032
_cell_length_c 19.854785
_cell_angle_alpha 90.000000
_cell_angle_beta 147.222053
_cell_angle_gamma 90.000000
_cell_volume 781.259964
_symmetry_space_group_name_H-M "P 2"
_symmetry_group_IT_number 3
_symmetry_cell_setting 'monoclinic'
loop_
_space_group_symop_operation_xyz
x,y,z
-x,y,-z
loop_
_atom_site_type_symbol
_atom_site_label
_atom_site_fract_x
_atom_site_fract_y
_atom_site_fract_z
Si Si1 0.354720 0.652810 0.261984
Si Si2 0.683874 0.148943 0.490792
Si Si3 0.376204 0.834646 0.768375
Si Si4 0.593259 0.167403 0.227845
Si Si5 0.240348 0.829229 0.514444
Si Si6 0.370841 0.336350 0.276349
Si Si7 0.628954 0.657345 0.976669
Si Si8 0.310433 0.344904 0.876072
O O1 0.471016 0.770591 0.248158
O O2 0.484014 0.714815 0.376157
O O3 0.497896 0.494475 0.301268
O O4 0.992212 0.633013 0.117847
O O5 0.500000 0.180240 0.500000
O O6 0.588513 0.252453 0.399810
O O7 0.058087 0.164111 0.624321
O O8 0.610892 0.985957 0.445284
O O9 0.530463 0.746369 0.879665
O O10 0.995976 0.811911 0.628151
O O11 0.467468 0.000509 0.805544
O O12 0.356623 0.244767 0.202688
O O13 0.635020 0.256167 0.173276
O O14 0.000000 0.830715 0.500000
O O15 0.045756 0.354592 0.212237
O O16 0.456948 0.503230 0.913768
O O17 0.500000 0.737453 0.000000
O O18 0.500000 0.274723 0.000000
#
# Coordination Sequence:
#
# PCOD9113901 Si02
#       8
#     2   2   2   2   2   2   2   2
#     4  11  22  42  67  97 129 176 224 277 332 399
#     4  11  22  42  67 100 138 173 218 280 340 401
#     4  10  23  44  66 101 131 176 224 273 341 407
#     4  11  25  45  70 100 139 175 221 284 337 402
#     4   9  21  42  66  96 135 171 225 275 337 407
#     4  12  23  43  72  97 134 179 224 275 339 403
#     4  11  23  44  64  91 139 174 222 282 329 393
#     4  11  24  47  65  96 135 179 229 274 336 398
#
# _framework density 20.479737
#
# number of rings (size 3 to 8) (size 9 to 14) (size 15 to 20)
#    0.000    1.250    3.750    3.750    0.000    7.000 
#    9.000    0.000    0.000    0.000    0.000    0.000 
#    0.000    0.000    0.000    0.000    0.000    0.000 
#
# Total GULP energy -89197.578550 kJ/mol
# GULP energy per Si atom -5574.848659 kJ/mol
# Density = 2.043312 g / cm^3
# Si number density = 20.479737 Si / 1000 Ang^3
#
#
#
# Elastic Constant Matrix: (Units=GPa)
#
#
# Indices 1 2 3 4 5 6 
#
# 1 75.0080 34.8245 12.7960 0.0000 -7.7382 0.0000
# 2 34.8245 120.5984 54.0671 0.0000 -5.2603 0.0000
# 3 12.7960 54.0671 74.4356 0.0000 -12.2672 0.0000
# 4 0.0000 0.0000 0.0000 36.6257 0.0000 -50.0745
# 5 -7.7382 -5.2603 -12.2672 0.0000 28.2319 0.0000
# 6 0.0000 0.0000 0.0000 -50.0745 0.0000 444.2611
#
#
#
# Elastic Compliance Matrix: (Units=1/GPa)
#
#
# Indices 1 2 3 4 5 6 
#
# 1 0.015865 -0.005166 0.001705 0.000000 0.004127 0.000000
# 2 -0.005166 0.014055 -0.009827 0.000000 -0.003067 0.000000
# 3 0.001705 -0.009827 0.021601 0.000000 0.008022 0.000000
# 4 0.000000 0.000000 0.000000 0.032277 0.000000 0.003638
# 5 0.004127 -0.003067 0.008022 0.000000 0.039466 0.000000
# 6 0.000000 0.000000 0.000000 0.003638 0.000000 0.002661
#
#
# Mechanical properties :
#
#
# Convention : Reuss Voigt Hill
#
# Bulk Modulus (GPa) = 40.08530 52.60194 46.34362
# Shear Modulus (GPa) = 31.09129 113.04737 72.06933
#
# Velocity S-wave (km/s) = 3.90057 7.43770 5.93860
# Velocity P-wave (km/s) = 6.31677 9.97496 8.34870
#
# Compressibility (1/GPa) = 0.02494680
#
# Stress axis : x y z
#
# Youngs Moduli (GPa) = 63.03150 71.14704 46.29377
#
# Poissons Ratio (x) = 0.36752 -0.07893
# Poissons Ratio (y) = 0.32560 0.45492
# Poissons Ratio (z) = -0.10746 0.69914
#
# Static dielectric constant tensor:
#      x y z
#    x 0.152920 0.000000 -0.310990 
#    y 0.000000 1.717690 0.000000 
#    z -0.310990 0.000000 1.777310 
# 
# From -- ./inp_files/15803.got.cif
#   From: 2010.05.17/outbox.cif.g08.bks.cpg/sg3_8_cif.got.tgz:15803.got - 2010.06.03 18:33:08.
