data_PCOD9113657
_publ_section_title
;
Structure prediction by ZEFSAII (Michael W. Deem and Ramdas Pophale) SiO2 
 PCOD9113657
Probable space group: P 2
;
_chemical_formula_sum "Si O2"
_cell_formula_units_Z 12
_cell_length_a 17.166134
_cell_length_b 6.788065
_cell_length_c 7.571858
_cell_angle_alpha 90.000000
_cell_angle_beta 35.468296
_cell_angle_gamma 90.000000
_cell_volume 511.962187
_symmetry_space_group_name_H-M "P 2"
_symmetry_group_IT_number 3
_symmetry_cell_setting 'monoclinic'
loop_
_space_group_symop_operation_xyz
x,y,z
-x,y,-z
loop_
_atom_site_type_symbol
_atom_site_label
_atom_site_fract_x
_atom_site_fract_y
_atom_site_fract_z
Si Si1 0.638707 0.921070 0.140615
Si Si2 0.190583 0.893925 0.706749
Si Si3 0.071707 0.531050 0.064684
Si Si4 0.355210 0.212480 0.205331
Si Si5 0.107188 0.115126 0.145946
Si Si6 0.788909 0.608769 0.660620
O O1 0.500000 0.908709 0.500000
O O2 0.755739 0.018413 0.041302
O O3 0.690106 0.706186 0.983986
O O4 0.624537 0.067273 0.998897
O O5 0.198213 0.781539 0.508024
O O6 0.289706 0.076595 0.480814
O O7 0.187761 0.693301 0.831117
O O8 0.068312 0.998964 0.038460
O O9 0.943965 0.581969 0.422597
O O10 0.128529 0.335051 0.042568
O O11 0.000000 0.505889 0.000000
O O12 0.265610 0.400413 0.313448
O O13 0.500000 0.286428 0.000000
O O14 0.000000 0.101144 0.500000
#
# Coordination Sequence:
#
# PCOD9113657 Si02
#       6
#     2   2   2   2   2   2
#     4  11  26  45  67 101 141 178 221 282 350 408
#     4  10  22  41  65  95 130 172 224 275 327 393
#     4  10  22  41  69 100 131 176 230 279 333 399
#     4  11  24  45  70  95 129 179 232 279 334 405
#     4  12  25  41  66 101 141 178 221 281 347 407
#     4  10  23  43  70  98 130 177 232 282 333 404
#
# _framework density 23.439229999999998
#
# number of rings (size 3 to 8) (size 9 to 14) (size 15 to 20)
#    0.000    1.333    0.000    5.000    0.000   16.667 
#    0.000    1.667    0.000    0.000    0.000    0.000 
#    0.000    0.000    0.000    0.000    0.000    0.000 
#
# Total GULP energy -66901.389701 kJ/mol
# GULP energy per Si atom -5575.115808 kJ/mol
# Density = 2.338588 g / cm^3
# Si number density = 23.439230 Si / 1000 Ang^3
#
#
#
# Elastic Constant Matrix: (Units=GPa)
#
#
# Indices 1 2 3 4 5 6 
#
# 1 84.4633 27.5900 56.2725 0.0000 11.0206 0.0000
# 2 27.5900 135.7904 84.5332 0.0000 6.2685 0.0000
# 3 56.2725 84.5332 196.0559 0.0000 10.2031 0.0000
# 4 0.0000 0.0000 0.0000 10.5798 0.0000 -7.9416
# 5 11.0206 6.2685 10.2031 0.0000 31.3931 0.0000
# 6 0.0000 0.0000 0.0000 -7.9416 0.0000 14.0639
#
#
#
# Elastic Compliance Matrix: (Units=1/GPa)
#
#
# Indices 1 2 3 4 5 6 
#
# 1 0.015127 -0.000432 -0.003950 0.000000 -0.003940 0.000000
# 2 -0.000432 0.010090 -0.004200 0.000000 -0.000498 0.000000
# 3 -0.003950 -0.004200 0.008066 0.000000 -0.000396 0.000000
# 4 0.000000 0.000000 0.000000 0.164061 0.000000 0.092643
# 5 -0.003940 -0.000498 -0.000396 0.000000 0.033465 0.000000
# 6 0.000000 0.000000 0.000000 0.092643 0.000000 0.123418
#
#
# Mechanical properties :
#
#
# Convention : Reuss Voigt Hill
#
# Bulk Modulus (GPa) = 62.04820 83.67788 72.86304
# Shear Modulus (GPa) = 13.27084 27.73494 20.50289
#
# Velocity S-wave (km/s) = 2.38204 3.44360 2.96078
# Velocity P-wave (km/s) = 5.83908 7.18252 6.54536
#
# Compressibility (1/GPa) = 0.01611650
#
# Stress axis : x y z
#
# Youngs Moduli (GPa) = 66.10891 99.10751 123.97553
#
# Poissons Ratio (x) = 0.04286 0.48972
# Poissons Ratio (y) = 0.02859 0.52076
# Poissons Ratio (z) = 0.26114 0.41630
#
# Static dielectric constant tensor:
#      x y z
#    x 2.220860 0.000000 0.091480 
#    y 0.000000 1.884340 0.000000 
#    z 0.091480 0.000000 1.895020 
# 
# From -- ./inp_files/9224.got.cif
#   From: 2010.05.17/outbox.cif.g08.bks.cpg/sg3_5_cif.got.tgz:9224.got - 2010.06.03 18:33:08.
