data_PCOD9113233
_publ_section_title
;
Structure prediction by ZEFSAII (Michael W. Deem and Ramdas Pophale) SiO2 
 PCOD9113233
Probable space group: P 2
;
_chemical_formula_sum "Si O2"
_cell_formula_units_Z 16
_cell_length_a 22.207164
_cell_length_b 7.018024
_cell_length_c 8.589716
_cell_angle_alpha 90.000000
_cell_angle_beta 40.466345
_cell_angle_gamma 90.000000
_cell_volume 868.824998
_symmetry_space_group_name_H-M "P 2"
_symmetry_group_IT_number 3
_symmetry_cell_setting 'monoclinic'
loop_
_space_group_symop_operation_xyz
x,y,z
-x,y,-z
loop_
_atom_site_type_symbol
_atom_site_label
_atom_site_fract_x
_atom_site_fract_y
_atom_site_fract_z
Si Si1 0.659741 0.811490 0.000875
Si Si2 0.152901 0.678499 0.894369
Si Si3 0.662013 0.552733 0.296672
Si Si4 0.987789 0.959910 0.706562
Si Si5 0.402579 0.222999 0.780952
Si Si6 0.147503 0.699536 0.535111
Si Si7 0.520586 0.534214 0.137586
Si Si8 0.990647 0.373645 0.202991
O O1 0.760564 0.755184 0.738086
O O2 0.645290 0.703577 0.192346
O O3 0.583525 0.722134 0.034593
O O4 0.644765 0.033451 0.062403
O O5 0.244864 0.607620 0.797727
O O6 0.165309 0.702429 0.684904
O O7 0.110610 0.873403 0.046164
O O8 0.073502 0.519867 0.077124
O O9 0.659378 0.346285 0.217667
O O10 0.575566 0.560959 0.582752
O O11 0.000000 0.921879 0.500000
O O12 0.066632 0.847824 0.648665
O O13 0.999165 0.181552 0.721514
O O14 0.500000 0.179539 0.500000
O O15 0.426774 0.363881 0.876153
O O16 0.104390 0.491202 0.582119
O O17 0.500000 0.490714 0.000000
O O18 0.000000 0.330597 0.000000
#
# Coordination Sequence:
#
# PCOD9113233 Si02
#       8
#     2   2   2   2   2   2   2   2
#     4  11  21  37  60  85 114 150 188 234 285 337
#     4  10  21  39  58  82 113 147 188 233 278 335
#     4  10  21  37  58  83 114 148 187 235 282 334
#     4  11  22  36  57  84 113 146 186 232 282 336
#     4   9  20  38  57  81 115 151 189 233 281 335
#     4  10  22  38  58  83 113 147 189 233 279 335
#     4  10  21  38  59  84 114 150 191 234 282 335
#     4   9  20  39  59  78 109 149 185 230 281 331
#
# _framework density 18.415676999999999
#
# number of rings (size 3 to 8) (size 9 to 14) (size 15 to 20)
#    0.000    2.000    0.000    5.250    0.000    7.500 
#    0.000    3.750    0.000    0.000    0.000    0.000 
#    0.000    0.000    0.000    0.000    0.000    0.000 
#
# Total GULP energy -89345.762479 kJ/mol
# GULP energy per Si atom -5584.110155 kJ/mol
# Density = 1.837376 g / cm^3
# Si number density = 18.415677 Si / 1000 Ang^3
#
#
#
# Elastic Constant Matrix: (Units=GPa)
#
#
# Indices 1 2 3 4 5 6 
#
# 1 100.7619 39.9330 42.3077 0.0000 -4.3311 0.0000
# 2 39.9330 111.4272 59.7245 0.0000 -0.1841 0.0000
# 3 42.3077 59.7245 102.8261 0.0000 -2.9836 0.0000
# 4 0.0000 0.0000 0.0000 24.1063 0.0000 2.1723
# 5 -4.3311 -0.1841 -2.9836 0.0000 18.4864 0.0000
# 6 0.0000 0.0000 0.0000 2.1723 0.0000 13.2647
#
#
#
# Elastic Compliance Matrix: (Units=1/GPa)
#
#
# Indices 1 2 3 4 5 6 
#
# 1 0.012556 -0.002560 -0.003611 0.000000 0.002333 0.000000
# 2 -0.002560 0.013576 -0.006877 0.000000 -0.001575 0.000000
# 3 -0.003611 -0.006877 0.015251 0.000000 0.001547 0.000000
# 4 0.000000 0.000000 0.000000 0.042104 0.000000 -0.006895
# 5 0.002333 -0.001575 0.001547 0.000000 0.054874 0.000000
# 6 0.000000 0.000000 0.000000 -0.006895 0.000000 0.076517
#
#
# Mechanical properties :
#
#
# Convention : Reuss Voigt Hill
#
# Bulk Modulus (GPa) = 65.42791 66.54950 65.98870
# Shear Modulus (GPa) = 20.31943 22.70817 21.51380
#
# Velocity S-wave (km/s) = 3.32532 3.51535 3.42165
# Velocity P-wave (km/s) = 7.09571 7.25898 7.17781
#
# Compressibility (1/GPa) = 0.01528400
#
# Stress axis : x y z
#
# Youngs Moduli (GPa) = 79.64582 73.66126 65.57158
#
# Poissons Ratio (x) = 0.18859 0.23680
# Poissons Ratio (y) = 0.20391 0.45097
# Poissons Ratio (z) = 0.28762 0.50660
#
# Static dielectric constant tensor:
#      x y z
#    x 1.624390 0.000000 -0.004920 
#    y 0.000000 1.625300 0.000000 
#    z -0.004920 0.000000 1.623080 
# 
# From -- ./inp_files/9332.got.cif
#   From: 2010.05.17/outbox.cif.g08.bks.cpg/sg3_5_cif.got.tgz:9332.got - 2010.06.03 18:33:08.
