data_PCOD9113154
_publ_section_title
;
Structure prediction by ZEFSAII (Michael W. Deem and Ramdas Pophale) SiO2 
 PCOD9113154
Probable space group: P 2
;
_chemical_formula_sum "Si O2"
_cell_formula_units_Z 14
_cell_length_a 8.898553
_cell_length_b 16.837316
_cell_length_c 5.297008
_cell_angle_alpha 90.000000
_cell_angle_beta 121.446837
_cell_angle_gamma 90.000000
_cell_volume 677.072776
_symmetry_space_group_name_H-M "P 2"
_symmetry_group_IT_number 3
_symmetry_cell_setting 'monoclinic'
loop_
_space_group_symop_operation_xyz
x,y,z
-x,y,-z
loop_
_atom_site_type_symbol
_atom_site_label
_atom_site_fract_x
_atom_site_fract_y
_atom_site_fract_z
Si Si1 0.000000 0.035950 0.500000
Si Si2 0.118169 0.443552 0.352088
Si Si3 0.881325 0.623799 0.647290
Si Si4 0.500000 0.999517 0.500000
Si Si5 0.382837 0.768276 0.648141
Si Si6 0.322532 0.130095 0.704276
Si Si7 0.167086 0.908331 0.279776
Si Si8 0.381388 0.298584 0.643665
O O1 0.163343 0.091647 0.719553
O O2 0.069899 0.979702 0.340684
O O3 0.190598 0.533656 0.395266
O O4 0.261847 0.375527 0.503254
O O5 0.000000 0.440796 0.500000
O O6 0.000000 0.430066 0.000000
O O7 0.732937 0.689793 0.488661
O O8 0.000000 0.627591 0.500000
O O9 0.000000 0.638241 0.000000
O O10 0.334349 0.944158 0.267890
O O11 0.399300 0.059524 0.597430
O O12 0.500000 0.776350 0.500000
O O13 0.257586 0.845741 0.545834
O O14 0.500000 0.764116 0.000000
O O15 0.268740 0.215997 0.550941
O O16 0.500000 0.152282 0.000000
O O17 0.000000 0.867208 0.000000
O O18 0.500000 0.289585 0.500000
O O19 0.500000 0.310270 0.000000
#
# Coordination Sequence:
#
# PCOD9113154 Si02
#       8
#     1   2   2   1   2   2   2   2
#     4  10  24  38  64  92 116 178 222 266 334 382
#     4  10  22  41  66  97 131 170 213 268 318 384
#     4  10  22  43  69  95 131 171 216 264 324 388
#     4  10  20  42  60  88 128 164 222 276 320 388
#     4  12  27  43  67  97 134 170 215 272 327 389
#     4  10  21  39  60  87 129 167 220 271 325 380
#     4  11  24  40  65  92 128 172 221 268 334 386
#     4  11  23  40  64  94 131 173 211 266 329 385
#
# _framework density 20.677246
#
# number of rings (size 3 to 8) (size 9 to 14) (size 15 to 20)
#    0.000    1.429    1.429    3.000    4.000    3.429 
#    0.000    0.714    0.000    0.000    0.000    0.000 
#    0.000    0.000    0.000    0.000    0.000    0.000 
#
# Total GULP energy -78083.816026 kJ/mol
# GULP energy per Si atom -5577.415430 kJ/mol
# Density = 2.063018 g / cm^3
# Si number density = 20.677246 Si / 1000 Ang^3
#
#
#
# Elastic Constant Matrix: (Units=GPa)
#
#
# Indices 1 2 3 4 5 6 
#
# 1 96.1221 56.0425 43.6479 0.0000 6.9503 0.0000
# 2 56.0425 163.7448 69.6881 0.0000 24.2766 0.0000
# 3 43.6479 69.6881 129.7913 0.0000 0.2130 0.0000
# 4 0.0000 0.0000 0.0000 87.3412 0.0000 52.7264
# 5 6.9503 24.2766 0.2130 0.0000 35.5248 0.0000
# 6 0.0000 0.0000 0.0000 52.7264 0.0000 84.2030
#
#
#
# Elastic Compliance Matrix: (Units=1/GPa)
#
#
# Indices 1 2 3 4 5 6 
#
# 1 0.013696 -0.003481 -0.002737 0.000000 -0.000285 0.000000
# 2 -0.003481 0.009984 -0.004180 0.000000 -0.006117 0.000000
# 3 -0.002737 -0.004180 0.010864 0.000000 0.003327 0.000000
# 4 0.000000 0.000000 0.000000 0.018408 0.000000 -0.011527
# 5 -0.000285 -0.006117 0.003327 0.000000 0.032365 0.000000
# 6 0.000000 0.000000 0.000000 -0.011527 0.000000 0.019094
#
#
# Mechanical properties :
#
#
# Convention : Reuss Voigt Hill
#
# Bulk Modulus (GPa) = 72.73078 80.93501 76.83289
# Shear Modulus (GPa) = 38.52401 56.09910 47.31155
#
# Velocity S-wave (km/s) = 4.32106 5.21438 4.78860
# Velocity P-wave (km/s) = 7.75539 8.68792 8.23487
#
# Compressibility (1/GPa) = 0.01374934
#
# Stress axis : x y z
#
# Youngs Moduli (GPa) = 73.01397 100.15715 92.04743
#
# Poissons Ratio (x) = 0.34862 0.25189
# Poissons Ratio (y) = 0.25414 0.38478
# Poissons Ratio (z) = 0.19980 0.41868
#
# Static dielectric constant tensor:
#      x y z
#    x 1.751950 0.000000 0.010150 
#    y 0.000000 1.785870 0.000000 
#    z 0.010150 0.000000 1.781860 
# 
# From -- ./inp_files/1436.got.cif
#   From: 2010.05.17/outbox.cif.g08.bks.cpg/sg3_1_cif.got.tgz:1436.got - 2010.06.03 18:33:08.
