data_PCOD9113408
_publ_section_title
;
Structure prediction by ZEFSAII (Michael W. Deem and Ramdas Pophale) SiO2 
 PCOD9113408
Probable space group: P 2
;
_chemical_formula_sum "Si O2"
_cell_formula_units_Z 10
_cell_length_a 14.003608
_cell_length_b 6.128902
_cell_length_c 14.863629
_cell_angle_alpha 90.000000
_cell_angle_beta 18.692891
_cell_angle_gamma 90.000000
_cell_volume 408.855048
_symmetry_space_group_name_H-M "P 2"
_symmetry_group_IT_number 3
_symmetry_cell_setting 'monoclinic'
loop_
_space_group_symop_operation_xyz
x,y,z
-x,y,-z
loop_
_atom_site_type_symbol
_atom_site_label
_atom_site_fract_x
_atom_site_fract_y
_atom_site_fract_z
Si Si1 0.315345 0.578940 0.248693
Si Si2 0.610397 0.958384 0.087460
Si Si3 0.462894 0.457278 0.434376
Si Si4 0.112255 0.243769 0.584506
Si Si5 0.031733 0.760628 0.070438
O O1 0.194954 0.412922 0.432231
O O2 0.000000 0.687312 0.500000
O O3 0.554861 0.749114 0.075442
O O4 0.500000 0.479988 0.000000
O O5 0.280671 0.021868 0.410664
O O6 0.773758 0.168631 0.899300
O O7 0.801730 0.899307 0.004135
O O8 0.500000 0.351942 0.500000
O O9 0.267665 0.329285 0.536764
O O10 0.285816 0.683016 0.610502
O O11 0.777666 0.536508 0.114163
O O12 0.000000 0.863219 0.000000
#
# Coordination Sequence:
#
# PCOD9113408 Si02
#       5
#     2   2   2   2   2
#     4  12  28  50  76  98 144 190 238 308 370 416
#     4  12  26  44  75 107 140 182 240 292 355 432
#     4  10  21  40  69 102 144 190 227 276 349 424
#     4  12  26  44  75 107 140 182 240 292 355 432
#     4  10  21  40  69 102 144 190 227 276 349 424
#
# _framework density 24.458545000000001
#
# number of rings (size 3 to 8) (size 9 to 14) (size 15 to 20)
#    0.000    0.800    2.000    4.800    2.800    4.800 
#    0.000    0.000    0.000    0.000    0.000    0.000 
#    0.000    0.000    0.000    0.000    0.000    0.000 
#
# Total GULP energy -55949.554907 kJ/mol
# GULP energy per Si atom -5594.955491 kJ/mol
# Density = 2.440288 g / cm^3
# Si number density = 24.458545 Si / 1000 Ang^3
#
#
#
# Elastic Constant Matrix: (Units=GPa)
#
#
# Indices 1 2 3 4 5 6 
#
# 1 156.8070 55.2111 32.5023 0.0000 11.1080 0.0000
# 2 55.2111 52.3915 6.1972 0.0000 11.7527 0.0000
# 3 32.5023 6.1972 95.6073 0.0000 -1.4320 0.0000
# 4 0.0000 0.0000 0.0000 44.9398 0.0000 -3.5264
# 5 11.1080 11.7527 -1.4320 0.0000 39.5516 0.0000
# 6 0.0000 0.0000 0.0000 -3.5264 0.0000 -45.8682
#
#
#
# Elastic Compliance Matrix: (Units=1/GPa)
#
#
# Indices 1 2 3 4 5 6 
#
# 1 0.010928 -0.011196 -0.002987 0.000000 0.000150 0.000000
# 2 -0.011196 0.032115 0.001630 0.000000 -0.006340 0.000000
# 3 -0.002987 0.001630 0.011381 0.000000 0.000767 0.000000
# 4 0.000000 0.000000 0.000000 0.022119 0.000000 -0.001700
# 5 0.000150 -0.006340 0.000767 0.000000 0.027153 0.000000
# 6 0.000000 0.000000 0.000000 -0.001700 0.000000 -0.021671
#
#
# Mechanical properties :
#
#
# Convention : Reuss Voigt Hill
#
# Bulk Modulus (GPa) = 34.11042 54.73634 44.42338
# Shear Modulus (GPa) = 42.76988 21.78431 32.27709
#
# Velocity S-wave (km/s) = 4.18624 2.98763 3.63666
# Velocity P-wave (km/s) = 6.11087 5.85910 5.98631
#
# Compressibility (1/GPa) = 0.02931655
#
# Stress axis : x y z
#
# Youngs Moduli (GPa) = 91.50786 31.13769 87.86748
#
# Poissons Ratio (x) = 0.34863 0.26247
# Poissons Ratio (y) = 1.02456 -0.14319
# Poissons Ratio (z) = 0.27334 -0.05074
#
# Static dielectric constant tensor:
#      x y z
#    x 1.984150 0.000000 0.032100 
#    y 0.000000 1.961100 0.000000 
#    z 0.032100 0.000000 1.871230 
# 
# From -- ./inp_files/9663.got.cif
#   From: 2010.05.17/outbox.cif.g08.bks.cpg/sg3_5_cif.got.tgz:9663.got - 2010.06.03 18:33:08.
