data_PCOD9113311
_publ_section_title
;
Structure prediction by ZEFSAII (Michael W. Deem and Ramdas Pophale) SiO2 
 PCOD9113311
Probable space group: P 2
;
_chemical_formula_sum "Si O2"
_cell_formula_units_Z 16
_cell_length_a 16.614525
_cell_length_b 7.982040
_cell_length_c 7.323599
_cell_angle_alpha 90.000000
_cell_angle_beta 46.349392
_cell_angle_gamma 90.000000
_cell_volume 702.752516
_symmetry_space_group_name_H-M "P 2"
_symmetry_group_IT_number 3
_symmetry_cell_setting 'monoclinic'
loop_
_space_group_symop_operation_xyz
x,y,z
-x,y,-z
loop_
_atom_site_type_symbol
_atom_site_label
_atom_site_fract_x
_atom_site_fract_y
_atom_site_fract_z
Si Si1 0.289372 0.964720 0.273442
Si Si2 0.108736 0.013891 0.240160
Si Si3 0.907587 0.626735 0.784580
Si Si4 0.724423 0.600568 0.773930
Si Si5 0.409454 0.273096 0.932895
Si Si6 0.604779 0.393255 0.429788
Si Si7 0.169108 0.479290 0.735841
Si Si8 0.871526 0.100879 0.183391
O O1 0.197257 0.991834 0.259913
O O2 0.333902 0.777391 0.174608
O O3 0.376287 0.109929 0.094312
O O4 0.220096 0.991407 0.568284
O O5 0.076778 0.826710 0.222772
O O6 0.000000 0.095136 0.500000
O O7 0.150137 0.108512 0.998030
O O8 0.790102 0.602662 0.862917
O O9 0.000000 0.560539 0.500000
O O10 0.909299 0.545249 0.980557
O O11 0.644802 0.440054 0.896771
O O12 0.816276 0.584376 0.470224
O O13 0.459784 0.294162 0.309898
O O14 0.365271 0.276333 0.790289
O O15 0.500000 0.496418 0.500000
O O16 0.709129 0.479336 0.357034
O O17 0.139458 0.290097 0.727026
O O18 0.000000 0.044536 0.000000
#
# Coordination Sequence:
#
# PCOD9113311 Si02
#       8
#     2   2   2   2   2   2   2   2
#     4  11  22  42  64  93 128 164 211 259 310 378
#     4  10  21  39  60  83 128 176 204 258 312 361
#     4  10  23  39  59  91 126 170 215 254 307 375
#     4  11  23  39  67  94 126 165 210 261 315 373
#     4   9  19  43  66  89 123 159 208 259 313 373
#     4   8  20  41  70  90 122 168 206 263 321 376
#     4  12  23  39  65  93 129 166 208 267 313 371
#     4  12  25  37  59  96 130 168 213 255 309 378
#
# _framework density 22.767617999999999
#
# number of rings (size 3 to 8) (size 9 to 14) (size 15 to 20)
#    0.750    0.750    3.750    1.500    1.750    1.000 
#    0.000    2.500    8.250    0.000    0.000    0.000 
#    0.000    0.000    0.000    0.000    0.000    0.000 
#
# Total GULP energy -89337.524081 kJ/mol
# GULP energy per Si atom -5583.595255 kJ/mol
# Density = 2.271580 g / cm^3
# Si number density = 22.767618 Si / 1000 Ang^3
#
#
#
# Elastic Constant Matrix: (Units=GPa)
#
#
# Indices 1 2 3 4 5 6 
#
# 1 57.0667 -4.2903 10.4967 0.0000 6.2095 0.0000
# 2 -4.2903 103.1422 41.9506 0.0000 -7.4652 0.0000
# 3 10.4967 41.9506 141.8346 0.0000 -0.6668 0.0000
# 4 0.0000 0.0000 0.0000 16.1959 0.0000 8.3768
# 5 6.2095 -7.4652 -0.6668 0.0000 27.9375 0.0000
# 6 0.0000 0.0000 0.0000 8.3768 0.0000 14.0351
#
#
#
# Elastic Compliance Matrix: (Units=1/GPa)
#
#
# Indices 1 2 3 4 5 6 
#
# 1 0.018344 0.001191 -0.001728 0.000000 -0.003800 0.000000
# 2 0.001191 0.011333 -0.003428 0.000000 0.002682 0.000000
# 3 -0.001728 -0.003428 0.008190 0.000000 -0.000336 0.000000
# 4 0.000000 0.000000 0.000000 0.089315 0.000000 -0.053308
# 5 -0.003800 0.002682 -0.000336 0.000000 0.037347 0.000000
# 6 0.000000 0.000000 0.000000 -0.053308 0.000000 0.103066
#
#
# Mechanical properties :
#
#
# Convention : Reuss Voigt Hill
#
# Bulk Modulus (GPa) = 33.40150 44.26194 38.83172
# Shear Modulus (GPa) = 17.51281 28.55947 23.03614
#
# Velocity S-wave (km/s) = 2.77645 3.54558 3.18432
# Velocity P-wave (km/s) = 4.99807 6.02034 5.53286
#
# Compressibility (1/GPa) = 0.02993877
#
# Stress axis : x y z
#
# Youngs Moduli (GPa) = 54.51327 88.23755 122.09270
#
# Poissons Ratio (x) = -0.10506 0.21093
# Poissons Ratio (y) = -0.06491 0.41847
# Poissons Ratio (z) = 0.09418 0.30243
#
# Static dielectric constant tensor:
#      x y z
#    x 1.943070 0.000000 -0.018490 
#    y 0.000000 1.836130 0.000000 
#    z -0.018490 0.000000 1.874950 
# 
# From -- ./inp_files/3703.got.cif
#   From: 2010.05.17/outbox.cif.g08.bks.cpg/sg3_2_cif.got.tgz:3703.got - 2010.06.03 18:33:08.
