data_PCOD9113146
_publ_section_title
;
Structure prediction by ZEFSAII (Michael W. Deem and Ramdas Pophale) SiO2 
 PCOD9113146
Probable space group: P 2
;
_chemical_formula_sum "Si O2"
_cell_formula_units_Z 11
_cell_length_a 11.037549
_cell_length_b 8.137861
_cell_length_c 7.812285
_cell_angle_alpha 90.000000
_cell_angle_beta 41.161578
_cell_angle_gamma 90.000000
_cell_volume 461.858357
_symmetry_space_group_name_H-M "P 2"
_symmetry_group_IT_number 3
_symmetry_cell_setting 'monoclinic'
loop_
_space_group_symop_operation_xyz
x,y,z
-x,y,-z
loop_
_atom_site_type_symbol
_atom_site_label
_atom_site_fract_x
_atom_site_fract_y
_atom_site_fract_z
Si Si1 0.127604 0.825170 0.621252
Si Si2 0.363621 0.115299 0.808361
Si Si3 0.453296 0.447372 0.812573
Si Si4 0.209511 0.512977 0.737085
Si Si5 0.000000 0.101271 0.000000
Si Si6 0.722552 0.783102 0.904876
O O1 0.248057 0.835945 0.322939
O O2 0.200840 0.701903 0.687251
O O3 0.926964 0.760803 0.770746
O O4 0.102520 0.993721 0.746065
O O5 0.500000 0.118690 0.500000
O O6 0.403031 0.259011 0.904350
O O7 0.359774 0.934790 0.897809
O O8 0.168356 0.166929 0.932436
O O9 0.339420 0.484152 0.759263
O O10 0.672849 0.439846 0.545540
O O11 0.383339 0.609423 0.983947
O O12 0.000000 0.462510 0.000000
#
# Coordination Sequence:
#
# PCOD9113146 Si02
#       6
#     2   2   2   2   1   2
#     4  10  20  41  67 102 125 177 217 261 337 382
#     4  11  24  41  64  96 128 169 222 266 321 385
#     4  11  24  40  66  99 126 174 219 267 325 383
#     4  11  20  38  68  95 126 167 222 263 319 390
#     4  10  22  40  70  92 128 174 220 264 324 394
#     4  10  23  41  68  95 138 167 215 275 322 389
#
# _framework density 23.816825999999999
#
# number of rings (size 3 to 8) (size 9 to 14) (size 15 to 20)
#    0.000    1.455    4.545    1.091    6.364    0.727 
#    0.000    9.091    4.000    0.000    0.000    0.000 
#    0.000    0.000    0.000    0.000    0.000    0.000 
#
# Total GULP energy -61373.390760 kJ/mol
# GULP energy per Si atom -5579.399160 kJ/mol
# Density = 2.376262 g / cm^3
# Si number density = 23.816826 Si / 1000 Ang^3
#
#
#
# Elastic Constant Matrix: (Units=GPa)
#
#
# Indices 1 2 3 4 5 6 
#
# 1 79.5896 29.4569 29.4888 0.0000 10.6278 0.0000
# 2 29.4569 120.9563 60.9059 0.0000 14.9046 0.0000
# 3 29.4888 60.9059 117.1755 0.0000 2.3292 0.0000
# 4 0.0000 0.0000 0.0000 -18.1025 0.0000 7.2664
# 5 10.6278 14.9046 2.3292 0.0000 41.1394 0.0000
# 6 0.0000 0.0000 0.0000 7.2664 0.0000 -47.4192
#
#
#
# Elastic Compliance Matrix: (Units=1/GPa)
#
#
# Indices 1 2 3 4 5 6 
#
# 1 0.014632 -0.001862 -0.002656 0.000000 -0.002955 0.000000
# 2 -0.001862 0.012038 -0.005718 0.000000 -0.003557 0.000000
# 3 -0.002656 -0.005718 0.012134 0.000000 0.002071 0.000000
# 4 0.000000 0.000000 0.000000 -0.058862 0.000000 -0.009020
# 5 -0.002955 -0.003557 0.002071 0.000000 0.026242 0.000000
# 6 0.000000 0.000000 0.000000 -0.009020 0.000000 -0.022471
#
#
# Mechanical properties :
#
#
# Convention : Reuss Voigt Hill
#
# Bulk Modulus (GPa) = 54.54811 61.93605 58.24208
# Shear Modulus (GPa) = 485.58572 8.31486 246.95029
#
# Velocity S-wave (km/s) = 14.29427 1.87049 10.19374
# Velocity P-wave (km/s) = 17.18685 5.54316 12.76938
#
# Compressibility (1/GPa) = 0.01833244
#
# Stress axis : x y z
#
# Youngs Moduli (GPa) = 68.34239 83.06722 82.41581
#
# Poissons Ratio (x) = 0.15467 0.21888
# Poissons Ratio (y) = 0.12725 0.47126
# Poissons Ratio (z) = 0.18150 0.47499
#
# Static dielectric constant tensor:
#      x y z
#    x 1.922250 0.000000 0.012720 
#    y 0.000000 2.011470 0.000000 
#    z 0.012720 0.000000 2.050520 
# 
# From -- ./inp_files/14098.got.cif
#   From: 2010.05.17/outbox.cif.g08.bks.cpg/sg3_8_cif.got.tgz:14098.got - 2010.06.03 18:33:08.
