data_PCOD9113303
_publ_section_title
;
Structure prediction by ZEFSAII (Michael W. Deem and Ramdas Pophale) SiO2 
 PCOD9113303
Probable space group: P 2
;
_chemical_formula_sum "Si O2"
_cell_formula_units_Z 16
_cell_length_a 17.897856
_cell_length_b 8.091072
_cell_length_c 9.462285
_cell_angle_alpha 90.000000
_cell_angle_beta 29.792498
_cell_angle_gamma 90.000000
_cell_volume 680.828032
_symmetry_space_group_name_H-M "P 2"
_symmetry_group_IT_number 3
_symmetry_cell_setting 'monoclinic'
loop_
_space_group_symop_operation_xyz
x,y,z
-x,y,-z
loop_
_atom_site_type_symbol
_atom_site_label
_atom_site_fract_x
_atom_site_fract_y
_atom_site_fract_z
Si Si1 0.277602 0.782640 0.075873
Si Si2 0.910677 0.483591 0.527684
Si Si3 0.654281 0.962993 0.771279
Si Si4 0.363967 0.286439 0.020145
Si Si5 0.552054 0.558325 0.576390
Si Si6 0.098438 0.651781 0.974570
Si Si7 0.679282 0.088213 0.183842
Si Si8 0.851257 0.032392 0.174512
O O1 0.172882 0.624426 0.242465
O O2 0.247619 0.862582 0.277845
O O3 0.448544 0.716672 0.784032
O O4 0.258283 0.919430 0.988122
O O5 0.775929 0.380574 0.680785
O O6 0.000000 0.381877 0.500000
O O7 0.013503 0.568161 0.243677
O O8 0.604531 0.125489 0.940358
O O9 0.737725 0.000725 0.490159
O O10 0.500000 0.865392 0.000000
O O11 0.499339 0.410821 0.766126
O O12 0.309515 0.225515 0.955259
O O13 0.500000 0.518503 0.500000
O O14 0.727143 0.596430 0.305927
O O15 0.101251 0.852111 0.963917
O O16 0.000000 0.601553 0.000000
O O17 0.500000 0.065841 0.500000
O O18 0.766429 0.123878 0.185787
O O19 0.000000 0.111680 0.000000
#
# Coordination Sequence:
#
# PCOD9113303 Si02
#       8
#     2   2   2   2   2   2   2   2
#     4  10  21  38  67  96 120 162 218 268 315 370
#     4  11  23  42  64  92 129 167 209 260 316 377
#     4  11  23  42  64  92 129 167 209 260 316 377
#     4  10  25  42  63  92 126 170 216 258 309 378
#     4  11  21  40  68  95 123 167 220 266 311 375
#     4  11  23  40  65  99 131 163 208 266 321 374
#     4  11  21  40  68  95 123 167 220 266 311 375
#     4  11  23  40  65  99 131 163 208 266 321 374
#
# _framework density 23.500793999999999
#
# number of rings (size 3 to 8) (size 9 to 14) (size 15 to 20)
#    0.000    1.250    0.000    8.250    0.000    2.000 
#    0.000    8.125    0.000    6.000    0.000    0.000 
#    0.000    0.000    0.000    0.000    0.000    0.000 
#
# Total GULP energy -89506.469973 kJ/mol
# GULP energy per Si atom -5594.154373 kJ/mol
# Density = 2.344731 g / cm^3
# Si number density = 23.500794 Si / 1000 Ang^3
#
#
#
# Elastic Constant Matrix: (Units=GPa)
#
#
# Indices 1 2 3 4 5 6 
#
# 1 153.6966 -1.3351 41.1683 0.0000 -5.4154 0.0000
# 2 -1.3351 41.3265 -4.2423 0.0000 0.0078 0.0000
# 3 41.1683 -4.2423 111.6732 0.0000 -7.2001 0.0000
# 4 0.0000 0.0000 0.0000 11.7862 0.0000 -1.6426
# 5 -5.4154 0.0078 -7.2001 0.0000 41.5392 0.0000
# 6 0.0000 0.0000 0.0000 -1.6426 0.0000 -3.1680
#
#
#
# Elastic Compliance Matrix: (Units=1/GPa)
#
#
# Indices 1 2 3 4 5 6 
#
# 1 0.007229 -0.000037 -0.002635 0.000000 0.000486 0.000000
# 2 -0.000037 0.024293 0.000947 0.000000 0.000155 0.000000
# 3 -0.002635 0.000947 0.010052 0.000000 0.001399 0.000000
# 4 0.000000 0.000000 0.000000 0.079127 0.000000 -0.041028
# 5 0.000486 0.000155 0.001399 0.000000 0.024379 0.000000
# 6 0.000000 0.000000 0.000000 -0.041028 0.000000 -0.294386
#
#
# Mechanical properties :
#
#
# Convention : Reuss Voigt Hill
#
# Bulk Modulus (GPa) = 26.23053 41.98643 34.10848
# Shear Modulus (GPa) = -37.55274 28.10519 -4.72377
#
# Velocity S-wave (km/s) = -4.00175 3.46197 -1.41930
# Velocity P-wave (km/s) = 3.18846 5.82109 3.44375
#
# Compressibility (1/GPa) = 0.03812351
#
# Stress axis : x y z
#
# Youngs Moduli (GPa) = 138.33320 41.16331 99.48035
#
# Poissons Ratio (x) = 0.00152 0.26213
# Poissons Ratio (y) = 0.00512 -0.09416
# Poissons Ratio (z) = 0.36451 -0.03896
#
# Static dielectric constant tensor:
#      x y z
#    x 2.064240 0.000000 -0.091920 
#    y 0.000000 1.861880 0.000000 
#    z -0.091920 0.000000 1.902540 
# 
# From -- ./inp_files/9137.got.cif
#   From: 2010.05.17/outbox.cif.g08.bks.cpg/sg3_5_cif.got.tgz:9137.got - 2010.06.03 18:33:08.
