data_PCOD9113376
_publ_section_title
;
Structure prediction by ZEFSAII (Michael W. Deem and Ramdas Pophale) SiO2 
 PCOD9113376
Probable space group: P 2
;
_chemical_formula_sum "Si O2"
_cell_formula_units_Z 14
_cell_length_a 8.703428
_cell_length_b 9.621855
_cell_length_c 7.907916
_cell_angle_alpha 90.000000
_cell_angle_beta 77.094118
_cell_angle_gamma 90.000000
_cell_volume 645.504410
_symmetry_space_group_name_H-M "P 2"
_symmetry_group_IT_number 3
_symmetry_cell_setting 'monoclinic'
loop_
_space_group_symop_operation_xyz
x,y,z
-x,y,-z
loop_
_atom_site_type_symbol
_atom_site_label
_atom_site_fract_x
_atom_site_fract_y
_atom_site_fract_z
Si Si1 0.000000 0.000000 0.000000
Si Si2 0.862208 0.814800 0.760957
Si Si3 0.237869 0.380639 0.332172
Si Si4 0.000000 0.575392 0.500000
Si Si5 0.323081 0.109628 0.766740
Si Si6 0.313573 0.065114 0.367400
Si Si7 0.824084 0.576084 0.971637
Si Si8 0.573920 0.408791 0.172646
O O1 0.172432 0.068507 0.920139
O O2 0.979269 0.906465 0.840606
O O3 0.771752 0.924265 0.668439
O O4 0.760041 0.722263 0.914369
O O5 0.951341 0.686429 0.652508
O O6 0.138739 0.464606 0.495302
O O7 0.182232 0.452152 0.168724
O O8 0.417639 0.422592 0.319276
O O9 0.234568 0.212753 0.327995
O O10 0.336190 0.273446 0.789712
O O11 0.303044 0.073926 0.573535
O O12 0.506615 0.061749 0.750364
O O13 0.696948 0.531613 0.140545
O O14 0.000000 0.589130 0.000000
O O15 0.500000 0.389648 0.000000
#
# Coordination Sequence:
#
# PCOD9113376 Si02
#       8
#     1   2   2   1   2   2   2   2
#     4  12  26  40  62 106 134 186 220 290 344 398
#     4  11  24  43  65  94 146 175 229 278 344 405
#     4   9  21  41  69  92 130 182 224 279 341 402
#     4  10  22  42  64  96 128 182 224 278 332 412
#     4  10  24  42  71 101 137 175 236 283 344 406
#     4  10  23  48  69  99 135 186 230 287 340 413
#     4  10  21  40  63  99 136 173 222 284 333 408
#     4   9  20  40  66  99 138 168 227 282 341 406
#
# _framework density 21.688465999999998
#
# number of rings (size 3 to 8) (size 9 to 14) (size 15 to 20)
#    0.000    2.000    0.714    0.857    7.000    4.000 
#   12.857    0.000    0.000    6.857    0.000    0.000 
#    0.000    0.000    0.000    0.000    0.000    0.000 
#
# Total GULP energy -77942.303368 kJ/mol
# GULP energy per Si atom -5567.307383 kJ/mol
# Density = 2.163910 g / cm^3
# Si number density = 21.688466 Si / 1000 Ang^3
#
#
#
# Elastic Constant Matrix: (Units=GPa)
#
#
# Indices 1 2 3 4 5 6 
#
# 1 89.1081 92.8805 44.1636 0.0000 -20.1400 0.0000
# 2 92.8805 142.2743 46.9918 0.0000 -14.3526 0.0000
# 3 44.1636 46.9918 34.1660 0.0000 -10.6488 0.0000
# 4 0.0000 0.0000 0.0000 50.1462 0.0000 21.4457
# 5 -20.1400 -14.3526 -10.6488 0.0000 42.8558 0.0000
# 6 0.0000 0.0000 0.0000 21.4457 0.0000 75.1394
#
#
#
# Elastic Compliance Matrix: (Units=1/GPa)
#
#
# Indices 1 2 3 4 5 6 
#
# 1 0.056654 -0.023486 -0.038028 0.000000 0.009310 0.000000
# 2 -0.023486 0.022616 -0.001981 0.000000 -0.003955 0.000000
# 3 -0.038028 -0.001981 0.081699 0.000000 0.001766 0.000000
# 4 0.000000 0.000000 0.000000 0.022714 0.000000 -0.006483
# 5 0.009310 -0.003955 0.001766 0.000000 0.026823 0.000000
# 6 0.000000 0.000000 0.000000 -0.006483 0.000000 0.015159
#
#
# Mechanical properties :
#
#
# Convention : Reuss Voigt Hill
#
# Bulk Modulus (GPa) = 29.42884 70.40224 49.91554
# Shear Modulus (GPa) = 13.73703 39.06245 26.39974
#
# Velocity S-wave (km/s) = 2.51943 4.24851 3.49266
# Velocity P-wave (km/s) = 4.69699 7.52313 6.27134
#
# Compressibility (1/GPa) = 0.03398028
#
# Stress axis : x y z
#
# Youngs Moduli (GPa) = 17.65111 44.21668 12.24009
#
# Poissons Ratio (x) = 1.03846 0.46546
# Poissons Ratio (y) = 0.41455 0.02424
# Poissons Ratio (z) = 0.67123 0.08757
#
# Static dielectric constant tensor:
#      x y z
#    x 1.861420 0.000000 -0.105210 
#    y 0.000000 1.770290 0.000000 
#    z -0.105210 0.000000 2.036300 
# 
# From -- ./inp_files/5284.got.cif
#   From: 2010.05.17/outbox.cif.g08.bks.cpg/sg3_3_cif.got.tgz:5284.got - 2010.06.03 18:33:08.
