data_PCOD9113940
_publ_section_title
;
Structure prediction by ZEFSAII (Michael W. Deem and Ramdas Pophale) SiO2 
 PCOD9113940
Probable space group: P 2
;
_chemical_formula_sum "Si O2"
_cell_formula_units_Z 13
_cell_length_a 11.415724
_cell_length_b 5.336708
_cell_length_c 8.386543
_cell_angle_alpha 90.000000
_cell_angle_beta 103.142274
_cell_angle_gamma 90.000000
_cell_volume 497.546217
_symmetry_space_group_name_H-M "P 2"
_symmetry_group_IT_number 3
_symmetry_cell_setting 'monoclinic'
loop_
_space_group_symop_operation_xyz
x,y,z
-x,y,-z
loop_
_atom_site_type_symbol
_atom_site_label
_atom_site_fract_x
_atom_site_fract_y
_atom_site_fract_z
Si Si1 0.620886 0.506290 0.085600
Si Si2 0.534431 0.737019 0.335048
Si Si3 0.083056 0.632614 0.256811
Si Si4 0.000000 0.264735 0.500000
Si Si5 0.850279 0.765879 0.045692
Si Si6 0.322648 0.117803 0.175630
Si Si7 0.242577 0.024890 0.484018
O O1 0.587573 0.493335 0.260755
O O2 0.500000 0.659886 0.000000
O O3 0.744832 0.652211 0.117530
O O4 0.627515 0.297541 0.949587
O O5 0.500000 0.653833 0.500000
O O6 0.417917 0.892934 0.238104
O O7 0.643168 0.936651 0.380916
O O8 0.128565 0.569033 0.093659
O O9 0.021632 0.427994 0.348302
O O10 0.185855 0.776863 0.383245
O O11 0.971504 0.815399 0.177528
O O12 0.871060 0.126031 0.451708
O O13 0.796257 0.003155 0.940774
O O14 0.284934 0.196539 0.345097
#
# Coordination Sequence:
#
# PCOD9113940 Si02
#       7
#     2   2   2   1   2   2   2
#     4  12  25  40  73 108 138 185 246 291 354 433
#     4  10  24  50  74 106 149 189 232 304 367 420
#     4  10  24  45  69 100 143 185 235 291 355 416
#     4  12  24  40  70 106 138 188 240 282 350 432
#     4  10  23  46  70  99 141 183 233 300 347 418
#     4  10  23  48  73 105 142 187 241 292 363 427
#     4  10  24  47  72 101 149 189 232 295 359 429
#
# _framework density 26.128226000000002
#
# number of rings (size 3 to 8) (size 9 to 14) (size 15 to 20)
#    0.000    1.538    1.538    1.385    6.462    2.462 
#    0.000    3.846    0.000    0.000    0.000    0.000 
#    0.000    0.000    0.000    0.000    0.000    0.000 
#
# Total GULP energy -72580.059103 kJ/mol
# GULP energy per Si atom -5583.081469 kJ/mol
# Density = 2.606876 g / cm^3
# Si number density = 26.128226 Si / 1000 Ang^3
#
#
#
# Elastic Constant Matrix: (Units=GPa)
#
#
# Indices 1 2 3 4 5 6 
#
# 1 173.2061 36.5592 46.9214 0.0000 -17.3943 0.0000
# 2 36.5592 56.9958 33.7669 0.0000 -21.1757 0.0000
# 3 46.9214 33.7669 70.7993 0.0000 -48.4205 0.0000
# 4 0.0000 0.0000 0.0000 42.1982 0.0000 -15.8859
# 5 -17.3943 -21.1757 -48.4205 0.0000 87.3014 0.0000
# 6 0.0000 0.0000 0.0000 -15.8859 0.0000 37.3845
#
#
#
# Elastic Compliance Matrix: (Units=1/GPa)
#
#
# Indices 1 2 3 4 5 6 
#
# 1 0.007488 -0.002506 -0.005096 0.000000 -0.001942 0.000000
# 2 -0.002506 0.025334 -0.010571 0.000000 -0.000217 0.000000
# 3 -0.005096 -0.010571 0.032376 0.000000 0.014378 0.000000
# 4 0.000000 0.000000 0.000000 0.028211 0.000000 0.011988
# 5 -0.001942 -0.000217 0.014378 0.000000 0.018989 0.000000
# 6 0.000000 0.000000 0.000000 0.011988 0.000000 0.031843
#
#
# Mechanical properties :
#
#
# Convention : Reuss Voigt Hill
#
# Bulk Modulus (GPa) = 34.65706 59.49956 47.07831
# Shear Modulus (GPa) = 26.28766 45.62706 35.95736
#
# Velocity S-wave (km/s) = 3.17535 4.18338 3.71373
# Velocity P-wave (km/s) = 5.17077 6.79380 6.03708
#
# Compressibility (1/GPa) = 0.02885415
#
# Stress axis : x y z
#
# Youngs Moduli (GPa) = 133.55270 39.47212 30.88683
#
# Poissons Ratio (x) = 0.09890 0.15739
# Poissons Ratio (y) = 0.33462 0.32650
# Poissons Ratio (z) = 0.68053 0.41726
#
# Static dielectric constant tensor:
#      x y z
#    x 2.031890 0.000000 -0.021650 
#    y 0.000000 2.116160 0.000000 
#    z -0.021650 0.000000 2.332310 
# 
# From -- ./inp_files/6701.got.cif
#   From: 2010.05.17/outbox.cif.g08.bks.cpg/sg3_4_cif.got.tgz:6701.got - 2010.06.03 18:33:08.
