data_PCOD9113925
_publ_section_title
;
Structure prediction by ZEFSAII (Michael W. Deem and Ramdas Pophale) SiO2 
 PCOD9113925
Probable space group: P 2
;
_chemical_formula_sum "Si O2"
_cell_formula_units_Z 15
_cell_length_a 25.545670
_cell_length_b 5.501368
_cell_length_c 8.208561
_cell_angle_alpha 90.000000
_cell_angle_beta 147.000904
_cell_angle_gamma 90.000000
_cell_volume 628.280003
_symmetry_space_group_name_H-M "P 2"
_symmetry_group_IT_number 3
_symmetry_cell_setting 'monoclinic'
loop_
_space_group_symop_operation_xyz
x,y,z
-x,y,-z
loop_
_atom_site_type_symbol
_atom_site_label
_atom_site_fract_x
_atom_site_fract_y
_atom_site_fract_z
Si Si1 0.548682 0.931460 0.803596
Si Si2 0.743851 0.760927 0.211867
Si Si3 0.653750 0.312919 0.269033
Si Si4 0.207033 0.031695 0.175575
Si Si5 0.500000 0.674512 0.000000
Si Si6 0.204885 0.252288 0.819009
Si Si7 0.987398 0.303322 0.274707
Si Si8 0.159534 0.623488 0.239642
O O1 0.500000 0.937524 0.500000
O O2 0.639138 0.748719 0.020296
O O3 0.490842 0.832270 0.810022
O O4 0.589192 0.196050 0.959765
O O5 0.763596 0.522196 0.154021
O O6 0.824648 0.789602 0.562687
O O7 0.742288 0.021101 0.120216
O O8 0.590776 0.496190 0.210211
O O9 0.758828 0.423749 0.503937
O O10 0.693451 0.080303 0.471978
O O11 0.192742 0.743837 0.155672
O O12 0.215554 0.190671 0.036789
O O13 0.101453 0.115641 0.966625
O O14 0.091187 0.226242 0.484696
O O15 0.000000 0.364562 0.500000
O O16 0.945883 0.525668 0.063289
#
# Coordination Sequence:
#
# PCOD9113925 Si02
#       8
#     2   2   2   2   1   2   2   2
#     4  12  29  51  78 114 157 206 267 343 402 486
#     4  12  27  50  71 112 162 197 258 326 402 468
#     4  11  23  47  74 110 146 198 264 318 406 468
#     4  10  23  44  78 104 149 204 255 327 380 472
#     4  12  26  46  82 108 150 200 280 328 408 484
#     4  11  28  46  76 116 155 204 262 320 390 470
#     4   9  23  44  71 111 145 200 259 312 373 462
#     4  11  23  45  78  99 157 200 247 320 389 457
#
# _framework density 23.874707000000001
#
# number of rings (size 3 to 8) (size 9 to 14) (size 15 to 20)
#    0.000    1.067    2.667    1.200   11.200    3.733 
#    0.000    0.000    0.000    0.000    0.000    0.000 
#    0.000    0.000    0.000    0.000    0.000    0.000 
#
# Total GULP energy -83687.005021 kJ/mol
# GULP energy per Si atom -5579.133668 kJ/mol
# Density = 2.382037 g / cm^3
# Si number density = 23.874707 Si / 1000 Ang^3
#
#
#
# Elastic Constant Matrix: (Units=GPa)
#
#
# Indices 1 2 3 4 5 6 
#
# 1 99.2656 45.9722 22.2380 0.0000 -0.7347 0.0000
# 2 45.9722 96.2744 19.7362 0.0000 -16.7871 0.0000
# 3 22.2380 19.7362 109.9121 0.0000 -22.7383 0.0000
# 4 0.0000 0.0000 0.0000 40.5258 0.0000 -4.3943
# 5 -0.7347 -16.7871 -22.7383 0.0000 26.4423 0.0000
# 6 0.0000 0.0000 0.0000 -4.3943 0.0000 26.8919
#
#
#
# Elastic Compliance Matrix: (Units=1/GPa)
#
#
# Indices 1 2 3 4 5 6 
#
# 1 0.014057 -0.007290 -0.002934 0.000000 -0.006760 0.000000
# 2 -0.007290 0.015503 0.000834 0.000000 0.010356 0.000000
# 3 -0.002934 0.000834 0.011720 0.000000 0.010526 0.000000
# 4 0.000000 0.000000 0.000000 0.025121 0.000000 0.004105
# 5 -0.006760 0.010356 0.010526 0.000000 0.053256 0.000000
# 6 0.000000 0.000000 0.000000 0.004105 0.000000 0.037857
#
#
# Mechanical properties :
#
#
# Convention : Reuss Voigt Hill
#
# Bulk Modulus (GPa) = 44.44443 53.48277 48.96360
# Shear Modulus (GPa) = 27.20450 33.27238 30.23844
#
# Velocity S-wave (km/s) = 3.37926 3.73718 3.56272
# Velocity P-wave (km/s) = 5.82083 6.40875 6.12185
#
# Compressibility (1/GPa) = 0.02250001
#
# Stress axis : x y z
#
# Youngs Moduli (GPa) = 71.13759 64.50414 85.32759
#
# Poissons Ratio (x) = 0.47023 0.25032
# Poissons Ratio (y) = 0.51858 -0.07114
# Poissons Ratio (z) = 0.20869 -0.05378
#
# Static dielectric constant tensor:
#      x y z
#    x 2.055950 0.000000 -0.072400 
#    y 0.000000 2.053120 0.000000 
#    z -0.072400 0.000000 1.866540 
# 
# From -- ./inp_files/9593.got.cif
#   From: 2010.05.17/outbox.cif.g08.bks.cpg/sg3_5_cif.got.tgz:9593.got - 2010.06.03 18:33:08.
