data_PCOD9113005
_publ_section_title
;
Structure prediction by ZEFSAII (Michael W. Deem and Ramdas Pophale) SiO2 
 PCOD9113005
Probable space group: P 2
;
_chemical_formula_sum "Si O2"
_cell_formula_units_Z 16
_cell_length_a 5.462142
_cell_length_b 8.740408
_cell_length_c 18.064342
_cell_angle_alpha 90.000000
_cell_angle_beta 65.897278
_cell_angle_gamma 90.000000
_cell_volume 787.226130
_symmetry_space_group_name_H-M "P 2"
_symmetry_group_IT_number 3
_symmetry_cell_setting 'monoclinic'
loop_
_space_group_symop_operation_xyz
x,y,z
-x,y,-z
loop_
_atom_site_type_symbol
_atom_site_label
_atom_site_fract_x
_atom_site_fract_y
_atom_site_fract_z
Si Si1 0.433493 0.002610 0.132543
Si Si2 0.356440 0.490235 0.200580
Si Si3 0.120522 0.999711 0.405857
Si Si4 0.309661 0.289231 0.951557
Si Si5 0.720354 0.931981 0.334559
Si Si6 0.242036 0.711158 0.079599
Si Si7 0.293567 0.750293 0.804316
Si Si8 0.940570 0.203973 0.720551
O O1 0.662803 0.109300 0.070522
O O2 0.222591 0.118315 0.194372
O O3 0.300810 0.887912 0.091117
O O4 0.538137 0.890956 0.183473
O O5 0.569967 0.381411 0.132515
O O6 0.249390 0.602427 0.150258
O O7 0.521507 0.603605 0.233180
O O8 0.122948 0.381772 0.261115
O O9 0.000000 0.040466 0.500000
O O10 0.162851 0.145424 0.346499
O O11 0.899712 0.905983 0.385323
O O12 0.596975 0.915266 0.618907
O O13 0.500000 0.314548 0.000000
O O14 0.000000 0.331884 0.000000
O O15 0.822587 0.821637 0.256627
O O16 0.777603 0.113078 0.309578
O O17 0.923117 0.709463 0.104167
O O18 0.500000 0.662548 0.000000
#
# Coordination Sequence:
#
# PCOD9113005 Si02
#       8
#     2   2   2   2   2   2   2   2
#     4  10  21  38  58  86 115 160 215 271 316 381
#     4  10  25  39  59  88 124 176 215 270 325 390
#     4  10  20  37  68 105 129 156 203 267 320 378
#     4  11  26  42  60  84 121 163 218 278 334 375
#     4  10  20  38  67  94 133 162 208 260 316 396
#     4  11  23  36  56  83 125 166 223 271 328 375
#     4  11  22  39  62  88 126 172 221 265 331 388
#     4   9  20  39  61  91 122 163 214 258 317 385
#
# _framework density 20.324528000000001
#
# number of rings (size 3 to 8) (size 9 to 14) (size 15 to 20)
#    0.750    1.000    2.500    1.125    8.750    2.000 
#    0.000    0.000    0.000    0.750    0.000    0.000 
#    0.000    0.000    0.000    0.000    0.000    0.000 
#
# Total GULP energy -89103.430855 kJ/mol
# GULP energy per Si atom -5568.964428 kJ/mol
# Density = 2.027827 g / cm^3
# Si number density = 20.324528 Si / 1000 Ang^3
#
#
#
# Elastic Constant Matrix: (Units=GPa)
#
#
# Indices 1 2 3 4 5 6 
#
# 1 79.4789 17.8882 14.6762 0.0000 -1.1997 0.0000
# 2 17.8882 95.2011 6.2646 0.0000 4.1206 0.0000
# 3 14.6762 6.2646 52.1957 0.0000 -1.0899 0.0000
# 4 0.0000 0.0000 0.0000 3.2780 0.0000 -0.9044
# 5 -1.1997 4.1206 -1.0899 0.0000 24.8351 0.0000
# 6 0.0000 0.0000 0.0000 -0.9044 0.0000 15.5258
#
#
#
# Elastic Compliance Matrix: (Units=1/GPa)
#
#
# Indices 1 2 3 4 5 6 
#
# 1 0.013795 -0.002396 -0.003572 0.000000 0.000907 0.000000
# 2 -0.002396 0.011086 -0.000698 0.000000 -0.001986 0.000000
# 3 -0.003572 -0.000698 0.020264 0.000000 0.000833 0.000000
# 4 0.000000 0.000000 0.000000 0.310046 0.000000 0.018061
# 5 0.000907 -0.001986 0.000833 0.000000 0.040675 0.000000
# 6 0.000000 0.000000 0.000000 0.018061 0.000000 0.065461
#
#
# Mechanical properties :
#
#
# Convention : Reuss Voigt Hill
#
# Bulk Modulus (GPa) = 31.43492 33.83708 32.63600
# Shear Modulus (GPa) = 10.30366 21.26421 15.78393
#
# Velocity S-wave (km/s) = 2.25401 3.23806 2.78977
# Velocity P-wave (km/s) = 4.71955 5.53756 5.14484
#
# Compressibility (1/GPa) = 0.03181176
#
# Stress axis : x y z
#
# Youngs Moduli (GPa) = 72.49223 90.20200 49.34791
#
# Poissons Ratio (x) = 0.21614 0.17628
# Poissons Ratio (y) = 0.17371 0.03446
# Poissons Ratio (z) = 0.25896 0.06299
#
# Static dielectric constant tensor:
#      x y z
#    x 1.882300 0.000000 -0.012450 
#    y 0.000000 1.737270 0.000000 
#    z -0.012450 0.000000 1.751010 
# 
# From -- ./inp_files/14693.got.cif
#   From: 2010.05.17/outbox.cif.g08.bks.cpg/sg3_8_cif.got.tgz:14693.got - 2010.06.03 18:33:08.
