data_PCOD9113377
_publ_section_title
;
Structure prediction by ZEFSAII (Michael W. Deem and Ramdas Pophale) SiO2 
 PCOD9113377
Probable space group: P 2
;
_chemical_formula_sum "Si O2"
_cell_formula_units_Z 12
_cell_length_a 21.644787
_cell_length_b 5.292646
_cell_length_c 10.016711
_cell_angle_alpha 90.000000
_cell_angle_beta 29.447580
_cell_angle_gamma 90.000000
_cell_volume 564.140255
_symmetry_space_group_name_H-M "P 2"
_symmetry_group_IT_number 3
_symmetry_cell_setting 'monoclinic'
loop_
_space_group_symop_operation_xyz
x,y,z
-x,y,-z
loop_
_atom_site_type_symbol
_atom_site_label
_atom_site_fract_x
_atom_site_fract_y
_atom_site_fract_z
Si Si1 0.024937 0.483430 0.611832
Si Si2 0.259268 0.456010 0.783700
Si Si3 0.466740 0.596368 0.217747
Si Si4 0.350680 0.955856 0.762136
Si Si5 0.185749 0.980063 0.343366
Si Si6 0.569104 0.101624 0.011539
O O1 0.109695 0.720583 0.495220
O O2 0.000000 0.508504 0.500000
O O3 0.094313 0.219015 0.506291
O O4 0.889833 0.482787 0.936528
O O5 0.327843 0.504766 0.513475
O O6 0.298398 0.184312 0.768540
O O7 0.315644 0.680067 0.769796
O O8 0.555528 0.373689 0.106766
O O9 0.496642 0.871678 0.218031
O O10 0.500000 0.627608 0.000000
O O11 0.500000 0.983557 0.500000
O O12 0.272988 0.978122 0.046863
O O13 0.287075 0.020646 0.270144
O O14 0.500000 0.137637 0.000000
#
# Coordination Sequence:
#
# PCOD9113377 Si02
#       6
#     2   2   2   2   2   2
#     4  12  23  40  59  88 134 176 200 239 298 389
#     4  12  23  38  59  89 127 165 202 248 307 369
#     4  10  21  40  64  87 117 160 208 262 318 349
#     4  12  23  35  58  92 127 157 205 251 307 376
#     4  12  22  39  62  90 128 169 205 247 311 369
#     4  10  22  41  66  90 117 160 211 266 316 353
#
# _framework density 21.271307
#
# number of rings (size 3 to 8) (size 9 to 14) (size 15 to 20)
#    0.000    0.667    3.333    6.000    0.000    0.000 
#    0.000    0.000    0.000   24.000    0.000    0.000 
#    0.000    0.000    0.000    0.000    0.000    0.000 
#
# Total GULP energy -67066.349793 kJ/mol
# GULP energy per Si atom -5588.862483 kJ/mol
# Density = 2.122289 g / cm^3
# Si number density = 21.271307 Si / 1000 Ang^3
#
#
#
# Elastic Constant Matrix: (Units=GPa)
#
#
# Indices 1 2 3 4 5 6 
#
# 1 56.7557 0.1202 23.9900 0.0000 -1.2452 0.0000
# 2 0.1202 143.1614 15.6177 0.0000 -3.5280 0.0000
# 3 23.9900 15.6177 164.5179 0.0000 3.0727 0.0000
# 4 0.0000 0.0000 0.0000 42.5575 0.0000 -8.6039
# 5 -1.2452 -3.5280 3.0727 0.0000 32.6411 0.0000
# 6 0.0000 0.0000 0.0000 -8.6039 0.0000 17.4495
#
#
#
# Elastic Compliance Matrix: (Units=1/GPa)
#
#
# Indices 1 2 3 4 5 6 
#
# 1 0.018822 0.000314 -0.002793 0.000000 0.001015 0.000000
# 2 0.000314 0.007086 -0.000734 0.000000 0.000847 0.000000
# 3 -0.002793 -0.000734 0.006570 0.000000 -0.000804 0.000000
# 4 0.000000 0.000000 0.000000 0.026099 0.000000 0.012869
# 5 0.001015 0.000847 -0.000804 0.000000 0.030842 0.000000
# 6 0.000000 0.000000 0.000000 0.012869 0.000000 0.063653
#
#
# Mechanical properties :
#
#
# Convention : Reuss Voigt Hill
#
# Bulk Modulus (GPa) = 38.38678 49.32119 43.85398
# Shear Modulus (GPa) = 29.72938 40.17676 34.95307
#
# Velocity S-wave (km/s) = 3.74254 4.35072 4.05804
# Velocity P-wave (km/s) = 6.06308 6.96243 6.52826
#
# Compressibility (1/GPa) = 0.02605064
#
# Stress axis : x y z
#
# Youngs Moduli (GPa) = 53.13019 141.12666 152.19738
#
# Poissons Ratio (x) = -0.04430 0.42514
# Poissons Ratio (y) = -0.01668 0.11175
# Poissons Ratio (z) = 0.14841 0.10362
#
# Static dielectric constant tensor:
#      x y z
#    x 2.009390 0.000000 0.116290 
#    y 0.000000 1.815840 0.000000 
#    z 0.116290 0.000000 1.816040 
# 
# From -- ./inp_files/6537.got.cif
#   From: 2010.05.17/outbox.cif.g08.bks.cpg/sg3_4_cif.got.tgz:6537.got - 2010.06.03 18:33:08.
