data_PCOD9113314
_publ_section_title
;
Structure prediction by ZEFSAII (Michael W. Deem and Ramdas Pophale) SiO2 
 PCOD9113314
Probable space group: P 2
;
_chemical_formula_sum "Si O2"
_cell_formula_units_Z 14
_cell_length_a 5.365093
_cell_length_b 20.008315
_cell_length_c 5.392937
_cell_angle_alpha 90.000000
_cell_angle_beta 82.209256
_cell_angle_gamma 90.000000
_cell_volume 573.569246
_symmetry_space_group_name_H-M "P 2"
_symmetry_group_IT_number 3
_symmetry_cell_setting 'monoclinic'
loop_
_space_group_symop_operation_xyz
x,y,z
-x,y,-z
loop_
_atom_site_type_symbol
_atom_site_label
_atom_site_fract_x
_atom_site_fract_y
_atom_site_fract_z
Si Si1 0.223336 0.358470 0.162617
Si Si2 0.667052 0.501864 0.726494
Si Si3 0.225474 0.788580 0.166438
Si Si4 0.224095 0.074217 0.164091
Si Si5 0.228443 0.931719 0.171457
Si Si6 0.334304 0.645116 0.274221
Si Si7 0.660341 0.216184 0.722535
O O1 0.192737 0.431192 0.288135
O O2 0.221309 0.289724 0.314943
O O3 0.500000 0.360616 0.000000
O O4 0.000000 0.351359 0.000000
O O5 0.500000 0.501155 0.500000
O O6 0.807704 0.573584 0.719314
O O7 0.500000 0.501935 0.000000
O O8 0.219482 0.859907 0.309068
O O9 0.500000 0.787831 0.000000
O O10 0.202389 0.716869 0.298648
O O11 0.000000 0.790164 0.000000
O O12 0.222333 0.003421 0.310813
O O13 0.500000 0.076627 0.000000
O O14 0.185600 0.147576 0.281076
O O15 0.000000 0.067747 0.000000
O O16 0.500000 0.931999 0.000000
O O17 0.000000 0.930770 0.000000
O O18 0.500000 0.642681 0.500000
O O19 0.500000 0.646005 0.000000
O O20 0.500000 0.207157 0.500000
O O21 0.500000 0.218848 0.000000
#
# Coordination Sequence:
#
# PCOD9113314 Si02
#       7
#     2   2   2   2   2   2   2
#     4  10  21  39  61  87 117 152 192 236 286 340
#     4   9  18  35  57  83 114 149 189 234 284 338
#     4   9  17  31  52  79 110 146 187 232 282 336
#     4   9  17  32  53  80 111 146 187 232 282 336
#     4   8  14  26  48  75 106 142 182 228 278 332
#     4   9  18  34  56  82 113 149 189 234 284 338
#     4  10  21  39  60  86 117 152 192 236 286 340
#
# _framework density 24.408557999999999
#
# number of rings (size 3 to 8) (size 9 to 14) (size 15 to 20)
#    0.000    2.857    0.000    0.857    0.000    0.571 
#    0.000   23.571    0.000   15.429    0.000   30.000 
#    0.000    0.000    0.000    0.000    0.000    0.000 
#
# Total GULP energy -78026.141787 kJ/mol
# GULP energy per Si atom -5573.295842 kJ/mol
# Density = 2.435300 g / cm^3
# Si number density = 24.408558 Si / 1000 Ang^3
#
#
#
# Elastic Constant Matrix: (Units=GPa)
#
#
# Indices 1 2 3 4 5 6 
#
# 1 125.8625 -30.4707 20.8253 0.0000 -25.0714 0.0000
# 2 -30.4707 279.4817 -26.9330 0.0000 -2.6673 0.0000
# 3 20.8253 -26.9330 80.1895 0.0000 -20.9013 0.0000
# 4 0.0000 0.0000 0.0000 -16.9633 0.0000 55.8216
# 5 -25.0714 -2.6673 -20.9013 0.0000 54.9071 0.0000
# 6 0.0000 0.0000 0.0000 55.8216 0.0000 -9.5827
#
#
#
# Elastic Compliance Matrix: (Units=1/GPa)
#
#
# Indices 1 2 3 4 5 6 
#
# 1 0.009101 0.000926 -0.001063 0.000000 0.003796 0.000000
# 2 0.000926 0.003818 0.001333 0.000000 0.001116 0.000000
# 3 -0.001063 0.001333 0.014526 0.000000 0.005109 0.000000
# 4 0.000000 0.000000 0.000000 0.003245 0.000000 0.018900
# 5 0.003796 0.001116 0.005109 0.000000 0.021945 0.000000
# 6 0.000000 0.000000 0.000000 0.018900 0.000000 0.005743
#
#
# Mechanical properties :
#
#
# Convention : Reuss Voigt Hill
#
# Bulk Modulus (GPa) = 33.51609 45.81967 39.66788
# Shear Modulus (GPa) = 75.83508 40.47969 58.15739
#
# Velocity S-wave (km/s) = 5.58001 4.07679 4.88655
# Velocity P-wave (km/s) = 7.43481 6.40102 6.93720
#
# Compressibility (1/GPa) = 0.02983641
#
# Stress axis : x y z
#
# Youngs Moduli (GPa) = 109.87240 261.91112 68.84328
#
# Poissons Ratio (x) = -0.24255 0.07319
# Poissons Ratio (y) = -0.10175 -0.09174
# Poissons Ratio (z) = 0.11681 -0.34904
#
# Static dielectric constant tensor:
#      x y z
#    x 1.654650 0.000000 0.274310 
#    y 0.000000 2.079230 0.000000 
#    z 0.274310 0.000000 1.585640 
# 
# From -- ./inp_files/678.got.cif
#   From: 2010.05.17/outbox.cif.g08.bks.cpg/sg3_1_cif.got.tgz:678.got - 2010.06.03 18:33:08.
