data_PCOD9113508
_publ_section_title
;
Structure prediction by ZEFSAII (Michael W. Deem and Ramdas Pophale) SiO2 
 PCOD9113508
Probable space group: P 2
;
_chemical_formula_sum "Si O2"
_cell_formula_units_Z 14
_cell_length_a 9.085181
_cell_length_b 8.306063
_cell_length_c 16.866300
_cell_angle_alpha 90.000000
_cell_angle_beta 28.472075
_cell_angle_gamma 90.000000
_cell_volume 606.766307
_symmetry_space_group_name_H-M "P 2"
_symmetry_group_IT_number 3
_symmetry_cell_setting 'monoclinic'
loop_
_space_group_symop_operation_xyz
x,y,z
-x,y,-z
loop_
_atom_site_type_symbol
_atom_site_label
_atom_site_fract_x
_atom_site_fract_y
_atom_site_fract_z
Si Si1 0.917958 0.567920 0.173796
Si Si2 0.177379 0.242710 0.999178
Si Si3 0.883155 0.921474 0.146562
Si Si4 0.715821 0.100291 0.828964
Si Si5 0.709631 0.875739 0.480632
Si Si6 0.178181 0.354580 0.634534
Si Si7 0.764156 0.549913 0.539982
O O1 0.008152 0.755032 0.126924
O O2 0.815550 0.507177 0.309309
O O3 0.605073 0.554810 0.268155
O O4 0.154267 0.427873 0.037647
O O5 0.517474 0.169093 0.849059
O O6 0.990617 0.094083 0.128313
O O7 0.000000 0.248113 0.000000
O O8 0.520132 0.922479 0.338241
O O9 0.000000 0.910764 0.000000
O O10 0.871483 0.256422 0.794792
O O11 0.500000 0.025973 0.000000
O O12 0.996475 0.988008 0.670674
O O13 0.500000 0.870015 0.500000
O O14 0.823730 0.701482 0.454613
O O15 0.500000 0.264284 0.500000
O O16 0.182537 0.396615 0.540458
O O17 0.000000 0.553469 0.500000
#
# Coordination Sequence:
#
# PCOD9113508 Si02
#       7
#     2   2   2   2   2   2   2
#     4  10  21  44  73  96 149 197 240 307 375 440
#     4  11  25  43  66 105 148 192 243 302 375 440
#     4  10  23  45  74 108 144 195 243 303 377 443
#     4  12  25  43  67 109 144 191 259 306 365 451
#     4  11  24  46  76 104 149 201 246 309 381 441
#     4  10  22  43  69 100 138 191 248 307 368 441
#     4  10  23  41  69 108 141 189 253 306 380 455
#
# _framework density 23.073134
#
# number of rings (size 3 to 8) (size 9 to 14) (size 15 to 20)
#    0.000    1.429    1.429    3.857    6.000    4.571 
#    2.571    1.429    0.000    0.000    0.000    0.000 
#    0.000    0.000    0.000    0.000    0.000    0.000 
#
# Total GULP energy -78061.698107 kJ/mol
# GULP energy per Si atom -5575.835579 kJ/mol
# Density = 2.302062 g / cm^3
# Si number density = 23.073134 Si / 1000 Ang^3
#
#
#
# Elastic Constant Matrix: (Units=GPa)
#
#
# Indices 1 2 3 4 5 6 
#
# 1 144.4470 10.9127 42.7023 0.0000 -21.0656 0.0000
# 2 10.9127 102.6419 33.4930 0.0000 -9.1091 0.0000
# 3 42.7023 33.4930 109.0209 0.0000 -3.2454 0.0000
# 4 0.0000 0.0000 0.0000 40.5291 0.0000 -0.2361
# 5 -21.0656 -9.1091 -3.2454 0.0000 31.1486 0.0000
# 6 0.0000 0.0000 0.0000 -0.2361 0.0000 20.2176
#
#
#
# Elastic Compliance Matrix: (Units=1/GPa)
#
#
# Indices 1 2 3 4 5 6 
#
# 1 0.008734 0.000714 -0.003469 0.000000 0.005754 0.000000
# 2 0.000714 0.011141 -0.003602 0.000000 0.003366 0.000000
# 3 -0.003469 -0.003602 0.011573 0.000000 -0.002194 0.000000
# 4 0.000000 0.000000 0.000000 0.024675 0.000000 0.000288
# 5 0.005754 0.003366 -0.002194 0.000000 0.036751 0.000000
# 6 0.000000 0.000000 0.000000 0.000288 0.000000 0.049465
#
#
# Mechanical properties :
#
#
# Convention : Reuss Voigt Hill
#
# Bulk Modulus (GPa) = 53.38172 58.92509 56.15340
# Shear Modulus (GPa) = 30.99869 36.31252 33.65560
#
# Velocity S-wave (km/s) = 3.66935 3.97142 3.82337
# Velocity P-wave (km/s) = 6.41391 6.82813 6.62426
#
# Compressibility (1/GPa) = 0.01873300
#
# Stress axis : x y z
#
# Youngs Moduli (GPa) = 114.49964 89.76021 86.41070
#
# Poissons Ratio (x) = -0.06409 0.29976
# Poissons Ratio (y) = -0.08176 0.31126
# Poissons Ratio (z) = 0.39719 0.32333
#
# Static dielectric constant tensor:
#      x y z
#    x 1.939320 0.000000 0.012510 
#    y 0.000000 1.888010 0.000000 
#    z 0.012510 0.000000 1.911300 
# 
# From -- ./inp_files/15020.got.cif
#   From: 2010.05.17/outbox.cif.g08.bks.cpg/sg3_8_cif.got.tgz:15020.got - 2010.06.03 18:33:08.
