data_PCOD9113235
_publ_section_title
;
Structure prediction by ZEFSAII (Michael W. Deem and Ramdas Pophale) SiO2 
 PCOD9113235
Probable space group: P 2
;
_chemical_formula_sum "Si O2"
_cell_formula_units_Z 14
_cell_length_a 8.755577
_cell_length_b 6.475331
_cell_length_c 23.392497
_cell_angle_alpha 90.000000
_cell_angle_beta 150.378717
_cell_angle_gamma 90.000000
_cell_volume 655.515585
_symmetry_space_group_name_H-M "P 2"
_symmetry_group_IT_number 3
_symmetry_cell_setting 'monoclinic'
loop_
_space_group_symop_operation_xyz
x,y,z
-x,y,-z
loop_
_atom_site_type_symbol
_atom_site_label
_atom_site_fract_x
_atom_site_fract_y
_atom_site_fract_z
Si Si1 0.819560 0.261120 0.704522
Si Si2 0.737183 0.580305 0.767304
Si Si3 0.290284 0.811549 0.695107
Si Si4 0.769963 0.192723 0.863712
Si Si5 0.151033 0.970906 0.906693
Si Si6 0.888294 0.157432 0.529705
Si Si7 0.259611 0.400734 0.746689
O O1 0.764704 0.486238 0.714244
O O2 0.473862 0.188101 0.578720
O O3 0.961873 0.099317 0.796653
O O4 0.057742 0.303130 0.731237
O O5 0.424444 0.695096 0.683223
O O6 0.750307 0.379380 0.811784
O O7 0.012080 0.741815 0.866074
O O8 0.271944 0.647241 0.740553
O O9 0.536514 0.996976 0.784256
O O10 0.977378 0.928612 0.579655
O O11 0.614066 0.317511 0.865409
O O12 0.084600 0.081058 0.946165
O O13 0.500000 0.970464 0.000000
O O14 0.000000 0.180098 0.500000
O O15 0.086389 0.314823 0.633188
#
# Coordination Sequence:
#
# PCOD9113235 Si02
#       7
#     2   2   2   2   2   2   2
#     4  11  23  38  57  88 124 156 194 249 304 354
#     4   9  18  35  58  86 114 150 200 246 294 350
#     4   9  18  35  58  83 115 159 198 234 284 352
#     4   8  17  36  60  82 112 151 194 238 286 349
#     4  10  21  39  64  87 111 151 202 254 302 352
#     4  11  21  36  58  85 117 160 204 240 284 349
#     4  10  21  37  58  87 125 159 190 235 298 360
#
# _framework density 21.357234999999999
#
# number of rings (size 3 to 8) (size 9 to 14) (size 15 to 20)
#    0.000    2.286    0.000    5.571    0.000    7.429 
#    0.000    6.429    0.000    0.000    0.000    0.000 
#    0.000    0.000    0.000    0.000    0.000    0.000 
#
# Total GULP energy -77940.961274 kJ/mol
# GULP energy per Si atom -5567.211520 kJ/mol
# Density = 2.130863 g / cm^3
# Si number density = 21.357235 Si / 1000 Ang^3
#
#
#
# Elastic Constant Matrix: (Units=GPa)
#
#
# Indices 1 2 3 4 5 6 
#
# 1 93.8478 33.8187 23.3350 0.0000 30.7883 0.0000
# 2 33.8187 133.8747 38.1961 0.0000 9.8717 0.0000
# 3 23.3350 38.1961 68.7452 0.0000 29.0441 0.0000
# 4 0.0000 0.0000 0.0000 20.6007 0.0000 14.3163
# 5 30.7883 9.8717 29.0441 0.0000 45.4676 0.0000
# 6 0.0000 0.0000 0.0000 14.3163 0.0000 -17.6762
#
#
#
# Elastic Compliance Matrix: (Units=1/GPa)
#
#
# Indices 1 2 3 4 5 6 
#
# 1 0.014878 -0.003311 0.001016 0.000000 -0.010005 0.000000
# 2 -0.003311 0.009708 -0.005926 0.000000 0.003920 0.000000
# 3 0.001016 -0.005926 0.023614 0.000000 -0.014486 0.000000
# 4 0.000000 0.000000 0.000000 0.031060 0.000000 0.025156
# 5 -0.010005 0.003920 -0.014486 0.000000 0.037171 0.000000
# 6 0.000000 0.000000 0.000000 0.025156 0.000000 -0.036199
#
#
# Mechanical properties :
#
#
# Convention : Reuss Voigt Hill
#
# Bulk Modulus (GPa) = 31.48677 54.12973 42.80825
# Shear Modulus (GPa) = 46.61589 23.08630 34.85109
#
# Velocity S-wave (km/s) = 4.67698 3.29136 4.04396
# Velocity P-wave (km/s) = 6.62876 6.31221 6.47242
#
# Compressibility (1/GPa) = 0.03175937
#
# Stress axis : x y z
#
# Youngs Moduli (GPa) = 67.21240 103.01076 42.34728
#
# Poissons Ratio (x) = 0.34103 -0.04303
# Poissons Ratio (y) = 0.22252 0.25095
# Poissons Ratio (z) = -0.06830 0.61044
#
# Static dielectric constant tensor:
#      x y z
#    x 1.869130 0.000000 0.027550 
#    y 0.000000 1.777650 0.000000 
#    z 0.027550 0.000000 1.870080 
# 
# From -- ./inp_files/8268.got.cif
#   From: 2010.05.17/outbox.cif.g08.bks.cpg/sg3_5_cif.got.tgz:8268.got - 2010.06.03 18:33:08.
