data_PCOD9113840
_publ_section_title
;
Structure prediction by ZEFSAII (Michael W. Deem and Ramdas Pophale) SiO2 
 PCOD9113840
Probable space group: P 2
;
_chemical_formula_sum "Si O2"
_cell_formula_units_Z 11
_cell_length_a 14.817268
_cell_length_b 5.457841
_cell_length_c 7.695877
_cell_angle_alpha 90.000000
_cell_angle_beta 46.384530
_cell_angle_gamma 90.000000
_cell_volume 450.585367
_symmetry_space_group_name_H-M "P 2"
_symmetry_group_IT_number 3
_symmetry_cell_setting 'monoclinic'
loop_
_space_group_symop_operation_xyz
x,y,z
-x,y,-z
loop_
_atom_site_type_symbol
_atom_site_label
_atom_site_fract_x
_atom_site_fract_y
_atom_site_fract_z
Si Si1 0.000000 0.900260 0.000000
Si Si2 0.205204 0.594377 0.535076
Si Si3 0.619471 0.137495 0.153583
Si Si4 0.144816 0.385746 0.262999
Si Si5 0.514983 0.641981 0.773952
Si Si6 0.193926 0.256023 0.843777
O O1 0.093588 0.748865 0.758961
O O2 0.085049 0.063109 0.012186
O O3 0.194356 0.571437 0.343516
O O4 0.336784 0.673295 0.441157
O O5 0.188192 0.332299 0.652328
O O6 0.539947 0.384258 0.222944
O O7 0.672592 0.154511 0.278104
O O8 0.554907 0.881499 0.202700
O O9 0.749980 0.170084 0.871361
O O10 0.000000 0.335137 0.500000
O O11 0.162733 0.459279 0.035039
O O12 0.500000 0.629563 0.000000
#
# Coordination Sequence:
#
# PCOD9113840 Si02
#       6
#     1   2   2   2   2   2
#     4  12  26  48  78 118 152 204 270 332 396 472
#     4  12  27  48  81 106 157 210 254 330 395 467
#     4  10  27  48  75 111 156 197 261 317 382 468
#     4  10  22  48  75 110 153 205 256 319 389 468
#     4  12  25  50  79 113 154 203 263 315 393 467
#     4  10  26  49  71 112 157 195 264 323 393 463
#
# _framework density 24.412690000000001
#
# number of rings (size 3 to 8) (size 9 to 14) (size 15 to 20)
#    1.091    0.000    1.818    3.273    5.091    2.182 
#    0.000    1.818    4.000    0.000    0.000    0.000 
#    0.000    0.000    0.000    0.000    0.000    0.000 
#
# Total GULP energy -61430.637073 kJ/mol
# GULP energy per Si atom -5584.603370 kJ/mol
# Density = 2.435713 g / cm^3
# Si number density = 24.412690 Si / 1000 Ang^3
#
#
#
# Elastic Constant Matrix: (Units=GPa)
#
#
# Indices 1 2 3 4 5 6 
#
# 1 117.2126 71.1306 26.7478 0.0000 -21.4819 0.0000
# 2 71.1306 117.8941 28.0751 0.0000 -29.0036 0.0000
# 3 26.7478 28.0751 93.1657 0.0000 -28.5504 0.0000
# 4 0.0000 0.0000 0.0000 58.2112 0.0000 -24.6213
# 5 -21.4819 -29.0036 -28.5504 0.0000 56.0556 0.0000
# 6 0.0000 0.0000 0.0000 -24.6213 0.0000 36.5654
#
#
#
# Elastic Compliance Matrix: (Units=1/GPa)
#
#
# Indices 1 2 3 4 5 6 
#
# 1 0.013674 -0.007791 -0.001431 0.000000 0.000480 0.000000
# 2 -0.007791 0.014376 -0.000866 0.000000 0.004011 0.000000
# 3 -0.001431 -0.000866 0.013153 0.000000 0.005703 0.000000
# 4 0.000000 0.000000 0.000000 0.024020 0.000000 0.016174
# 5 0.000480 0.004011 0.005703 0.000000 0.023004 0.000000
# 6 0.000000 0.000000 0.000000 0.016174 0.000000 0.038239
#
#
# Mechanical properties :
#
#
# Convention : Reuss Voigt Hill
#
# Bulk Modulus (GPa) = 47.55814 64.46440 56.01127
# Shear Modulus (GPa) = 32.54133 43.65436 38.09784
#
# Velocity S-wave (km/s) = 3.65494 4.23328 3.95470
# Velocity P-wave (km/s) = 6.11021 7.09631 6.62164
#
# Compressibility (1/GPa) = 0.02102690
#
# Stress axis : x y z
#
# Youngs Moduli (GPa) = 73.13017 69.55957 76.02901
#
# Poissons Ratio (x) = 0.54197 0.10878
# Poissons Ratio (y) = 0.56979 0.06584
# Poissons Ratio (z) = 0.10463 0.06024
#
# Static dielectric constant tensor:
#      x y z
#    x 1.992610 0.000000 -0.022360 
#    y 0.000000 1.945990 0.000000 
#    z -0.022360 0.000000 1.839920 
# 
# From -- ./inp_files/8138.got.cif
#   From: 2010.05.17/outbox.cif.g08.bks.cpg/sg3_5_cif.got.tgz:8138.got - 2010.06.03 18:33:08.
