data_PCOD9113238
_publ_section_title
;
Structure prediction by ZEFSAII (Michael W. Deem and Ramdas Pophale) SiO2 
 PCOD9113238
Probable space group: P 2
;
_chemical_formula_sum "Si O2"
_cell_formula_units_Z 14
_cell_length_a 9.833054
_cell_length_b 5.320028
_cell_length_c 14.271390
_cell_angle_alpha 90.000000
_cell_angle_beta 131.170227
_cell_angle_gamma 90.000000
_cell_volume 561.983377
_symmetry_space_group_name_H-M "P 2"
_symmetry_group_IT_number 3
_symmetry_cell_setting 'monoclinic'
loop_
_space_group_symop_operation_xyz
x,y,z
-x,y,-z
loop_
_atom_site_type_symbol
_atom_site_label
_atom_site_fract_x
_atom_site_fract_y
_atom_site_fract_z
Si Si1 0.430988 0.604100 0.636649
Si Si2 0.773373 0.633121 0.041895
Si Si3 0.311291 0.017857 0.462377
Si Si4 0.240062 0.338170 0.140022
Si Si5 0.495228 0.948403 0.170364
Si Si6 0.791525 0.235275 0.386308
Si Si7 0.978755 0.142951 0.177421
O O1 0.332979 0.722246 0.502210
O O2 0.607148 0.428836 0.716660
O O3 0.518559 0.838007 0.731361
O O4 0.282278 0.518215 0.647423
O O5 0.848456 0.388885 0.132742
O O6 0.819163 0.566616 0.953917
O O7 0.567238 0.738565 0.931967
O O8 0.876146 0.879317 0.123678
O O9 0.500000 0.081208 0.500000
O O10 0.290312 0.167972 0.549081
O O11 0.137179 0.093698 0.324255
O O12 0.087057 0.203512 0.130223
O O13 0.348008 0.170270 0.111951
O O14 0.693511 0.076821 0.260672
O O15 0.000000 0.203207 0.500000
#
# Coordination Sequence:
#
# PCOD9113238 Si02
#       7
#     2   2   2   2   2   2   2
#     4   9  20  36  64  91 138 177 228 280 360 410
#     4  11  24  37  59  95 135 182 240 290 349 420
#     4  11  25  43  63 101 151 189 225 294 372 433
#     4  10  21  37  59  91 133 186 238 283 347 418
#     4   9  19  39  60  94 129 173 224 299 336 407
#     4  10  22  43  72 103 134 185 246 293 351 432
#     4  12  26  36  61  95 140 186 236 289 356 429
#
# _framework density 24.911767000000001
#
# number of rings (size 3 to 8) (size 9 to 14) (size 15 to 20)
#    0.000    1.714    1.429    3.000   10.000    2.857 
#    0.000    0.000    0.000    0.857    7.429    0.000 
#    0.000    0.000    0.000    0.000    0.000    0.000 
#
# Total GULP energy -77964.513745 kJ/mol
# GULP energy per Si atom -5568.893839 kJ/mol
# Density = 2.485507 g / cm^3
# Si number density = 24.911767 Si / 1000 Ang^3
#
#
#
# Elastic Constant Matrix: (Units=GPa)
#
#
# Indices 1 2 3 4 5 6 
#
# 1 33.9633 -2.7223 3.5710 0.0000 10.1532 0.0000
# 2 -2.7223 114.2669 58.2375 0.0000 10.0823 0.0000
# 3 3.5710 58.2375 173.2167 0.0000 16.0665 0.0000
# 4 0.0000 0.0000 0.0000 52.3853 0.0000 -14.4201
# 5 10.1532 10.0823 16.0665 0.0000 36.6373 0.0000
# 6 0.0000 0.0000 0.0000 -14.4201 0.0000 -15.4823
#
#
#
# Elastic Compliance Matrix: (Units=1/GPa)
#
#
# Indices 1 2 3 4 5 6 
#
# 1 0.032411 0.001802 -0.000412 0.000000 -0.009297 0.000000
# 2 0.001802 0.010731 -0.003466 0.000000 -0.001933 0.000000
# 3 -0.000412 -0.003466 0.007138 0.000000 -0.002062 0.000000
# 4 0.000000 0.000000 0.000000 0.015194 0.000000 -0.014151
# 5 -0.009297 -0.001933 -0.002062 0.000000 0.031307 0.000000
# 6 0.000000 0.000000 0.000000 -0.014151 0.000000 -0.051409
#
#
# Mechanical properties :
#
#
# Convention : Reuss Voigt Hill
#
# Bulk Modulus (GPa) = 21.67801 48.84658 35.26229
# Shear Modulus (GPa) = 77.04240 32.19878 54.62059
#
# Velocity S-wave (km/s) = 5.56716 3.59905 4.68756
# Velocity P-wave (km/s) = 7.07426 6.07629 6.59418
#
# Compressibility (1/GPa) = 0.04612970
#
# Stress axis : x y z
#
# Youngs Moduli (GPa) = 30.85395 93.18490 140.09186
#
# Poissons Ratio (x) = -0.16796 0.05769
# Poissons Ratio (y) = -0.05561 0.48554
# Poissons Ratio (z) = 0.01271 0.32297
#
# Static dielectric constant tensor:
#      x y z
#    x 2.194680 0.000000 0.258200 
#    y 0.000000 2.550110 0.000000 
#    z 0.258200 0.000000 2.292640 
# 
# From -- ./inp_files/15228.got.cif
#   From: 2010.05.17/outbox.cif.g08.bks.cpg/sg3_8_cif.got.tgz:15228.got - 2010.06.03 18:33:08.
