data_PCOD9113580
_publ_section_title
;
Structure prediction by ZEFSAII (Michael W. Deem and Ramdas Pophale) SiO2 
 PCOD9113580
Probable space group: P 2
;
_chemical_formula_sum "Si O2"
_cell_formula_units_Z 14
_cell_length_a 15.238263
_cell_length_b 6.815172
_cell_length_c 6.541972
_cell_angle_alpha 90.000000
_cell_angle_beta 97.447177
_cell_angle_gamma 90.000000
_cell_volume 673.662012
_symmetry_space_group_name_H-M "P 2"
_symmetry_group_IT_number 3
_symmetry_cell_setting 'monoclinic'
loop_
_space_group_symop_operation_xyz
x,y,z
-x,y,-z
loop_
_atom_site_type_symbol
_atom_site_label
_atom_site_fract_x
_atom_site_fract_y
_atom_site_fract_z
Si Si1 0.063974 0.765560 0.758751
Si Si2 0.360295 0.130616 0.257857
Si Si3 0.500000 0.936718 0.000000
Si Si4 0.899284 0.512504 0.627112
Si Si5 0.640329 0.857410 0.359503
Si Si6 0.701538 0.553249 0.708401
Si Si7 0.242602 0.871640 0.982361
Si Si8 0.000000 0.138963 0.500000
O O1 0.106893 0.646392 0.580124
O O2 0.141544 0.805164 0.942008
O O3 0.021888 0.627886 0.229236
O O4 0.035191 0.983691 0.678059
O O5 0.354339 0.360453 0.277548
O O6 0.377697 0.027736 0.480457
O O7 0.431395 0.064870 0.111153
O O8 0.266488 0.049020 0.140785
O O9 0.443227 0.823261 0.812792
O O10 0.804623 0.505645 0.702199
O O11 0.930208 0.293393 0.574709
O O12 0.666842 0.672598 0.503180
O O13 0.720936 0.914456 0.232775
O O14 0.700325 0.694513 0.904070
#
# Coordination Sequence:
#
# PCOD9113580 Si02
#       8
#     2   2   1   2   2   2   2   1
#     4   9  18  36  58  86 125 179 212 263 308 352
#     4  10  24  41  67  96 127 163 209 265 321 382
#     4  10  22  48  66  94 128 156 208 264 324 398
#     4   9  19  34  56  89 130 163 223 259 303 369
#     4  10  22  44  68  89 125 166 202 260 318 390
#     4  11  23  40  63  98 127 169 209 263 319 374
#     4  10  22  39  61  93 127 168 215 258 315 373
#     4   8  18  30  58  90 114 178 214 264 306 352
#
# _framework density 20.781936000000002
#
# number of rings (size 3 to 8) (size 9 to 14) (size 15 to 20)
#    0.000    2.571    1.429    0.429    2.000    6.286 
#    0.000   17.143    0.000    0.000    0.000    0.000 
#    0.000    0.000    0.000    0.000    0.000    0.000 
#
# Total GULP energy -78093.933587 kJ/mol
# GULP energy per Si atom -5578.138113 kJ/mol
# Density = 2.073464 g / cm^3
# Si number density = 20.781936 Si / 1000 Ang^3
#
#
#
# Elastic Constant Matrix: (Units=GPa)
#
#
# Indices 1 2 3 4 5 6 
#
# 1 73.1950 13.5521 29.0419 0.0000 6.8610 0.0000
# 2 13.5521 122.6964 30.1735 0.0000 4.7761 0.0000
# 3 29.0419 30.1735 101.7530 0.0000 11.2938 0.0000
# 4 0.0000 0.0000 0.0000 -2.1955 0.0000 -6.1721
# 5 6.8610 4.7761 11.2938 0.0000 47.1780 0.0000
# 6 0.0000 0.0000 0.0000 -6.1721 0.0000 19.2292
#
#
#
# Elastic Compliance Matrix: (Units=1/GPa)
#
#
# Indices 1 2 3 4 5 6 
#
# 1 0.015525 -0.000659 -0.004101 0.000000 -0.001209 0.000000
# 2 -0.000659 0.008823 -0.002404 0.000000 -0.000222 0.000000
# 3 -0.004101 -0.002404 0.011935 0.000000 -0.002017 0.000000
# 4 0.000000 0.000000 0.000000 -0.239429 0.000000 -0.076851
# 5 -0.001209 -0.000222 -0.002017 0.000000 0.021878 0.000000
# 6 0.000000 0.000000 0.000000 -0.076851 0.000000 0.027337
#
#
# Mechanical properties :
#
#
# Convention : Reuss Voigt Hill
#
# Bulk Modulus (GPa) = 45.54860 49.24215 47.39538
# Shear Modulus (GPa) = -37.79693 27.83412 -4.98141
#
# Velocity S-wave (km/s) = -4.26929 3.66367 -1.54990
# Velocity P-wave (km/s) = 1.52890 6.45312 4.43313
#
# Compressibility (1/GPa) = 0.02195457
#
# Stress axis : x y z
#
# Youngs Moduli (GPa) = 64.41297 113.34385 83.78755
#
# Poissons Ratio (x) = 0.07470 0.34364
# Poissons Ratio (y) = 0.04245 0.20138
# Poissons Ratio (z) = 0.26418 0.27242
#
# Static dielectric constant tensor:
#      x y z
#    x 1.777700 0.000000 0.010360 
#    y 0.000000 1.697160 0.000000 
#    z 0.010360 0.000000 1.761910 
# 
# From -- ./inp_files/3568.got.cif
#   From: 2010.05.17/outbox.cif.g08.bks.cpg/sg3_2_cif.got.tgz:3568.got - 2010.06.03 18:33:08.
