data_PCOD9113316
_publ_section_title
;
Structure prediction by ZEFSAII (Michael W. Deem and Ramdas Pophale) SiO2 
 PCOD9113316
Probable space group: P 2
;
_chemical_formula_sum "Si O2"
_cell_formula_units_Z 14
_cell_length_a 5.277249
_cell_length_b 8.517824
_cell_length_c 16.511092
_cell_angle_alpha 90.000000
_cell_angle_beta 71.318647
_cell_angle_gamma 90.000000
_cell_volume 703.082460
_symmetry_space_group_name_H-M "P 2"
_symmetry_group_IT_number 3
_symmetry_cell_setting 'monoclinic'
loop_
_space_group_symop_operation_xyz
x,y,z
-x,y,-z
loop_
_atom_site_type_symbol
_atom_site_label
_atom_site_fract_x
_atom_site_fract_y
_atom_site_fract_z
Si Si1 0.308762 0.560260 0.441397
Si Si2 0.796958 0.226809 0.595887
Si Si3 0.790198 0.960840 0.222363
Si Si4 0.488718 0.893885 0.404134
Si Si5 0.899996 0.665439 0.099479
Si Si6 0.732626 0.161345 0.777728
Si Si7 0.598156 0.457125 0.900518
O O1 0.500000 0.554422 0.500000
O O2 0.357655 0.393973 0.391733
O O3 0.359694 0.726523 0.391713
O O4 0.000000 0.566226 0.500000
O O5 0.887747 0.212878 0.679414
O O6 0.000000 0.237690 0.500000
O O7 0.655608 0.060126 0.595059
O O8 0.746916 0.908598 0.320646
O O9 0.824066 0.810819 0.162824
O O10 0.531218 0.062111 0.220890
O O11 0.060079 0.060063 0.192170
O O12 0.500000 0.883309 0.500000
O O13 0.638845 0.560633 0.112228
O O14 0.136907 0.561886 0.114110
O O15 0.000000 0.717155 0.000000
O O16 0.650781 0.311630 0.837213
O O17 0.500000 0.405452 0.000000
#
# Coordination Sequence:
#
# PCOD9113316 Si02
#       7
#     2   2   2   2   2   2   2
#     4  10  22  38  58  88 114 160 220 256 306 368
#     4  10  21  39  61  86 127 166 209 256 312 362
#     4  11  24  40  62  94 124 163 210 254 314 368
#     4  10  21  39  61  86 127 166 209 256 312 362
#     4  10  22  42  66  92 124 163 202 252 318 376
#     4  11  24  40  62  94 124 163 210 254 314 368
#     4  10  22  42  66  92 124 163 202 252 318 376
#
# _framework density 19.912317999999999
#
# number of rings (size 3 to 8) (size 9 to 14) (size 15 to 20)
#    0.000    1.714    0.000    3.429    2.000    8.000 
#   10.286    0.000    0.000    0.000    0.000    0.000 
#    0.000    0.000    0.000    0.000    0.000    0.000 
#
# Total GULP energy -78071.503666 kJ/mol
# GULP energy per Si atom -5576.535976 kJ/mol
# Density = 1.986700 g / cm^3
# Si number density = 19.912318 Si / 1000 Ang^3
#
#
#
# Elastic Constant Matrix: (Units=GPa)
#
#
# Indices 1 2 3 4 5 6 
#
# 1 108.4144 29.4996 39.3787 0.0000 5.6647 0.0000
# 2 29.4996 155.9436 77.0062 0.0000 2.3748 0.0000
# 3 39.3787 77.0062 131.7216 0.0000 2.2948 0.0000
# 4 0.0000 0.0000 0.0000 -15.7631 0.0000 1.0370
# 5 5.6647 2.3748 2.2948 0.0000 15.8344 0.0000
# 6 0.0000 0.0000 0.0000 1.0370 0.0000 23.9362
#
#
#
# Elastic Compliance Matrix: (Units=1/GPa)
#
#
# Indices 1 2 3 4 5 6 
#
# 1 0.010556 -0.000586 -0.002756 0.000000 -0.003289 0.000000
# 2 -0.000586 0.009053 -0.005110 0.000000 -0.000408 0.000000
# 3 -0.002756 -0.005110 0.011402 0.000000 0.000100 0.000000
# 4 0.000000 0.000000 0.000000 -0.063259 0.000000 0.002741
# 5 -0.003289 -0.000408 0.000100 0.000000 0.064377 0.000000
# 6 0.000000 0.000000 0.000000 0.002741 0.000000 0.041659
#
#
# Mechanical properties :
#
#
# Convention : Reuss Voigt Hill
#
# Bulk Modulus (GPa) = 70.88969 76.42760 73.65865
# Shear Modulus (GPa) = 52.41403 21.48117 36.94760
#
# Velocity S-wave (km/s) = 5.13610 3.28805 4.31224
# Velocity P-wave (km/s) = 8.41730 7.27190 7.86548
#
# Compressibility (1/GPa) = 0.01410642
#
# Stress axis : x y z
#
# Youngs Moduli (GPa) = 94.73112 110.45899 87.70767
#
# Poissons Ratio (x) = 0.06472 0.24172
# Poissons Ratio (y) = 0.05550 0.44822
# Poissons Ratio (z) = 0.26108 0.56448
#
# Static dielectric constant tensor:
#      x y z
#    x 1.725800 0.000000 -0.000150 
#    y 0.000000 1.744440 0.000000 
#    z -0.000150 0.000000 1.722120 
# 
# From -- ./inp_files/12940.got.cif
#   From: 2010.05.17/outbox.cif.g08.bks.cpg/sg3_7_cif.got.tgz:12940.got - 2010.06.03 18:33:08.
