data_PCOD9113610
_publ_section_title
;
Structure prediction by ZEFSAII (Michael W. Deem and Ramdas Pophale) SiO2 
 PCOD9113610
Probable space group: P 2
;
_chemical_formula_sum "Si O2"
_cell_formula_units_Z 12
_cell_length_a 15.724586
_cell_length_b 6.217670
_cell_length_c 8.738107
_cell_angle_alpha 90.000000
_cell_angle_beta 39.932762
_cell_angle_gamma 90.000000
_cell_volume 548.382561
_symmetry_space_group_name_H-M "P 2"
_symmetry_group_IT_number 3
_symmetry_cell_setting 'monoclinic'
loop_
_space_group_symop_operation_xyz
x,y,z
-x,y,-z
loop_
_atom_site_type_symbol
_atom_site_label
_atom_site_fract_x
_atom_site_fract_y
_atom_site_fract_z
Si Si1 0.498814 0.081730 0.671673
Si Si2 0.142237 0.716416 0.574818
Si Si3 0.738609 0.412787 0.006447
Si Si4 0.000000 0.034217 0.000000
Si Si5 0.236955 0.365291 0.691274
Si Si6 0.608570 0.742141 0.953152
Si Si7 0.000000 0.462902 0.500000
O O1 0.500000 0.976066 0.500000
O O2 0.368109 0.226197 0.845441
O O3 0.626168 0.234877 0.520572
O O4 0.476173 0.918448 0.840149
O O5 0.196878 0.528507 0.612180
O O6 0.271240 0.823534 0.318854
O O7 0.056598 0.607302 0.559533
O O8 0.053618 0.882132 0.791328
O O9 0.754935 0.489467 0.158276
O O10 0.679128 0.596033 0.981310
O O11 0.876815 0.337188 0.742064
O O12 0.878133 0.189212 0.127094
O O13 0.500000 0.618778 0.000000
#
# Coordination Sequence:
#
# PCOD9113610 Si02
#       7
#     2   2   2   1   2   2   1
#     4  10  24  42  65  97 130 172 221 269 324 390
#     4  11  25  43  66  97 133 173 218 275 332 390
#     4  10  23  42  65  91 130 173 215 274 328 384
#     4  12  24  42  70  96 130 176 224 272 328 398
#     4  11  24  44  68  98 131 173 226 274 325 391
#     4  11  24  41  65  96 130 170 217 267 330 394
#     4  10  22  40  62  94 130 168 214 268 330 386
#
# _framework density 21.882536999999999
#
# number of rings (size 3 to 8) (size 9 to 14) (size 15 to 20)
#    0.000    1.333    0.000    4.500    0.000   18.667 
#    0.000    1.667    0.000    0.000    0.000    0.000 
#    0.000    0.000    0.000    0.000    0.000    0.000 
#
# Total GULP energy -67099.401267 kJ/mol
# GULP energy per Si atom -5591.616772 kJ/mol
# Density = 2.183273 g / cm^3
# Si number density = 21.882537 Si / 1000 Ang^3
#
#
#
# Elastic Constant Matrix: (Units=GPa)
#
#
# Indices 1 2 3 4 5 6 
#
# 1 154.7298 36.2744 64.1833 0.0000 7.1278 0.0000
# 2 36.2744 43.3260 46.1646 0.0000 10.0941 0.0000
# 3 64.1833 46.1646 182.1110 0.0000 -6.9770 0.0000
# 4 0.0000 0.0000 0.0000 45.6877 0.0000 4.4542
# 5 7.1278 10.0941 -6.9770 0.0000 43.0251 0.0000
# 6 0.0000 0.0000 0.0000 4.4542 0.0000 20.3307
#
#
#
# Elastic Compliance Matrix: (Units=1/GPa)
#
#
# Indices 1 2 3 4 5 6 
#
# 1 0.008379 -0.005130 -0.001670 0.000000 -0.000456 0.000000
# 2 -0.005130 0.038436 -0.008300 0.000000 -0.009514 0.000000
# 3 -0.001670 -0.008300 0.008321 0.000000 0.003573 0.000000
# 4 0.000000 0.000000 0.000000 0.022365 0.000000 -0.004900
# 5 -0.000456 -0.009514 0.003573 0.000000 0.026129 0.000000
# 6 0.000000 0.000000 0.000000 -0.004900 0.000000 0.050260
#
#
# Mechanical properties :
#
#
# Convention : Reuss Voigt Hill
#
# Bulk Modulus (GPa) = 40.10262 74.82351 57.46307
# Shear Modulus (GPa) = 25.98721 37.37835 31.68278
#
# Velocity S-wave (km/s) = 3.44986 4.13744 3.80920
# Velocity P-wave (km/s) = 5.85105 7.55593 6.75747
#
# Compressibility (1/GPa) = 0.02493603
#
# Stress axis : x y z
#
# Youngs Moduli (GPa) = 119.34170 26.01746 120.18152
#
# Poissons Ratio (x) = 0.13346 0.20074
# Poissons Ratio (y) = 0.61218 0.99750
# Poissons Ratio (z) = 0.19934 0.21594
#
# Static dielectric constant tensor:
#      x y z
#    x 1.823440 0.000000 0.020730 
#    y 0.000000 1.770140 0.000000 
#    z 0.020730 0.000000 1.825220 
# 
# From -- ./inp_files/8154.got.cif
#   From: 2010.05.17/outbox.cif.g08.bks.cpg/sg3_5_cif.got.tgz:8154.got - 2010.06.03 18:33:08.
