data_PCOD9113355
_publ_section_title
;
Structure prediction by ZEFSAII (Michael W. Deem and Ramdas Pophale) SiO2 
 PCOD9113355
Probable space group: P 2
;
_chemical_formula_sum "Si O2"
_cell_formula_units_Z 16
_cell_length_a 9.055377
_cell_length_b 9.205512
_cell_length_c 11.119735
_cell_angle_alpha 90.000000
_cell_angle_beta 59.313805
_cell_angle_gamma 90.000000
_cell_volume 797.140507
_symmetry_space_group_name_H-M "P 2"
_symmetry_group_IT_number 3
_symmetry_cell_setting 'monoclinic'
loop_
_space_group_symop_operation_xyz
x,y,z
-x,y,-z
loop_
_atom_site_type_symbol
_atom_site_label
_atom_site_fract_x
_atom_site_fract_y
_atom_site_fract_z
Si Si1 0.497048 0.324720 0.192660
Si Si2 0.135532 0.723931 0.354488
Si Si3 0.940139 0.547405 0.845162
Si Si4 0.466242 0.809074 0.373952
Si Si5 0.992605 0.051202 0.643152
Si Si6 0.767604 0.258749 0.895211
Si Si7 0.723260 0.600813 0.169616
Si Si8 0.368895 0.136436 0.459006
O O1 0.361260 0.342908 0.141606
O O2 0.586762 0.469555 0.207311
O O3 0.386071 0.241955 0.338900
O O4 0.653057 0.233882 0.062821
O O5 0.142488 0.623519 0.235749
O O6 0.302215 0.749981 0.367658
O O7 0.000000 0.651798 0.500000
O O8 0.055956 0.880571 0.346016
O O9 0.915113 0.374637 0.860247
O O10 0.141284 0.576952 0.779179
O O11 0.834557 0.605682 0.002878
O O12 0.500000 0.764026 0.500000
O O13 0.626618 0.749509 0.234382
O O14 0.442240 0.981135 0.386188
O O15 0.187195 0.095339 0.596195
O O16 0.000000 0.101591 0.500000
O O17 0.853652 0.126436 0.787422
O O18 0.500000 0.200612 0.500000
#
# Coordination Sequence:
#
# PCOD9113355 Si02
#       8
#     2   2   2   2   2   2   2   2
#     4  10  21  41  61  92 120 159 202 248 304 353
#     4  11  21  39  63  88 119 158 201 244 299 360
#     4  10  23  41  61  88 120 162 202 250 299 355
#     4  11  22  39  62  89 122 157 196 249 301 355
#     4  11  21  41  61  92 122 156 200 250 298 363
#     4  10  21  39  66  87 121 158 203 252 295 362
#     4  10  23  41  60  87 125 156 203 252 298 357
#     4  11  24  40  62  90 125 158 195 249 307 361
#
# _framework density 20.071743999999999
#
# number of rings (size 3 to 8) (size 9 to 14) (size 15 to 20)
#    0.000    1.500    3.750    1.500    3.500    3.500 
#    2.250    0.000    0.000    0.000    0.000    0.000 
#    0.000    0.000    0.000    0.000    0.000    0.000 
#
# Total GULP energy -89131.705062 kJ/mol
# GULP energy per Si atom -5570.731566 kJ/mol
# Density = 2.002606 g / cm^3
# Si number density = 20.071744 Si / 1000 Ang^3
#
#
#
# Elastic Constant Matrix: (Units=GPa)
#
#
# Indices 1 2 3 4 5 6 
#
# 1 71.6362 -6.1532 -4.4132 0.0000 -3.2630 0.0000
# 2 -6.1532 27.3567 24.4671 0.0000 -10.7322 0.0000
# 3 -4.4132 24.4671 46.7440 0.0000 -0.2118 0.0000
# 4 0.0000 0.0000 0.0000 24.1982 0.0000 -4.2480
# 5 -3.2630 -10.7322 -0.2118 0.0000 34.5059 0.0000
# 6 0.0000 0.0000 0.0000 -4.2480 0.0000 12.1618
#
#
#
# Elastic Compliance Matrix: (Units=1/GPa)
#
#
# Indices 1 2 3 4 5 6 
#
# 1 0.014531 0.006252 -0.001886 0.000000 0.003307 0.000000
# 2 0.006252 0.091339 -0.047089 0.000000 0.028711 0.000000
# 3 -0.001886 -0.047089 0.045797 0.000000 -0.014543 0.000000
# 4 0.000000 0.000000 0.000000 0.044025 0.000000 0.015378
# 5 0.003307 0.028711 -0.014543 0.000000 0.038134 0.000000
# 6 0.000000 0.000000 0.000000 0.015378 0.000000 0.087596
#
#
# Mechanical properties :
#
#
# Convention : Reuss Voigt Hill
#
# Bulk Modulus (GPa) = 15.10071 19.28204 17.19137
# Shear Modulus (GPa) = 11.65667 22.96227 17.30947
#
# Velocity S-wave (km/s) = 2.41249 3.38599 2.93982
# Velocity P-wave (km/s) = 3.91150 4.99139 4.48407
#
# Compressibility (1/GPa) = 0.06622204
#
# Stress axis : x y z
#
# Youngs Moduli (GPa) = 68.81875 10.94828 21.83570
#
# Poissons Ratio (x) = -0.06845 0.04118
# Poissons Ratio (y) = -0.43028 1.02821
# Poissons Ratio (z) = 0.12977 0.51554
#
# Static dielectric constant tensor:
#      x y z
#    x 1.820750 0.000000 0.014480 
#    y 0.000000 1.677100 0.000000 
#    z 0.014480 0.000000 1.735130 
# 
# From -- ./inp_files/10733.got.cif
#   From: 2010.05.17/outbox.cif.g08.bks.cpg/sg3_6_cif.got.tgz:10733.got - 2010.06.03 18:33:08.
