data_PCOD9113743
_publ_section_title
;
Structure prediction by ZEFSAII (Michael W. Deem and Ramdas Pophale) SiO2 
 PCOD9113743
Probable space group: P 2
;
_chemical_formula_sum "Si O2"
_cell_formula_units_Z 12
_cell_length_a 20.631075
_cell_length_b 4.904539
_cell_length_c 8.253743
_cell_angle_alpha 90.000000
_cell_angle_beta 32.482679
_cell_angle_gamma 90.000000
_cell_volume 448.519534
_symmetry_space_group_name_H-M "P 2"
_symmetry_group_IT_number 3
_symmetry_cell_setting 'monoclinic'
loop_
_space_group_symop_operation_xyz
x,y,z
-x,y,-z
loop_
_atom_site_type_symbol
_atom_site_label
_atom_site_fract_x
_atom_site_fract_y
_atom_site_fract_z
Si Si1 0.918911 0.831900 0.333460
Si Si2 0.753435 0.164201 0.085650
Si Si3 0.500000 0.006109 0.500000
Si Si4 0.752891 0.632609 0.278140
Si Si5 0.000000 0.925443 0.500000
Si Si6 0.233190 0.363708 0.412077
Si Si7 0.484723 0.642032 0.852508
O O1 0.845450 0.560531 0.534188
O O2 0.014728 0.847619 0.278430
O O3 0.817653 0.062874 0.505039
O O4 0.000000 0.828674 0.000000
O O5 0.625700 0.162588 0.263950
O O6 0.738273 0.950873 0.269593
O O7 0.804304 0.459884 0.022543
O O8 0.865595 0.043357 0.751750
O O9 0.474158 0.828442 0.716169
O O10 0.799194 0.503516 0.346117
O O11 0.615468 0.509983 0.560861
O O12 0.374157 0.430345 0.091433
O O13 0.500000 0.780377 0.000000
#
# Coordination Sequence:
#
# PCOD9113743 Si02
#       7
#     2   2   1   2   1   2   2
#     4  12  27  45  68  96 135 180 224 277 337 400
#     4  11  25  43  69 100 137 178 224 279 335 399
#     4  10  22  44  70  98 136 180 224 274 340 400
#     4  10  22  43  69 100 137 176 221 278 338 396
#     4  12  28  46  70 104 138 176 228 280 334 398
#     4  11  23  44  69  98 134 177 227 277 335 402
#     4   9  21  40  68 101 133 173 225 280 334 398
#
# _framework density 26.754687000000001
#
# number of rings (size 3 to 8) (size 9 to 14) (size 15 to 20)
#    0.000    1.333    0.000    4.500    0.000   13.333 
#    0.000    9.167    0.000    0.000    0.000    0.000 
#    0.000    0.000    0.000    0.000    0.000    0.000 
#
# Total GULP energy -66930.008556 kJ/mol
# GULP energy per Si atom -5577.500713 kJ/mol
# Density = 2.669379 g / cm^3
# Si number density = 26.754687 Si / 1000 Ang^3
#
#
#
# Elastic Constant Matrix: (Units=GPa)
#
#
# Indices 1 2 3 4 5 6 
#
# 1 177.6741 24.2385 28.0596 0.0000 19.1250 0.0000
# 2 24.2385 108.4320 17.1588 0.0000 7.2474 0.0000
# 3 28.0596 17.1588 51.5056 0.0000 -27.1808 0.0000
# 4 0.0000 0.0000 0.0000 -18.8354 0.0000 22.1064
# 5 19.1250 7.2474 -27.1808 0.0000 61.3876 0.0000
# 6 0.0000 0.0000 0.0000 22.1064 0.0000 7.6713
#
#
#
# Elastic Compliance Matrix: (Units=1/GPa)
#
#
# Indices 1 2 3 4 5 6 
#
# 1 0.007256 -0.000234 -0.006594 0.000000 -0.005153 0.000000
# 2 -0.000234 0.010310 -0.005103 0.000000 -0.003404 0.000000
# 3 -0.006594 -0.005103 0.034071 0.000000 0.017743 0.000000
# 4 0.000000 0.000000 0.000000 -0.012115 0.000000 0.034913
# 5 -0.005153 -0.003404 0.017743 0.000000 0.026153 0.000000
# 6 0.000000 0.000000 0.000000 0.034913 0.000000 0.029747
#
#
# Mechanical properties :
#
#
# Convention : Reuss Voigt Hill
#
# Bulk Modulus (GPa) = 36.00544 52.94731 44.47637
# Shear Modulus (GPa) = 38.89704 27.92168 33.40936
#
# Velocity S-wave (km/s) = 3.81706 3.23401 3.53757
# Velocity P-wave (km/s) = 5.73703 5.81188 5.77458
#
# Compressibility (1/GPa) = 0.02777358
#
# Stress axis : x y z
#
# Youngs Moduli (GPa) = 137.81079 96.99504 29.35005
#
# Poissons Ratio (x) = 0.02271 0.19355
# Poissons Ratio (y) = 0.03226 0.14979
# Poissons Ratio (z) = 0.90879 0.49501
#
# Static dielectric constant tensor:
#      x y z
#    x 2.384020 0.000000 0.224020 
#    y 0.000000 2.098860 0.000000 
#    z 0.224020 0.000000 2.279860 
# 
# From -- ./inp_files/9226.got.cif
#   From: 2010.05.17/outbox.cif.g08.bks.cpg/sg3_5_cif.got.tgz:9226.got - 2010.06.03 18:33:08.
