data_PCOD9113593
_publ_section_title
;
Structure prediction by ZEFSAII (Michael W. Deem and Ramdas Pophale) SiO2 
 PCOD9113593
Probable space group: P 2
;
_chemical_formula_sum "Si O2"
_cell_formula_units_Z 11
_cell_length_a 12.643499
_cell_length_b 5.060723
_cell_length_c 16.891724
_cell_angle_alpha 90.000000
_cell_angle_beta 23.521982
_cell_angle_gamma 90.000000
_cell_volume 431.356657
_symmetry_space_group_name_H-M "P 2"
_symmetry_group_IT_number 3
_symmetry_cell_setting 'monoclinic'
loop_
_space_group_symop_operation_xyz
x,y,z
-x,y,-z
loop_
_atom_site_type_symbol
_atom_site_label
_atom_site_fract_x
_atom_site_fract_y
_atom_site_fract_z
Si Si1 0.788042 0.254050 0.333286
Si Si2 0.930566 0.748672 0.332821
Si Si3 0.000000 0.989839 0.500000
Si Si4 0.456605 0.697098 0.893406
Si Si5 0.187188 0.035918 0.939089
Si Si6 0.330101 0.354468 0.372803
O O1 0.500000 0.186345 0.500000
O O2 0.807690 0.550451 0.351394
O O3 0.874725 0.045082 0.341809
O O4 0.989752 0.222031 0.122925
O O5 0.788503 0.620431 0.507022
O O6 0.247253 0.703094 0.108018
O O7 0.091928 0.167340 0.510781
O O8 0.257440 0.830616 0.294091
O O9 0.529125 0.412113 0.808587
O O10 0.307217 0.835172 0.921040
O O11 0.437179 0.210081 0.738177
O O12 0.000000 0.912513 0.000000
#
# Coordination Sequence:
#
# PCOD9113593 Si02
#       6
#     2   2   1   2   2   2
#     4  11  23  42  65 106 146 187 233 283 337 426
#     4  11  25  43  71 100 144 181 233 290 348 416
#     4  10  24  46  74  96 138 182 242 300 362 406
#     4  10  23  46  66 101 139 177 236 294 342 427
#     4  10  22  39  68 102 144 185 227 280 348 416
#     4  11  23  44  71  98 136 184 233 289 353 419
#
# _framework density 25.500938000000001
#
# number of rings (size 3 to 8) (size 9 to 14) (size 15 to 20)
#    0.000    1.455    1.818    2.182    7.636    0.727 
#    0.000    5.455    0.000    0.000    0.000    0.000 
#    0.000    0.000    0.000    0.000    0.000    0.000 
#
# Total GULP energy -61558.766311 kJ/mol
# GULP energy per Si atom -5596.251483 kJ/mol
# Density = 2.544290 g / cm^3
# Si number density = 25.500938 Si / 1000 Ang^3
#
#
#
# Elastic Constant Matrix: (Units=GPa)
#
#
# Indices 1 2 3 4 5 6 
#
# 1 88.9108 9.5689 45.5724 0.0000 -18.2125 0.0000
# 2 9.5689 52.1089 10.2294 0.0000 -13.9347 0.0000
# 3 45.5724 10.2294 191.3400 0.0000 -8.8438 0.0000
# 4 0.0000 0.0000 0.0000 41.2727 0.0000 -2.5960
# 5 -18.2125 -13.9347 -8.8438 0.0000 53.7109 0.0000
# 6 0.0000 0.0000 0.0000 -2.5960 0.0000 33.5343
#
#
#
# Elastic Compliance Matrix: (Units=1/GPa)
#
#
# Indices 1 2 3 4 5 6 
#
# 1 0.013700 -0.000872 -0.003035 0.000000 0.003919 0.000000
# 2 -0.000872 0.020819 -0.000675 0.000000 0.004995 0.000000
# 3 -0.003035 -0.000675 0.005975 0.000000 -0.000220 0.000000
# 4 0.000000 0.000000 0.000000 0.024348 0.000000 0.001885
# 5 0.003919 0.004995 -0.000220 0.000000 0.021207 0.000000
# 6 0.000000 0.000000 0.000000 0.001885 0.000000 0.029966
#
#
# Mechanical properties :
#
#
# Convention : Reuss Voigt Hill
#
# Bulk Modulus (GPa) = 31.91776 51.45566 41.68671
# Shear Modulus (GPa) = 36.86766 43.50285 40.18525
#
# Velocity S-wave (km/s) = 3.80641 4.13477 3.97398
# Velocity P-wave (km/s) = 5.64463 6.55873 6.11877
#
# Compressibility (1/GPa) = 0.03133052
#
# Stress axis : x y z
#
# Youngs Moduli (GPa) = 72.99483 48.03374 167.36208
#
# Poissons Ratio (x) = 0.04187 0.50797
# Poissons Ratio (y) = 0.06363 0.11289
# Poissons Ratio (z) = 0.22155 0.03240
#
# Static dielectric constant tensor:
#      x y z
#    x 2.073810 0.000000 0.051350 
#    y 0.000000 1.993520 0.000000 
#    z 0.051350 0.000000 2.008390 
# 
# From -- ./inp_files/15945.got.cif
#   From: 2010.05.17/outbox.cif.g08.bks.cpg/sg3_8_cif.got.tgz:15945.got - 2010.06.03 18:33:08.
