data_PCOD9113909
_publ_section_title
;
Structure prediction by ZEFSAII (Michael W. Deem and Ramdas Pophale) SiO2 
 PCOD9113909
Probable space group: P 2
;
_chemical_formula_sum "Si O2"
_cell_formula_units_Z 15
_cell_length_a 14.728060
_cell_length_b 7.997893
_cell_length_c 16.807205
_cell_angle_alpha 90.000000
_cell_angle_beta 19.460054
_cell_angle_gamma 90.000000
_cell_volume 659.562416
_symmetry_space_group_name_H-M "P 2"
_symmetry_group_IT_number 3
_symmetry_cell_setting 'monoclinic'
loop_
_space_group_symop_operation_xyz
x,y,z
-x,y,-z
loop_
_atom_site_type_symbol
_atom_site_label
_atom_site_fract_x
_atom_site_fract_y
_atom_site_fract_z
Si Si1 0.790019 0.650500 0.239939
Si Si2 0.500000 0.976835 0.500000
Si Si3 0.264389 0.423100 0.455553
Si Si4 0.778675 0.981354 0.861577
Si Si5 0.204778 0.500252 0.997981
Si Si6 0.271570 0.590087 0.124294
Si Si7 0.934272 0.180599 0.241058
Si Si8 0.777231 0.141778 0.626013
O O1 0.500000 0.563990 0.500000
O O2 0.700829 0.840257 0.292444
O O3 0.970625 0.630962 0.170187
O O4 0.000000 0.585390 0.000000
O O5 0.689617 0.091732 0.397813
O O6 0.166353 0.315581 0.610937
O O7 0.028106 0.524212 0.606610
O O8 0.355543 0.278812 0.320084
O O9 0.509381 0.540329 0.280350
O O10 0.731677 0.787596 0.884970
O O11 0.017028 0.034955 0.601482
O O12 0.470658 0.059058 0.119654
O O13 0.899103 0.041007 0.847383
O O14 0.291178 0.517028 0.018966
O O15 0.114942 0.314454 0.042600
O O16 0.500000 0.540796 0.000000
O O17 0.000000 0.221430 0.500000
#
# Coordination Sequence:
#
# PCOD9113909 Si02
#       8
#     2   1   2   2   2   2   2   2
#     4  10  26  46  72 104 140 184 232 294 366 435
#     4  10  24  44  72 104 138 176 240 288 368 426
#     4  10  25  41  67 100 142 186 238 296 359 428
#     4  11  24  46  66 100 138 183 232 298 355 420
#     4  11  24  44  69 100 144 188 237 299 365 433
#     4  11  26  43  69 103 145 192 250 300 371 432
#     4  10  23  44  69 101 135 186 232 297 352 435
#     4  11  23  42  69  93 137 180 237 285 351 416
#
# _framework density 22.742352
#
# number of rings (size 3 to 8) (size 9 to 14) (size 15 to 20)
#    0.400    1.067    1.333    2.000    8.400    1.067 
#    2.400    0.000    0.000    0.000    0.000    0.000 
#    0.000    0.000    0.000    0.000    0.000    0.000 
#
# Total GULP energy -83505.266652 kJ/mol
# GULP energy per Si atom -5567.017777 kJ/mol
# Density = 2.269059 g / cm^3
# Si number density = 22.742352 Si / 1000 Ang^3
#
#
#
# Elastic Constant Matrix: (Units=GPa)
#
#
# Indices 1 2 3 4 5 6 
#
# 1 81.7867 9.4293 49.1118 0.0000 -33.6202 0.0000
# 2 9.4293 50.1938 42.7922 0.0000 -8.9454 0.0000
# 3 49.1118 42.7922 165.5437 0.0000 -25.1439 0.0000
# 4 0.0000 0.0000 0.0000 24.3187 0.0000 -8.7703
# 5 -33.6202 -8.9454 -25.1439 0.0000 51.4334 0.0000
# 6 0.0000 0.0000 0.0000 -8.7703 0.0000 18.7708
#
#
#
# Elastic Compliance Matrix: (Units=1/GPa)
#
#
# Indices 1 2 3 4 5 6 
#
# 1 0.019121 0.002260 -0.004643 0.000000 0.010622 0.000000
# 2 0.002260 0.025904 -0.006976 0.000000 0.002572 0.000000
# 3 -0.004643 -0.006976 0.009264 0.000000 0.000280 0.000000
# 4 0.000000 0.000000 0.000000 0.049454 0.000000 0.023106
# 5 0.010622 0.002572 0.000280 0.000000 0.026970 0.000000
# 6 0.000000 0.000000 0.000000 0.023106 0.000000 0.064070
#
#
# Mechanical properties :
#
#
# Convention : Reuss Voigt Hill
#
# Bulk Modulus (GPa) = 28.11371 55.57673 41.84522
# Shear Modulus (GPa) = 22.18688 31.98398 27.08543
#
# Velocity S-wave (km/s) = 3.12681 3.75422 3.45479
# Velocity P-wave (km/s) = 5.04228 6.57897 5.86120
#
# Compressibility (1/GPa) = 0.03556984
#
# Stress axis : x y z
#
# Youngs Moduli (GPa) = 52.29848 38.60447 107.94443
#
# Poissons Ratio (x) = -0.08723 0.50123
# Poissons Ratio (y) = -0.11818 0.75299
# Poissons Ratio (z) = 0.24284 0.26929
#
# Static dielectric constant tensor:
#      x y z
#    x 1.997600 0.000000 0.203120 
#    y 0.000000 1.821430 0.000000 
#    z 0.203120 0.000000 2.225790 
# 
# From -- ./inp_files/15350.got.cif
#   From: 2010.05.17/outbox.cif.g08.bks.cpg/sg3_8_cif.got.tgz:15350.got - 2010.06.03 18:33:08.
