data_PCOD9113343
_publ_section_title
;
Structure prediction by ZEFSAII (Michael W. Deem and Ramdas Pophale) SiO2 
 PCOD9113343
Probable space group: P 2
;
_chemical_formula_sum "Si O2"
_cell_formula_units_Z 16
_cell_length_a 9.505579
_cell_length_b 18.940392
_cell_length_c 8.152359
_cell_angle_alpha 90.000000
_cell_angle_beta 147.898311
_cell_angle_gamma 90.000000
_cell_volume 779.994665
_symmetry_space_group_name_H-M "P 2"
_symmetry_group_IT_number 3
_symmetry_cell_setting 'monoclinic'
loop_
_space_group_symop_operation_xyz
x,y,z
-x,y,-z
loop_
_atom_site_type_symbol
_atom_site_label
_atom_site_fract_x
_atom_site_fract_y
_atom_site_fract_z
Si Si1 0.746543 0.244150 0.132498
Si Si2 0.111742 0.376873 0.927888
Si Si3 0.253472 0.081759 0.868514
Si Si4 0.239881 0.842484 0.854494
Si Si5 0.898091 0.683111 0.215855
Si Si6 0.747078 0.962729 0.863973
Si Si7 0.389569 0.607697 0.573837
Si Si8 0.614302 0.453379 0.296535
O O1 0.697442 0.163235 0.031568
O O2 0.000000 0.243386 0.500000
O O3 0.801494 0.299071 0.043257
O O4 0.500000 0.268161 0.000000
O O5 0.875190 0.405981 0.578875
O O6 0.000000 0.377954 0.000000
O O7 0.371517 0.424977 0.166510
O O8 0.000000 0.079341 0.500000
O O9 0.500000 0.058082 0.000000
O O10 0.219291 0.031707 0.989736
O O11 0.000000 0.867457 0.500000
O O12 0.155746 0.766623 0.843413
O O13 0.500000 0.833214 0.000000
O O14 0.289807 0.897990 0.047180
O O15 0.132006 0.657165 0.328421
O O16 0.000000 0.667302 0.500000
O O17 0.627577 0.642641 0.911403
O O18 0.500000 0.970674 0.500000
O O19 0.000000 0.950838 0.000000
O O20 0.500000 0.598804 0.500000
O O21 0.317104 0.532314 0.579303
O O22 0.500000 0.452335 0.000000
#
# Coordination Sequence:
#
# PCOD9113343 Si02
#       8
#     2   2   2   2   2   2   2   2
#     4  10  21  39  64  90 121 163 212 253 300 368
#     4  12  24  40  62  93 127 160 202 260 318 367
#     4  10  21  41  66  90 122 169 213 251 299 369
#     4  11  23  43  67  90 123 169 212 252 300 370
#     4  11  23  42  65  91 120 161 211 254 302 369
#     4  12  25  40  63  98 133 163 203 260 313 363
#     4  12  25  42  63  92 126 160 200 258 319 370
#     4  12  25  43  65  88 121 167 212 254 302 372
#
# _framework density 20.512962000000002
#
# number of rings (size 3 to 8) (size 9 to 14) (size 15 to 20)
#    0.000    0.750    0.000    9.375    0.000    2.000 
#    0.000    1.250    0.000    0.000    0.000    0.000 
#    0.000    0.000    0.000    0.000    0.000    0.000 
#
# Total GULP energy -89596.933529 kJ/mol
# GULP energy per Si atom -5599.808346 kJ/mol
# Density = 2.046627 g / cm^3
# Si number density = 20.512962 Si / 1000 Ang^3
#
#
#
# Elastic Constant Matrix: (Units=GPa)
#
#
# Indices 1 2 3 4 5 6 
#
# 1 101.8859 61.3168 25.4944 0.0000 10.5645 0.0000
# 2 61.3168 108.1663 24.3014 0.0000 -8.1250 0.0000
# 3 25.4944 24.3014 102.5359 0.0000 11.9931 0.0000
# 4 0.0000 0.0000 0.0000 10.4768 0.0000 27.4914
# 5 10.5645 -8.1250 11.9931 0.0000 44.1055 0.0000
# 6 0.0000 0.0000 0.0000 27.4914 0.0000 20.3131
#
#
#
# Elastic Compliance Matrix: (Units=1/GPa)
#
#
# Indices 1 2 3 4 5 6 
#
# 1 0.016307 -0.009370 -0.001214 0.000000 -0.005302 0.000000
# 2 -0.009370 0.015425 -0.001984 0.000000 0.005625 0.000000
# 3 -0.001214 -0.001984 0.010879 0.000000 -0.003033 0.000000
# 4 0.000000 0.000000 0.000000 -0.037412 0.000000 0.050633
# 5 -0.005302 0.005625 -0.003033 0.000000 0.025804 0.000000
# 6 0.000000 0.000000 0.000000 0.050633 0.000000 -0.019296
#
#
# Mechanical properties :
#
#
# Convention : Reuss Voigt Hill
#
# Bulk Modulus (GPa) = 57.22004 59.42370 58.32187
# Shear Modulus (GPa) = 117.18239 28.41078 72.79658
#
# Velocity S-wave (km/s) = 7.56638 3.72562 5.96365
# Velocity P-wave (km/s) = 10.21217 6.89483 8.71284
#
# Compressibility (1/GPa) = 0.01747640
#
# Stress axis : x y z
#
# Youngs Moduli (GPa) = 61.32230 64.83065 91.91625
#
# Poissons Ratio (x) = 0.60745 0.11157
# Poissons Ratio (y) = 0.57458 0.18236
# Poissons Ratio (z) = 0.07443 0.12863
#
# Static dielectric constant tensor:
#      x y z
#    x 1.702200 0.000000 0.017400 
#    y 0.000000 1.725750 0.000000 
#    z 0.017400 0.000000 1.660970 
# 
# From -- ./inp_files/6258.got.cif
#   From: 2010.05.17/outbox.cif.g08.bks.cpg/sg3_4_cif.got.tgz:6258.got - 2010.06.03 18:33:08.
