data_PCOD9113107
_publ_section_title
;
Structure prediction by ZEFSAII (Michael W. Deem and Ramdas Pophale) SiO2 
 PCOD9113107
Probable space group: P 2
;
_chemical_formula_sum "Si O2"
_cell_formula_units_Z 14
_cell_length_a 9.466228
_cell_length_b 8.167067
_cell_length_c 18.644121
_cell_angle_alpha 90.000000
_cell_angle_beta 152.564577
_cell_angle_gamma 90.000000
_cell_volume 664.123738
_symmetry_space_group_name_H-M "P 2"
_symmetry_group_IT_number 3
_symmetry_cell_setting 'monoclinic'
loop_
_space_group_symop_operation_xyz
x,y,z
-x,y,-z
loop_
_atom_site_type_symbol
_atom_site_label
_atom_site_fract_x
_atom_site_fract_y
_atom_site_fract_z
Si Si1 0.157490 0.943650 0.813928
Si Si2 0.317440 0.224092 0.687761
Si Si3 0.831806 0.602832 0.684159
Si Si4 0.774371 0.305327 0.183237
Si Si5 0.398366 0.871778 0.768066
Si Si6 0.000000 0.624428 0.500000
Si Si7 0.000000 0.733795 0.000000
Si Si8 0.608001 0.486021 0.729974
O O1 0.213735 0.903554 0.756538
O O2 0.972207 0.785535 0.760241
O O3 0.052813 0.136136 0.765540
O O4 0.500000 0.944828 0.000000
O O5 0.308209 0.273689 0.768895
O O6 0.581719 0.323806 0.765761
O O7 0.000000 0.246908 0.500000
O O8 0.384157 0.033176 0.714190
O O9 0.500000 0.629292 0.500000
O O10 0.767820 0.493263 0.725943
O O11 0.049658 0.478985 0.738450
O O12 0.500000 0.321988 0.000000
O O13 0.216096 0.728951 0.647805
O O14 0.756915 0.832838 0.938187
O O15 0.749913 0.535393 0.436828
O O16 0.205962 0.620601 0.142319
#
# Coordination Sequence:
#
# PCOD9113107 Si02
#       8
#     2   2   2   2   2   1   1   2
#     4  10  22  43  68  90 128 176 222 263 327 402
#     4  11  22  42  69  95 130 178 219 271 329 398
#     4  12  25  41  66 101 132 173 215 281 335 390
#     4  10  25  45  69  96 132 181 226 265 333 407
#     4  10  21  40  64  93 126 170 215 266 331 384
#     4  10  20  40  62  88 126 168 214 258 314 410
#     4  10  24  38  60 100 124 164 212 274 316 388
#     4  11  24  39  64  95 132 166 218 269 334 385
#
# _framework density 21.080407000000001
#
# number of rings (size 3 to 8) (size 9 to 14) (size 15 to 20)
#    0.000    1.429    1.429    3.000    6.000    1.143 
#   10.286    0.000    0.000    0.000    0.000    0.000 
#    0.000    0.000    0.000    0.000    0.000    0.000 
#
# Total GULP energy -77951.683427 kJ/mol
# GULP energy per Si atom -5567.977388 kJ/mol
# Density = 2.103243 g / cm^3
# Si number density = 21.080407 Si / 1000 Ang^3
#
#
#
# Elastic Constant Matrix: (Units=GPa)
#
#
# Indices 1 2 3 4 5 6 
#
# 1 50.4033 4.9922 -0.8387 0.0000 -7.0807 0.0000
# 2 4.9922 89.8578 20.0509 0.0000 11.1436 0.0000
# 3 -0.8387 20.0509 88.1136 0.0000 0.7109 0.0000
# 4 0.0000 0.0000 0.0000 -15.6553 0.0000 -44.3136
# 5 -7.0807 11.1436 0.7109 0.0000 28.7395 0.0000
# 6 0.0000 0.0000 0.0000 -44.3136 0.0000 -23.2114
#
#
#
# Elastic Compliance Matrix: (Units=1/GPa)
#
#
# Indices 1 2 3 4 5 6 
#
# 1 0.020883 -0.002031 0.000613 0.000000 0.005917 0.000000
# 2 -0.002031 0.012528 -0.002828 0.000000 -0.005288 0.000000
# 3 0.000613 -0.002828 0.011991 0.000000 0.000951 0.000000
# 4 0.000000 0.000000 0.000000 0.014504 0.000000 -0.027691
# 5 0.005917 -0.005288 0.000951 0.000000 0.038280 0.000000
# 6 0.000000 0.000000 0.000000 -0.027691 0.000000 0.009783
#
#
# Mechanical properties :
#
#
# Convention : Reuss Voigt Hill
#
# Bulk Modulus (GPa) = 27.09219 30.75372 28.92296
# Shear Modulus (GPa) = 38.83116 11.58591 25.20854
#
# Velocity S-wave (km/s) = 4.29657 2.34691 3.46183
# Velocity P-wave (km/s) = 6.12321 4.68662 5.45244
#
# Compressibility (1/GPa) = 0.03691100
#
# Stress axis : x y z
#
# Youngs Moduli (GPa) = 47.88682 79.81947 83.39876
#
# Poissons Ratio (x) = 0.16210 -0.05114
# Poissons Ratio (y) = 0.09725 0.23582
# Poissons Ratio (z) = -0.02936 0.22569
#
# Static dielectric constant tensor:
#      x y z
#    x 1.845950 0.000000 -0.011600 
#    y 0.000000 1.826890 0.000000 
#    z -0.011600 0.000000 1.759090 
# 
# From -- ./inp_files/15012.got.cif
#   From: 2010.05.17/outbox.cif.g08.bks.cpg/sg3_8_cif.got.tgz:15012.got - 2010.06.03 18:33:08.
