data_PCOD9113746
_publ_section_title
;
Structure prediction by ZEFSAII (Michael W. Deem and Ramdas Pophale) SiO2 
 PCOD9113746
Probable space group: P 2
;
_chemical_formula_sum "Si O2"
_cell_formula_units_Z 15
_cell_length_a 7.810205
_cell_length_b 6.493929
_cell_length_c 19.687475
_cell_angle_alpha 90.000000
_cell_angle_beta 133.496647
_cell_angle_gamma 90.000000
_cell_volume 724.346411
_symmetry_space_group_name_H-M "P 2"
_symmetry_group_IT_number 3
_symmetry_cell_setting 'monoclinic'
loop_
_space_group_symop_operation_xyz
x,y,z
-x,y,-z
loop_
_atom_site_type_symbol
_atom_site_label
_atom_site_fract_x
_atom_site_fract_y
_atom_site_fract_z
Si Si1 0.029466 0.272170 0.210364
Si Si2 0.500000 0.823316 0.500000
Si Si3 0.434370 0.581891 0.347631
Si Si4 0.346235 0.785684 0.767582
Si Si5 0.030150 0.098615 0.360087
Si Si6 0.869009 0.473064 0.398820
Si Si7 0.253019 0.646838 0.895937
Si Si8 0.209017 0.883915 0.184309
O O1 0.195851 0.457320 0.280345
O O2 0.005452 0.150043 0.273704
O O3 0.804156 0.401563 0.123759
O O4 0.142515 0.118520 0.185514
O O5 0.508399 0.670631 0.439037
O O6 0.264930 0.962931 0.433719
O O7 0.621665 0.423297 0.367442
O O8 0.381538 0.784430 0.288450
O O9 0.227279 0.601529 0.691496
O O10 0.276674 0.740159 0.826321
O O11 0.626547 0.830729 0.835701
O O12 0.211122 0.974985 0.695457
O O13 0.022797 0.290982 0.409155
O O14 0.000000 0.576594 0.500000
O O15 0.037102 0.759073 0.876470
O O16 0.500000 0.681702 0.000000
#
# Coordination Sequence:
#
# PCOD9113746 Si02
#       8
#     2   1   2   2   2   2   2   2
#     4  11  21  42  66  95 128 179 223 278 342 413
#     4  12  24  38  66  94 138 184 240 290 334 398
#     4  10  23  39  59  88 128 177 222 281 333 400
#     4  11  23  46  68  95 140 178 222 288 348 405
#     4  12  24  39  63  96 132 181 229 283 334 399
#     4  11  25  38  61  92 133 179 229 273 333 401
#     4  11  24  44  73 102 134 174 226 286 355 420
#     4  10  22  43  69  95 130 175 224 277 347 411
#
# _framework density 20.708324999999999
#
# number of rings (size 3 to 8) (size 9 to 14) (size 15 to 20)
#    0.000    1.067    4.000    2.400    3.733    3.733 
#    0.000    0.000    0.000    0.000    0.000    0.000 
#    0.000    0.000    0.000    0.000    0.000    0.000 
#
# Total GULP energy -83559.463529 kJ/mol
# GULP energy per Si atom -5570.630902 kJ/mol
# Density = 2.066119 g / cm^3
# Si number density = 20.708325 Si / 1000 Ang^3
#
#
#
# Elastic Constant Matrix: (Units=GPa)
#
#
# Indices 1 2 3 4 5 6 
#
# 1 89.2163 20.1358 21.0169 0.0000 19.9954 0.0000
# 2 20.1358 73.7720 14.0501 0.0000 -0.8999 0.0000
# 3 21.0169 14.0501 78.0743 0.0000 14.7592 0.0000
# 4 0.0000 0.0000 0.0000 23.7578 0.0000 5.0540
# 5 19.9954 -0.8999 14.7592 0.0000 21.3771 0.0000
# 6 0.0000 0.0000 0.0000 5.0540 0.0000 34.0916
#
#
#
# Elastic Compliance Matrix: (Units=1/GPa)
#
#
# Indices 1 2 3 4 5 6 
#
# 1 0.015527 -0.004273 -0.000726 0.000000 -0.014202 0.000000
# 2 -0.004273 0.015348 -0.002863 0.000000 0.006620 0.000000
# 3 -0.000726 -0.002863 0.015427 0.000000 -0.010092 0.000000
# 4 0.000000 0.000000 0.000000 0.043462 0.000000 -0.006443
# 5 -0.014202 0.006620 -0.010092 0.000000 0.067310 0.000000
# 6 0.000000 0.000000 0.000000 -0.006443 0.000000 0.030288
#
#
# Mechanical properties :
#
#
# Convention : Reuss Voigt Hill
#
# Bulk Modulus (GPa) = 32.70383 39.05202 35.87792
# Shear Modulus (GPa) = 23.44353 28.23594 25.83973
#
# Velocity S-wave (km/s) = 3.36829 3.69658 3.53625
# Velocity P-wave (km/s) = 5.56364 6.09251 5.83407
#
# Compressibility (1/GPa) = 0.03057746
#
# Stress axis : x y z
#
# Youngs Moduli (GPa) = 64.40315 65.15666 64.82201
#
# Poissons Ratio (x) = 0.27842 0.04706
# Poissons Ratio (y) = 0.27520 0.18559
# Poissons Ratio (z) = 0.04676 0.18655
#
# Static dielectric constant tensor:
#      x y z
#    x 1.757740 0.000000 0.076490 
#    y 0.000000 1.927750 0.000000 
#    z 0.076490 0.000000 1.682290 
# 
# From -- ./inp_files/8880.got.cif
#   From: 2010.05.17/outbox.cif.g08.bks.cpg/sg3_5_cif.got.tgz:8880.got - 2010.06.03 18:33:08.
