data_PCOD9113098
_publ_section_title
;
Structure prediction by ZEFSAII (Michael W. Deem and Ramdas Pophale) SiO2 
 PCOD9113098
Probable space group: P 2
;
_chemical_formula_sum "Si O2"
_cell_formula_units_Z 13
_cell_length_a 5.602468
_cell_length_b 7.899667
_cell_length_c 13.906212
_cell_angle_alpha 90.000000
_cell_angle_beta 100.323619
_cell_angle_gamma 90.000000
_cell_volume 605.492542
_symmetry_space_group_name_H-M "P 2"
_symmetry_group_IT_number 3
_symmetry_cell_setting 'monoclinic'
loop_
_space_group_symop_operation_xyz
x,y,z
-x,y,-z
loop_
_atom_site_type_symbol
_atom_site_label
_atom_site_fract_x
_atom_site_fract_y
_atom_site_fract_z
Si Si1 0.491975 0.494140 0.773601
Si Si2 0.183341 0.639172 0.596578
Si Si3 0.653896 0.811699 0.107095
Si Si4 0.896851 0.709436 0.771229
Si Si5 0.705583 0.159046 0.225943
Si Si6 0.500000 0.904091 0.500000
Si Si7 0.251402 0.059922 0.314300
O O1 0.357245 0.504971 0.660824
O O2 0.452486 0.667341 0.830430
O O3 0.370829 0.341055 0.822283
O O4 0.773977 0.525574 0.771780
O O5 0.036636 0.706630 0.678320
O O6 0.351740 0.783638 0.562080
O O7 0.000000 0.580799 0.500000
O O8 0.932417 0.748770 0.125927
O O9 0.665769 0.998721 0.153767
O O10 0.500000 0.813635 0.000000
O O11 0.749290 0.881887 0.743588
O O12 0.492902 0.149518 0.291407
O O13 0.986470 0.144246 0.280023
O O14 0.307391 0.015303 0.428245
#
# Coordination Sequence:
#
# PCOD9113098 Si02
#       7
#     2   2   2   2   2   1   2
#     4  11  23  43  66  98 136 185 223 290 343 419
#     4  11  20  35  65  96 132 185 231 287 333 408
#     4  10  23  44  72 101 132 176 231 287 354 423
#     4  10  20  39  69  91 133 180 226 275 352 404
#     4  11  26  44  69  97 142 178 231 282 356 408
#     4  12  20  36  68  96 138 182 246 288 350 390
#     4  11  22  42  64  98 133 186 225 287 339 408
#
# _framework density 21.470123999999998
#
# number of rings (size 3 to 8) (size 9 to 14) (size 15 to 20)
#    0.000    1.231    4.615    1.846    4.308    1.231 
#    2.769    0.000    6.769    0.000    0.000    0.000 
#    0.000    0.000    0.000    0.000    0.000    0.000 
#
# Total GULP energy -72390.530359 kJ/mol
# GULP energy per Si atom -5568.502335 kJ/mol
# Density = 2.142126 g / cm^3
# Si number density = 21.470124 Si / 1000 Ang^3
#
#
#
# Elastic Constant Matrix: (Units=GPa)
#
#
# Indices 1 2 3 4 5 6 
#
# 1 101.2590 50.6966 34.6069 0.0000 22.4774 0.0000
# 2 50.6966 118.8286 43.8958 0.0000 15.2160 0.0000
# 3 34.6069 43.8958 136.3556 0.0000 38.7630 0.0000
# 4 0.0000 0.0000 0.0000 10.3996 0.0000 3.3958
# 5 22.4774 15.2160 38.7630 0.0000 25.7957 0.0000
# 6 0.0000 0.0000 0.0000 3.3958 0.0000 21.5319
#
#
#
# Elastic Compliance Matrix: (Units=1/GPa)
#
#
# Indices 1 2 3 4 5 6 
#
# 1 0.014626 -0.005224 0.001251 0.000000 -0.011543 0.000000
# 2 -0.005224 0.011464 -0.003031 0.000000 0.002345 0.000000
# 3 0.001251 -0.003031 0.013606 0.000000 -0.019748 0.000000
# 4 0.000000 0.000000 0.000000 0.101378 0.000000 -0.015989
# 5 -0.011543 0.002345 -0.019748 0.000000 0.077116 0.000000
# 6 0.000000 0.000000 0.000000 -0.015989 0.000000 0.048964
#
#
# Mechanical properties :
#
#
# Convention : Reuss Voigt Hill
#
# Bulk Modulus (GPa) = 38.92972 68.31575 53.62273
# Shear Modulus (GPa) = 17.25779 26.69503 21.97641
#
# Velocity S-wave (km/s) = 2.83822 3.52995 3.20282
# Velocity P-wave (km/s) = 5.37699 6.96435 6.22150
#
# Compressibility (1/GPa) = 0.02568732
#
# Stress axis : x y z
#
# Youngs Moduli (GPa) = 68.37219 87.23195 73.49789
#
# Poissons Ratio (x) = 0.45570 -0.09195
# Poissons Ratio (y) = 0.35718 0.22278
# Poissons Ratio (z) = -0.08554 0.26441
#
# Static dielectric constant tensor:
#      x y z
#    x 2.067410 0.000000 0.049770 
#    y 0.000000 1.918080 0.000000 
#    z 0.049770 0.000000 1.741310 
# 
# From -- ./inp_files/12962.got.cif
#   From: 2010.05.17/outbox.cif.g08.bks.cpg/sg3_7_cif.got.tgz:12962.got - 2010.06.03 18:33:08.
