data_PCOD9113429
_publ_section_title
;
Structure prediction by ZEFSAII (Michael W. Deem and Ramdas Pophale) SiO2 
 PCOD9113429
Probable space group: P 2
;
_chemical_formula_sum "Si O2"
_cell_formula_units_Z 14
_cell_length_a 22.014039
_cell_length_b 5.187213
_cell_length_c 15.642679
_cell_angle_alpha 90.000000
_cell_angle_beta 19.899589
_cell_angle_gamma 90.000000
_cell_volume 607.994710
_symmetry_space_group_name_H-M "P 2"
_symmetry_group_IT_number 3
_symmetry_cell_setting 'monoclinic'
loop_
_space_group_symop_operation_xyz
x,y,z
-x,y,-z
loop_
_atom_site_type_symbol
_atom_site_label
_atom_site_fract_x
_atom_site_fract_y
_atom_site_fract_z
Si Si1 0.139714 0.584080 0.684707
Si Si2 0.525889 0.709311 0.192606
Si Si3 0.391747 0.189298 0.016576
Si Si4 0.901342 0.007505 0.930022
Si Si5 0.773967 0.211250 0.586946
Si Si6 0.825060 0.182709 0.202122
Si Si7 0.527141 0.849876 0.369800
O O1 0.314199 0.769765 0.462516
O O2 0.182148 0.438876 0.538717
O O3 0.171428 0.405414 0.729236
O O4 0.963465 0.754979 0.900966
O O5 0.552278 0.660767 0.257994
O O6 0.575499 0.452858 0.076867
O O7 0.637660 0.950835 0.008475
O O8 0.252521 0.245640 0.276917
O O9 0.580464 0.117975 0.811678
O O10 0.712238 0.996788 0.135630
O O11 0.057736 0.033920 0.654928
O O12 0.881373 0.232472 0.028417
O O13 0.638477 0.035612 0.436633
O O14 0.000000 0.021276 0.000000
O O15 0.500000 0.731712 0.500000
#
# Coordination Sequence:
#
# PCOD9113429 Si02
#       7
#     2   2   2   2   2   2   2
#     4  11  23  42  72 103 137 187 245 304 357 440
#     4  11  22  45  69 103 138 187 239 299 352 440
#     4  10  23  39  76 101 138 179 247 300 354 419
#     4  11  23  45  67  99 149 184 239 298 377 428
#     4  10  21  41  66 106 134 179 234 303 357 424
#     4  11  22  43  68 104 133 190 240 296 352 443
#     4  10  24  45  69 101 144 191 230 298 370 443
#
# _framework density 23.026516999999998
#
# number of rings (size 3 to 8) (size 9 to 14) (size 15 to 20)
#    0.000    1.429    2.857    2.571    2.000    4.000 
#    5.143    3.571    0.000    0.000    0.000    0.000 
#    0.000    0.000    0.000    0.000    0.000    0.000 
#
# Total GULP energy -77965.317438 kJ/mol
# GULP energy per Si atom -5568.951246 kJ/mol
# Density = 2.297411 g / cm^3
# Si number density = 23.026517 Si / 1000 Ang^3
#
#
#
# Elastic Constant Matrix: (Units=GPa)
#
#
# Indices 1 2 3 4 5 6 
#
# 1 145.0001 51.3493 81.5246 0.0000 20.1920 0.0000
# 2 51.3493 75.4658 40.7444 0.0000 15.9851 0.0000
# 3 81.5246 40.7444 141.3244 0.0000 19.1133 0.0000
# 4 0.0000 0.0000 0.0000 8.8240 0.0000 6.3772
# 5 20.1920 15.9851 19.1133 0.0000 45.4598 0.0000
# 6 0.0000 0.0000 0.0000 6.3772 0.0000 13.7489
#
#
#
# Elastic Compliance Matrix: (Units=1/GPa)
#
#
# Indices 1 2 3 4 5 6 
#
# 1 0.011725 -0.004909 -0.005171 0.000000 -0.001307 0.000000
# 2 -0.004909 0.018406 -0.002009 0.000000 -0.003447 0.000000
# 3 -0.005171 -0.002009 0.010849 0.000000 -0.001558 0.000000
# 4 0.000000 0.000000 0.000000 0.170472 0.000000 -0.079070
# 5 -0.001307 -0.003447 -0.001558 0.000000 0.024445 0.000000
# 6 0.000000 0.000000 0.000000 -0.079070 0.000000 0.109408
#
#
# Mechanical properties :
#
#
# Convention : Reuss Voigt Hill
#
# Bulk Modulus (GPa) = 59.51774 78.78078 69.14926
# Shear Modulus (GPa) = 13.33040 26.15135 19.74087
#
# Velocity S-wave (km/s) = 2.40868 3.37368 2.93116
# Velocity P-wave (km/s) = 5.79993 7.03299 6.44601
#
# Compressibility (1/GPa) = 0.01680171
#
# Stress axis : x y z
#
# Youngs Moduli (GPa) = 85.29145 54.33097 92.17530
#
# Poissons Ratio (x) = 0.26670 0.47667
# Poissons Ratio (y) = 0.41867 0.18514
# Poissons Ratio (z) = 0.44108 0.10913
#
# Static dielectric constant tensor:
#      x y z
#    x 1.888550 0.000000 0.004130 
#    y 0.000000 1.950360 0.000000 
#    z 0.004130 0.000000 1.925760 
# 
# From -- ./inp_files/14286.got.cif
#   From: 2010.05.17/outbox.cif.g08.bks.cpg/sg3_8_cif.got.tgz:14286.got - 2010.06.03 18:33:08.
