data_PCOD9113066
_publ_section_title
;
Structure prediction by ZEFSAII (Michael W. Deem and Ramdas Pophale) SiO2 
 PCOD9113066
Probable space group: P 2
;
_chemical_formula_sum "Si O2"
_cell_formula_units_Z 13
_cell_length_a 8.711704
_cell_length_b 6.510564
_cell_length_c 15.717247
_cell_angle_alpha 90.000000
_cell_angle_beta 142.447557
_cell_angle_gamma 90.000000
_cell_volume 543.328999
_symmetry_space_group_name_H-M "P 2"
_symmetry_group_IT_number 3
_symmetry_cell_setting 'monoclinic'
loop_
_space_group_symop_operation_xyz
x,y,z
-x,y,-z
loop_
_atom_site_type_symbol
_atom_site_label
_atom_site_fract_x
_atom_site_fract_y
_atom_site_fract_z
Si Si1 0.161921 0.745230 0.418626
Si Si2 0.744817 0.057611 0.697361
Si Si3 0.472598 0.230332 0.737932
Si Si4 0.500000 0.408743 0.500000
Si Si5 0.000000 0.001958 0.500000
Si Si6 0.408560 0.590297 0.818311
Si Si7 0.224764 0.972937 0.993582
Si Si8 0.500000 0.254385 0.000000
O O1 0.359481 0.560067 0.503842
O O2 0.160871 0.862811 0.507300
O O3 0.869543 0.676978 0.287650
O O4 0.235490 0.889409 0.370307
O O5 0.535469 0.150880 0.671459
O O6 0.731105 0.266593 0.634517
O O7 0.929991 0.955272 0.849565
O O8 0.460406 0.473386 0.751916
O O9 0.196444 0.140698 0.637990
O O10 0.677418 0.124094 0.889922
O O11 0.436200 0.404333 0.896081
O O12 0.615309 0.765985 0.927313
O O13 0.282652 0.099422 0.932244
#
# Coordination Sequence:
#
# PCOD9113066 Si02
#       8
#     2   2   2   1   1   2   2   1
#     4  12  27  47  76 114 158 207 267 324 391 466
#     4  12  27  49  76 109 164 206 251 334 390 471
#     4  11  27  46  73 112 153 207 261 322 402 456
#     4  12  28  46  76 116 154 220 260 314 406 468
#     4  12  26  48  76 108 162 200 264 336 382 468
#     4  11  24  43  77 115 146 211 268 322 384 480
#     4  11  23  46  73 110 155 201 260 322 395 463
#     4  10  20  38  70 108 150 192 252 322 374 454
#
# _framework density 23.926569000000001
#
# number of rings (size 3 to 8) (size 9 to 14) (size 15 to 20)
#    0.000    0.615    1.538    6.000    8.615    2.462 
#    0.000    3.077    0.000    0.000    0.000    0.000 
#    0.000    0.000    0.000    0.000    0.000    0.000 
#
# Total GULP energy -72419.215355 kJ/mol
# GULP energy per Si atom -5570.708873 kJ/mol
# Density = 2.387211 g / cm^3
# Si number density = 23.926569 Si / 1000 Ang^3
#
#
#
# Elastic Constant Matrix: (Units=GPa)
#
#
# Indices 1 2 3 4 5 6 
#
# 1 95.8451 67.4620 33.2827 0.0000 -8.7697 0.0000
# 2 67.4620 168.6785 61.4163 0.0000 8.6804 0.0000
# 3 33.2827 61.4163 92.9286 0.0000 3.8592 0.0000
# 4 0.0000 0.0000 0.0000 36.2465 0.0000 10.3445
# 5 -8.7697 8.6804 3.8592 0.0000 31.1583 0.0000
# 6 0.0000 0.0000 0.0000 10.3445 0.0000 74.4552
#
#
#
# Elastic Compliance Matrix: (Units=1/GPa)
#
#
# Indices 1 2 3 4 5 6 
#
# 1 0.015914 -0.005955 -0.002030 0.000000 0.006389 0.000000
# 2 -0.005955 0.010110 -0.004385 0.000000 -0.003949 0.000000
# 3 -0.002030 -0.004385 0.014433 0.000000 -0.001137 0.000000
# 4 0.000000 0.000000 0.000000 0.028728 0.000000 -0.003991
# 5 0.006389 -0.003949 -0.001137 0.000000 0.035134 0.000000
# 6 0.000000 0.000000 0.000000 -0.003991 0.000000 0.013985
#
#
# Mechanical properties :
#
#
# Convention : Reuss Voigt Hill
#
# Bulk Modulus (GPa) = 63.61833 75.75269 69.68551
# Shear Modulus (GPa) = 33.71960 41.39140 37.55550
#
# Velocity S-wave (km/s) = 3.75813 4.16376 3.96613
# Velocity P-wave (km/s) = 6.74375 7.40575 7.08249
#
# Compressibility (1/GPa) = 0.01571874
#
# Stress axis : x y z
#
# Youngs Moduli (GPa) = 62.83715 98.91499 69.28543
#
# Poissons Ratio (x) = 0.58900 0.14063
# Poissons Ratio (y) = 0.37417 0.30380
# Poissons Ratio (z) = 0.12754 0.43372
#
# Static dielectric constant tensor:
#      x y z
#    x 1.198790 0.000000 -1.101090 
#    y 0.000000 1.905190 0.000000 
#    z -1.101090 0.000000 0.482640 
# 
# From -- ./inp_files/8198.got.cif
#   From: 2010.05.17/outbox.cif.g08.bks.cpg/sg3_5_cif.got.tgz:8198.got - 2010.06.03 18:33:08.
