data_PCOD9113319
_publ_section_title
;
Structure prediction by ZEFSAII (Michael W. Deem and Ramdas Pophale) SiO2 
 PCOD9113319
Probable space group: P 2
;
_chemical_formula_sum "Si O2"
_cell_formula_units_Z 12
_cell_length_a 9.747303
_cell_length_b 11.685961
_cell_length_c 5.256297
_cell_angle_alpha 90.000000
_cell_angle_beta 122.394187
_cell_angle_gamma 90.000000
_cell_volume 505.554416
_symmetry_space_group_name_H-M "P 2"
_symmetry_group_IT_number 3
_symmetry_cell_setting 'monoclinic'
loop_
_space_group_symop_operation_xyz
x,y,z
-x,y,-z
loop_
_atom_site_type_symbol
_atom_site_label
_atom_site_fract_x
_atom_site_fract_y
_atom_site_fract_z
Si Si1 0.818711 0.549850 0.427225
Si Si2 0.460877 0.982465 0.213152
Si Si3 0.899087 0.961168 0.156314
Si Si4 0.400891 0.740977 0.650584
Si Si5 0.896123 0.233440 0.151799
Si Si6 0.318477 0.433912 0.209623
O O1 0.766489 0.675325 0.478490
O O2 0.788811 0.472938 0.650589
O O3 0.000000 0.548072 0.500000
O O4 0.712621 0.510748 0.074773
O O5 0.500000 0.053541 0.500000
O O6 0.592306 0.878833 0.350247
O O7 0.500000 0.049992 0.000000
O O8 0.286408 0.920896 0.038693
O O9 0.868394 0.098017 0.156449
O O10 0.000000 0.921179 0.500000
O O11 0.000000 0.940811 0.000000
O O12 0.500000 0.701802 0.500000
O O13 0.500000 0.711124 0.000000
O O14 0.000000 0.272638 0.500000
O O15 0.739123 0.309896 0.947452
O O16 0.000000 0.244664 0.000000
O O17 0.500000 0.435407 0.500000
#
# Coordination Sequence:
#
# PCOD9113319 Si02
#       6
#     2   2   2   2   2   2
#     4  12  24  40  63  88 121 165 210 253 305 365
#     4  10  21  39  63  88 120 160 201 254 311 363
#     4  10  21  39  64  93 125 162 204 251 305 366
#     4  10  21  40  61  85 119 158 201 255 309 358
#     4  10  21  39  61  89 127 164 203 250 300 360
#     4  12  24  39  62  91 124 163 207 253 304 362
#
# _framework density 23.736314
#
# number of rings (size 3 to 8) (size 9 to 14) (size 15 to 20)
#    0.000    1.333    0.000    7.000    0.000    0.667 
#    0.000   11.667    0.000    4.000    0.000    0.000 
#    0.000    0.000    0.000    0.000    0.000    0.000 
#
# Total GULP energy -67042.239763 kJ/mol
# GULP energy per Si atom -5586.853314 kJ/mol
# Density = 2.368229 g / cm^3
# Si number density = 23.736314 Si / 1000 Ang^3
#
#
#
# Elastic Constant Matrix: (Units=GPa)
#
#
# Indices 1 2 3 4 5 6 
#
# 1 137.4235 10.6284 61.3074 0.0000 -29.5453 0.0000
# 2 10.6284 58.3304 12.0496 0.0000 -0.3996 0.0000
# 3 61.3074 12.0496 168.0241 0.0000 -33.6415 0.0000
# 4 0.0000 0.0000 0.0000 14.5221 0.0000 2.8485
# 5 -29.5453 -0.3996 -33.6415 0.0000 51.5746 0.0000
# 6 0.0000 0.0000 0.0000 2.8485 0.0000 14.6291
#
#
#
# Elastic Compliance Matrix: (Units=1/GPa)
#
#
# Indices 1 2 3 4 5 6 
#
# 1 0.009298 -0.001136 -0.002584 0.000000 0.003632 0.000000
# 2 -0.001136 0.017568 -0.001091 0.000000 -0.001226 0.000000
# 3 -0.002584 -0.001091 0.007677 0.000000 0.003519 0.000000
# 4 0.000000 0.000000 0.000000 0.071595 0.000000 -0.013941
# 5 0.003632 -0.001226 0.003519 0.000000 0.023756 0.000000
# 6 0.000000 0.000000 0.000000 -0.013941 0.000000 0.071071
#
#
# Mechanical properties :
#
#
# Convention : Reuss Voigt Hill
#
# Bulk Modulus (GPa) = 40.12524 59.08320 49.60422
# Shear Modulus (GPa) = 22.84208 34.79800 28.82004
#
# Velocity S-wave (km/s) = 3.10550 3.83302 3.48828
# Velocity P-wave (km/s) = 5.45895 6.67345 6.09652
#
# Compressibility (1/GPa) = 0.02492197
#
# Stress axis : x y z
#
# Youngs Moduli (GPa) = 107.54635 56.92299 130.25647
#
# Poissons Ratio (x) = 0.06464 0.33658
# Poissons Ratio (y) = 0.12213 0.14211
# Poissons Ratio (z) = 0.27790 0.06210
#
# Static dielectric constant tensor:
#      x y z
#    x 1.935640 0.000000 -0.029010 
#    y 0.000000 1.958860 0.000000 
#    z -0.029010 0.000000 1.976760 
# 
# From -- ./inp_files/1612.got.cif
#   From: 2010.05.17/outbox.cif.g08.bks.cpg/sg3_1_cif.got.tgz:1612.got - 2010.06.03 18:33:08.
