data_PCOD9113981
_publ_section_title
;
Structure prediction by ZEFSAII (Michael W. Deem and Ramdas Pophale) SiO2 
 PCOD9113981
Probable space group: P 2
;
_chemical_formula_sum "Si O2"
_cell_formula_units_Z 12
_cell_length_a 9.911974
_cell_length_b 10.859854
_cell_length_c 5.577352
_cell_angle_alpha 90.000000
_cell_angle_beta 79.271298
_cell_angle_gamma 90.000000
_cell_volume 589.866112
_symmetry_space_group_name_H-M "P 2"
_symmetry_group_IT_number 3
_symmetry_cell_setting 'monoclinic'
loop_
_space_group_symop_operation_xyz
x,y,z
-x,y,-z
loop_
_atom_site_type_symbol
_atom_site_label
_atom_site_fract_x
_atom_site_fract_y
_atom_site_fract_z
Si Si1 0.862315 0.283010 0.174745
Si Si2 0.076025 0.546271 0.718126
Si Si3 0.655402 0.387555 0.861618
Si Si4 0.345299 0.628678 0.445100
Si Si5 0.586766 0.890509 0.723792
Si Si6 0.656790 0.145024 0.542422
O O1 0.906670 0.398161 0.325203
O O2 0.774365 0.170622 0.308803
O O3 0.760381 0.357080 0.034657
O O4 0.000000 0.238872 0.000000
O O5 0.224615 0.612577 0.678286
O O6 0.000000 0.591965 0.500000
O O7 0.000000 0.562445 0.000000
O O8 0.682208 0.515479 0.722960
O O9 0.666072 0.268535 0.691821
O O10 0.500000 0.393261 0.000000
O O11 0.500000 0.614407 0.500000
O O12 0.337516 0.759810 0.315972
O O13 0.500000 0.889342 0.500000
O O14 0.673072 0.016649 0.676407
O O15 0.500000 0.895235 0.000000
O O16 0.500000 0.144673 0.500000
#
# Coordination Sequence:
#
# PCOD9113981 Si02
#       6
#     2   2   2   2   2   2
#     4  11  24  38  62  98 131 174 214 276 330 388
#     4  11  24  42  63  94 139 174 207 264 339 393
#     4  12  21  36  67  96 129 163 224 277 325 381
#     4  11  22  41  68 101 127 171 225 275 323 389
#     4  10  24  42  65  96 135 173 214 270 335 389
#     4  11  22  40  63  95 128 172 220 268 332 386
#
# _framework density 20.343601
#
# number of rings (size 3 to 8) (size 9 to 14) (size 15 to 20)
#    0.000    1.000    3.333    4.500    2.333    4.000 
#    0.000    0.833    3.667    0.000    0.000    0.000 
#    0.000    0.000    0.000    0.000    0.000    0.000 
#
# Total GULP energy -66947.849949 kJ/mol
# GULP energy per Si atom -5578.987496 kJ/mol
# Density = 2.029730 g / cm^3
# Si number density = 20.343601 Si / 1000 Ang^3
#
#
#
# Elastic Constant Matrix: (Units=GPa)
#
#
# Indices 1 2 3 4 5 6 
#
# 1 114.2176 25.3891 68.1702 0.0000 -32.3241 0.0000
# 2 25.3891 176.9676 69.3794 0.0000 -26.4919 0.0000
# 3 68.1702 69.3794 117.6973 0.0000 -27.9848 0.0000
# 4 0.0000 0.0000 0.0000 59.6635 0.0000 -18.6304
# 5 -32.3241 -26.4919 -27.9848 0.0000 51.1453 0.0000
# 6 0.0000 0.0000 0.0000 -18.6304 0.0000 1.1908
#
#
#
# Elastic Compliance Matrix: (Units=1/GPa)
#
#
# Indices 1 2 3 4 5 6 
#
# 1 0.015069 0.002074 -0.008542 0.000000 0.005924 0.000000
# 2 0.002074 0.007758 -0.005181 0.000000 0.002494 0.000000
# 3 -0.008542 -0.005181 0.016756 0.000000 0.001086 0.000000
# 4 0.000000 0.000000 0.000000 -0.004314 0.000000 -0.067490
# 5 0.005924 0.002494 0.001086 0.000000 0.025182 0.000000
# 6 0.000000 0.000000 0.000000 -0.067490 0.000000 -0.216134
#
#
# Mechanical properties :
#
#
# Convention : Reuss Voigt Hill
#
# Bulk Modulus (GPa) = 61.40793 81.63998 71.52395
# Shear Modulus (GPa) = -39.38359 38.79616 -0.29372
#
# Velocity S-wave (km/s) = -4.40468 4.37171 -0.38038
# Velocity P-wave (km/s) = 2.09347 8.10556 5.91957
#
# Compressibility (1/GPa) = 0.01628454
#
# Stress axis : x y z
#
# Youngs Moduli (GPa) = 66.36198 128.90207 59.67974
#
# Poissons Ratio (x) = -0.26730 0.50977
# Poissons Ratio (y) = -0.13761 0.30921
# Poissons Ratio (z) = 0.56684 0.66785
#
# Static dielectric constant tensor:
#      x y z
#    x 1.707420 0.000000 -0.088760 
#    y 0.000000 1.733260 0.000000 
#    z -0.088760 0.000000 1.705600 
# 
# From -- ./inp_files/1204.got.cif
#   From: 2010.05.17/outbox.cif.g08.bks.cpg/sg3_1_cif.got.tgz:1204.got - 2010.06.03 18:33:08.
