data_PCOD9113805
_publ_section_title
;
Structure prediction by ZEFSAII (Michael W. Deem and Ramdas Pophale) SiO2 
 PCOD9113805
Probable space group: P 2
;
_chemical_formula_sum "Si O2"
_cell_formula_units_Z 12
_cell_length_a 8.925497
_cell_length_b 5.135906
_cell_length_c 18.004210
_cell_angle_alpha 90.000000
_cell_angle_beta 35.760524
_cell_angle_gamma 90.000000
_cell_volume 482.317260
_symmetry_space_group_name_H-M "P 2"
_symmetry_group_IT_number 3
_symmetry_cell_setting 'monoclinic'
loop_
_space_group_symop_operation_xyz
x,y,z
-x,y,-z
loop_
_atom_site_type_symbol
_atom_site_label
_atom_site_fract_x
_atom_site_fract_y
_atom_site_fract_z
Si Si1 0.222853 0.765890 0.612504
Si Si2 0.663004 0.886988 0.162577
Si Si3 0.089320 0.102230 0.792546
Si Si4 0.232629 0.400993 0.978623
Si Si5 0.091611 0.033762 0.383775
Si Si6 0.222882 0.361830 0.188466
O O1 0.500000 0.631779 0.500000
O O2 0.119631 0.861187 0.574302
O O3 0.996710 0.579923 0.734915
O O4 0.259759 0.012706 0.653700
O O5 0.752277 0.633789 0.084240
O O6 0.355471 0.880518 0.292887
O O7 0.725990 0.131916 0.083177
O O8 0.799723 0.924081 0.186555
O O9 0.824889 0.124738 0.850408
O O10 0.021621 0.356909 0.870011
O O11 0.485553 0.450732 0.926442
O O12 0.000000 0.135446 0.500000
O O13 0.161294 0.252937 0.295576
#
# Coordination Sequence:
#
# PCOD9113805 Si02
#       6
#     2   2   2   2   2   2
#     4  11  24  44  73 110 151 200 264 323 395 478
#     4  11  25  45  73 110 150 199 262 317 388 460
#     4  11  26  44  74 106 152 203 257 331 385 472
#     4  11  25  48  73 105 154 202 259 319 389 467
#     4  10  22  45  71 104 152 201 258 321 399 475
#     4  10  24  46  69 111 151 205 260 326 400 473
#
# _framework density 24.87989
#
# number of rings (size 3 to 8) (size 9 to 14) (size 15 to 20)
#    0.000    1.333    1.667    2.000    4.667    6.000 
#    3.000    0.000    0.000    0.000    0.000    0.000 
#    0.000    0.000    0.000    0.000    0.000    0.000 
#
# Total GULP energy -66871.834100 kJ/mol
# GULP energy per Si atom -5572.652842 kJ/mol
# Density = 2.482326 g / cm^3
# Si number density = 24.879890 Si / 1000 Ang^3
#
#
#
# Elastic Constant Matrix: (Units=GPa)
#
#
# Indices 1 2 3 4 5 6 
#
# 1 201.5290 45.5455 65.8465 0.0000 16.4627 0.0000
# 2 45.5455 101.8757 35.7270 0.0000 4.4438 0.0000
# 3 65.8465 35.7270 74.7991 0.0000 0.7036 0.0000
# 4 0.0000 0.0000 0.0000 40.9187 0.0000 -1.3053
# 5 16.4627 4.4438 0.7036 0.0000 63.7435 0.0000
# 6 0.0000 0.0000 0.0000 -1.3053 0.0000 32.4770
#
#
#
# Elastic Compliance Matrix: (Units=1/GPa)
#
#
# Indices 1 2 3 4 5 6 
#
# 1 0.007267 -0.001124 -0.005844 0.000000 -0.001734 0.000000
# 2 -0.001124 0.012002 -0.004739 0.000000 -0.000494 0.000000
# 3 -0.005844 -0.004739 0.020762 0.000000 0.001611 0.000000
# 4 0.000000 0.000000 0.000000 0.024470 0.000000 0.000984
# 5 -0.001734 -0.000494 0.001611 0.000000 0.016152 0.000000
# 6 0.000000 0.000000 0.000000 0.000984 0.000000 0.030831
#
#
# Mechanical properties :
#
#
# Convention : Reuss Voigt Hill
#
# Bulk Modulus (GPa) = 60.17682 74.71576 67.44629
# Shear Modulus (GPa) = 35.60324 42.83348 39.21836
#
# Velocity S-wave (km/s) = 3.78697 4.15373 3.97458
# Velocity P-wave (km/s) = 6.58490 7.28700 6.94483
#
# Compressibility (1/GPa) = 0.01661769
#
# Stress axis : x y z
#
# Youngs Moduli (GPa) = 137.60376 83.32219 48.16448
#
# Poissons Ratio (x) = 0.09363 0.28149
# Poissons Ratio (y) = 0.15463 0.22823
# Poissons Ratio (z) = 0.80421 0.39483
#
# Static dielectric constant tensor:
#      x y z
#    x 1.932240 0.000000 -0.012460 
#    y 0.000000 2.028590 0.000000 
#    z -0.012460 0.000000 2.014360 
# 
# From -- ./inp_files/14803.got.cif
#   From: 2010.05.17/outbox.cif.g08.bks.cpg/sg3_8_cif.got.tgz:14803.got - 2010.06.03 18:33:08.
