data_PCOD9113073
_publ_section_title
;
Structure prediction by ZEFSAII (Michael W. Deem and Ramdas Pophale) SiO2 
 PCOD9113073
Probable space group: P 2
;
_chemical_formula_sum "Si O2"
_cell_formula_units_Z 16
_cell_length_a 11.046420
_cell_length_b 7.156464
_cell_length_c 9.643067
_cell_angle_alpha 90.000000
_cell_angle_beta 113.404842
_cell_angle_gamma 90.000000
_cell_volume 699.593756
_symmetry_space_group_name_H-M "P 2"
_symmetry_group_IT_number 3
_symmetry_cell_setting 'monoclinic'
loop_
_space_group_symop_operation_xyz
x,y,z
-x,y,-z
loop_
_atom_site_type_symbol
_atom_site_label
_atom_site_fract_x
_atom_site_fract_y
_atom_site_fract_z
Si Si1 0.380626 0.429920 0.539607
Si Si2 0.166323 0.547357 0.233626
Si Si3 0.626212 0.356249 0.141228
Si Si4 0.692801 0.950765 0.698850
Si Si5 0.601196 0.864402 0.375747
Si Si6 0.350193 0.920269 0.903353
Si Si7 0.131572 0.021821 0.995167
Si Si8 0.876767 0.432387 0.100987
O O1 0.500000 0.355383 0.500000
O O2 0.249936 0.430034 0.385073
O O3 0.383114 0.350417 0.696760
O O4 0.407428 0.651269 0.578115
O O5 0.230603 0.752949 0.264563
O O6 0.011548 0.536767 0.199044
O O7 0.171060 0.483588 0.075553
O O8 0.757864 0.461373 0.153403
O O9 0.640513 0.145567 0.092086
O O10 0.500000 0.433353 0.000000
O O11 0.668521 0.987232 0.526270
O O12 0.549497 0.932318 0.704435
O O13 0.779672 0.082783 0.833104
O O14 0.677137 0.866816 0.266897
O O15 0.228082 0.887507 0.950991
O O16 0.500000 0.851683 0.000000
O O17 0.092038 0.208503 0.894067
O O18 0.000000 0.934233 0.000000
#
# Coordination Sequence:
#
# PCOD9113073 Si02
#       8
#     2   2   2   2   2   2   2   2
#     4  11  21  39  62  90 125 157 204 257 315 369
#     4  10  20  39  62  88 119 165 204 253 308 375
#     4  10  23  38  59  93 125 157 210 260 310 372
#     4  10  21  37  64  88 126 156 209 248 315 368
#     4  10  20  41  60  93 124 158 199 267 304 370
#     4  10  21  40  61  90 124 159 206 257 307 363
#     4  11  22  40  63  91 124 166 205 255 305 372
#     4  10  22  41  61  86 125 164 209 258 308 365
#
# _framework density 22.870415999999999
#
# number of rings (size 3 to 8) (size 9 to 14) (size 15 to 20)
#    0.000    1.750    5.000    0.750    1.750    3.000 
#    2.250    0.625    0.000    0.000    0.000    0.000 
#    0.000    0.000    0.000    0.000    0.000    0.000 
#
# Total GULP energy -89413.600127 kJ/mol
# GULP energy per Si atom -5588.350008 kJ/mol
# Density = 2.281836 g / cm^3
# Si number density = 22.870416 Si / 1000 Ang^3
#
#
#
# Elastic Constant Matrix: (Units=GPa)
#
#
# Indices 1 2 3 4 5 6 
#
# 1 199.5659 18.9440 93.1736 0.0000 -14.3182 0.0000
# 2 18.9440 58.0665 1.6006 0.0000 6.2455 0.0000
# 3 93.1736 1.6006 133.2195 0.0000 2.4839 0.0000
# 4 0.0000 0.0000 0.0000 26.9781 0.0000 -3.5872
# 5 -14.3182 6.2455 2.4839 0.0000 42.7746 0.0000
# 6 0.0000 0.0000 0.0000 -3.5872 0.0000 18.4673
#
#
#
# Elastic Compliance Matrix: (Units=1/GPa)
#
#
# Indices 1 2 3 4 5 6 
#
# 1 0.008247 -0.002910 -0.005799 0.000000 0.003522 0.000000
# 2 -0.002910 0.018526 0.001883 0.000000 -0.003788 0.000000
# 3 -0.005799 0.001883 0.011593 0.000000 -0.002889 0.000000
# 4 0.000000 0.000000 0.000000 0.038050 0.000000 0.007391
# 5 0.003522 -0.003788 -0.002889 0.000000 0.025278 0.000000
# 6 0.000000 0.000000 0.000000 0.007391 0.000000 0.055585
#
#
# Mechanical properties :
#
#
# Convention : Reuss Voigt Hill
#
# Bulk Modulus (GPa) = 40.45930 68.69870 54.57900
# Shear Modulus (GPa) = 27.90654 36.11961 32.01308
#
# Velocity S-wave (km/s) = 3.49693 3.97837 3.74539
# Velocity P-wave (km/s) = 5.83385 7.15589 6.52842
#
# Compressibility (1/GPa) = 0.02471619
#
# Stress axis : x y z
#
# Youngs Moduli (GPa) = 121.25494 53.97697 86.25691
#
# Poissons Ratio (x) = 0.15705 0.50018
# Poissons Ratio (y) = 0.35280 -0.16242
# Poissons Ratio (z) = 0.70312 -0.10164
#
# Static dielectric constant tensor:
#      x y z
#    x 1.862490 0.000000 -0.014940 
#    y 0.000000 1.919710 0.000000 
#    z -0.014940 0.000000 1.870610 
# 
# From -- ./inp_files/7259.got.cif
#   From: 2010.05.17/outbox.cif.g08.bks.cpg/sg3_4_cif.got.tgz:7259.got - 2010.06.03 18:33:08.
