data_PCOD9113959
_publ_section_title
;
Structure prediction by ZEFSAII (Michael W. Deem and Ramdas Pophale) SiO2 
 PCOD9113959
Probable space group: P 2
;
_chemical_formula_sum "Si O2"
_cell_formula_units_Z 14
_cell_length_a 12.689080
_cell_length_b 8.718210
_cell_length_c 10.545681
_cell_angle_alpha 90.000000
_cell_angle_beta 34.766521
_cell_angle_gamma 90.000000
_cell_volume 665.250085
_symmetry_space_group_name_H-M "P 2"
_symmetry_group_IT_number 3
_symmetry_cell_setting 'monoclinic'
loop_
_space_group_symop_operation_xyz
x,y,z
-x,y,-z
loop_
_atom_site_type_symbol
_atom_site_label
_atom_site_fract_x
_atom_site_fract_y
_atom_site_fract_z
Si Si1 0.695474 0.901420 0.247008
Si Si2 0.458952 0.362341 0.245698
Si Si3 0.720194 0.263073 0.188335
Si Si4 0.500000 0.114642 0.000000
Si Si5 0.047815 0.892521 0.761970
Si Si6 0.900871 0.254939 0.289073
Si Si7 0.202831 0.857526 0.352362
Si Si8 0.500000 0.617473 0.000000
O O1 0.500000 0.845778 0.500000
O O2 0.833440 0.881349 0.228232
O O3 0.668947 0.081135 0.235326
O O4 0.833198 0.844385 0.997032
O O5 0.551122 0.354009 0.293595
O O6 0.541533 0.223444 0.078919
O O7 0.240416 0.329864 0.474467
O O8 0.492665 0.513390 0.132130
O O9 0.801217 0.274604 0.250298
O O10 0.892653 0.314711 0.930790
O O11 0.330429 0.006438 0.207393
O O12 0.161085 0.813287 0.538879
O O13 0.063639 0.075181 0.718111
O O14 0.000000 0.885789 0.500000
O O15 0.319268 0.723170 0.173490
#
# Coordination Sequence:
#
# PCOD9113959 Si02
#       8
#     2   2   2   1   2   2   2   1
#     4   9  17  28  54  91 124 146 175 235 317 360
#     4  11  20  38  61  89 124 153 201 259 301 352
#     4   9  18  29  56  93 126 153 177 240 321 364
#     4  10  24  34  60  96 114 150 210 264 298 352
#     4   9  18  33  54  88 121 149 192 243 297 365
#     4   9  17  32  55  96 124 146 188 243 308 372
#     4  11  24  43  60  80 122 168 211 249 300 351
#     4  10  28  44  56  84 118 176 218 244 292 358
#
# _framework density 21.044718
#
# number of rings (size 3 to 8) (size 9 to 14) (size 15 to 20)
#    0.000    2.286    1.429    3.857    4.000    2.286 
#    0.000    2.857    0.000   12.000    0.000    0.000 
#    0.000    0.000    0.000    0.000    0.000    0.000 
#
# Total GULP energy -77945.826582 kJ/mol
# GULP energy per Si atom -5567.559042 kJ/mol
# Density = 2.099682 g / cm^3
# Si number density = 21.044718 Si / 1000 Ang^3
#
#
#
# Elastic Constant Matrix: (Units=GPa)
#
#
# Indices 1 2 3 4 5 6 
#
# 1 39.1625 9.4086 5.3218 0.0000 -7.5543 0.0000
# 2 9.4086 35.9955 26.5378 0.0000 -2.1924 0.0000
# 3 5.3218 26.5378 181.1647 0.0000 -17.2059 0.0000
# 4 0.0000 0.0000 0.0000 28.0597 0.0000 12.8884
# 5 -7.5543 -2.1924 -17.2059 0.0000 37.1215 0.0000
# 6 0.0000 0.0000 0.0000 12.8884 0.0000 -5.2880
#
#
#
# Elastic Compliance Matrix: (Units=1/GPa)
#
#
# Indices 1 2 3 4 5 6 
#
# 1 0.028368 -0.007682 0.000834 0.000000 0.005706 0.000000
# 2 -0.007682 0.033228 -0.004816 0.000000 -0.001833 0.000000
# 3 0.000834 -0.004816 0.006475 0.000000 0.002886 0.000000
# 4 0.000000 0.000000 0.000000 0.016815 0.000000 0.040982
# 5 0.005706 -0.001833 0.002886 0.000000 0.029329 0.000000
# 6 0.000000 0.000000 0.000000 0.040982 0.000000 -0.089223
#
#
# Mechanical properties :
#
#
# Convention : Reuss Voigt Hill
#
# Bulk Modulus (GPa) = 22.35011 37.65099 30.00055
# Shear Modulus (GPa) = 79.07215 26.31561 52.69388
#
# Velocity S-wave (km/s) = 6.13636 3.54002 5.00933
# Velocity P-wave (km/s) = 7.80064 5.88547 6.90973
#
# Compressibility (1/GPa) = 0.04474251
#
# Stress axis : x y z
#
# Youngs Moduli (GPa) = 35.25159 30.09502 154.44203
#
# Poissons Ratio (x) = 0.23119 -0.12879
# Poissons Ratio (y) = 0.27081 0.74376
# Poissons Ratio (z) = -0.02940 0.14493
#
# Static dielectric constant tensor:
#      x y z
#    x 1.737790 0.000000 -0.020980 
#    y 0.000000 1.743320 0.000000 
#    z -0.020980 0.000000 1.737650 
# 
# From -- ./inp_files/12203.got.cif
#   From: 2010.05.17/outbox.cif.g08.bks.cpg/sg3_7_cif.got.tgz:12203.got - 2010.06.03 18:33:08.
