data_PCOD9113011
_publ_section_title
;
Structure prediction by ZEFSAII (Michael W. Deem and Ramdas Pophale) SiO2 
 PCOD9113011
Probable space group: P 2
;
_chemical_formula_sum "Si O2"
_cell_formula_units_Z 14
_cell_length_a 12.824793
_cell_length_b 10.217859
_cell_length_c 5.392763
_cell_angle_alpha 90.000000
_cell_angle_beta 73.190480
_cell_angle_gamma 90.000000
_cell_volume 676.482732
_symmetry_space_group_name_H-M "P 2"
_symmetry_group_IT_number 3
_symmetry_cell_setting 'monoclinic'
loop_
_space_group_symop_operation_xyz
x,y,z
-x,y,-z
loop_
_atom_site_type_symbol
_atom_site_label
_atom_site_fract_x
_atom_site_fract_y
_atom_site_fract_z
Si Si1 0.392394 0.415250 0.721296
Si Si2 0.615192 0.154083 0.988380
Si Si3 0.368398 0.791806 0.561852
Si Si4 0.770495 0.291067 0.493583
Si Si5 0.000000 0.051991 0.000000
Si Si6 0.372620 0.657224 0.062339
Si Si7 0.000000 0.228644 0.500000
Si Si8 0.768097 0.018357 0.217914
O O1 0.500000 0.464477 0.500000
O O2 0.285389 0.405736 0.624236
O O3 0.370203 0.507164 0.972127
O O4 0.414456 0.265953 0.788594
O O5 0.678858 0.238686 0.742992
O O6 0.500000 0.093057 0.000000
O O7 0.697987 0.044572 0.021953
O O8 0.500000 0.804289 0.500000
O O9 0.328662 0.736634 0.855366
O O10 0.309349 0.930000 0.561549
O O11 0.332897 0.697766 0.360644
O O12 0.888240 0.310024 0.537550
O O13 0.786816 0.164977 0.305988
O O14 0.110064 0.968203 0.898686
O O15 0.984508 0.139563 0.759185
O O16 0.500000 0.690124 0.000000
#
# Coordination Sequence:
#
# PCOD9113011 Si02
#       8
#     2   2   2   2   1   2   1   2
#     4  11  21  35  57  90 125 161 204 255 305 373
#     4  11  21  32  56  91 130 160 194 247 321 376
#     4  10  23  37  57  86 119 161 203 248 306 360
#     4  10  22  36  57  90 125 165 197 250 310 367
#     4  10  20  38  60  84 118 166 208 244 292 364
#     4  10  22  39  57  83 119 163 206 246 295 366
#     4  10  20  40  56  84 128 160 210 238 290 382
#     4  10  23  36  57  88 125 161 203 251 306 374
#
# _framework density 20.69528
#
# number of rings (size 3 to 8) (size 9 to 14) (size 15 to 20)
#    0.000    1.714    2.857    1.714    6.000    0.571 
#    0.000    0.000    0.000    0.000    3.714    1.000 
#    0.000    0.000    0.000    0.000    0.000    0.000 
#
# Total GULP energy -78058.554103 kJ/mol
# GULP energy per Si atom -5575.611007 kJ/mol
# Density = 2.064818 g / cm^3
# Si number density = 20.695280 Si / 1000 Ang^3
#
#
#
# Elastic Constant Matrix: (Units=GPa)
#
#
# Indices 1 2 3 4 5 6 
#
# 1 161.1129 20.6435 41.9681 0.0000 1.6271 0.0000
# 2 20.6435 49.0214 16.2742 0.0000 9.2779 0.0000
# 3 41.9681 16.2742 95.1704 0.0000 16.2623 0.0000
# 4 0.0000 0.0000 0.0000 -34.7618 0.0000 -7.7228
# 5 1.6271 9.2779 16.2623 0.0000 30.2980 0.0000
# 6 0.0000 0.0000 0.0000 -7.7228 0.0000 9.8145
#
#
#
# Elastic Compliance Matrix: (Units=1/GPa)
#
#
# Indices 1 2 3 4 5 6 
#
# 1 0.007320 -0.002420 -0.003164 0.000000 0.002046 0.000000
# 2 -0.002420 0.023169 -0.001877 0.000000 -0.005957 0.000000
# 3 -0.003164 -0.001877 0.013318 0.000000 -0.006404 0.000000
# 4 0.000000 0.000000 0.000000 -0.024487 0.000000 -0.019268
# 5 0.002046 -0.005957 -0.006404 0.000000 0.038157 0.000000
# 6 0.000000 0.000000 0.000000 -0.019268 0.000000 0.086729
#
#
# Mechanical properties :
#
#
# Convention : Reuss Voigt Hill
#
# Bulk Modulus (GPa) = 34.61876 51.45293 43.03584
# Shear Modulus (GPa) = 29.62855 16.16473 22.89664
#
# Velocity S-wave (km/s) = 3.78783 2.79782 3.32982
# Velocity P-wave (km/s) = 5.99119 5.94585 5.96857
#
# Compressibility (1/GPa) = 0.02888607
#
# Stress axis : x y z
#
# Youngs Moduli (GPa) = 136.60522 43.16159 75.08693
#
# Poissons Ratio (x) = 0.10443 0.23757
# Poissons Ratio (y) = 0.33052 0.14093
# Poissons Ratio (z) = 0.43222 0.08101
#
# Static dielectric constant tensor:
#      x y z
#    x 1.832900 0.000000 0.020360 
#    y 0.000000 1.782150 0.000000 
#    z 0.020360 0.000000 1.842900 
# 
# From -- ./inp_files/2332.got.cif
#   From: 2010.05.17/outbox.cif.g08.bks.cpg/sg3_2_cif.got.tgz:2332.got - 2010.06.03 18:33:08.
