data_PCOD9113454
_publ_section_title
;
Structure prediction by ZEFSAII (Michael W. Deem and Ramdas Pophale) SiO2 
 PCOD9113454
Probable space group: P 2
;
_chemical_formula_sum "Si O2"
_cell_formula_units_Z 15
_cell_length_a 8.493321
_cell_length_b 7.005169
_cell_length_c 16.020115
_cell_angle_alpha 90.000000
_cell_angle_beta 132.695815
_cell_angle_gamma 90.000000
_cell_volume 700.531917
_symmetry_space_group_name_H-M "P 2"
_symmetry_group_IT_number 3
_symmetry_cell_setting 'monoclinic'
loop_
_space_group_symop_operation_xyz
x,y,z
-x,y,-z
loop_
_atom_site_type_symbol
_atom_site_label
_atom_site_fract_x
_atom_site_fract_y
_atom_site_fract_z
Si Si1 0.671116 0.203480 0.914411
Si Si2 0.190979 0.742390 0.819485
Si Si3 0.616952 0.123031 0.415192
Si Si4 0.415004 0.473783 0.269135
Si Si5 0.836755 0.027164 0.663029
Si Si6 0.500000 0.013539 0.000000
Si Si7 0.530068 0.871216 0.239244
Si Si8 0.046073 0.357884 0.837450
O O1 0.606215 0.367002 0.827526
O O2 0.491173 0.150052 0.917645
O O3 0.671480 0.003663 0.862773
O O4 0.863359 0.272504 0.042881
O O5 0.339758 0.788129 0.792844
O O6 0.187789 0.525471 0.848584
O O7 0.297350 0.873626 0.929804
O O8 0.956473 0.826054 0.715500
O O9 0.580697 0.346715 0.382495
O O10 0.778716 0.077186 0.547187
O O11 0.383949 0.047015 0.363998
O O12 0.665036 0.014518 0.346277
O O13 0.470243 0.691001 0.273478
O O14 0.182918 0.452390 0.226277
O O15 0.996591 0.185537 0.757431
#
# Coordination Sequence:
#
# PCOD9113454 Si02
#       8
#     2   2   2   2   2   1   2   2
#     4  10  22  38  59  86 121 165 203 252 308 361
#     4  11  24  38  61  92 124 169 204 247 312 369
#     4   9  21  42  68  87 124 159 210 264 304 364
#     4  10  22  40  61  92 122 163 206 258 312 359
#     4  10  21  42  65  93 119 165 207 258 314 358
#     4  10  22  40  58  86 124 166 198 256 298 372
#     4  10  23  41  61  90 126 166 203 255 312 367
#     4  11  23  38  61  94 123 160 214 255 303 378
#
# _framework density 21.412299000000001
#
# number of rings (size 3 to 8) (size 9 to 14) (size 15 to 20)
#    0.000    1.867    1.333    1.200    5.600    2.667 
#    2.400    2.667    0.000    0.000    0.000    0.000 
#    0.000    0.000    0.000    0.000    0.000    0.000 
#
# Total GULP energy -83722.759696 kJ/mol
# GULP energy per Si atom -5581.517313 kJ/mol
# Density = 2.136356 g / cm^3
# Si number density = 21.412299 Si / 1000 Ang^3
#
#
#
# Elastic Constant Matrix: (Units=GPa)
#
#
# Indices 1 2 3 4 5 6 
#
# 1 29.1785 19.6208 6.4665 0.0000 -10.4669 0.0000
# 2 19.6208 130.8642 37.7123 0.0000 -3.3672 0.0000
# 3 6.4665 37.7123 114.1259 0.0000 -13.0553 0.0000
# 4 0.0000 0.0000 0.0000 16.0125 0.0000 -5.7434
# 5 -10.4669 -3.3672 -13.0553 0.0000 27.5597 0.0000
# 6 0.0000 0.0000 0.0000 -5.7434 0.0000 40.9103
#
#
#
# Elastic Compliance Matrix: (Units=1/GPa)
#
#
# Indices 1 2 3 4 5 6 
#
# 1 0.044456 -0.006699 0.001620 0.000000 0.016833 0.000000
# 2 -0.006699 0.009458 -0.003071 0.000000 -0.002843 0.000000
# 3 0.001620 -0.003071 0.010269 0.000000 0.005105 0.000000
# 4 0.000000 0.000000 0.000000 0.065763 0.000000 0.009232
# 5 0.016833 -0.002843 0.005105 0.000000 0.044749 0.000000
# 6 0.000000 0.000000 0.000000 0.009232 0.000000 0.025740
#
#
# Mechanical properties :
#
#
# Convention : Reuss Voigt Hill
#
# Bulk Modulus (GPa) = 20.88412 44.64085 32.76249
# Shear Modulus (GPa) = 21.48739 30.92112 26.20426
#
# Velocity S-wave (km/s) = 3.17125 3.80423 3.50207
# Velocity P-wave (km/s) = 4.81494 6.33954 5.62909
#
# Compressibility (1/GPa) = 0.04788328
#
# Stress axis : x y z
#
# Youngs Moduli (GPa) = 22.49422 105.73336 97.37873
#
# Poissons Ratio (x) = 0.70833 -0.15779
# Poissons Ratio (y) = 0.15069 0.29905
# Poissons Ratio (z) = -0.03645 0.32470
#
# Static dielectric constant tensor:
#      x y z
#    x 1.831220 0.000000 -0.003080 
#    y 0.000000 1.774630 0.000000 
#    z -0.003080 0.000000 1.793610 
# 
# From -- ./inp_files/14874.got.cif
#   From: 2010.05.17/outbox.cif.g08.bks.cpg/sg3_8_cif.got.tgz:14874.got - 2010.06.03 18:33:08.
