data_PCOD9113674
_publ_section_title
;
Structure prediction by ZEFSAII (Michael W. Deem and Ramdas Pophale) SiO2 
 PCOD9113674
Probable space group: P 2
;
_chemical_formula_sum "Si O2"
_cell_formula_units_Z 13
_cell_length_a 12.177104
_cell_length_b 7.648765
_cell_length_c 9.122454
_cell_angle_alpha 90.000000
_cell_angle_beta 142.019056
_cell_angle_gamma 90.000000
_cell_volume 522.882435
_symmetry_space_group_name_H-M "P 2"
_symmetry_group_IT_number 3
_symmetry_cell_setting 'monoclinic'
loop_
_space_group_symop_operation_xyz
x,y,z
-x,y,-z
loop_
_atom_site_type_symbol
_atom_site_label
_atom_site_fract_x
_atom_site_fract_y
_atom_site_fract_z
Si Si1 0.762710 0.632520 0.395647
Si Si2 0.382668 0.487789 0.057441
Si Si3 0.910582 0.594708 0.058607
Si Si4 0.321142 0.111674 0.863724
Si Si5 0.766712 0.021337 0.520003
Si Si6 0.500000 0.061938 0.500000
Si Si7 0.152543 0.005161 0.977172
O O1 0.723154 0.592532 0.183417
O O2 0.784791 0.836735 0.455306
O O3 0.941517 0.559478 0.659542
O O4 0.581470 0.561851 0.280451
O O5 0.270271 0.501431 0.086102
O O6 0.383739 0.289580 0.005108
O O7 0.851341 0.799559 0.985309
O O8 0.000000 0.545891 0.000000
O O9 0.239095 0.156978 0.620226
O O10 0.196955 0.017928 0.850165
O O11 0.500000 0.009678 0.000000
O O12 0.599112 0.000026 0.451880
O O13 0.951222 0.063206 0.793447
O O14 0.689608 0.108912 0.776052
#
# Coordination Sequence:
#
# PCOD9113674 Si02
#       7
#     2   2   2   2   2   1   2
#     4  10  22  41  68  99 130 173 231 282 328 401
#     4  11  24  44  69  96 135 182 225 282 336 398
#     4  11  24  44  68 102 136 176 224 277 348 404
#     4  12  24  46  68 100 137 181 236 279 341 405
#     4  11  24  41  70 102 136 178 228 288 344 401
#     4  12  22  40  68  98 142 174 220 280 344 410
#     4  11  24  43  69 103 138 177 229 289 338 406
#
# _framework density 24.862185
#
# number of rings (size 3 to 8) (size 9 to 14) (size 15 to 20)
#    0.000    0.923    3.077    5.077    2.154    5.538 
#    0.000    5.385    0.000    0.000    0.000    0.000 
#    0.000    0.000    0.000    0.000    0.000    0.000 
#
# Total GULP energy -72538.840798 kJ/mol
# GULP energy per Si atom -5579.910831 kJ/mol
# Density = 2.480560 g / cm^3
# Si number density = 24.862185 Si / 1000 Ang^3
#
#
#
# Elastic Constant Matrix: (Units=GPa)
#
#
# Indices 1 2 3 4 5 6 
#
# 1 194.1221 24.2146 14.2788 0.0000 19.3136 0.0000
# 2 24.2146 46.0314 21.3581 0.0000 5.6929 0.0000
# 3 14.2788 21.3581 106.3796 0.0000 27.8522 0.0000
# 4 0.0000 0.0000 0.0000 -4.4766 0.0000 -1.2267
# 5 19.3136 5.6929 27.8522 0.0000 47.2866 0.0000
# 6 0.0000 0.0000 0.0000 -1.2267 0.0000 10.5521
#
#
#
# Elastic Compliance Matrix: (Units=1/GPa)
#
#
# Indices 1 2 3 4 5 6 
#
# 1 0.005706 -0.002913 0.000399 0.000000 -0.002215 0.000000
# 2 -0.002913 0.025443 -0.004997 0.000000 0.001070 0.000000
# 3 0.000399 -0.004997 0.012101 0.000000 -0.006689 0.000000
# 4 0.000000 0.000000 0.000000 -0.216489 0.000000 -0.025168
# 5 -0.002215 0.001070 -0.006689 0.000000 0.025863 0.000000
# 6 0.000000 0.000000 0.000000 -0.025168 0.000000 0.091842
#
#
# Mechanical properties :
#
#
# Convention : Reuss Voigt Hill
#
# Bulk Modulus (GPa) = 35.42645 51.80399 43.61522
# Shear Modulus (GPa) = -160.76277 29.78454 -65.48911
#
# Velocity S-wave (km/s) = -8.04996 3.46495 -5.13790
# Velocity P-wave (km/s) = 8.49250 6.07367 4.19720
#
# Compressibility (1/GPa) = 0.02822750
#
# Stress axis : x y z
#
# Youngs Moduli (GPa) = 175.26272 39.30367 82.63468
#
# Poissons Ratio (x) = 0.11448 -0.03295
# Poissons Ratio (y) = 0.51047 0.41296
# Poissons Ratio (z) = -0.06989 0.19642
#
# Static dielectric constant tensor:
#      x y z
#    x 1.941420 0.000000 -0.051370 
#    y 0.000000 1.989100 0.000000 
#    z -0.051370 0.000000 2.152160 
# 
# From -- ./inp_files/7578.got.cif
#   From: 2010.05.17/outbox.cif.g08.bks.cpg/sg3_4_cif.got.tgz:7578.got - 2010.06.03 18:33:08.
