data_PCOD9113461
_publ_section_title
;
Structure prediction by ZEFSAII (Michael W. Deem and Ramdas Pophale) SiO2 
 PCOD9113461
Probable space group: P 2
;
_chemical_formula_sum "Si O2"
_cell_formula_units_Z 14
_cell_length_a 9.373998
_cell_length_b 8.214012
_cell_length_c 11.838800
_cell_angle_alpha 90.000000
_cell_angle_beta 44.787844
_cell_angle_gamma 90.000000
_cell_volume 642.182981
_symmetry_space_group_name_H-M "P 2"
_symmetry_group_IT_number 3
_symmetry_cell_setting 'monoclinic'
loop_
_space_group_symop_operation_xyz
x,y,z
-x,y,-z
loop_
_atom_site_type_symbol
_atom_site_label
_atom_site_fract_x
_atom_site_fract_y
_atom_site_fract_z
Si Si1 0.442864 0.662440 0.405957
Si Si2 0.034271 0.129632 0.617080
Si Si3 0.675122 0.909627 0.818213
Si Si4 0.473957 0.022072 0.331546
Si Si5 0.679995 0.363992 0.196906
Si Si6 0.956658 0.406065 0.835799
Si Si7 0.025950 0.627156 0.367206
O O1 0.500000 0.613640 0.500000
O O2 0.543400 0.839782 0.326117
O O3 0.516583 0.510108 0.288733
O O4 0.201667 0.680360 0.534295
O O5 0.000000 0.142475 0.500000
O O6 0.027380 0.292284 0.693094
O O7 0.253859 0.051267 0.510165
O O8 0.848707 0.025061 0.771058
O O9 0.566750 0.007538 0.779130
O O10 0.812533 0.765707 0.691121
O O11 0.500000 0.854801 0.000000
O O12 0.601246 0.186292 0.280185
O O13 0.854205 0.422985 0.185834
O O14 0.777960 0.346966 0.017770
O O15 0.892162 0.560109 0.797839
O O16 0.000000 0.528391 0.500000
#
# Coordination Sequence:
#
# PCOD9113461 Si02
#       7
#     2   2   2   2   2   2   2
#     4  12  25  45  73 105 138 193 247 288 358 429
#     4  10  21  42  67  97 132 179 235 287 348 425
#     4  11  23  42  66 104 143 179 232 299 362 422
#     4  11  24  44  72 101 138 187 240 290 351 421
#     4  11  27  46  68 104 147 185 241 297 353 434
#     4  11  25  45  65 103 145 187 234 297 361 417
#     4  12  23  44  70 103 144 183 243 298 349 433
#
# _framework density 21.800640999999999
#
# number of rings (size 3 to 8) (size 9 to 14) (size 15 to 20)
#    0.000    0.857    4.286    2.571    4.000    1.143 
#    0.000    5.000    0.000    0.000    0.000    0.000 
#    0.000    0.000    0.000    0.000    0.000    0.000 
#
# Total GULP energy -78065.664847 kJ/mol
# GULP energy per Si atom -5576.118918 kJ/mol
# Density = 2.175102 g / cm^3
# Si number density = 21.800641 Si / 1000 Ang^3
#
#
#
# Elastic Constant Matrix: (Units=GPa)
#
#
# Indices 1 2 3 4 5 6 
#
# 1 48.8269 -3.1199 28.7026 0.0000 11.0048 0.0000
# 2 -3.1199 70.0783 23.6400 0.0000 0.3201 0.0000
# 3 28.7026 23.6400 110.5481 0.0000 -3.2293 0.0000
# 4 0.0000 0.0000 0.0000 35.5514 0.0000 3.5336
# 5 11.0048 0.3201 -3.2293 0.0000 23.5332 0.0000
# 6 0.0000 0.0000 0.0000 3.5336 0.0000 27.0016
#
#
#
# Elastic Compliance Matrix: (Units=1/GPa)
#
#
# Indices 1 2 3 4 5 6 
#
# 1 0.029479 0.004432 -0.009042 0.000000 -0.015087 0.000000
# 2 0.004432 0.016056 -0.004670 0.000000 -0.002932 0.000000
# 3 -0.009042 -0.004670 0.012568 0.000000 0.006017 0.000000
# 4 0.000000 0.000000 0.000000 0.028499 0.000000 -0.003730
# 5 -0.015087 -0.002932 0.006017 0.000000 0.050414 0.000000
# 6 0.000000 0.000000 0.000000 -0.003730 0.000000 0.037523
#
#
# Mechanical properties :
#
#
# Convention : Reuss Voigt Hill
#
# Bulk Modulus (GPa) = 25.28939 36.43318 30.86129
# Shear Modulus (GPa) = 24.23887 29.23260 26.73573
#
# Velocity S-wave (km/s) = 3.33805 3.66581 3.50576
# Velocity P-wave (km/s) = 5.14609 5.88777 5.52938
#
# Compressibility (1/GPa) = 0.03954228
#
# Stress axis : x y z
#
# Youngs Moduli (GPa) = 33.92189 62.28322 79.56747
#
# Poissons Ratio (x) = -0.27602 0.71948
# Poissons Ratio (y) = -0.15033 0.37155
# Poissons Ratio (z) = 0.30674 0.29084
#
# Static dielectric constant tensor:
#      x y z
#    x 0.092020 0.000000 -0.347690 
#    y 0.000000 1.908910 0.000000 
#    z -0.347690 0.000000 1.685200 
# 
# From -- ./inp_files/7573.got.cif
#   From: 2010.05.17/outbox.cif.g08.bks.cpg/sg3_4_cif.got.tgz:7573.got - 2010.06.03 18:33:08.
