data_PCOD9113966
_publ_section_title
;
Structure prediction by ZEFSAII (Michael W. Deem and Ramdas Pophale) SiO2 
 PCOD9113966
Probable space group: P 2
;
_chemical_formula_sum "Si O2"
_cell_formula_units_Z 15
_cell_length_a 5.298890
_cell_length_b 5.185996
_cell_length_c 22.827378
_cell_angle_alpha 90.000000
_cell_angle_beta 85.290152
_cell_angle_gamma 90.000000
_cell_volume 625.178657
_symmetry_space_group_name_H-M "P 2"
_symmetry_group_IT_number 3
_symmetry_cell_setting 'monoclinic'
loop_
_space_group_symop_operation_xyz
x,y,z
-x,y,-z
loop_
_atom_site_type_symbol
_atom_site_label
_atom_site_fract_x
_atom_site_fract_y
_atom_site_fract_z
Si Si1 0.152635 0.398280 0.845155
Si Si2 0.123665 0.730455 0.441316
Si Si3 0.143317 0.686013 0.057253
Si Si4 0.086350 0.490068 0.715933
Si Si5 0.500000 0.117059 0.500000
Si Si6 0.508166 0.338328 0.380980
Si Si7 0.852486 0.973658 0.671738
Si Si8 0.648087 0.191818 0.898008
O O1 0.199162 0.489916 0.778667
O O2 0.390738 0.253158 0.868968
O O3 0.070265 0.633650 0.889000
O O4 0.894896 0.227363 0.851376
O O5 0.300404 0.933603 0.472087
O O6 0.266718 0.513682 0.401440
O O7 0.000000 0.600314 0.500000
O O8 0.999809 0.900483 0.391833
O O9 0.296383 0.416936 0.055484
O O10 0.326378 0.915375 0.072975
O O11 0.000000 0.739013 0.000000
O O12 0.306307 0.498281 0.663307
O O13 0.887348 0.721850 0.710831
O O14 0.962639 0.214213 0.704568
O O15 0.610209 0.280306 0.444022
O O16 0.415013 0.083726 0.347598
#
# Coordination Sequence:
#
# PCOD9113966 Si02
#       8
#     2   2   2   2   1   2   2   2
#     4  10  28  47  75 109 150 202 249 310 365 448
#     4  11  24  43  69  95 136 171 228 293 367 439
#     4  10  24  47  74 116 156 203 247 313 369 446
#     4  12  28  45  74  96 144 182 245 291 370 429
#     4  10  24  40  66 100 134 176 228 286 384 434
#     4  11  26  44  70 103 134 183 235 302 368 449
#     4  11  27  46  67 102 131 186 228 300 354 445
#     4  10  25  45  74 111 151 197 254 301 374 431
#
# _framework density 23.993141999999999
#
# number of rings (size 3 to 8) (size 9 to 14) (size 15 to 20)
#    0.800    0.533    1.333    1.600   13.067    2.667 
#    0.000    0.000    0.000    0.000    0.000    0.000 
#    0.000    0.000    0.000    0.000    0.000    0.000 
#
# Total GULP energy -83783.137433 kJ/mol
# GULP energy per Si atom -5585.542496 kJ/mol
# Density = 2.393853 g / cm^3
# Si number density = 23.993142 Si / 1000 Ang^3
#
#
#
# Elastic Constant Matrix: (Units=GPa)
#
#
# Indices 1 2 3 4 5 6 
#
# 1 94.0067 40.6524 43.2133 0.0000 18.9836 0.0000
# 2 40.6524 144.9297 51.1291 0.0000 18.1641 0.0000
# 3 43.2133 51.1291 145.5482 0.0000 29.2558 0.0000
# 4 0.0000 0.0000 0.0000 5.1393 0.0000 40.1438
# 5 18.9836 18.1641 29.2558 0.0000 38.7299 0.0000
# 6 0.0000 0.0000 0.0000 40.1438 0.0000 -95.0378
#
#
#
# Elastic Compliance Matrix: (Units=1/GPa)
#
#
# Indices 1 2 3 4 5 6 
#
# 1 0.013565 -0.002494 -0.002417 0.000000 -0.003653 0.000000
# 2 -0.002494 0.008454 -0.001978 0.000000 -0.001248 0.000000
# 3 -0.002417 -0.001978 0.009265 0.000000 -0.004886 0.000000
# 4 0.000000 0.000000 0.000000 0.045257 0.000000 0.019117
# 5 -0.003653 -0.001248 -0.004886 0.000000 0.031887 0.000000
# 6 0.000000 0.000000 0.000000 0.019117 0.000000 -0.002447
#
#
# Mechanical properties :
#
#
# Convention : Reuss Voigt Hill
#
# Bulk Modulus (GPa) = 57.12668 72.71935 64.92301
# Shear Modulus (GPa) = 39.81050 6.39893 23.10471
#
# Velocity S-wave (km/s) = 4.07780 1.63486 3.10654
# Velocity P-wave (km/s) = 6.78473 5.82562 6.32339
#
# Compressibility (1/GPa) = 0.01750496
#
# Stress axis : x y z
#
# Youngs Moduli (GPa) = 73.71924 118.28880 107.92991
#
# Poissons Ratio (x) = 0.29506 0.26085
# Poissons Ratio (y) = 0.18389 0.21352
# Poissons Ratio (z) = 0.17817 0.23401
#
# Static dielectric constant tensor:
#      x y z
#    x 1.998210 0.000000 -0.064780 
#    y 0.000000 1.944090 0.000000 
#    z -0.064780 0.000000 1.932290 
# 
# From -- ./inp_files/16170.got.cif
#   From: 2010.05.17/outbox.cif.g08.bks.cpg/sg3_9_cif.got.tgz:16170.got - 2010.06.03 18:33:08.
