data_PCOD9113609
_publ_section_title
;
Structure prediction by ZEFSAII (Michael W. Deem and Ramdas Pophale) SiO2 
 PCOD9113609
Probable space group: P 2
;
_chemical_formula_sum "Si O2"
_cell_formula_units_Z 16
_cell_length_a 11.550446
_cell_length_b 9.645179
_cell_length_c 8.058472
_cell_angle_alpha 90.000000
_cell_angle_beta 48.400503
_cell_angle_gamma 90.000000
_cell_volume 671.350759
_symmetry_space_group_name_H-M "P 2"
_symmetry_group_IT_number 3
_symmetry_cell_setting 'monoclinic'
loop_
_space_group_symop_operation_xyz
x,y,z
-x,y,-z
loop_
_atom_site_type_symbol
_atom_site_label
_atom_site_fract_x
_atom_site_fract_y
_atom_site_fract_z
Si Si1 0.167853 0.715420 0.265145
Si Si2 0.330120 0.308078 0.598369
Si Si3 0.320972 0.826879 0.623107
Si Si4 0.177624 0.049781 0.567020
Si Si5 0.184147 0.982701 0.057629
Si Si6 0.681764 0.199850 0.875620
Si Si7 0.338299 0.475836 0.243702
Si Si8 0.172961 0.560357 0.905487
O O1 0.251811 0.620507 0.320460
O O2 0.000000 0.742661 0.500000
O O3 0.232967 0.861919 0.140959
O O4 0.167883 0.621898 0.096431
O O5 0.500000 0.269893 0.500000
O O6 0.233213 0.172868 0.637964
O O7 0.350154 0.401508 0.410482
O O8 0.247693 0.409890 0.807691
O O9 0.500000 0.841643 0.500000
O O10 0.271007 0.669300 0.700795
O O11 0.276342 0.909127 0.500001
O O12 0.216148 0.912423 0.852415
O O13 0.218973 0.113131 0.350130
O O14 0.996534 0.017673 0.754096
O O15 0.285808 0.120027 0.986396
O O16 0.737015 0.356983 0.801359
O O17 0.500000 0.196873 0.000000
O O18 0.500000 0.504411 0.000000
O O19 0.000000 0.557057 0.000000
#
# Coordination Sequence:
#
# PCOD9113609 Si02
#       8
#     2   2   2   2   2   2   2   2
#     4  11  23  41  64  92 128 170 217 271 329 395
#     4  11  24  43  67  99 134 176 226 278 336 403
#     4  11  23  41  64  91 127 172 222 278 336 401
#     4  11  23  41  65  95 131 173 221 278 336 399
#     4  11  24  42  64  95 129 170 222 278 336 401
#     4  10  22  40  62  92 129 170 218 273 332 400
#     4  10  23  41  63  93 129 169 216 271 328 394
#     4  11  24  41  63  95 132 174 222 277 336 403
#
# _framework density 23.832547999999999
#
# number of rings (size 3 to 8) (size 9 to 14) (size 15 to 20)
#    0.000    1.250    0.000    6.000    0.000    9.500 
#    0.000    0.000    0.000    0.000    0.000    0.000 
#    0.000    0.000    0.000    0.000    0.000    0.000 
#
# Total GULP energy -89561.807045 kJ/mol
# GULP energy per Si atom -5597.612940 kJ/mol
# Density = 2.377830 g / cm^3
# Si number density = 23.832548 Si / 1000 Ang^3
#
#
#
# Elastic Constant Matrix: (Units=GPa)
#
#
# Indices 1 2 3 4 5 6 
#
# 1 79.4922 36.2980 4.8832 0.0000 -9.9385 0.0000
# 2 36.2980 138.2174 11.3308 0.0000 0.5365 0.0000
# 3 4.8832 11.3308 68.3918 0.0000 -0.6547 0.0000
# 4 0.0000 0.0000 0.0000 49.1307 0.0000 2.3466
# 5 -9.9385 0.5365 -0.6547 0.0000 45.2435 0.0000
# 6 0.0000 0.0000 0.0000 2.3466 0.0000 48.1147
#
#
#
# Elastic Compliance Matrix: (Units=1/GPa)
#
#
# Indices 1 2 3 4 5 6 
#
# 1 0.014778 -0.003862 -0.000384 0.000000 0.003286 0.000000
# 2 -0.003862 0.008344 -0.001116 0.000000 -0.000963 0.000000
# 3 -0.000384 -0.001116 0.014835 0.000000 0.000144 0.000000
# 4 0.000000 0.000000 0.000000 0.020401 0.000000 -0.000995
# 5 0.003286 -0.000963 0.000144 0.000000 0.022838 0.000000
# 6 0.000000 0.000000 0.000000 -0.000995 0.000000 0.020832
#
#
# Mechanical properties :
#
#
# Convention : Reuss Voigt Hill
#
# Bulk Modulus (GPa) = 36.71912 43.45837 40.08874
# Shear Modulus (GPa) = 41.04043 44.07040 42.55541
#
# Velocity S-wave (km/s) = 4.15424 4.30486 4.23022
# Velocity P-wave (km/s) = 6.20088 6.55619 6.38100
#
# Compressibility (1/GPa) = 0.02723377
#
# Stress axis : x y z
#
# Youngs Moduli (GPa) = 67.66870 119.83982 67.40686
#
# Poissons Ratio (x) = 0.46284 0.02587
# Poissons Ratio (y) = 0.26135 0.07522
# Poissons Ratio (z) = 0.02597 0.13373
#
# Static dielectric constant tensor:
#      x y z
#    x 1.974560 0.000000 0.099390 
#    y 0.000000 1.880300 0.000000 
#    z 0.099390 0.000000 1.897540 
# 
# From -- ./inp_files/7404.got.cif
#   From: 2010.05.17/outbox.cif.g08.bks.cpg/sg3_4_cif.got.tgz:7404.got - 2010.06.03 18:33:08.
