data_PCOD9113242
_publ_section_title
;
Structure prediction by ZEFSAII (Michael W. Deem and Ramdas Pophale) SiO2 
 PCOD9113242
Probable space group: P 2
;
_chemical_formula_sum "Si O2"
_cell_formula_units_Z 14
_cell_length_a 8.463145
_cell_length_b 16.835980
_cell_length_c 9.513003
_cell_angle_alpha 90.000000
_cell_angle_beta 148.286114
_cell_angle_gamma 90.000000
_cell_volume 712.537101
_symmetry_space_group_name_H-M "P 2"
_symmetry_group_IT_number 3
_symmetry_cell_setting 'monoclinic'
loop_
_space_group_symop_operation_xyz
x,y,z
-x,y,-z
loop_
_atom_site_type_symbol
_atom_site_label
_atom_site_fract_x
_atom_site_fract_y
_atom_site_fract_z
Si Si1 0.343861 0.208870 0.730724
Si Si2 0.724695 0.884348 0.898742
Si Si3 0.653811 0.517857 0.768175
Si Si4 0.319085 0.635880 0.717433
Si Si5 0.116364 0.802694 0.435037
Si Si6 0.650487 0.030308 0.264812
Si Si7 0.347742 0.336763 0.233605
O O1 0.349798 0.119235 0.671853
O O2 0.506195 0.272335 0.756523
O O3 0.000000 0.230419 0.500000
O O4 0.500000 0.207131 0.000000
O O5 0.433744 0.837300 0.624431
O O6 0.562248 0.966974 0.818378
O O7 0.000000 0.895746 0.000000
O O8 0.864671 0.832018 0.133908
O O9 0.500000 0.524602 0.500000
O O10 0.528724 0.580662 0.783279
O O11 0.617914 0.427257 0.794729
O O12 0.000000 0.532462 0.000000
O O13 0.203395 0.711555 0.537837
O O14 0.000000 0.592086 0.500000
O O15 0.500000 0.656880 0.000000
O O16 0.000000 0.832524 0.500000
O O17 0.000000 0.008226 0.500000
O O18 0.500000 0.036589 0.000000
O O19 0.500000 0.333838 0.500000
O O20 0.000000 0.320830 0.000000
#
# Coordination Sequence:
#
# PCOD9113242 Si02
#       7
#     2   2   2   2   2   2   2
#     4  10  21  37  60  89 117 154 204 249 291 347
#     4  12  24  38  59  88 114 145 194 245 293 349
#     4  10  22  39  60  88 124 164 199 239 299 359
#     4  11  23  40  62  89 116 152 203 250 294 350
#     4  11  23  41  60  81 114 154 190 235 299 360
#     4  10  21  39  61  84 117 158 196 240 301 361
#     4  10  21  38  59  87 125 165 199 238 298 358
#
# _framework density 19.648098999999998
#
# number of rings (size 3 to 8) (size 9 to 14) (size 15 to 20)
#    0.000    1.429    0.000    6.429    0.000    3.429 
#    0.000    1.429    0.000    0.000    0.000    0.000 
#    0.000    0.000    0.000    0.000    0.000    0.000 
#
# Total GULP energy -78078.553680 kJ/mol
# GULP energy per Si atom -5577.039549 kJ/mol
# Density = 1.960338 g / cm^3
# Si number density = 19.648099 Si / 1000 Ang^3
#
#
#
# Elastic Constant Matrix: (Units=GPa)
#
#
# Indices 1 2 3 4 5 6 
#
# 1 98.7016 88.9802 39.7856 0.0000 7.1216 0.0000
# 2 88.9802 146.8657 30.2743 0.0000 14.2810 0.0000
# 3 39.7856 30.2743 131.6690 0.0000 30.7302 0.0000
# 4 0.0000 0.0000 0.0000 28.7099 0.0000 1.3222
# 5 7.1216 14.2810 30.7302 0.0000 20.1042 0.0000
# 6 0.0000 0.0000 0.0000 1.3222 0.0000 59.9280
#
#
#
# Elastic Compliance Matrix: (Units=1/GPa)
#
#
# Indices 1 2 3 4 5 6 
#
# 1 0.026326 -0.015701 -0.007417 0.000000 0.013166 0.000000
# 2 -0.015701 0.016724 0.003690 0.000000 -0.011958 0.000000
# 3 -0.007417 0.003690 0.013970 0.000000 -0.021347 0.000000
# 4 0.000000 0.000000 0.000000 0.034867 0.000000 -0.000769
# 5 0.013166 -0.011958 -0.021347 0.000000 0.086202 0.000000
# 6 0.000000 0.000000 0.000000 -0.000769 0.000000 0.016704
#
#
# Mechanical properties :
#
#
# Convention : Reuss Voigt Hill
#
# Bulk Modulus (GPa) = 55.05785 77.25739 66.15762
# Shear Modulus (GPa) = 20.85903 36.29483 28.57693
#
# Velocity S-wave (km/s) = 3.26180 4.30262 3.81785
# Velocity P-wave (km/s) = 6.50143 8.00558 7.29239
#
# Compressibility (1/GPa) = 0.01816272
#
# Stress axis : x y z
#
# Youngs Moduli (GPa) = 37.98471 59.79453 71.58242
#
# Poissons Ratio (x) = 0.93885 0.53096
# Poissons Ratio (y) = 0.59641 -0.26414
# Poissons Ratio (z) = 0.28175 -0.22064
#
# Static dielectric constant tensor:
#      x y z
#    x 1.659700 0.000000 -0.000500 
#    y 0.000000 1.751940 0.000000 
#    z -0.000500 0.000000 1.671730 
# 
# From -- ./inp_files/6242.got.cif
#   From: 2010.05.17/outbox.cif.g08.bks.cpg/sg3_4_cif.got.tgz:6242.got - 2010.06.03 18:33:08.
