data_PCOD9113077
_publ_section_title
;
Structure prediction by ZEFSAII (Michael W. Deem and Ramdas Pophale) SiO2 
 PCOD9113077
Probable space group: P 2
;
_chemical_formula_sum "Si O2"
_cell_formula_units_Z 14
_cell_length_a 8.923733
_cell_length_b 11.557569
_cell_length_c 9.484764
_cell_angle_alpha 90.000000
_cell_angle_beta 45.651577
_cell_angle_gamma 90.000000
_cell_volume 699.532212
_symmetry_space_group_name_H-M "P 2"
_symmetry_group_IT_number 3
_symmetry_cell_setting 'monoclinic'
loop_
_space_group_symop_operation_xyz
x,y,z
-x,y,-z
loop_
_atom_site_type_symbol
_atom_site_label
_atom_site_fract_x
_atom_site_fract_y
_atom_site_fract_z
Si Si1 0.712870 0.082750 0.942818
Si Si2 0.338108 0.455103 0.488287
Si Si3 0.702784 0.123879 0.284465
Si Si4 0.650931 0.484456 0.030196
Si Si5 0.950013 0.906242 0.199036
Si Si6 0.015573 0.288706 0.230416
Si Si7 0.978827 0.644436 0.184050
O O1 0.840949 0.190764 0.792648
O O2 0.859470 0.969909 0.847860
O O3 0.500000 0.065690 0.000000
O O4 0.676566 0.111222 0.133612
O O5 0.500000 0.412761 0.500000
O O6 0.489832 0.494522 0.264113
O O7 0.161692 0.359153 0.566899
O O8 0.202453 0.559879 0.642030
O O9 0.500000 0.162565 0.500000
O O10 0.883882 0.214479 0.204314
O O11 0.765619 0.000769 0.315134
O O12 0.500000 0.456401 0.000000
O O13 0.796471 0.596973 0.909701
O O14 0.822401 0.382639 0.938870
O O15 0.924086 0.775131 0.264744
O O16 0.000000 0.896655 0.000000
O O17 0.000000 0.636673 0.000000
#
# Coordination Sequence:
#
# PCOD9113077 Si02
#       7
#     2   2   2   2   2   2   2
#     4  10  21  39  61  88 120 157 193 246 307 346
#     4  11  23  37  65  91 115 162 203 240 295 357
#     4  10  21  38  62  89 115 157 203 243 292 356
#     4  11  25  42  60  90 126 157 195 250 304 348
#     4   8  18  38  61  84 119 156 197 247 293 348
#     4  10  23  38  60  86 124 156 199 240 289 361
#     4  10  20  39  63  91 120 155 205 250 287 355
#
# _framework density 20.013373000000001
#
# number of rings (size 3 to 8) (size 9 to 14) (size 15 to 20)
#    0.000    2.000    1.429    2.143    6.000    3.429 
#    5.143    2.143    3.143    0.000    0.000    0.000 
#    0.000    0.000    0.000    0.000    0.000    0.000 
#
# Total GULP energy -78074.168274 kJ/mol
# GULP energy per Si atom -5576.726305 kJ/mol
# Density = 1.996782 g / cm^3
# Si number density = 20.013373 Si / 1000 Ang^3
#
#
#
# Elastic Constant Matrix: (Units=GPa)
#
#
# Indices 1 2 3 4 5 6 
#
# 1 94.8440 36.1466 32.0310 0.0000 -27.1067 0.0000
# 2 36.1466 145.3026 40.2542 0.0000 -22.8699 0.0000
# 3 32.0310 40.2542 112.9926 0.0000 -25.2230 0.0000
# 4 0.0000 0.0000 0.0000 11.6961 0.0000 0.3603
# 5 -27.1067 -22.8699 -25.2230 0.0000 26.0905 0.0000
# 6 0.0000 0.0000 0.0000 0.3603 0.0000 7.1802
#
#
#
# Elastic Compliance Matrix: (Units=1/GPa)
#
#
# Indices 1 2 3 4 5 6 
#
# 1 0.015322 -0.001411 -0.000718 0.000000 0.013987 0.000000
# 2 -0.001411 0.008358 -0.001619 0.000000 0.004295 0.000000
# 3 -0.000718 -0.001619 0.011664 0.000000 0.009111 0.000000
# 4 0.000000 0.000000 0.000000 0.085631 0.000000 -0.004297
# 5 0.013987 0.004295 0.009111 0.000000 0.065433 0.000000
# 6 0.000000 0.000000 0.000000 -0.004297 0.000000 0.139488
#
#
# Mechanical properties :
#
#
# Convention : Reuss Voigt Hill
#
# Bulk Modulus (GPa) = 35.91006 63.33367 49.62186
# Shear Modulus (GPa) = 14.59115 25.30719 19.94917
#
# Velocity S-wave (km/s) = 2.70306 3.55986 3.16063
# Velocity P-wave (km/s) = 5.26536 6.97217 6.17799
#
# Compressibility (1/GPa) = 0.02784735
#
# Stress axis : x y z
#
# Youngs Moduli (GPa) = 65.26768 119.65048 85.73159
#
# Poissons Ratio (x) = 0.16883 0.06159
# Poissons Ratio (y) = 0.09209 0.13877
# Poissons Ratio (z) = 0.04689 0.19368
#
# Static dielectric constant tensor:
#      x y z
#    x 1.723110 0.000000 0.027240 
#    y 0.000000 1.758530 0.000000 
#    z 0.027240 0.000000 1.538790 
# 
# From -- ./inp_files/10968.got.cif
#   From: 2010.05.17/outbox.cif.g08.bks.cpg/sg3_6_cif.got.tgz:10968.got - 2010.06.03 18:33:08.
