data_PCOD9113829
_publ_section_title
;
Structure prediction by ZEFSAII (Michael W. Deem and Ramdas Pophale) SiO2 
 PCOD9113829
Probable space group: P 2
;
_chemical_formula_sum "Si O2"
_cell_formula_units_Z 14
_cell_length_a 16.030147
_cell_length_b 6.687076
_cell_length_c 8.106040
_cell_angle_alpha 90.000000
_cell_angle_beta 43.800089
_cell_angle_gamma 90.000000
_cell_volume 601.421778
_symmetry_space_group_name_H-M "P 2"
_symmetry_group_IT_number 3
_symmetry_cell_setting 'monoclinic'
loop_
_space_group_symop_operation_xyz
x,y,z
-x,y,-z
loop_
_atom_site_type_symbol
_atom_site_label
_atom_site_fract_x
_atom_site_fract_y
_atom_site_fract_z
Si Si1 0.716438 0.867210 0.577274
Si Si2 0.631725 0.708448 0.346242
Si Si3 0.000000 0.228918 0.500000
Si Si4 0.500000 0.147870 0.000000
Si Si5 0.142251 0.220089 0.780390
Si Si6 0.814125 0.485331 0.572236
Si Si7 0.387840 0.346093 0.882226
Si Si8 0.219455 0.040985 0.003663
O O1 0.656394 0.747968 0.506806
O O2 0.788556 0.718517 0.593060
O O3 0.817441 0.019622 0.369431
O O4 0.613895 0.000037 0.812220
O O5 0.500000 0.804485 0.500000
O O6 0.615466 0.499867 0.265943
O O7 0.747306 0.818902 0.099333
O O8 0.063438 0.381081 0.538232
O O9 0.105451 0.086304 0.280594
O O10 0.499402 0.295192 0.161235
O O11 0.196093 0.398841 0.597646
O O12 0.194777 0.186747 0.884773
O O13 0.000000 0.240282 0.000000
O O14 0.712342 0.415451 0.843771
O O15 0.343349 0.128399 0.894162
#
# Coordination Sequence:
#
# PCOD9113829 Si02
#       8
#     2   2   1   1   2   2   2   2
#     4  11  27  46  72 109 146 197 249 302 370 447
#     4  11  26  45  73 107 145 194 243 305 365 451
#     4  10  22  46  74 106 146 192 238 310 370 442
#     4  12  26  48  80 108 158 198 246 314 374 446
#     4  11  22  46  72 102 143 191 243 309 370 438
#     4  11  24  44  72 104 145 189 248 300 369 443
#     4  11  26  44  71 106 146 193 237 305 368 444
#     4  10  23  46  71 103 145 187 246 297 378 435
#
# _framework density 23.278172999999999
#
# number of rings (size 3 to 8) (size 9 to 14) (size 15 to 20)
#    0.000    1.143    2.857    1.714    6.000    3.429 
#   10.286    1.429    0.000    0.000    0.000    0.000 
#    0.000    0.000    0.000    0.000    0.000    0.000 
#
# Total GULP energy -78073.837768 kJ/mol
# GULP energy per Si atom -5576.702698 kJ/mol
# Density = 2.322519 g / cm^3
# Si number density = 23.278173 Si / 1000 Ang^3
#
#
#
# Elastic Constant Matrix: (Units=GPa)
#
#
# Indices 1 2 3 4 5 6 
#
# 1 62.2102 32.9913 8.5052 0.0000 0.2563 0.0000
# 2 32.9913 83.5382 43.6301 0.0000 -3.2906 0.0000
# 3 8.5052 43.6301 97.4400 0.0000 -7.5207 0.0000
# 4 0.0000 0.0000 0.0000 7.5904 0.0000 -4.1188
# 5 0.2563 -3.2906 -7.5207 0.0000 28.9644 0.0000
# 6 0.0000 0.0000 0.0000 -4.1188 0.0000 68.1395
#
#
#
# Elastic Compliance Matrix: (Units=1/GPa)
#
#
# Indices 1 2 3 4 5 6 
#
# 1 0.020775 -0.009472 0.002378 0.000000 -0.000642 0.000000
# 2 -0.009472 0.019943 -0.008084 0.000000 0.000251 0.000000
# 3 0.002378 -0.008084 0.013880 0.000000 0.002665 0.000000
# 4 0.000000 0.000000 0.000000 0.136212 0.000000 0.008234
# 5 -0.000642 0.000251 0.002665 0.000000 0.035251 0.000000
# 6 0.000000 0.000000 0.000000 0.008234 0.000000 0.015173
#
#
# Mechanical properties :
#
#
# Convention : Reuss Voigt Hill
#
# Bulk Modulus (GPa) = 41.24769 45.93794 43.59282
# Shear Modulus (GPa) = 17.87808 31.47631 24.67719
#
# Velocity S-wave (km/s) = 2.77432 3.68119 3.25945
# Velocity P-wave (km/s) = 5.29343 6.15186 5.73872
#
# Compressibility (1/GPa) = 0.02424378
#
# Stress axis : x y z
#
# Youngs Moduli (GPa) = 48.13414 50.14257 72.04411
#
# Poissons Ratio (x) = 0.47496 -0.17134
# Poissons Ratio (y) = 0.45593 0.58238
# Poissons Ratio (z) = -0.11448 0.40534
#
# Static dielectric constant tensor:
#      x y z
#    x 2.003960 0.000000 0.048670 
#    y 0.000000 1.919710 0.000000 
#    z 0.048670 0.000000 1.839820 
# 
# From -- ./inp_files/6740.got.cif
#   From: 2010.05.17/outbox.cif.g08.bks.cpg/sg3_4_cif.got.tgz:6740.got - 2010.06.03 18:33:08.
