data_PCOD9113028
_publ_section_title
;
Structure prediction by ZEFSAII (Michael W. Deem and Ramdas Pophale) SiO2 
 PCOD9113028
Probable space group: P 2
;
_chemical_formula_sum "Si O2"
_cell_formula_units_Z 11
_cell_length_a 9.201052
_cell_length_b 5.851286
_cell_length_c 8.084595
_cell_angle_alpha 90.000000
_cell_angle_beta 99.679093
_cell_angle_gamma 90.000000
_cell_volume 429.062366
_symmetry_space_group_name_H-M "P 2"
_symmetry_group_IT_number 3
_symmetry_cell_setting 'monoclinic'
loop_
_space_group_symop_operation_xyz
x,y,z
-x,y,-z
loop_
_atom_site_type_symbol
_atom_site_label
_atom_site_fract_x
_atom_site_fract_y
_atom_site_fract_z
Si Si1 0.990438 0.575340 0.289103
Si Si2 0.724839 0.890723 0.611423
Si Si3 0.732153 0.296327 0.386588
Si Si4 0.767801 0.927867 0.104210
Si Si5 0.459562 0.695844 0.736231
Si Si6 0.000000 0.223657 0.000000
O O1 0.119838 0.759478 0.352645
O O2 0.028033 0.374827 0.168302
O O3 0.874003 0.463339 0.399761
O O4 0.883265 0.731647 0.160534
O O5 0.623296 0.796365 0.742440
O O6 0.633453 0.796715 0.436035
O O7 0.729681 0.159024 0.559906
O O8 0.581926 0.429080 0.303818
O O9 0.763270 0.113917 0.250366
O O10 0.618673 0.790018 0.114944
O O11 0.849456 0.073423 0.979071
#
# Coordination Sequence:
#
# PCOD9113028 Si02
#       6
#     2   2   2   2   2   1
#     4  10  21  37  63  92 120 160 213 259 306 368
#     4  10  21  36  58  92 128 160 199 253 316 382
#     4   9  20  37  57  86 125 162 198 255 312 363
#     4   9  19  36  60  83 113 161 209 255 307 361
#     4   9  20  36  57  88 127 161 198 249 316 383
#     4  10  20  38  62  86 118 162 216 268 302 348
#
# _framework density 25.6373
#
# number of rings (size 3 to 8) (size 9 to 14) (size 15 to 20)
#    0.000    2.545    0.000    0.545    0.000   16.727 
#    0.000    1.818    0.000   26.182    0.000    0.000 
#    0.000    0.000    0.000    0.000    0.000    0.000 
#
# Total GULP energy -61269.090145 kJ/mol
# GULP energy per Si atom -5569.917286 kJ/mol
# Density = 2.557895 g / cm^3
# Si number density = 25.637300 Si / 1000 Ang^3
#
#
#
# Elastic Constant Matrix: (Units=GPa)
#
#
# Indices 1 2 3 4 5 6 
#
# 1 169.8538 77.2864 50.1264 0.0000 -25.8454 0.0000
# 2 77.2864 141.3660 28.0832 0.0000 -36.0778 0.0000
# 3 50.1264 28.0832 36.5582 0.0000 -20.3174 0.0000
# 4 0.0000 0.0000 0.0000 200.0814 0.0000 125.8429
# 5 -25.8454 -36.0778 -20.3174 0.0000 45.7701 0.0000
# 6 0.0000 0.0000 0.0000 125.8429 0.0000 176.5492
#
#
#
# Elastic Compliance Matrix: (Units=1/GPa)
#
#
# Indices 1 2 3 4 5 6 
#
# 1 0.011606 -0.004310 -0.014402 0.000000 -0.003237 0.000000
# 2 -0.004310 0.010891 0.001277 0.000000 0.006718 0.000000
# 3 -0.014402 0.001277 0.055966 0.000000 0.017718 0.000000
# 4 0.000000 0.000000 0.000000 0.009059 0.000000 -0.006458
# 5 -0.003237 0.006718 0.017718 0.000000 0.033181 0.000000
# 6 0.000000 0.000000 0.000000 -0.006458 0.000000 0.010267
#
#
# Mechanical properties :
#
#
# Convention : Reuss Voigt Hill
#
# Bulk Modulus (GPa) = 22.93896 73.19666 48.06781
# Shear Modulus (GPa) = 27.72063 97.29894 62.50978
#
# Velocity S-wave (km/s) = 3.29182 6.16721 4.94321
# Velocity P-wave (km/s) = 4.83891 8.90649 7.16730
#
# Compressibility (1/GPa) = 0.04359395
#
# Stress axis : x y z
#
# Youngs Moduli (GPa) = 86.15996 91.81851 17.86805
#
# Poissons Ratio (x) = 0.39577 0.25733
# Poissons Ratio (y) = 0.37138 -0.02282
# Poissons Ratio (z) = 1.24084 -0.11728
#
# Static dielectric constant tensor:
#      x y z
#    x 2.053300 0.000000 -0.043010 
#    y 0.000000 2.145350 0.000000 
#    z -0.043010 0.000000 1.206120 
# 
# From -- ./inp_files/10135.got.cif
#   From: 2010.05.17/outbox.cif.g08.bks.cpg/sg3_6_cif.got.tgz:10135.got - 2010.06.03 18:33:08.
