data_PCOD9113944
_publ_section_title
;
Structure prediction by ZEFSAII (Michael W. Deem and Ramdas Pophale) SiO2 
 PCOD9113944
Probable space group: P 2
;
_chemical_formula_sum "Si O2"
_cell_formula_units_Z 11
_cell_length_a 7.767417
_cell_length_b 6.470973
_cell_length_c 13.421505
_cell_angle_alpha 90.000000
_cell_angle_beta 44.375915
_cell_angle_gamma 90.000000
_cell_volume 471.791424
_symmetry_space_group_name_H-M "P 2"
_symmetry_group_IT_number 3
_symmetry_cell_setting 'monoclinic'
loop_
_space_group_symop_operation_xyz
x,y,z
-x,y,-z
loop_
_atom_site_type_symbol
_atom_site_label
_atom_site_fract_x
_atom_site_fract_y
_atom_site_fract_z
Si Si1 0.350814 0.431780 0.266077
Si Si2 0.252194 0.108659 0.154667
Si Si3 0.137297 0.461282 0.038262
Si Si4 0.782429 0.463590 0.462389
Si Si5 0.839100 0.791657 0.274487
Si Si6 0.500000 0.088147 0.500000
O O1 0.326542 0.198438 0.232086
O O2 0.381463 0.473682 0.370223
O O3 0.070268 0.500622 0.365512
O O4 0.583862 0.518803 0.109446
O O5 0.162724 0.302875 0.121000
O O6 0.500000 0.032095 0.000000
O O7 0.056032 0.928464 0.232788
O O8 0.970251 0.659221 0.134376
O O9 0.000000 0.358566 0.000000
O O10 0.744638 0.623684 0.391044
O O11 0.715806 0.237091 0.449301
O O12 0.612000 0.952170 0.363188
#
# Coordination Sequence:
#
# PCOD9113944 Si02
#       6
#     2   2   2   2   2   1
#     4  10  23  48  71  99 145 190 228 292 363 416
#     4  10  23  46  72 102 140 189 239 296 351 419
#     4  11  26  45  72 101 148 191 236 300 354 414
#     4  11  25  47  73 103 146 188 231 303 362 414
#     4  12  25  44  76 105 139 192 241 293 347 437
#     4  12  26  46  74 102 152 182 244 288 364 418
#
# _framework density 23.315387999999999
#
# number of rings (size 3 to 8) (size 9 to 14) (size 15 to 20)
#    0.000    1.091    3.636    0.545   10.182    0.727 
#    9.818    0.000    0.000    0.000    0.000    0.000 
#    0.000    0.000    0.000    0.000    0.000    0.000 
#
# Total GULP energy -61349.206422 kJ/mol
# GULP energy per Si atom -5577.200584 kJ/mol
# Density = 2.326232 g / cm^3
# Si number density = 23.315388 Si / 1000 Ang^3
#
#
#
# Elastic Constant Matrix: (Units=GPa)
#
#
# Indices 1 2 3 4 5 6 
#
# 1 72.5691 22.6525 39.1123 0.0000 -1.5521 0.0000
# 2 22.6525 89.7312 59.3659 0.0000 -2.5803 0.0000
# 3 39.1123 59.3659 173.3998 0.0000 -8.1821 0.0000
# 4 0.0000 0.0000 0.0000 20.7649 0.0000 -6.2948
# 5 -1.5521 -2.5803 -8.1821 0.0000 44.5902 0.0000
# 6 0.0000 0.0000 0.0000 -6.2948 0.0000 15.4906
#
#
#
# Elastic Compliance Matrix: (Units=1/GPa)
#
#
# Indices 1 2 3 4 5 6 
#
# 1 0.015998 -0.002134 -0.002882 0.000000 -0.000096 0.000000
# 2 -0.002134 0.014693 -0.004552 0.000000 -0.000059 0.000000
# 3 -0.002882 -0.004552 0.008028 0.000000 0.001109 0.000000
# 4 0.000000 0.000000 0.000000 0.054924 0.000000 0.022319
# 5 -0.000096 -0.000059 0.001109 0.000000 0.022623 0.000000
# 6 0.000000 0.000000 0.000000 0.022319 0.000000 0.073625
#
#
# Mechanical properties :
#
#
# Convention : Reuss Voigt Hill
#
# Bulk Modulus (GPa) = 51.06820 64.21794 57.64307
# Shear Modulus (GPa) = 23.19602 30.47375 26.83489
#
# Velocity S-wave (km/s) = 3.15759 3.61920 3.39625
# Velocity P-wave (km/s) = 5.93672 6.71325 6.33689
#
# Compressibility (1/GPa) = 0.01958166
#
# Stress axis : x y z
#
# Youngs Moduli (GPa) = 62.50936 68.06002 124.56708
#
# Poissons Ratio (x) = 0.14527 0.35902
# Poissons Ratio (y) = 0.13343 0.56699
# Poissons Ratio (z) = 0.18016 0.30979
#
# Static dielectric constant tensor:
#      x y z
#    x 1.938880 0.000000 -0.006210 
#    y 0.000000 1.857800 0.000000 
#    z -0.006210 0.000000 1.929880 
# 
# From -- ./inp_files/8137.got.cif
#   From: 2010.05.17/outbox.cif.g08.bks.cpg/sg3_5_cif.got.tgz:8137.got - 2010.06.03 18:33:08.
