data_PCOD9113799
_publ_section_title
;
Structure prediction by ZEFSAII (Michael W. Deem and Ramdas Pophale) SiO2 
 PCOD9113799
Probable space group: P 2
;
_chemical_formula_sum "Si O2"
_cell_formula_units_Z 14
_cell_length_a 20.239982
_cell_length_b 5.137416
_cell_length_c 15.048009
_cell_angle_alpha 90.000000
_cell_angle_beta 160.126691
_cell_angle_gamma 90.000000
_cell_volume 531.909888
_symmetry_space_group_name_H-M "P 2"
_symmetry_group_IT_number 3
_symmetry_cell_setting 'monoclinic'
loop_
_space_group_symop_operation_xyz
x,y,z
-x,y,-z
loop_
_atom_site_type_symbol
_atom_site_label
_atom_site_fract_x
_atom_site_fract_y
_atom_site_fract_z
Si Si1 0.857911 0.280750 0.250298
Si Si2 0.955609 0.621195 0.221840
Si Si3 0.194225 0.046044 0.275536
Si Si4 0.516687 0.521044 0.919495
Si Si5 0.278369 0.377946 0.217369
Si Si6 0.275763 0.003656 0.575730
Si Si7 0.378406 0.968052 0.189782
O O1 0.993263 0.409423 0.344890
O O2 0.000000 0.135528 0.500000
O O3 0.730666 0.472292 0.151666
O O4 0.691418 0.134391 0.983461
O O5 0.100387 0.864162 0.407478
O O6 0.904430 0.526412 0.058126
O O7 0.739509 0.708885 0.972460
O O8 0.188777 0.099258 0.372604
O O9 0.397697 0.906587 0.518620
O O10 0.219186 0.288470 0.240458
O O11 0.000000 0.905113 0.000000
O O12 0.413972 0.752899 0.735819
O O13 0.395032 0.249361 0.763170
O O14 0.500000 0.612959 0.000000
O O15 0.500000 0.494144 0.500000
O O16 0.309356 0.128394 0.189869
#
# Coordination Sequence:
#
# PCOD9113799 Si02
#       7
#     2   2   2   2   2   2   2
#     4  11  25  45  77 111 152 212 269 337 405 487
#     4  11  25  43  75 105 157 205 273 333 401 487
#     4  11  23  45  72 110 152 210 260 329 406 473
#     4  12  28  53  79 117 163 210 265 341 416 477
#     4   9  22  42  66 101 144 204 259 324 395 474
#     4  12  28  49  79 115 163 206 267 339 404 486
#     4  10  22  45  68 103 153 196 267 328 390 485
#
# _framework density 26.320247999999999
#
# number of rings (size 3 to 8) (size 9 to 14) (size 15 to 20)
#    0.000    1.143    1.429    3.000    8.000    3.429 
#    5.143    0.000    0.000    0.000    0.000    0.000 
#    0.000    0.000    0.000    0.000    0.000    0.000 
#
# Total GULP energy -78278.266947 kJ/mol
# GULP energy per Si atom -5591.304782 kJ/mol
# Density = 2.626034 g / cm^3
# Si number density = 26.320248 Si / 1000 Ang^3
#
#
#
# Elastic Constant Matrix: (Units=GPa)
#
#
# Indices 1 2 3 4 5 6 
#
# 1 104.4355 18.0357 28.9644 0.0000 -11.3681 0.0000
# 2 18.0357 92.9993 33.0052 0.0000 1.6111 0.0000
# 3 28.9644 33.0052 127.1525 0.0000 -0.7171 0.0000
# 4 0.0000 0.0000 0.0000 28.2249 0.0000 3.7130
# 5 -11.3681 1.6111 -0.7171 0.0000 50.2253 0.0000
# 6 0.0000 0.0000 0.0000 3.7130 0.0000 31.9822
#
#
#
# Elastic Compliance Matrix: (Units=1/GPa)
#
#
# Indices 1 2 3 4 5 6 
#
# 1 0.010647 -0.001378 -0.002054 0.000000 0.002425 0.000000
# 2 -0.001378 0.012031 -0.002813 0.000000 -0.000738 0.000000
# 3 -0.002054 -0.002813 0.009061 0.000000 -0.000245 0.000000
# 4 0.000000 0.000000 0.000000 0.035979 0.000000 -0.004177
# 5 0.002425 -0.000738 -0.000245 0.000000 0.020479 0.000000
# 6 0.000000 0.000000 0.000000 -0.004177 0.000000 0.031752
#
#
# Mechanical properties :
#
#
# Convention : Reuss Voigt Hill
#
# Bulk Modulus (GPa) = 51.95017 53.84423 52.89720
# Shear Modulus (GPa) = 36.00838 38.39195 37.20017
#
# Velocity S-wave (km/s) = 3.70278 3.82337 3.76356
# Velocity P-wave (km/s) = 6.16939 6.32397 6.24716
#
# Compressibility (1/GPa) = 0.01924922
#
# Stress axis : x y z
#
# Youngs Moduli (GPa) = 93.92478 83.11740 110.35942
#
# Poissons Ratio (x) = 0.11452 0.22667
# Poissons Ratio (y) = 0.12941 0.31047
# Poissons Ratio (z) = 0.19292 0.23383
#
# Static dielectric constant tensor:
#      x y z
#    x 2.199510 0.000000 -0.041560 
#    y 0.000000 2.079300 0.000000 
#    z -0.041560 0.000000 2.139010 
# 
# From -- ./inp_files/8374.got.cif
#   From: 2010.05.17/outbox.cif.g08.bks.cpg/sg3_5_cif.got.tgz:8374.got - 2010.06.03 18:33:08.
