data_PCOD9113780
_publ_section_title
;
Structure prediction by ZEFSAII (Michael W. Deem and Ramdas Pophale) SiO2 
 PCOD9113780
Probable space group: P 2
;
_chemical_formula_sum "Si O2"
_cell_formula_units_Z 14
_cell_length_a 5.535789
_cell_length_b 14.079416
_cell_length_c 9.556409
_cell_angle_alpha 90.000000
_cell_angle_beta 126.258213
_cell_angle_gamma 90.000000
_cell_volume 600.603399
_symmetry_space_group_name_H-M "P 2"
_symmetry_group_IT_number 3
_symmetry_cell_setting 'monoclinic'
loop_
_space_group_symop_operation_xyz
x,y,z
-x,y,-z
loop_
_atom_site_type_symbol
_atom_site_label
_atom_site_fract_x
_atom_site_fract_y
_atom_site_fract_z
Si Si1 0.351613 0.447280 0.098447
Si Si2 0.490494 0.131439 0.157895
Si Si3 0.221698 0.650730 0.971050
Si Si4 0.836697 0.864105 0.654707
Si Si5 0.000000 0.027576 0.500000
Si Si6 0.000000 0.964794 0.000000
Si Si7 0.364975 0.303354 0.609778
Si Si8 0.142585 0.652450 0.402490
O O1 0.546963 0.401971 0.287691
O O2 0.500000 0.417754 0.000000
O O3 0.358754 0.561916 0.101043
O O4 0.000000 0.420520 0.000000
O O5 0.444421 0.224025 0.237253
O O6 0.786342 0.091060 0.332892
O O7 0.500000 0.161624 0.000000
O O8 0.273611 0.039623 0.083233
O O9 0.022026 0.602911 0.782503
O O10 0.500000 0.705267 0.000000
O O11 0.000000 0.703745 0.000000
O O12 0.500000 0.838251 0.500000
O O13 0.976993 0.762468 0.662477
O O14 0.871113 0.954997 0.568329
O O15 0.934342 0.900765 0.840785
O O16 0.500000 0.298927 0.500000
O O17 0.000000 0.290483 0.500000
O O18 0.500000 0.643136 0.500000
O O19 0.000000 0.622439 0.500000
#
# Coordination Sequence:
#
# PCOD9113780 Si02
#       8
#     2   2   2   2   1   1   2   2
#     4  10  22  46  73 100 137 175 225 287 352 420
#     4  12  27  42  69  98 143 187 239 289 358 412
#     4  10  22  44  70 101 137 175 223 287 346 422
#     4  11  24  42  65  97 144 182 239 292 341 412
#     4  12  22  46  62  96 142 186 234 296 340 410
#     4  12  26  40  68 102 128 202 232 286 358 412
#     4  12  28  46  71 105 140 186 234 293 353 423
#     4  11  24  44  69 103 139 185 230 289 354 412
#
# _framework density 23.309891
#
# number of rings (size 3 to 8) (size 9 to 14) (size 15 to 20)
#    0.000    0.857    4.286    2.143    6.000    0.000 
#    2.571   17.143    0.000    0.000    0.000    0.000 
#    0.000    0.000    0.000    0.000    0.000    0.000 
#
# Total GULP energy -78071.181007 kJ/mol
# GULP energy per Si atom -5576.512929 kJ/mol
# Density = 2.325684 g / cm^3
# Si number density = 23.309891 Si / 1000 Ang^3
#
#
#
# Elastic Constant Matrix: (Units=GPa)
#
#
# Indices 1 2 3 4 5 6 
#
# 1 173.8116 1.4681 70.4750 0.0000 -13.3846 0.0000
# 2 1.4681 63.5543 14.5281 0.0000 -1.0002 0.0000
# 3 70.4750 14.5281 150.6331 0.0000 -12.3954 0.0000
# 4 0.0000 0.0000 0.0000 51.3625 0.0000 -0.1394
# 5 -13.3846 -1.0002 -12.3954 0.0000 53.7713 0.0000
# 6 0.0000 0.0000 0.0000 -0.1394 0.0000 20.1279
#
#
#
# Elastic Compliance Matrix: (Units=1/GPa)
#
#
# Indices 1 2 3 4 5 6 
#
# 1 0.007179 0.000612 -0.003333 0.000000 0.001030 0.000000
# 2 0.000612 0.016142 -0.001841 0.000000 0.000028 0.000000
# 3 -0.003333 -0.001841 0.008465 0.000000 0.001087 0.000000
# 4 0.000000 0.000000 0.000000 0.019470 0.000000 0.000135
# 5 0.001030 0.000028 0.001087 0.000000 0.019105 0.000000
# 6 0.000000 0.000000 0.000000 0.000135 0.000000 0.049683
#
#
# Mechanical properties :
#
#
# Convention : Reuss Voigt Hill
#
# Bulk Modulus (GPa) = 44.12610 62.32682 53.22646
# Shear Modulus (GPa) = 36.57081 45.15420 40.86250
#
# Velocity S-wave (km/s) = 3.96523 4.40605 4.19144
# Velocity P-wave (km/s) = 6.31944 7.25816 6.80500
#
# Compressibility (1/GPa) = 0.02266232
#
# Stress axis : x y z
#
# Youngs Moduli (GPa) = 139.29649 61.95137 118.13252
#
# Poissons Ratio (x) = -0.03793 0.39374
# Poissons Ratio (y) = -0.08529 0.21748
# Poissons Ratio (z) = 0.46428 0.11405
#
# Static dielectric constant tensor:
#      x y z
#    x 1.939140 0.000000 -0.047360 
#    y 0.000000 2.046440 0.000000 
#    z -0.047360 0.000000 1.825470 
# 
# From -- ./inp_files/1434.got.cif
#   From: 2010.05.17/outbox.cif.g08.bks.cpg/sg3_1_cif.got.tgz:1434.got - 2010.06.03 18:33:08.
