data_PCOD9113207
_publ_section_title
;
Structure prediction by ZEFSAII (Michael W. Deem and Ramdas Pophale) SiO2 
 PCOD9113207
Probable space group: P 2
;
_chemical_formula_sum "Si O2"
_cell_formula_units_Z 15
_cell_length_a 8.143103
_cell_length_b 8.186549
_cell_length_c 11.649384
_cell_angle_alpha 90.000000
_cell_angle_beta 62.924869
_cell_angle_gamma 90.000000
_cell_volume 691.486972
_symmetry_space_group_name_H-M "P 2"
_symmetry_group_IT_number 3
_symmetry_cell_setting 'monoclinic'
loop_
_space_group_symop_operation_xyz
x,y,z
-x,y,-z
loop_
_atom_site_type_symbol
_atom_site_label
_atom_site_fract_x
_atom_site_fract_y
_atom_site_fract_z
Si Si1 0.502733 0.644680 0.859603
Si Si2 0.921413 0.677684 0.726340
Si Si3 0.886350 0.313622 0.732415
Si Si4 0.828298 0.839969 0.977664
Si Si5 0.809330 0.190813 0.989592
Si Si6 0.500000 0.144223 0.500000
Si Si7 0.504966 0.304339 0.255843
Si Si8 0.105608 0.007484 0.586725
O O1 0.706977 0.700556 0.757703
O O2 0.347518 0.780583 0.896957
O O3 0.454970 0.489011 0.798062
O O4 0.500000 0.611560 0.000000
O O5 0.971402 0.491977 0.678389
O O6 0.048426 0.826490 0.646443
O O7 0.899695 0.702286 0.869319
O O8 0.807427 0.319762 0.887117
O O9 0.710753 0.281063 0.706917
O O10 0.026592 0.163536 0.682149
O O11 0.000000 0.879629 0.000000
O O12 0.785871 0.014313 0.934808
O O13 0.641154 0.202362 0.131193
O O14 0.000000 0.212150 0.000000
O O15 0.538769 0.256330 0.376184
O O16 0.324154 0.034098 0.521695
O O17 0.000000 0.024954 0.500000
#
# Coordination Sequence:
#
# PCOD9113207 Si02
#       8
#     2   2   2   2   2   1   2   2
#     4   9  20  40  67 103 139 179 234 288 360 426
#     4  10  23  43  68  99 135 180 238 284 350 428
#     4  11  23  45  75 103 135 189 235 294 367 413
#     4  10  21  34  60 104 143 172 221 291 354 423
#     4  11  22  37  68 105 138 182 233 290 364 419
#     4  12  28  46  74 104 142 192 252 280 358 432
#     4  11  23  41  68 101 139 184 241 289 342 437
#     4  12  26  50  73  98 143 191 235 300 347 424
#
# _framework density 21.692381999999998
#
# number of rings (size 3 to 8) (size 9 to 14) (size 15 to 20)
#    0.000    1.333    2.667    3.600    3.733    4.800 
#    0.000    0.667    0.000    0.000    0.000    0.000 
#    0.000    0.000    0.000    0.000    0.000    0.000 
#
# Total GULP energy -83688.343298 kJ/mol
# GULP energy per Si atom -5579.222887 kJ/mol
# Density = 2.164301 g / cm^3
# Si number density = 21.692382 Si / 1000 Ang^3
#
#
#
# Elastic Constant Matrix: (Units=GPa)
#
#
# Indices 1 2 3 4 5 6 
#
# 1 78.6925 43.6919 23.2011 0.0000 -4.4204 0.0000
# 2 43.6919 125.1278 34.6670 0.0000 -18.7652 0.0000
# 3 23.2011 34.6670 64.6209 0.0000 2.3677 0.0000
# 4 0.0000 0.0000 0.0000 36.5996 0.0000 0.9641
# 5 -4.4204 -18.7652 2.3677 0.0000 30.1125 0.0000
# 6 0.0000 0.0000 0.0000 0.9641 0.0000 17.2056
#
#
#
# Elastic Compliance Matrix: (Units=1/GPa)
#
#
# Indices 1 2 3 4 5 6 
#
# 1 0.016344 -0.004865 -0.003245 0.000000 -0.000377 0.000000
# 2 -0.004865 0.012182 -0.005055 0.000000 0.007275 0.000000
# 3 -0.003245 -0.005055 0.019541 0.000000 -0.005163 0.000000
# 4 0.000000 0.000000 0.000000 0.027363 0.000000 -0.001533
# 5 -0.000377 0.007275 -0.005163 0.000000 0.038093 0.000000
# 6 0.000000 0.000000 0.000000 -0.001533 0.000000 0.058207
#
#
# Mechanical properties :
#
#
# Convention : Reuss Voigt Hill
#
# Bulk Modulus (GPa) = 46.00200 52.39567 49.19883
# Shear Modulus (GPa) = 24.35409 27.90894 26.13152
#
# Velocity S-wave (km/s) = 3.35431 3.59078 3.47456
# Velocity P-wave (km/s) = 6.02116 6.43413 6.23107
#
# Compressibility (1/GPa) = 0.02173819
#
# Stress axis : x y z
#
# Youngs Moduli (GPa) = 61.18430 82.08827 51.17466
#
# Poissons Ratio (x) = 0.39933 0.16604
# Poissons Ratio (y) = 0.29764 0.25870
# Poissons Ratio (z) = 0.19851 0.41498
#
# Static dielectric constant tensor:
#      x y z
#    x 1.728050 0.000000 0.024750 
#    y 0.000000 1.807950 0.000000 
#    z 0.024750 0.000000 1.802970 
# 
# From -- ./inp_files/10526.got.cif
#   From: 2010.05.17/outbox.cif.g08.bks.cpg/sg3_6_cif.got.tgz:10526.got - 2010.06.03 18:33:08.
