data_PCOD9113488
_publ_section_title
;
Structure prediction by ZEFSAII (Michael W. Deem and Ramdas Pophale) SiO2 
 PCOD9113488
Probable space group: P 2
;
_chemical_formula_sum "Si O2"
_cell_formula_units_Z 14
_cell_length_a 22.031581
_cell_length_b 5.126140
_cell_length_c 7.634436
_cell_angle_alpha 90.000000
_cell_angle_beta 45.299205
_cell_angle_gamma 90.000000
_cell_volume 612.850041
_symmetry_space_group_name_H-M "P 2"
_symmetry_group_IT_number 3
_symmetry_cell_setting 'monoclinic'
loop_
_space_group_symop_operation_xyz
x,y,z
-x,y,-z
loop_
_atom_site_type_symbol
_atom_site_label
_atom_site_fract_x
_atom_site_fract_y
_atom_site_fract_z
Si Si1 0.244567 0.455050 0.355633
Si Si2 0.079893 0.273380 0.110926
Si Si3 0.889186 0.146105 0.564333
Si Si4 0.427726 0.437090 0.002448
Si Si5 0.750427 0.765338 0.988853
Si Si6 0.170408 0.761920 0.809713
Si Si7 0.575173 0.946494 0.218679
O O1 0.167322 0.262071 0.475944
O O2 0.266908 0.533028 0.110578
O O3 0.212076 0.692484 0.540445
O O4 0.332446 0.356856 0.260331
O O5 0.103971 0.309067 0.267539
O O6 0.986023 0.145362 0.300974
O O7 0.093334 0.553020 0.994144
O O8 0.141019 0.056469 0.901554
O O9 0.838411 0.893902 0.737346
O O10 0.421960 0.732471 0.942510
O O11 0.446444 0.229591 0.812613
O O12 0.500000 0.418754 0.000000
O O13 0.764506 0.701169 0.162442
O O14 0.667564 0.945652 0.125843
O O15 0.500000 0.862013 0.500000
#
# Coordination Sequence:
#
# PCOD9113488 Si02
#       7
#     2   2   2   2   2   2   2
#     4  11  24  43  70  96 138 181 219 281 342 400
#     4  10  24  42  67  98 134 179 228 278 335 395
#     4  10  21  43  69  91 139 181 221 280 341 394
#     4  11  25  46  68 103 139 175 224 279 346 408
#     4  10  23  45  67  97 138 176 227 274 340 408
#     4  11  25  42  66 103 131 178 228 278 330 399
#     4  11  24  44  72 102 133 179 223 279 343 407
#
# _framework density 22.844089
#
# number of rings (size 3 to 8) (size 9 to 14) (size 15 to 20)
#    0.000    1.429    2.857    0.857    6.000    1.714 
#    5.143    0.000    0.000    0.000    0.000    0.000 
#    0.000    0.000    0.000    0.000    0.000    0.000 
#
# Total GULP energy -78182.963630 kJ/mol
# GULP energy per Si atom -5584.497402 kJ/mol
# Density = 2.279209 g / cm^3
# Si number density = 22.844089 Si / 1000 Ang^3
#
#
#
# Elastic Constant Matrix: (Units=GPa)
#
#
# Indices 1 2 3 4 5 6 
#
# 1 112.8994 24.4485 56.8426 0.0000 -19.2077 0.0000
# 2 24.4485 63.9584 1.2989 0.0000 3.9946 0.0000
# 3 56.8426 1.2989 63.0845 0.0000 -7.7273 0.0000
# 4 0.0000 0.0000 0.0000 27.5945 0.0000 7.4732
# 5 -19.2077 3.9946 -7.7273 0.0000 39.4862 0.0000
# 6 0.0000 0.0000 0.0000 7.4732 0.0000 32.0205
#
#
#
# Elastic Compliance Matrix: (Units=1/GPa)
#
#
# Indices 1 2 3 4 5 6 
#
# 1 0.020721 -0.008029 -0.017593 0.000000 0.007449 0.000000
# 2 -0.008029 0.018863 0.006284 0.000000 -0.004584 0.000000
# 3 -0.017593 0.006284 0.031196 0.000000 -0.003089 0.000000
# 4 0.000000 0.000000 0.000000 0.038684 0.000000 -0.009029
# 5 0.007449 -0.004584 -0.003089 0.000000 0.028808 0.000000
# 6 0.000000 0.000000 0.000000 -0.009029 0.000000 0.033337
#
#
# Mechanical properties :
#
#
# Convention : Reuss Voigt Hill
#
# Bulk Modulus (GPa) = 31.14724 45.01357 38.08041
# Shear Modulus (GPa) = 22.62579 30.31039 26.46809
#
# Velocity S-wave (km/s) = 3.15055 3.64653 3.40757
# Velocity P-wave (km/s) = 5.18641 6.12185 5.67344
#
# Compressibility (1/GPa) = 0.03210557
#
# Stress axis : x y z
#
# Youngs Moduli (GPa) = 48.25975 53.01414 32.05494
#
# Poissons Ratio (x) = 0.42564 0.56395
# Poissons Ratio (y) = 0.38747 -0.20145
# Poissons Ratio (z) = 0.84904 -0.33317
#
# Static dielectric constant tensor:
#      x y z
#    x 1.846320 0.000000 0.012880 
#    y 0.000000 1.880210 0.000000 
#    z 0.012880 0.000000 1.694970 
# 
# From -- ./inp_files/9312.got.cif
#   From: 2010.05.17/outbox.cif.g08.bks.cpg/sg3_5_cif.got.tgz:9312.got - 2010.06.03 18:33:08.
