data_PCOD9113105
_publ_section_title
;
Structure prediction by ZEFSAII (Michael W. Deem and Ramdas Pophale) SiO2 
 PCOD9113105
Probable space group: P 2
;
_chemical_formula_sum "Si O2"
_cell_formula_units_Z 15
_cell_length_a 17.735704
_cell_length_b 7.477863
_cell_length_c 7.227333
_cell_angle_alpha 90.000000
_cell_angle_beta 45.475903
_cell_angle_gamma 90.000000
_cell_volume 683.386646
_symmetry_space_group_name_H-M "P 2"
_symmetry_group_IT_number 3
_symmetry_cell_setting 'monoclinic'
loop_
_space_group_symop_operation_xyz
x,y,z
-x,y,-z
loop_
_atom_site_type_symbol
_atom_site_label
_atom_site_fract_x
_atom_site_fract_y
_atom_site_fract_z
Si Si1 0.253676 0.863670 0.219323
Si Si2 0.612931 0.525066 0.907109
Si Si3 0.799850 0.796982 0.115603
Si Si4 0.364366 0.071783 0.550809
Si Si5 0.973916 0.739849 0.324307
Si Si6 0.591937 0.146213 0.100964
Si Si7 0.000000 0.421944 0.000000
Si Si8 0.227914 0.403366 0.683860
O O1 0.341352 0.709055 0.093249
O O2 0.141109 0.825546 0.509788
O O3 0.220280 0.850126 0.061784
O O4 0.311429 0.049067 0.169119
O O5 0.704600 0.461105 0.609911
O O6 0.500000 0.548662 0.000000
O O7 0.598998 0.360202 0.073540
O O8 0.785521 0.585758 0.175258
O O9 0.709095 0.905481 0.378251
O O10 0.923290 0.838638 0.937537
O O11 0.472908 0.091029 0.251549
O O12 0.394698 0.070453 0.715034
O O13 0.296003 0.250208 0.657458
O O14 0.973795 0.550079 0.220212
O O15 0.000000 0.720379 0.500000
O O16 0.889378 0.328165 0.151768
#
# Coordination Sequence:
#
# PCOD9113105 Si02
#       8
#     2   2   2   2   2   2   1   2
#     4  10  21  41  63  85 117 156 199 243 297 355
#     4  12  24  38  57  87 121 158 194 240 298 354
#     4   9  21  39  65  89 111 154 199 246 301 349
#     4  10  21  41  61  86 117 154 200 247 292 354
#     4   9  18  38  64  90 121 154 200 254 300 359
#     4  10  23  39  60  86 119 155 198 245 294 352
#     4  10  20  40  60  92 120 158 204 244 308 360
#     4  11  22  40  61  85 122 152 196 246 296 356
#
# _framework density 21.949508999999999
#
# number of rings (size 3 to 8) (size 9 to 14) (size 15 to 20)
#    0.000    1.867    2.667    0.800    1.867    1.600 
#    2.400    0.667    0.000    0.000    0.000    0.000 
#    0.000    0.000    0.000    0.000    0.000    0.000 
#
# Total GULP energy -83703.495390 kJ/mol
# GULP energy per Si atom -5580.233026 kJ/mol
# Density = 2.189955 g / cm^3
# Si number density = 21.949509 Si / 1000 Ang^3
#
#
#
# Elastic Constant Matrix: (Units=GPa)
#
#
# Indices 1 2 3 4 5 6 
#
# 1 84.8055 27.3014 45.4348 0.0000 -38.5235 0.0000
# 2 27.3014 74.2167 5.7016 0.0000 -29.4617 0.0000
# 3 45.4348 5.7016 96.1630 0.0000 -37.9231 0.0000
# 4 0.0000 0.0000 0.0000 -3.2399 0.0000 31.9782
# 5 -38.5235 -29.4617 -37.9231 0.0000 45.9220 0.0000
# 6 0.0000 0.0000 0.0000 31.9782 0.0000 -41.2490
#
#
#
# Elastic Compliance Matrix: (Units=1/GPa)
#
#
# Indices 1 2 3 4 5 6 
#
# 1 0.020499 -0.002667 -0.005072 0.000000 0.011297 0.000000
# 2 -0.002667 0.020361 0.006409 0.000000 0.016119 0.000000
# 3 -0.005072 0.006409 0.018328 0.000000 0.014993 0.000000
# 4 0.000000 0.000000 0.000000 0.046401 0.000000 0.035972
# 5 0.011297 0.016119 0.014993 0.000000 0.053976 0.000000
# 6 0.000000 0.000000 0.000000 0.035972 0.000000 0.003645
#
#
# Mechanical properties :
#
#
# Convention : Reuss Voigt Hill
#
# Bulk Modulus (GPa) = 17.68971 45.78453 31.73712
# Shear Modulus (GPa) = 27.06912 12.06978 19.56945
#
# Velocity S-wave (km/s) = 3.51557 2.34751 2.98915
# Velocity P-wave (km/s) = 4.95537 5.31527 5.13847
#
# Compressibility (1/GPa) = 0.05653003
#
# Stress axis : x y z
#
# Youngs Moduli (GPa) = 48.78174 49.11263 54.56146
#
# Poissons Ratio (x) = 0.13096 0.27675
# Poissons Ratio (y) = 0.13008 -0.34971
# Poissons Ratio (z) = 0.24743 -0.31478
#
# Static dielectric constant tensor:
#      x y z
#    x 1.867580 0.000000 0.053930 
#    y 0.000000 1.796350 0.000000 
#    z 0.053930 0.000000 1.927390 
# 
# From -- ./inp_files/8609.got.cif
#   From: 2010.05.17/outbox.cif.g08.bks.cpg/sg3_5_cif.got.tgz:8609.got - 2010.06.03 18:33:08.
