data_PCOD9113002
_publ_section_title
;
Structure prediction by ZEFSAII (Michael W. Deem and Ramdas Pophale) SiO2 
 PCOD9113002
Probable space group: P 2
;
_chemical_formula_sum "Si O2"
_cell_formula_units_Z 13
_cell_length_a 5.374445
_cell_length_b 18.216328
_cell_length_c 5.236535
_cell_angle_alpha 90.000000
_cell_angle_beta 92.172364
_cell_angle_gamma 90.000000
_cell_volume 512.302221
_symmetry_space_group_name_H-M "P 2"
_symmetry_group_IT_number 3
_symmetry_cell_setting 'monoclinic'
loop_
_space_group_symop_operation_xyz
x,y,z
-x,y,-z
loop_
_atom_site_type_symbol
_atom_site_label
_atom_site_fract_x
_atom_site_fract_y
_atom_site_fract_z
Si Si1 0.334668 0.344190 0.735091
Si Si2 0.258067 0.861752 0.655730
Si Si3 0.645286 0.554794 0.255965
Si Si4 0.000000 0.462205 0.000000
Si Si5 0.161515 0.707166 0.767168
Si Si6 0.246069 0.028855 0.836388
Si Si7 0.757278 0.185085 0.173336
O O1 0.500000 0.368051 0.500000
O O2 0.246756 0.260999 0.674386
O O3 0.118506 0.399068 0.812051
O O4 0.500000 0.342007 0.000000
O O5 0.500000 0.848179 0.500000
O O6 0.250269 0.790168 0.834337
O O7 0.000000 0.857147 0.500000
O O8 0.265526 0.946970 0.730385
O O9 0.500000 0.529417 0.500000
O O10 0.638819 0.642966 0.256339
O O11 0.500000 0.524063 0.000000
O O12 0.921923 0.525977 0.210518
O O13 0.000000 0.707230 0.500000
O O14 0.000000 0.684158 0.000000
O O15 0.234941 0.106013 0.682181
O O16 0.500000 0.035447 0.000000
O O17 0.000000 0.028105 0.000000
O O18 0.500000 0.185335 0.000000
O O19 0.000000 0.187523 0.000000
#
# Coordination Sequence:
#
# PCOD9113002 Si02
#       7
#     2   2   2   1   2   2   2
#     4  11  25  46  71 102 141 189 240 295 366 438
#     4  11  24  41  64 101 143 188 239 297 358 428
#     4  12  27  45  72 107 141 186 242 298 365 437
#     4  12  26  48  72 104 144 186 234 310 360 446
#     4  11  24  47  73 102 140 187 236 292 360 433
#     4  10  20  37  65  97 138 187 240 296 356 423
#     4   9  19  40  65  99 141 188 240 297 359 432
#
# _framework density 25.375648000000002
#
# number of rings (size 3 to 8) (size 9 to 14) (size 15 to 20)
#    0.000    1.231    1.538    3.692    0.000    5.538 
#    0.000    3.077    0.000    0.000    0.000    0.000 
#    0.000    0.000    0.000    0.000    0.000    0.000 
#
# Total GULP energy -72403.514531 kJ/mol
# GULP energy per Si atom -5569.501118 kJ/mol
# Density = 2.531789 g / cm^3
# Si number density = 25.375648 Si / 1000 Ang^3
#
#
#
# Elastic Constant Matrix: (Units=GPa)
#
#
# Indices 1 2 3 4 5 6 
#
# 1 127.2891 4.0222 50.6588 0.0000 -18.7006 0.0000
# 2 4.0222 253.2382 31.1432 0.0000 -22.0864 0.0000
# 3 50.6588 31.1432 151.8996 0.0000 -37.0540 0.0000
# 4 0.0000 0.0000 0.0000 41.4980 0.0000 -29.7409
# 5 -18.7006 -22.0864 -37.0540 0.0000 64.9074 0.0000
# 6 0.0000 0.0000 0.0000 -29.7409 0.0000 91.7937
#
#
#
# Elastic Compliance Matrix: (Units=1/GPa)
#
#
# Indices 1 2 3 4 5 6 
#
# 1 0.009140 0.000301 -0.002838 0.000000 0.001116 0.000000
# 2 0.000301 0.004124 -0.000677 0.000000 0.001104 0.000000
# 3 -0.002838 -0.000677 0.008612 0.000000 0.003869 0.000000
# 4 0.000000 0.000000 0.000000 0.031385 0.000000 0.010169
# 5 0.001116 0.001104 0.003869 0.000000 0.018312 0.000000
# 6 0.000000 0.000000 0.000000 0.010169 0.000000 0.014189
#
#
# Mechanical properties :
#
#
# Convention : Reuss Voigt Hill
#
# Bulk Modulus (GPa) = 64.72879 78.23057 71.47968
# Shear Modulus (GPa) = 51.36752 69.41333 60.39042
#
# Velocity S-wave (km/s) = 4.50409 5.23581 4.88367
# Velocity P-wave (km/s) = 7.25346 8.21264 7.74791
#
# Compressibility (1/GPa) = 0.01544908
#
# Stress axis : x y z
#
# Youngs Moduli (GPa) = 109.41028 242.51035 116.11553
#
# Poissons Ratio (x) = -0.07303 0.32950
# Poissons Ratio (y) = -0.03295 0.07857
# Poissons Ratio (z) = 0.31048 0.16409
#
# Static dielectric constant tensor:
#      x y z
#    x 2.021990 0.000000 0.093240 
#    y 0.000000 2.096230 0.000000 
#    z 0.093240 0.000000 1.991140 
# 
# From -- ./inp_files/574.got.cif
#   From: 2010.05.17/outbox.cif.g08.bks.cpg/sg3_1_cif.got.tgz:574.got - 2010.06.03 18:33:08.
