data_PCOD9113547
_publ_section_title
;
Structure prediction by ZEFSAII (Michael W. Deem and Ramdas Pophale) SiO2 
 PCOD9113547
Probable space group: P 2
;
_chemical_formula_sum "Si O2"
_cell_formula_units_Z 13
_cell_length_a 12.089794
_cell_length_b 5.439913
_cell_length_c 15.427235
_cell_angle_alpha 90.000000
_cell_angle_beta 142.112442
_cell_angle_gamma 90.000000
_cell_volume 623.085766
_symmetry_space_group_name_H-M "P 2"
_symmetry_group_IT_number 3
_symmetry_cell_setting 'monoclinic'
loop_
_space_group_symop_operation_xyz
x,y,z
-x,y,-z
loop_
_atom_site_type_symbol
_atom_site_label
_atom_site_fract_x
_atom_site_fract_y
_atom_site_fract_z
Si Si1 0.376397 0.704440 0.839824
Si Si2 0.774800 0.818834 0.589935
Si Si3 0.500000 0.522195 0.500000
Si Si4 0.867693 0.060626 0.209846
Si Si5 0.074690 0.431987 0.452298
Si Si6 0.553016 0.200084 0.361970
Si Si7 0.456041 0.194159 0.122697
O O1 0.198480 0.824676 0.774437
O O2 0.427023 0.438596 0.829935
O O3 0.439343 0.932991 0.819319
O O4 0.500000 0.699658 0.000000
O O5 0.686158 0.673386 0.613455
O O6 0.855276 0.645487 0.565905
O O7 0.941872 0.993667 0.717770
O O8 0.603432 0.946414 0.438924
O O9 0.509655 0.370026 0.417014
O O10 0.921469 0.274857 0.309583
O O11 0.711557 0.156255 0.048023
O O12 0.254907 0.265355 0.565682
O O13 0.000000 0.506812 0.500000
O O14 0.411038 0.215402 0.196606
#
# Coordination Sequence:
#
# PCOD9113547 Si02
#       7
#     2   2   1   2   2   2   2
#     4  10  22  37  60  97 144 187 212 258 328 412
#     4  10  23  41  70  94 131 178 229 289 345 407
#     4  10  22  46  72  90 126 174 242 296 356 392
#     4  10  23  40  63 100 139 179 227 273 335 409
#     4  10  22  37  62  97 139 177 223 274 334 409
#     4  10  23  42  64  99 128 179 229 291 340 413
#     4  11  24  39  67 100 140 182 228 267 341 409
#
# _framework density 20.863902
#
# number of rings (size 3 to 8) (size 9 to 14) (size 15 to 20)
#    0.000    1.846    0.000    2.769   12.923    2.462 
#    2.769    0.000    0.000   22.154    0.000    0.000 
#    0.000    0.000    0.000    0.000    0.000    0.000 
#
# Total GULP energy -72379.783888 kJ/mol
# GULP energy per Si atom -5567.675684 kJ/mol
# Density = 2.081642 g / cm^3
# Si number density = 20.863902 Si / 1000 Ang^3
#
#
#
# Elastic Constant Matrix: (Units=GPa)
#
#
# Indices 1 2 3 4 5 6 
#
# 1 138.5019 51.7421 50.0779 0.0000 -5.8606 0.0000
# 2 51.7421 122.7927 42.6488 0.0000 1.2734 0.0000
# 3 50.0779 42.6488 110.3345 0.0000 -9.2370 0.0000
# 4 0.0000 0.0000 0.0000 1.3531 0.0000 -16.7126
# 5 -5.8606 1.2734 -9.2370 0.0000 16.0139 0.0000
# 6 0.0000 0.0000 0.0000 -16.7126 0.0000 -42.9321
#
#
#
# Elastic Compliance Matrix: (Units=1/GPa)
#
#
# Indices 1 2 3 4 5 6 
#
# 1 0.009501 -0.002985 -0.002992 0.000000 0.001989 0.000000
# 2 -0.002985 0.010483 -0.003003 0.000000 -0.003658 0.000000
# 3 -0.002992 -0.003003 0.012095 0.000000 0.006120 0.000000
# 4 0.000000 0.000000 0.000000 0.127243 0.000000 -0.049533
# 5 0.001989 -0.003658 0.006120 0.000000 0.066995 0.000000
# 6 0.000000 0.000000 0.000000 -0.049533 0.000000 -0.004010
#
#
# Mechanical properties :
#
#
# Convention : Reuss Voigt Hill
#
# Bulk Modulus (GPa) = 70.83351 73.39632 72.11491
# Shear Modulus (GPa) = 20.41039 10.03101 15.22070
#
# Velocity S-wave (km/s) = 3.13111 2.19505 2.70390
# Velocity P-wave (km/s) = 6.86264 6.45595 6.66240
#
# Compressibility (1/GPa) = 0.01411761
#
# Stress axis : x y z
#
# Youngs Moduli (GPa) = 105.24927 95.39482 82.68101
#
# Poissons Ratio (x) = 0.28476 0.24738
# Poissons Ratio (y) = 0.31417 0.24833
# Poissons Ratio (z) = 0.31491 0.28651
#
# Static dielectric constant tensor:
#      x y z
#    x 2.018330 0.000000 0.025980 
#    y 0.000000 1.862510 0.000000 
#    z 0.025980 0.000000 1.803330 
# 
# From -- ./inp_files/12092.got.cif
#   From: 2010.05.17/outbox.cif.g08.bks.cpg/sg3_7_cif.got.tgz:12092.got - 2010.06.03 18:33:08.
