data_PCOD9113141
_publ_section_title
;
Structure prediction by ZEFSAII (Michael W. Deem and Ramdas Pophale) SiO2 
 PCOD9113141
Probable space group: P 2
;
_chemical_formula_sum "Si O2"
_cell_formula_units_Z 13
_cell_length_a 12.854693
_cell_length_b 6.547756
_cell_length_c 7.729730
_cell_angle_alpha 90.000000
_cell_angle_beta 86.094421
_cell_angle_gamma 90.000000
_cell_volume 649.095748
_symmetry_space_group_name_H-M "P 2"
_symmetry_group_IT_number 3
_symmetry_cell_setting 'monoclinic'
loop_
_space_group_symop_operation_xyz
x,y,z
-x,y,-z
loop_
_atom_site_type_symbol
_atom_site_label
_atom_site_fract_x
_atom_site_fract_y
_atom_site_fract_z
Si Si1 0.887867 0.629370 0.486521
Si Si2 0.713068 0.258436 0.963198
Si Si3 0.800104 0.648777 0.120835
Si Si4 0.500000 0.753440 0.500000
Si Si5 0.415497 0.900908 0.862854
Si Si6 0.680597 0.554955 0.673074
Si Si7 0.179201 0.884177 0.208575
O O1 0.860239 0.676047 0.292661
O O2 0.790584 0.498888 0.570780
O O3 0.886004 0.829521 0.613254
O O4 0.000000 0.530890 0.500000
O O5 0.655791 0.393807 0.823769
O O6 0.793631 0.108890 0.855193
O O7 0.776706 0.414730 0.075658
O O8 0.632575 0.118984 0.077388
O O9 0.686307 0.755939 0.141317
O O10 0.858815 0.755612 0.953156
O O11 0.468741 0.887524 0.669255
O O12 0.593533 0.605146 0.545896
O O13 0.500000 0.839778 0.000000
O O14 0.710712 0.772310 0.757315
#
# Coordination Sequence:
#
# PCOD9113141 Si02
#       7
#     2   2   2   1   2   2   2
#     4  10  21  43  69  88 122 171 210 259 320 366
#     4  10  20  41  64  90 131 160 213 255 315 370
#     4  10  20  41  64  90 123 167 207 261 308 381
#     4  12  20  42  64  88 132 170 210 252 318 370
#     4  11  23  39  62  95 129 170 206 259 313 371
#     4   9  21  41  63  89 129 166 203 263 308 375
#     4   8  19  40  62  88 126 157 200 260 308 370
#
# _framework density 20.027861000000001
#
# number of rings (size 3 to 8) (size 9 to 14) (size 15 to 20)
#    0.923    1.231    1.538    2.769    0.000    2.462 
#   11.077    2.308    6.769    0.000    0.000    0.000 
#    0.000    0.000    0.000    0.000    0.000    0.000 
#
# Total GULP energy -72408.799570 kJ/mol
# GULP energy per Si atom -5569.907659 kJ/mol
# Density = 1.998228 g / cm^3
# Si number density = 20.027861 Si / 1000 Ang^3
#
#
#
# Elastic Constant Matrix: (Units=GPa)
#
#
# Indices 1 2 3 4 5 6 
#
# 1 88.6907 27.6956 57.1587 0.0000 13.3806 0.0000
# 2 27.6956 85.7400 40.3899 0.0000 -1.0431 0.0000
# 3 57.1587 40.3899 180.1842 0.0000 12.6025 0.0000
# 4 0.0000 0.0000 0.0000 10.6393 0.0000 -1.0934
# 5 13.3806 -1.0431 12.6025 0.0000 23.0820 0.0000
# 6 0.0000 0.0000 0.0000 -1.0934 0.0000 2.5129
#
#
#
# Elastic Compliance Matrix: (Units=1/GPa)
#
#
# Indices 1 2 3 4 5 6 
#
# 1 0.015872 -0.003449 -0.003751 0.000000 -0.007309 0.000000
# 2 -0.003449 0.013905 -0.002294 0.000000 0.003880 0.000000
# 3 -0.003751 -0.002294 0.007391 0.000000 -0.001965 0.000000
# 4 0.000000 0.000000 0.000000 0.098391 0.000000 0.042811
# 5 -0.007309 0.003880 -0.001965 0.000000 0.048809 0.000000
# 6 0.000000 0.000000 0.000000 0.042811 0.000000 0.416570
#
#
# Mechanical properties :
#
#
# Convention : Reuss Voigt Hill
#
# Bulk Modulus (GPa) = 55.00315 67.23370 61.11843
# Shear Modulus (GPa) = 7.98738 22.53823 15.26281
#
# Velocity S-wave (km/s) = 1.99920 3.35825 2.76357
# Velocity P-wave (km/s) = 5.73167 6.97711 6.38483
#
# Compressibility (1/GPa) = 0.01818078
#
# Stress axis : x y z
#
# Youngs Moduli (GPa) = 63.00366 71.91531 135.29251
#
# Poissons Ratio (x) = 0.24804 0.50744
# Poissons Ratio (y) = 0.21730 0.31040
# Poissons Ratio (z) = 0.23631 0.16499
#
# Static dielectric constant tensor:
#      x y z
#    x 1.745030 0.000000 -0.041530 
#    y 0.000000 1.693340 0.000000 
#    z -0.041530 0.000000 1.751010 
# 
# From -- ./inp_files/7975.got.cif
#   From: 2010.05.17/outbox.cif.g08.bks.cpg/sg3_4_cif.got.tgz:7975.got - 2010.06.03 18:33:08.
