data_PCOD9113891
_publ_section_title
;
Structure prediction by ZEFSAII (Michael W. Deem and Ramdas Pophale) SiO2 
 PCOD9113891
Probable space group: P 2
;
_chemical_formula_sum "Si O2"
_cell_formula_units_Z 14
_cell_length_a 5.034959
_cell_length_b 8.294080
_cell_length_c 14.300168
_cell_angle_alpha 90.000000
_cell_angle_beta 69.608185
_cell_angle_gamma 90.000000
_cell_volume 559.755846
_symmetry_space_group_name_H-M "P 2"
_symmetry_group_IT_number 3
_symmetry_cell_setting 'monoclinic'
loop_
_space_group_symop_operation_xyz
x,y,z
-x,y,-z
loop_
_atom_site_type_symbol
_atom_site_label
_atom_site_fract_x
_atom_site_fract_y
_atom_site_fract_z
Si Si1 0.024272 0.720240 0.607658
Si Si2 0.819800 0.071016 0.929263
Si Si3 0.713981 0.406298 0.885381
Si Si4 0.335375 0.182174 0.613919
Si Si5 0.010953 0.735605 0.886874
Si Si6 0.449288 0.858911 0.699137
Si Si7 0.758149 0.371754 0.675284
O O1 0.782850 0.844668 0.669532
O O2 0.913034 0.541439 0.642083
O O3 0.000000 0.738794 0.500000
O O4 0.311843 0.761188 0.627674
O O5 0.895613 0.242692 0.875899
O O6 0.844227 0.898053 0.877907
O O7 0.500000 0.088914 0.000000
O O8 0.000000 0.055399 0.000000
O O9 0.891265 0.569940 0.862482
O O10 0.599210 0.379891 0.795015
O O11 0.500000 0.422193 0.000000
O O12 0.500000 0.123039 0.500000
O O13 0.526001 0.331024 0.626361
O O14 0.013154 0.240128 0.639050
O O15 0.361341 0.042179 0.688518
O O16 0.313964 0.776459 0.806759
O O17 0.000000 0.718353 0.000000
#
# Coordination Sequence:
#
# PCOD9113891 Si02
#       7
#     2   2   2   2   2   2   2
#     4  12  25  47  72 103 144 190 243 315 373 442
#     4  10  23  43  67 100 141 195 248 297 358 430
#     4  11  25  45  74 108 152 201 247 305 373 445
#     4  12  26  49  77 110 147 196 247 320 387 447
#     4  11  25  44  73 109 153 200 247 306 371 444
#     4  12  27  46  74 110 147 191 255 301 378 457
#     4  12  27  46  75 110 146 191 255 300 378 459
#
# _framework density 25.010905000000001
#
# number of rings (size 3 to 8) (size 9 to 14) (size 15 to 20)
#    0.000    0.571    1.429    6.000    2.000    9.143 
#    0.000    0.000    0.000    0.000    0.000    0.000 
#    0.000    0.000    0.000    0.000    0.000    0.000 
#
# Total GULP energy -78361.997091 kJ/mol
# GULP energy per Si atom -5597.285507 kJ/mol
# Density = 2.495398 g / cm^3
# Si number density = 25.010905 Si / 1000 Ang^3
#
#
#
# Elastic Constant Matrix: (Units=GPa)
#
#
# Indices 1 2 3 4 5 6 
#
# 1 88.9167 19.0056 12.3525 0.0000 -1.4341 0.0000
# 2 19.0056 156.8689 -14.9350 0.0000 1.3426 0.0000
# 3 12.3525 -14.9350 137.6580 0.0000 5.1123 0.0000
# 4 0.0000 0.0000 0.0000 -28.4066 0.0000 -21.0132
# 5 -1.4341 1.3426 5.1123 0.0000 31.3016 0.0000
# 6 0.0000 0.0000 0.0000 -21.0132 0.0000 25.0122
#
#
#
# Elastic Compliance Matrix: (Units=1/GPa)
#
#
# Indices 1 2 3 4 5 6 
#
# 1 0.011765 -0.001552 -0.001254 0.000000 0.000810 0.000000
# 2 -0.001552 0.006651 0.000879 0.000000 -0.000500 0.000000
# 3 -0.001254 0.000879 0.007521 0.000000 -0.001324 0.000000
# 4 0.000000 0.000000 0.000000 -0.021711 0.000000 -0.018240
# 5 0.000810 -0.000500 -0.001324 0.000000 0.032222 0.000000
# 6 0.000000 0.000000 0.000000 -0.018240 0.000000 0.024657
#
#
# Mechanical properties :
#
#
# Convention : Reuss Voigt Hill
#
# Bulk Modulus (GPa) = 45.28070 46.25441 45.76755
# Shear Modulus (GPa) = 69.13629 30.04947 49.59288
#
# Velocity S-wave (km/s) = 5.26331 3.46996 4.45775
# Velocity P-wave (km/s) = 7.42161 5.88116 6.69583
#
# Compressibility (1/GPa) = 0.02208447
#
# Stress axis : x y z
#
# Youngs Moduli (GPa) = 84.99436 150.35873 132.95246
#
# Poissons Ratio (x) = 0.23333 0.16675
# Poissons Ratio (y) = 0.13189 -0.11692
# Poissons Ratio (z) = 0.10660 -0.13222
#
# Static dielectric constant tensor:
#      x y z
#    x 1.922090 0.000000 -0.031370 
#    y 0.000000 2.010200 0.000000 
#    z -0.031370 0.000000 2.077850 
# 
# From -- ./inp_files/12937.got.cif
#   From: 2010.05.17/outbox.cif.g08.bks.cpg/sg3_7_cif.got.tgz:12937.got - 2010.06.03 18:33:08.
