data_PCOD9113140
_publ_section_title
;
Structure prediction by ZEFSAII (Michael W. Deem and Ramdas Pophale) SiO2 
 PCOD9113140
Probable space group: P 2
;
_chemical_formula_sum "Si O2"
_cell_formula_units_Z 12
_cell_length_a 9.593540
_cell_length_b 7.682228
_cell_length_c 7.841277
_cell_angle_alpha 90.000000
_cell_angle_beta 108.137752
_cell_angle_gamma 90.000000
_cell_volume 549.184857
_symmetry_space_group_name_H-M "P 2"
_symmetry_group_IT_number 3
_symmetry_cell_setting 'monoclinic'
loop_
_space_group_symop_operation_xyz
x,y,z
-x,y,-z
loop_
_atom_site_type_symbol
_atom_site_label
_atom_site_fract_x
_atom_site_fract_y
_atom_site_fract_z
Si Si1 0.833974 0.731580 0.902719
Si Si2 0.151121 0.558981 0.465297
Si Si3 0.623913 0.968366 0.646722
Si Si4 0.653215 0.671364 0.148071
Si Si5 0.593947 0.085097 0.189099
Si Si6 0.844642 0.160616 0.486012
O O1 0.829634 0.640300 0.715238
O O2 0.709933 0.878153 0.831689
O O3 0.777470 0.635790 0.051214
O O4 0.000000 0.791443 0.000000
O O5 0.283911 0.596454 0.649185
O O6 0.135327 0.351919 0.432517
O O7 0.000000 0.620111 0.500000
O O8 0.500000 0.854953 0.500000
O O9 0.749706 0.039780 0.572932
O O10 0.514341 0.106568 0.690477
O O11 0.629678 0.879252 0.176956
O O12 0.500000 0.612844 0.000000
O O13 0.746567 0.177341 0.279748
O O14 0.500000 0.153782 0.000000
O O15 0.000000 0.080528 0.500000
#
# Coordination Sequence:
#
# PCOD9113140 Si02
#       6
#     2   2   2   2   2   2
#     4  12  24  40  70  96 122 168 215 259 319 372
#     4  11  24  45  61  91 139 165 207 264 308 379
#     4  10  21  41  63  92 124 159 209 261 313 367
#     4  11  23  43  68  97 123 166 212 264 319 367
#     4  10  20  41  62  90 126 153 206 268 306 366
#     4  10  24  41  62  88 124 174 204 250 320 368
#
# _framework density 21.850569
#
# number of rings (size 3 to 8) (size 9 to 14) (size 15 to 20)
#    0.000    1.333    5.000    2.000    2.333    2.000 
#   12.000    0.833    0.000    0.000    0.000    0.000 
#    0.000    0.000    0.000    0.000    0.000    0.000 
#
# Total GULP energy -66886.011646 kJ/mol
# GULP energy per Si atom -5573.834304 kJ/mol
# Density = 2.180084 g / cm^3
# Si number density = 21.850569 Si / 1000 Ang^3
#
#
#
# Elastic Constant Matrix: (Units=GPa)
#
#
# Indices 1 2 3 4 5 6 
#
# 1 153.3488 10.6833 50.7259 0.0000 4.2868 0.0000
# 2 10.6833 34.9764 2.3548 0.0000 -4.0674 0.0000
# 3 50.7259 2.3548 132.0329 0.0000 3.8555 0.0000
# 4 0.0000 0.0000 0.0000 -3.5800 0.0000 75.3384
# 5 4.2868 -4.0674 3.8555 0.0000 51.4447 0.0000
# 6 0.0000 0.0000 0.0000 75.3384 0.0000 -522.0461
#
#
#
# Elastic Compliance Matrix: (Units=1/GPa)
#
#
# Indices 1 2 3 4 5 6 
#
# 1 0.007644 -0.002210 -0.002880 0.000000 -0.000596 0.000000
# 2 -0.002210 0.029540 0.000249 0.000000 0.002501 0.000000
# 3 -0.002880 0.000249 0.008687 0.000000 -0.000391 0.000000
# 4 0.000000 0.000000 0.000000 0.137130 0.000000 0.019790
# 5 -0.000596 0.002501 -0.000391 0.000000 0.019715 0.000000
# 6 0.000000 0.000000 0.000000 0.019790 0.000000 0.000940
#
#
# Mechanical properties :
#
#
# Convention : Reuss Voigt Hill
#
# Bulk Modulus (GPa) = 27.63237 49.76513 38.69875
# Shear Modulus (GPa) = 22.18254 -77.72999 -27.77372
#
# Velocity S-wave (km/s) = 3.18967 -5.97082 -3.56908
# Velocity P-wave (km/s) = 5.12238 4.97087 0.87442
#
# Compressibility (1/GPa) = 0.03618944
#
# Stress axis : x y z
#
# Youngs Moduli (GPa) = 130.81420 33.85253 115.10973
#
# Poissons Ratio (x) = 0.07483 0.33153
# Poissons Ratio (y) = 0.28914 -0.02870
# Poissons Ratio (z) = 0.37676 -0.00844
#
# Static dielectric constant tensor:
#      x y z
#    x 1.994270 0.000000 -0.078660 
#    y 0.000000 1.807630 0.000000 
#    z -0.078660 0.000000 1.980110 
# 
# From -- ./inp_files/5170.got.cif
#   From: 2010.05.17/outbox.cif.g08.bks.cpg/sg3_3_cif.got.tgz:5170.got - 2010.06.03 18:33:08.
