data_PCOD9113360
_publ_section_title
;
Structure prediction by ZEFSAII (Michael W. Deem and Ramdas Pophale) SiO2 
 PCOD9113360
Probable space group: P 2
;
_chemical_formula_sum "Si O2"
_cell_formula_units_Z 13
_cell_length_a 17.747210
_cell_length_b 8.209718
_cell_length_c 8.816483
_cell_angle_alpha 90.000000
_cell_angle_beta 153.414155
_cell_angle_gamma 90.000000
_cell_volume 574.888718
_symmetry_space_group_name_H-M "P 2"
_symmetry_group_IT_number 3
_symmetry_cell_setting 'monoclinic'
loop_
_space_group_symop_operation_xyz
x,y,z
-x,y,-z
loop_
_atom_site_type_symbol
_atom_site_label
_atom_site_fract_x
_atom_site_fract_y
_atom_site_fract_z
Si Si1 0.065193 0.081140 0.353957
Si Si2 0.000000 0.286920 0.500000
Si Si3 0.717325 0.524424 0.024190
Si Si4 0.799233 0.874366 0.165731
Si Si5 0.674387 0.219440 0.407077
Si Si6 0.740017 0.904338 0.717334
Si Si7 0.336112 0.535962 0.421727
O O1 0.946028 0.178966 0.258560
O O2 0.164550 0.177957 0.407090
O O3 0.210946 0.012437 0.727395
O O4 0.941324 0.941173 0.068210
O O5 0.146111 0.392779 0.688208
O O6 0.747372 0.703279 0.141513
O O7 0.529174 0.488092 0.732698
O O8 0.744373 0.536030 0.890915
O O9 0.000000 0.859178 0.500000
O O10 0.706520 0.900546 0.839233
O O11 0.719843 0.388119 0.573555
O O12 0.657687 0.059623 0.486083
O O13 0.500000 0.239568 0.000000
O O14 0.688367 0.723335 0.566725
#
# Coordination Sequence:
#
# PCOD9113360 Si02
#       7
#     2   1   2   2   2   2   2
#     4  11  23  43  70 104 137 178 232 286 354 413
#     4  12  20  38  70 104 136 170 228 298 336 414
#     4  10  21  39  68 103 132 180 233 284 339 409
#     4   9  18  40  67 101 131 168 234 286 340 405
#     4  12  27  46  65 103 144 186 232 283 357 421
#     4  10  22  46  70  97 137 182 235 285 344 416
#     4  10  24  45  65  98 143 184 230 283 347 414
#
# _framework density 22.613074000000001
#
# number of rings (size 3 to 8) (size 9 to 14) (size 15 to 20)
#    0.000    1.538    3.077    2.308    2.154    0.615 
#    2.769    4.615    0.000    0.000    0.000    0.000 
#    0.000    0.000    0.000    0.000    0.000    0.000 
#
# Total GULP energy -72511.103998 kJ/mol
# GULP energy per Si atom -5577.777231 kJ/mol
# Density = 2.256161 g / cm^3
# Si number density = 22.613074 Si / 1000 Ang^3
#
#
#
# Elastic Constant Matrix: (Units=GPa)
#
#
# Indices 1 2 3 4 5 6 
#
# 1 62.7621 55.5953 23.7541 0.0000 -0.2958 0.0000
# 2 55.5953 155.7705 25.9724 0.0000 -12.1072 0.0000
# 3 23.7541 25.9724 53.7230 0.0000 -2.3839 0.0000
# 4 0.0000 0.0000 0.0000 32.8171 0.0000 -11.7632
# 5 -0.2958 -12.1072 -2.3839 0.0000 25.4366 0.0000
# 6 0.0000 0.0000 0.0000 -11.7632 0.0000 22.6590
#
#
#
# Elastic Compliance Matrix: (Units=1/GPa)
#
#
# Indices 1 2 3 4 5 6 
#
# 1 0.026333 -0.008451 -0.007755 0.000000 -0.004443 0.000000
# 2 -0.008451 0.009933 -0.000864 0.000000 0.004549 0.000000
# 3 -0.007755 -0.000864 0.022532 0.000000 0.001610 0.000000
# 4 0.000000 0.000000 0.000000 0.037439 0.000000 0.019436
# 5 -0.004443 0.004549 0.001610 0.000000 0.041578 0.000000
# 6 0.000000 0.000000 0.000000 0.019436 0.000000 0.054222
#
#
# Mechanical properties :
#
#
# Convention : Reuss Voigt Hill
#
# Bulk Modulus (GPa) = 40.55273 53.65545 47.10409
# Shear Modulus (GPa) = 21.33138 27.31147 24.32143
#
# Velocity S-wave (km/s) = 3.07468 3.47907 3.28311
# Velocity P-wave (km/s) = 5.52966 6.31805 5.93696
#
# Compressibility (1/GPa) = 0.02465925
#
# Stress axis : x y z
#
# Youngs Moduli (GPa) = 37.97509 100.67061 44.38116
#
# Poissons Ratio (x) = 0.85074 0.34418
# Poissons Ratio (y) = 0.32092 0.03834
# Poissons Ratio (z) = 0.29450 0.08697
#
# Static dielectric constant tensor:
#      x y z
#    x 1.866790 0.000000 -0.036790 
#    y 0.000000 1.894860 0.000000 
#    z -0.036790 0.000000 1.941370 
# 
# From -- ./inp_files/9111.got.cif
#   From: 2010.05.17/outbox.cif.g08.bks.cpg/sg3_5_cif.got.tgz:9111.got - 2010.06.03 18:33:08.
