data_PCOD9113356
_publ_section_title
;
Structure prediction by ZEFSAII (Michael W. Deem and Ramdas Pophale) SiO2 
 PCOD9113356
Probable space group: P 2
;
_chemical_formula_sum "Si O2"
_cell_formula_units_Z 15
_cell_length_a 24.741488
_cell_length_b 5.378051
_cell_length_c 5.867926
_cell_angle_alpha 90.000000
_cell_angle_beta 51.820326
_cell_angle_gamma 90.000000
_cell_volume 613.762037
_symmetry_space_group_name_H-M "P 2"
_symmetry_group_IT_number 3
_symmetry_cell_setting 'monoclinic'
loop_
_space_group_symop_operation_xyz
x,y,z
-x,y,-z
loop_
_atom_site_type_symbol
_atom_site_label
_atom_site_fract_x
_atom_site_fract_y
_atom_site_fract_z
Si Si1 0.165765 0.913370 0.267188
Si Si2 0.893647 0.216753 0.184757
Si Si3 0.371077 0.469441 0.294213
Si Si4 0.753921 0.206113 0.313822
Si Si5 0.303299 0.844482 0.164126
Si Si6 0.931838 0.705812 0.827075
Si Si7 0.562385 0.088089 0.198250
Si Si8 0.500000 0.740162 0.000000
O O1 0.228464 0.805780 0.251761
O O2 0.129270 0.708834 0.202941
O O3 0.112334 0.082592 0.552575
O O4 0.205629 0.100827 0.001578
O O5 0.814447 0.282181 0.328591
O O6 0.929263 0.476946 0.015567
O O7 0.922992 0.980791 0.963078
O O8 0.303560 0.400187 0.609176
O O9 0.338187 0.593257 0.154764
O O10 0.428134 0.623503 0.271764
O O11 0.416005 0.249561 0.074960
O O12 0.713215 0.994031 0.558714
O O13 0.364685 0.001330 0.881375
O O14 0.000000 0.687850 0.500000
O O15 0.500000 0.209313 0.500000
O O16 0.526062 0.861266 0.165680
#
# Coordination Sequence:
#
# PCOD9113356 Si02
#       8
#     2   2   2   2   2   2   2   1
#     4  10  23  45  73 102 142 194 231 304 372 413
#     4  10  24  45  73 108 151 185 253 295 351 456
#     4  10  21  39  66  87 129 170 227 289 340 429
#     4   9  21  41  63  96 133 175 225 294 355 415
#     4   9  21  41  61  94 129 174 235 290 344 444
#     4  11  25  49  76 110 153 197 240 303 365 439
#     4  10  22  41  58  88 132 166 223 285 345 422
#     4  10  22  40  60  86 124 174 218 278 356 412
#
# _framework density 24.439439
#
# number of rings (size 3 to 8) (size 9 to 14) (size 15 to 20)
#    0.000    2.133    0.000    0.800    5.600    9.067 
#    9.600    5.333    0.000    0.000    0.000    0.000 
#    0.000    0.000    0.000    0.000    0.000    0.000 
#
# Total GULP energy -83604.795378 kJ/mol
# GULP energy per Si atom -5573.653025 kJ/mol
# Density = 2.438381 g / cm^3
# Si number density = 24.439439 Si / 1000 Ang^3
#
#
#
# Elastic Constant Matrix: (Units=GPa)
#
#
# Indices 1 2 3 4 5 6 
#
# 1 64.6343 15.3341 0.7553 0.0000 -5.8322 0.0000
# 2 15.3341 58.9126 9.8531 0.0000 -5.4437 0.0000
# 3 0.7553 9.8531 95.7939 0.0000 -11.2724 0.0000
# 4 0.0000 0.0000 0.0000 23.7810 0.0000 -8.1470
# 5 -5.8322 -5.4437 -11.2724 0.0000 24.6630 0.0000
# 6 0.0000 0.0000 0.0000 -8.1470 0.0000 12.2685
#
#
#
# Elastic Compliance Matrix: (Units=1/GPa)
#
#
# Indices 1 2 3 4 5 6 
#
# 1 0.016755 -0.004166 0.000692 0.000000 0.003359 0.000000
# 2 -0.004166 0.018545 -0.001595 0.000000 0.002379 0.000000
# 3 0.000692 -0.001595 0.011177 0.000000 0.004920 0.000000
# 4 0.000000 0.000000 0.000000 0.054434 0.000000 0.036148
# 5 0.003359 0.002379 0.004920 0.000000 0.044115 0.000000
# 6 0.000000 0.000000 0.000000 0.036148 0.000000 0.105514
#
#
# Mechanical properties :
#
#
# Convention : Reuss Voigt Hill
#
# Bulk Modulus (GPa) = 27.51932 30.13619 28.82776
# Shear Modulus (GPa) = 18.32902 25.03572 21.68237
#
# Velocity S-wave (km/s) = 2.74154 3.20409 2.98180
# Velocity P-wave (km/s) = 4.61585 5.10353 4.86580
#
# Compressibility (1/GPa) = 0.03633811
#
# Stress axis : x y z
#
# Youngs Moduli (GPa) = 59.68326 53.92192 89.47272
#
# Poissons Ratio (x) = 0.22466 -0.06189
# Poissons Ratio (y) = 0.24867 0.14268
# Poissons Ratio (z) = -0.04128 0.08599
#
# Static dielectric constant tensor:
#      x y z
#    x 2.026900 0.000000 -0.004170 
#    y 0.000000 2.089020 0.000000 
#    z -0.004170 0.000000 2.064750 
# 
# From -- ./inp_files/3970.got.cif
#   From: 2010.05.17/outbox.cif.g08.bks.cpg/sg3_2_cif.got.tgz:3970.got - 2010.06.03 18:33:08.
