data_PCOD9113758
_publ_section_title
;
Structure prediction by ZEFSAII (Michael W. Deem and Ramdas Pophale) SiO2 
 PCOD9113758
Probable space group: P 2
;
_chemical_formula_sum "Si O2"
_cell_formula_units_Z 14
_cell_length_a 22.907895
_cell_length_b 4.903714
_cell_length_c 16.421522
_cell_angle_alpha 90.000000
_cell_angle_beta 163.173868
_cell_angle_gamma 90.000000
_cell_volume 533.979850
_symmetry_space_group_name_H-M "P 2"
_symmetry_group_IT_number 3
_symmetry_cell_setting 'monoclinic'
loop_
_space_group_symop_operation_xyz
x,y,z
-x,y,-z
loop_
_atom_site_type_symbol
_atom_site_label
_atom_site_fract_x
_atom_site_fract_y
_atom_site_fract_z
Si Si1 0.562338 0.230560 0.764383
Si Si2 0.275129 0.261202 0.688992
Si Si3 0.139994 0.448509 0.258112
Si Si4 0.620511 0.767179 0.287753
Si Si5 0.228416 0.511529 0.802392
Si Si6 0.352420 0.730049 0.227826
Si Si7 0.989135 0.090845 0.772825
O O1 0.325648 0.275693 0.469565
O O2 0.616414 0.421662 0.758791
O O3 0.595138 0.922790 0.778768
O O4 0.686411 0.343566 0.006798
O O5 0.328078 0.547455 0.712458
O O6 0.246285 0.328312 0.746499
O O7 0.024789 0.233261 0.332495
O O8 0.500000 0.109103 0.000000
O O9 0.248789 0.671361 0.459004
O O10 0.002164 0.264947 0.134514
O O11 0.000000 0.561273 0.000000
O O12 0.743661 0.040658 0.431367
O O13 0.391069 0.752999 0.005774
O O14 0.000000 0.611271 0.500000
O O15 0.500000 0.787317 0.500000
O O16 0.131653 0.832688 0.960739
#
# Coordination Sequence:
#
# PCOD9113758 Si02
#       7
#     2   2   2   2   2   2   2
#     4  11  28  46  74 116 154 192 259 319 378 456
#     4  10  22  43  72 102 137 196 243 298 366 451
#     4  11  24  44  77 106 150 196 251 316 383 440
#     4   9  25  43  74 107 142 188 261 301 365 472
#     4  11  24  48  74 106 151 191 247 319 388 432
#     4  12  27  49  76 109 157 201 251 312 390 457
#     4  10  25  45  74 107 141 195 263 293 370 463
#
# _framework density 26.218218
#
# number of rings (size 3 to 8) (size 9 to 14) (size 15 to 20)
#    0.857    0.571    0.000    3.857    8.000    3.429 
#    2.571    1.429    0.000    0.000    0.000    0.000 
#    0.000    0.000    0.000    0.000    0.000    0.000 
#
# Total GULP energy -78260.042518 kJ/mol
# GULP energy per Si atom -5590.003037 kJ/mol
# Density = 2.615854 g / cm^3
# Si number density = 26.218218 Si / 1000 Ang^3
#
#
#
# Elastic Constant Matrix: (Units=GPa)
#
#
# Indices 1 2 3 4 5 6 
#
# 1 116.0660 14.5667 64.4233 0.0000 -9.3735 0.0000
# 2 14.5667 74.8275 -0.6212 0.0000 -0.9503 0.0000
# 3 64.4233 -0.6212 148.5591 0.0000 -16.8724 0.0000
# 4 0.0000 0.0000 0.0000 22.9704 0.0000 12.8756
# 5 -9.3735 -0.9503 -16.8724 0.0000 57.8878 0.0000
# 6 0.0000 0.0000 0.0000 12.8756 0.0000 32.9196
#
#
#
# Elastic Compliance Matrix: (Units=1/GPa)
#
#
# Indices 1 2 3 4 5 6 
#
# 1 0.011747 -0.002324 -0.005060 0.000000 0.000389 0.000000
# 2 -0.002324 0.013828 0.001085 0.000000 0.000167 0.000000
# 3 -0.005060 0.001085 0.009142 0.000000 0.001863 0.000000
# 4 0.000000 0.000000 0.000000 0.055759 0.000000 -0.021808
# 5 0.000389 0.000167 0.001863 0.000000 0.017884 0.000000
# 6 0.000000 0.000000 0.000000 -0.021808 0.000000 0.038907
#
#
# Mechanical properties :
#
#
# Convention : Reuss Voigt Hill
#
# Bulk Modulus (GPa) = 45.21152 55.13223 50.17188
# Shear Modulus (GPa) = 29.89775 40.16115 35.02945
#
# Velocity S-wave (km/s) = 3.38056 3.91807 3.65920
# Velocity P-wave (km/s) = 5.70257 6.44533 6.08529
#
# Compressibility (1/GPa) = 0.02211826
#
# Stress axis : x y z
#
# Youngs Moduli (GPa) = 85.12553 72.31917 109.38943
#
# Poissons Ratio (x) = 0.16806 0.55349
# Poissons Ratio (y) = 0.19782 -0.11864
# Poissons Ratio (z) = 0.43072 -0.07843
#
# Static dielectric constant tensor:
#      x y z
#    x 2.189050 0.000000 0.019470 
#    y 0.000000 2.090520 0.000000 
#    z 0.019470 0.000000 2.314310 
# 
# From -- ./inp_files/8081.got.cif
#   From: 2010.05.17/outbox.cif.g08.bks.cpg/sg3_5_cif.got.tgz:8081.got - 2010.06.03 18:33:08.
