data_PCOD9113198
_publ_section_title
;
Structure prediction by ZEFSAII (Michael W. Deem and Ramdas Pophale) SiO2 
 PCOD9113198
Probable space group: P 2
;
_chemical_formula_sum "Si O2"
_cell_formula_units_Z 14
_cell_length_a 8.638272
_cell_length_b 9.379219
_cell_length_c 11.905790
_cell_angle_alpha 90.000000
_cell_angle_beta 38.390600
_cell_angle_gamma 90.000000
_cell_volume 599.041342
_symmetry_space_group_name_H-M "P 2"
_symmetry_group_IT_number 3
_symmetry_cell_setting 'monoclinic'
loop_
_space_group_symop_operation_xyz
x,y,z
-x,y,-z
loop_
_atom_site_type_symbol
_atom_site_label
_atom_site_fract_x
_atom_site_fract_y
_atom_site_fract_z
Si Si1 0.033548 0.497710 0.245560
Si Si2 0.000000 0.557469 0.500000
Si Si3 0.500000 0.579841 0.500000
Si Si4 0.376002 0.089779 0.314019
Si Si5 0.230171 0.794348 0.093362
Si Si6 0.810933 0.297596 0.008668
Si Si7 0.939114 0.094183 0.731395
Si Si8 0.519523 0.753301 0.715064
O O1 0.747413 0.483877 0.370624
O O2 0.053765 0.454163 0.363427
O O3 0.075823 0.666364 0.232257
O O4 0.231208 0.437753 0.043593
O O5 0.242157 0.659447 0.379192
O O6 0.461551 0.682489 0.628948
O O7 0.596852 0.203554 0.186474
O O8 0.273996 0.095696 0.243811
O O9 0.180192 0.127326 0.521179
O O10 0.425992 0.922930 0.313243
O O11 0.082133 0.938681 0.200028
O O12 0.500000 0.805929 0.000000
O O13 0.290036 0.751032 0.932111
O O14 0.916935 0.200393 0.847413
O O15 0.000000 0.334205 0.000000
#
# Coordination Sequence:
#
# PCOD9113198 Si02
#       8
#     2   1   1   2   2   2   2   2
#     4  11  26  46  69 101 142 183 238 290 349 422
#     4  10  20  44  74 110 134 182 234 296 358 412
#     4  10  26  44  68 106 146 188 232 286 364 424
#     4  11  23  45  77 100 139 179 232 293 350 411
#     4  12  21  40  77 110 140 174 232 300 349 413
#     4  12  29  47  65  99 144 189 233 285 349 421
#     4  11  23  47  74 104 136 179 234 290 349 416
#     4  11  21  41  73 110 139 178 228 297 353 415
#
# _framework density 23.370676
#
# number of rings (size 3 to 8) (size 9 to 14) (size 15 to 20)
#    0.000    0.857    4.286    3.000    2.000    6.286 
#    2.571    0.000    0.000    0.000    0.000    0.000 
#    0.000    0.000    0.000    0.000    0.000    0.000 
#
# Total GULP energy -78243.437515 kJ/mol
# GULP energy per Si atom -5588.816965 kJ/mol
# Density = 2.331748 g / cm^3
# Si number density = 23.370676 Si / 1000 Ang^3
#
#
#
# Elastic Constant Matrix: (Units=GPa)
#
#
# Indices 1 2 3 4 5 6 
#
# 1 66.1683 10.5570 26.7178 0.0000 18.1117 0.0000
# 2 10.5570 83.7115 7.7499 0.0000 7.7750 0.0000
# 3 26.7178 7.7499 84.4269 0.0000 4.1482 0.0000
# 4 0.0000 0.0000 0.0000 36.0055 0.0000 10.3063
# 5 18.1117 7.7750 4.1482 0.0000 18.6177 0.0000
# 6 0.0000 0.0000 0.0000 10.3063 0.0000 14.2774
#
#
#
# Elastic Compliance Matrix: (Units=1/GPa)
#
#
# Indices 1 2 3 4 5 6 
#
# 1 0.023605 -0.000401 -0.006383 0.000000 -0.021374 0.000000
# 2 -0.000401 0.012502 -0.000792 0.000000 -0.004655 0.000000
# 3 -0.006383 -0.000792 0.013767 0.000000 0.003473 0.000000
# 4 0.000000 0.000000 0.000000 0.035007 0.000000 -0.025270
# 5 -0.021374 -0.004655 0.003473 0.000000 0.075675 0.000000
# 6 0.000000 0.000000 0.000000 -0.025270 0.000000 0.088282
#
#
# Mechanical properties :
#
#
# Convention : Reuss Voigt Hill
#
# Bulk Modulus (GPa) = 28.80056 36.03956 32.42006
# Shear Modulus (GPa) = 18.14467 26.39893 22.27180
#
# Velocity S-wave (km/s) = 2.78939 3.36456 3.09039
# Velocity P-wave (km/s) = 4.76701 5.52703 5.16103
#
# Compressibility (1/GPa) = 0.03472154
#
# Stress axis : x y z
#
# Youngs Moduli (GPa) = 42.36456 79.98739 72.63959
#
# Poissons Ratio (x) = 0.03206 0.46366
# Poissons Ratio (y) = 0.01698 0.05754
# Poissons Ratio (z) = 0.27041 0.06336
#
# Static dielectric constant tensor:
#      x y z
#    x 1.947110 0.000000 0.002900 
#    y 0.000000 1.940020 0.000000 
#    z 0.002900 0.000000 1.895480 
# 
# From -- ./inp_files/7355.got.cif
#   From: 2010.05.17/outbox.cif.g08.bks.cpg/sg3_4_cif.got.tgz:7355.got - 2010.06.03 18:33:08.
