data_PCOD9113062
_publ_section_title
;
Structure prediction by ZEFSAII (Michael W. Deem and Ramdas Pophale) SiO2 
 PCOD9113062
Probable space group: P 2
;
_chemical_formula_sum "Si O2"
_cell_formula_units_Z 14
_cell_length_a 15.842625
_cell_length_b 8.800509
_cell_length_c 16.564832
_cell_angle_alpha 90.000000
_cell_angle_beta 17.802587
_cell_angle_gamma 90.000000
_cell_volume 706.109100
_symmetry_space_group_name_H-M "P 2"
_symmetry_group_IT_number 3
_symmetry_cell_setting 'monoclinic'
loop_
_space_group_symop_operation_xyz
x,y,z
-x,y,-z
loop_
_atom_site_type_symbol
_atom_site_label
_atom_site_fract_x
_atom_site_fract_y
_atom_site_fract_z
Si Si1 0.864149 0.090820 0.311751
Si Si2 0.493947 0.591249 0.247591
Si Si3 0.500000 0.165286 0.500000
Si Si4 0.702693 0.444561 0.738215
Si Si5 0.927425 0.449941 0.244836
Si Si6 0.000000 0.372602 0.000000
Si Si7 0.547725 0.947783 0.189665
Si Si8 0.698541 0.089953 0.743351
O O1 0.700917 0.072191 0.375846
O O2 0.940012 0.268642 0.246590
O O3 0.643434 0.050142 0.579899
O O4 0.136828 0.992912 0.079022
O O5 0.370926 0.540230 0.273632
O O6 0.331224 0.516002 0.470844
O O7 0.495014 0.771856 0.254805
O O8 0.804138 0.529950 0.965061
O O9 0.719797 0.268934 0.248938
O O10 0.717554 0.266525 0.698571
O O11 0.000000 0.490367 0.500000
O O12 0.500000 0.458010 0.000000
O O13 0.940924 0.466036 0.135279
O O14 0.444573 0.988734 0.194171
O O15 0.000000 0.040663 0.500000
O O16 0.500000 0.089729 0.000000
#
# Coordination Sequence:
#
# PCOD9113062 Si02
#       8
#     2   2   1   2   2   1   2   2
#     4  11  22  41  67  91 121 164 213 260 307 370
#     4  12  25  40  61  95 132 165 203 254 319 377
#     4  10  20  38  66  98 120 154 216 272 310 358
#     4  10  21  38  61  88 119 160 210 257 303 362
#     4  11  22  41  67  91 121 164 213 260 307 370
#     4  10  20  38  66  98 120 154 216 272 310 358
#     4  12  25  40  61  95 132 165 203 254 319 377
#     4  10  21  38  61  88 119 160 210 257 303 362
#
# _framework density 19.826964
#
# number of rings (size 3 to 8) (size 9 to 14) (size 15 to 20)
#    0.000    1.143    0.000    8.571    0.000    3.429 
#    0.000    2.857    0.000    1.714    0.000    0.000 
#    0.000    0.000    0.000    0.000    0.000    0.000 
#
# Total GULP energy -78226.611829 kJ/mol
# GULP energy per Si atom -5587.615131 kJ/mol
# Density = 1.978184 g / cm^3
# Si number density = 19.826964 Si / 1000 Ang^3
#
#
#
# Elastic Constant Matrix: (Units=GPa)
#
#
# Indices 1 2 3 4 5 6 
#
# 1 97.4699 25.1765 9.7577 0.0000 -11.1137 0.0000
# 2 25.1765 60.4864 -12.0021 0.0000 11.2388 0.0000
# 3 9.7577 -12.0021 78.7431 0.0000 -11.8616 0.0000
# 4 0.0000 0.0000 0.0000 22.8333 0.0000 -1.1647
# 5 -11.1137 11.2388 -11.8616 0.0000 43.3903 0.0000
# 6 0.0000 0.0000 0.0000 -1.1647 0.0000 -5.0325
#
#
#
# Elastic Compliance Matrix: (Units=1/GPa)
#
#
# Indices 1 2 3 4 5 6 
#
# 1 0.012611 -0.006437 -0.001884 0.000000 0.004382 0.000000
# 2 -0.006437 0.020979 0.003054 0.000000 -0.006248 0.000000
# 3 -0.001884 0.003054 0.013774 0.000000 0.002492 0.000000
# 4 0.000000 0.000000 0.000000 0.043285 0.000000 -0.010018
# 5 0.004382 -0.006248 0.002492 0.000000 0.026469 0.000000
# 6 0.000000 0.000000 0.000000 -0.010018 0.000000 -0.196390
#
#
# Mechanical properties :
#
#
# Convention : Reuss Voigt Hill
#
# Bulk Modulus (GPa) = 27.15165 31.39596 29.27380
# Shear Modulus (GPa) = -88.55274 26.48936 -31.03169
#
# Velocity S-wave (km/s) = -6.69027 3.65914 -3.96046
# Velocity P-wave (km/s) = 6.77906 5.80704 2.47325
#
# Compressibility (1/GPa) = 0.03683017
#
# Stress axis : x y z
#
# Youngs Moduli (GPa) = 79.29897 47.66716 72.60150
#
# Poissons Ratio (x) = 0.30683 0.13676
# Poissons Ratio (y) = 0.51044 -0.22174
# Poissons Ratio (z) = 0.14937 -0.14558
#
# Static dielectric constant tensor:
#      x y z
#    x 1.609170 0.000000 -0.041350 
#    y 0.000000 1.673700 0.000000 
#    z -0.041350 0.000000 1.666400 
# 
# From -- ./inp_files/14002.got.cif
#   From: 2010.05.17/outbox.cif.g08.bks.cpg/sg3_8_cif.got.tgz:14002.got - 2010.06.03 18:33:08.
