data_PCOD9113980
_publ_section_title
;
Structure prediction by ZEFSAII (Michael W. Deem and Ramdas Pophale) SiO2 
 PCOD9113980
Probable space group: P 2
;
_chemical_formula_sum "Si O2"
_cell_formula_units_Z 16
_cell_length_a 18.022695
_cell_length_b 4.916258
_cell_length_c 9.312961
_cell_angle_alpha 90.000000
_cell_angle_beta 128.127928
_cell_angle_gamma 90.000000
_cell_volume 649.105049
_symmetry_space_group_name_H-M "P 2"
_symmetry_group_IT_number 3
_symmetry_cell_setting 'monoclinic'
loop_
_space_group_symop_operation_xyz
x,y,z
-x,y,-z
loop_
_atom_site_type_symbol
_atom_site_label
_atom_site_fract_x
_atom_site_fract_y
_atom_site_fract_z
Si Si1 0.006909 0.676450 0.164337
Si Si2 0.301594 0.316739 0.751823
Si Si3 0.333040 0.527511 0.100566
Si Si4 0.860323 0.202398 0.650274
Si Si5 0.414156 0.806937 0.804740
Si Si6 0.040369 0.009751 0.698258
Si Si7 0.167456 0.275371 0.070429
Si Si8 0.460327 0.028858 0.293859
O O1 0.103919 0.512052 0.303170
O O2 0.961263 0.688959 0.279019
O O3 0.925180 0.455283 0.018721
O O4 0.000000 0.832704 0.000000
O O5 0.211819 0.186758 0.566688
O O6 0.340879 0.562552 0.700234
O O7 0.373352 0.063788 0.843746
O O8 0.289895 0.455699 0.892887
O O9 0.258467 0.443537 0.132590
O O10 0.370098 0.832512 0.161741
O O11 0.424660 0.333778 0.224133
O O12 0.818474 0.133695 0.756899
O O13 0.953125 0.026665 0.713492
O O14 0.457680 0.930512 0.713917
O O15 0.500000 0.685185 0.000000
O O16 0.000000 0.101025 0.500000
O O17 0.134283 0.098192 0.892098
O O18 0.500000 0.002867 0.500000
#
# Coordination Sequence:
#
# PCOD9113980 Si02
#       8
#     2   2   2   2   2   2   2   2
#     4   9  20  42  65  89 132 174 219 268 328 398
#     4  12  25  43  73 103 136 176 232 280 339 410
#     4  12  25  46  69 104 139 175 228 287 332 410
#     4  10  24  42  65  98 129 176 224 273 332 398
#     4  12  24  48  72  97 137 182 224 284 348 400
#     4  11  22  40  67  95 135 174 217 271 334 400
#     4  10  24  42  65  95 133 175 221 277 332 392
#     4  12  28  46  72  99 139 179 229 281 347 406
#
# _framework density 24.649324
#
# number of rings (size 3 to 8) (size 9 to 14) (size 15 to 20)
#    0.000    1.000    2.500    4.125    7.000    3.000 
#    0.000    0.000    0.000    0.000    0.000    0.000 
#    0.000    0.000    0.000    0.000    0.000    0.000 
#
# Total GULP energy -89238.985815 kJ/mol
# GULP energy per Si atom -5577.436613 kJ/mol
# Density = 2.459322 g / cm^3
# Si number density = 24.649324 Si / 1000 Ang^3
#
#
#
# Elastic Constant Matrix: (Units=GPa)
#
#
# Indices 1 2 3 4 5 6 
#
# 1 62.3727 -5.4708 7.6588 0.0000 -6.3590 0.0000
# 2 -5.4708 54.2572 -2.8861 0.0000 -0.6043 0.0000
# 3 7.6588 -2.8861 119.3046 0.0000 -25.1589 0.0000
# 4 0.0000 0.0000 0.0000 20.0916 0.0000 -7.2662
# 5 -6.3590 -0.6043 -25.1589 0.0000 34.9242 0.0000
# 6 0.0000 0.0000 0.0000 -7.2662 0.0000 16.4918
#
#
#
# Elastic Compliance Matrix: (Units=1/GPa)
#
#
# Indices 1 2 3 4 5 6 
#
# 1 0.016511 0.001671 -0.000447 0.000000 0.002713 0.000000
# 2 0.001671 0.018641 0.000561 0.000000 0.001031 0.000000
# 3 -0.000447 0.000561 0.009915 0.000000 0.007071 0.000000
# 4 0.000000 0.000000 0.000000 0.059206 0.000000 0.026086
# 5 0.002713 0.001031 0.007071 0.000000 0.034239 0.000000
# 6 0.000000 0.000000 0.000000 0.026086 0.000000 0.072129
#
#
# Mechanical properties :
#
#
# Convention : Reuss Voigt Hill
#
# Bulk Modulus (GPa) = 20.56070 26.05981 23.31025
# Shear Modulus (GPa) = 22.39307 30.07704 26.23505
#
# Velocity S-wave (km/s) = 3.01735 3.49692 3.26595
# Velocity P-wave (km/s) = 4.52753 5.18650 4.86818
#
# Compressibility (1/GPa) = 0.04863648
#
# Stress axis : x y z
#
# Youngs Moduli (GPa) = 60.56661 53.64639 100.85361
#
# Poissons Ratio (x) = -0.08965 0.04512
# Poissons Ratio (y) = -0.10122 -0.05659
# Poissons Ratio (z) = 0.02710 -0.03010
#
# Static dielectric constant tensor:
#      x y z
#    x 2.044520 0.000000 -0.105890 
#    y 0.000000 2.044900 0.000000 
#    z -0.105890 0.000000 2.074160 
# 
# From -- ./inp_files/8949.got.cif
#   From: 2010.05.17/outbox.cif.g08.bks.cpg/sg3_5_cif.got.tgz:8949.got - 2010.06.03 18:33:08.
