data_PCOD9113514
_publ_section_title
;
Structure prediction by ZEFSAII (Michael W. Deem and Ramdas Pophale) SiO2 
 PCOD9113514
Probable space group: P 2
;
_chemical_formula_sum "Si O2"
_cell_formula_units_Z 13
_cell_length_a 8.176610
_cell_length_b 6.871344
_cell_length_c 9.837541
_cell_angle_alpha 90.000000
_cell_angle_beta 66.082956
_cell_angle_gamma 90.000000
_cell_volume 505.255565
_symmetry_space_group_name_H-M "P 2"
_symmetry_group_IT_number 3
_symmetry_cell_setting 'monoclinic'
loop_
_space_group_symop_operation_xyz
x,y,z
-x,y,-z
loop_
_atom_site_type_symbol
_atom_site_label
_atom_site_fract_x
_atom_site_fract_y
_atom_site_fract_z
Si Si1 0.726265 0.712960 0.006391
Si Si2 0.000000 0.170920 0.500000
Si Si3 0.803948 0.055580 0.200490
Si Si4 0.497065 0.598831 0.688270
Si Si5 0.904628 0.854873 0.712604
Si Si6 0.500000 0.956689 0.500000
Si Si7 0.000000 0.405629 0.000000
Si Si8 0.183865 0.503772 0.577010
O O1 0.570840 0.597776 0.136082
O O2 0.889725 0.557816 0.946190
O O3 0.752659 0.895290 0.102328
O O4 0.728641 0.792417 0.853303
O O5 0.134788 0.015411 0.388128
O O6 0.068680 0.310291 0.596176
O O7 0.861077 0.258434 0.116200
O O8 0.652113 0.072924 0.368581
O O9 0.975762 0.963641 0.214800
O O10 0.677055 0.482446 0.596597
O O11 0.322671 0.540355 0.654636
O O12 0.554593 0.805354 0.601091
O O13 0.040337 0.680407 0.624015
#
# Coordination Sequence:
#
# PCOD9113514 Si02
#       8
#     2   1   2   2   2   1   1   2
#     4  11  21  38  64 102 134 168 219 298 347 378
#     4  12  30  40  68 102 140 194 224 264 336 436
#     4  11  20  36  62 100 134 166 222 286 350 388
#     4   9  18  40  74 103 129 176 224 298 354 376
#     4  12  22  42  63  96 140 182 228 270 336 415
#     4   8  16  36  56  98 140 160 202 282 356 386
#     4  12  20  32  58 102 138 162 210 280 360 390
#     4  10  21  45  68 100 141 177 229 281 343 407
#
# _framework density 25.729551000000001
#
# number of rings (size 3 to 8) (size 9 to 14) (size 15 to 20)
#    0.000    1.538    7.692    0.462    4.308    0.000 
#    2.769    3.846    0.000    5.538    0.000    0.000 
#    0.000    0.000    0.000    0.000    0.000    0.000 
#
# Total GULP energy -72593.488676 kJ/mol
# GULP energy per Si atom -5584.114514 kJ/mol
# Density = 2.567099 g / cm^3
# Si number density = 25.729551 Si / 1000 Ang^3
#
#
#
# Elastic Constant Matrix: (Units=GPa)
#
#
# Indices 1 2 3 4 5 6 
#
# 1 73.5786 35.4285 15.5018 0.0000 -0.2843 0.0000
# 2 35.4285 155.7813 54.0731 0.0000 -3.7479 0.0000
# 3 15.5018 54.0731 127.2822 0.0000 -38.6391 0.0000
# 4 0.0000 0.0000 0.0000 51.1058 0.0000 -7.9657
# 5 -0.2843 -3.7479 -38.6391 0.0000 36.0839 0.0000
# 6 0.0000 0.0000 0.0000 -7.9657 0.0000 32.7951
#
#
#
# Elastic Compliance Matrix: (Units=1/GPa)
#
#
# Indices 1 2 3 4 5 6 
#
# 1 0.015313 -0.003220 -0.000832 0.000000 -0.001105 0.000000
# 2 -0.003220 0.008600 -0.004442 0.000000 -0.003888 0.000000
# 3 -0.000832 -0.004442 0.014376 0.000000 0.014926 0.000000
# 4 0.000000 0.000000 0.000000 0.020337 0.000000 0.004940
# 5 -0.001105 -0.003888 0.014926 0.000000 0.043284 0.000000
# 6 0.000000 0.000000 0.000000 0.004940 0.000000 0.031692
#
#
# Mechanical properties :
#
#
# Convention : Reuss Voigt Hill
#
# Bulk Modulus (GPa) = 46.94842 62.96098 54.95470
# Shear Modulus (GPa) = 31.70787 40.77288 36.24038
#
# Velocity S-wave (km/s) = 3.51430 3.98511 3.75709
# Velocity P-wave (km/s) = 5.89521 6.76005 6.34239
#
# Compressibility (1/GPa) = 0.02129997
#
# Stress axis : x y z
#
# Youngs Moduli (GPa) = 65.30608 116.28232 69.56048
#
# Poissons Ratio (x) = 0.37444 0.05791
# Poissons Ratio (y) = 0.21029 0.30896
# Poissons Ratio (z) = 0.05436 0.51648
#
# Static dielectric constant tensor:
#      x y z
#    x 2.036030 0.000000 -0.032310 
#    y 0.000000 2.038110 0.000000 
#    z -0.032310 0.000000 2.127180 
# 
# From -- ./inp_files/11065.got.cif
#   From: 2010.05.17/outbox.cif.g08.bks.cpg/sg3_6_cif.got.tgz:11065.got - 2010.06.03 18:33:08.
