data_PCOD9113877
_publ_section_title
;
Structure prediction by ZEFSAII (Michael W. Deem and Ramdas Pophale) SiO2 
 PCOD9113877
Probable space group: P 2
;
_chemical_formula_sum "Si O2"
_cell_formula_units_Z 11
_cell_length_a 11.018448
_cell_length_b 8.749558
_cell_length_c 9.218061
_cell_angle_alpha 90.000000
_cell_angle_beta 141.730870
_cell_angle_gamma 90.000000
_cell_volume 550.410297
_symmetry_space_group_name_H-M "P 2"
_symmetry_group_IT_number 3
_symmetry_cell_setting 'monoclinic'
loop_
_space_group_symop_operation_xyz
x,y,z
-x,y,-z
loop_
_atom_site_type_symbol
_atom_site_label
_atom_site_fract_x
_atom_site_fract_y
_atom_site_fract_z
Si Si1 0.617103 0.678440 0.762324
Si Si2 0.958001 0.442854 0.110977
Si Si3 0.664987 0.921497 0.035600
Si Si4 0.795398 0.253815 0.226739
Si Si5 0.701638 0.510052 0.362172
Si Si6 0.000000 0.748182 0.500000
O O1 0.500000 0.677039 0.500000
O O2 0.499847 0.578689 0.772089
O O3 0.828156 0.594035 0.953444
O O4 0.620134 0.846772 0.837558
O O5 0.848825 0.349791 0.133855
O O6 0.170534 0.473320 0.376720
O O7 0.000000 0.358073 0.000000
O O8 0.877054 0.852005 0.275672
O O9 0.684184 0.103063 0.070496
O O10 0.500000 0.874655 0.000000
O O11 0.693201 0.364998 0.248343
O O12 0.000000 0.210817 0.500000
O O13 0.836044 0.637536 0.412022
#
# Coordination Sequence:
#
# PCOD9113877 Si02
#       6
#     2   2   2   2   2   1
#     4  12  25  40  65 101 134 172 221 264 331 392
#     4  11  22  41  65  95 129 171 220 271 322 384
#     4  12  25  40  64  98 135 173 216 270 332 383
#     4  10  23  42  66  94 132 168 220 273 328 384
#     4  11  21  41  66  96 124 168 222 276 313 382
#     4  12  20  40  68  94 124 162 222 276 316 368
#
# _framework density 19.985091000000001
#
# number of rings (size 3 to 8) (size 9 to 14) (size 15 to 20)
#    0.000    0.727    9.091    0.000    2.545    0.000 
#    0.000    7.273    0.000    0.000    0.000    0.000 
#    0.000    0.000    0.000    0.000    0.000    0.000 
#
# Total GULP energy -61389.086310 kJ/mol
# GULP energy per Si atom -5580.826028 kJ/mol
# Density = 1.993960 g / cm^3
# Si number density = 19.985091 Si / 1000 Ang^3
#
#
#
# Elastic Constant Matrix: (Units=GPa)
#
#
# Indices 1 2 3 4 5 6 
#
# 1 81.4721 28.5215 30.4812 0.0000 -9.1232 0.0000
# 2 28.5215 99.0505 41.5123 0.0000 -13.0676 0.0000
# 3 30.4812 41.5123 93.0852 0.0000 -12.4634 0.0000
# 4 0.0000 0.0000 0.0000 35.7485 0.0000 0.0145
# 5 -9.1232 -13.0676 -12.4634 0.0000 40.3366 0.0000
# 6 0.0000 0.0000 0.0000 0.0145 0.0000 8.4598
#
#
#
# Elastic Compliance Matrix: (Units=1/GPa)
#
#
# Indices 1 2 3 4 5 6 
#
# 1 0.014626 -0.002580 -0.003450 0.000000 0.001406 0.000000
# 2 -0.002580 0.013101 -0.004702 0.000000 0.002208 0.000000
# 3 -0.003450 -0.004702 0.014251 0.000000 0.002100 0.000000
# 4 0.000000 0.000000 0.000000 0.027973 0.000000 -0.000048
# 5 0.001406 0.002208 0.002100 0.000000 0.026473 0.000000
# 6 0.000000 0.000000 0.000000 -0.000048 0.000000 0.118206
#
#
# Mechanical properties :
#
#
# Convention : Reuss Voigt Hill
#
# Bulk Modulus (GPa) = 48.75091 52.73752 50.74422
# Shear Modulus (GPa) = 20.58196 28.44850 24.51523
#
# Velocity S-wave (km/s) = 3.21263 3.77700 3.50619
# Velocity P-wave (km/s) = 6.18126 6.74290 6.46818
#
# Compressibility (1/GPa) = 0.02051244
#
# Stress axis : x y z
#
# Youngs Moduli (GPa) = 68.37300 76.33243 70.17188
#
# Poissons Ratio (x) = 0.19693 0.24213
# Poissons Ratio (y) = 0.17639 0.32995
# Poissons Ratio (z) = 0.23592 0.35891
#
# Static dielectric constant tensor:
#      x y z
#    x 1.721000 0.000000 0.011700 
#    y 0.000000 1.716450 0.000000 
#    z 0.011700 0.000000 1.781300 
# 
# From -- ./inp_files/6800.got.cif
#   From: 2010.05.17/outbox.cif.g08.bks.cpg/sg3_4_cif.got.tgz:6800.got - 2010.06.03 18:33:08.
