data_PCOD9113170
_publ_section_title
;
Structure prediction by ZEFSAII (Michael W. Deem and Ramdas Pophale) SiO2 
 PCOD9113170
Probable space group: P 2
;
_chemical_formula_sum "Si O2"
_cell_formula_units_Z 13
_cell_length_a 6.475019
_cell_length_b 5.370372
_cell_length_c 17.462532
_cell_angle_alpha 90.000000
_cell_angle_beta 89.424100
_cell_angle_gamma 90.000000
_cell_volume 607.198505
_symmetry_space_group_name_H-M "P 2"
_symmetry_group_IT_number 3
_symmetry_cell_setting 'monoclinic'
loop_
_space_group_symop_operation_xyz
x,y,z
-x,y,-z
loop_
_atom_site_type_symbol
_atom_site_label
_atom_site_fract_x
_atom_site_fract_y
_atom_site_fract_z
Si Si1 0.123892 0.389520 0.198807
Si Si2 0.509524 0.748576 0.590615
Si Si3 0.496217 0.720012 0.856298
Si Si4 0.744097 0.608567 0.281949
Si Si5 0.500000 0.056906 0.000000
Si Si6 0.594728 0.254110 0.673929
Si Si7 0.852645 0.390019 0.063450
O O1 0.305192 0.550943 0.159916
O O2 0.237835 0.217352 0.259912
O O3 0.967450 0.565348 0.247034
O O4 0.988640 0.273195 0.131202
O O5 0.500000 0.735865 0.500000
O O6 0.585840 0.015753 0.620023
O O7 0.285440 0.712701 0.632793
O O8 0.634238 0.511226 0.625476
O O9 0.398278 0.778670 0.773637
O O10 0.307802 0.572550 0.896097
O O11 0.548436 0.918588 0.920258
O O12 0.622769 0.341244 0.286100
O O13 0.706774 0.204825 0.018564
O O14 0.000000 0.514879 0.000000
#
# Coordination Sequence:
#
# PCOD9113170 Si02
#       7
#     2   2   2   2   1   2   2
#     4  10  20  45  64  90 127 175 223 274 327 399
#     4  10  20  42  71  96 137 176 216 272 341 391
#     4  10  22  43  62  87 129 167 214 269 329 389
#     4   8  21  38  64  93 124 173 219 269 328 396
#     4  12  24  38  60  96 122 172 214 276 330 386
#     4   9  21  41  66  99 131 175 217 273 326 399
#     4  11  24  40  60  90 128 168 217 274 323 391
#
# _framework density 21.409801999999999
#
# number of rings (size 3 to 8) (size 9 to 14) (size 15 to 20)
#    0.923    1.231    0.000    2.769    0.000    8.000 
#    8.308    0.769    0.000    0.000    0.000    0.000 
#    0.000    0.000    0.000    0.000    0.000    0.000 
#
# Total GULP energy -72465.193560 kJ/mol
# GULP energy per Si atom -5574.245658 kJ/mol
# Density = 2.136107 g / cm^3
# Si number density = 21.409802 Si / 1000 Ang^3
#
#
#
# Elastic Constant Matrix: (Units=GPa)
#
#
# Indices 1 2 3 4 5 6 
#
# 1 108.0025 21.9771 60.7432 0.0000 -1.5999 0.0000
# 2 21.9771 72.9639 31.5164 0.0000 -0.0268 0.0000
# 3 60.7432 31.5164 151.9707 0.0000 -17.6974 0.0000
# 4 0.0000 0.0000 0.0000 65.4958 0.0000 15.8248
# 5 -1.5999 -0.0268 -17.6974 0.0000 22.3262 0.0000
# 6 0.0000 0.0000 0.0000 15.8248 0.0000 9.7742
#
#
#
# Elastic Compliance Matrix: (Units=1/GPa)
#
#
# Indices 1 2 3 4 5 6 
#
# 1 0.012319 -0.001573 -0.004953 0.000000 -0.003045 0.000000
# 2 -0.001573 0.015405 -0.002839 0.000000 -0.002345 0.000000
# 3 -0.004953 -0.002839 0.010033 0.000000 0.007595 0.000000
# 4 0.000000 0.000000 0.000000 0.025079 0.000000 -0.040603
# 5 -0.003045 -0.002345 0.007595 0.000000 0.050589 0.000000
# 6 0.000000 0.000000 0.000000 -0.040603 0.000000 0.168049
#
#
# Mechanical properties :
#
#
# Convention : Reuss Voigt Hill
#
# Bulk Modulus (GPa) = 52.55308 62.37894 57.46601
# Shear Modulus (GPa) = 16.31084 34.09928 25.20506
#
# Velocity S-wave (km/s) = 2.76314 3.99519 3.43486
# Velocity P-wave (km/s) = 5.89741 7.10500 6.52918
#
# Compressibility (1/GPa) = 0.01902838
#
# Stress axis : x y z
#
# Youngs Moduli (GPa) = 81.17306 64.91583 99.67144
#
# Poissons Ratio (x) = 0.10208 0.49363
# Poissons Ratio (y) = 0.12765 0.28298
# Poissons Ratio (z) = 0.40201 0.18431
#
# Static dielectric constant tensor:
#      x y z
#    x 1.779430 0.000000 0.001480 
#    y 0.000000 1.824360 0.000000 
#    z 0.001480 0.000000 1.833490 
# 
# From -- ./inp_files/14550.got.cif
#   From: 2010.05.17/outbox.cif.g08.bks.cpg/sg3_8_cif.got.tgz:14550.got - 2010.06.03 18:33:08.
