data_PCOD9113930
_publ_section_title
;
Structure prediction by ZEFSAII (Michael W. Deem and Ramdas Pophale) SiO2 
 PCOD9113930
Probable space group: P 2
;
_chemical_formula_sum "Si O2"
_cell_formula_units_Z 16
_cell_length_a 18.878516
_cell_length_b 7.906103
_cell_length_c 8.120578
_cell_angle_alpha 90.000000
_cell_angle_beta 35.744898
_cell_angle_gamma 90.000000
_cell_volume 708.046875
_symmetry_space_group_name_H-M "P 2"
_symmetry_group_IT_number 3
_symmetry_cell_setting 'monoclinic'
loop_
_space_group_symop_operation_xyz
x,y,z
-x,y,-z
loop_
_atom_site_type_symbol
_atom_site_label
_atom_site_fract_x
_atom_site_fract_y
_atom_site_fract_z
Si Si1 0.374477 0.243730 0.798194
Si Si2 0.546478 0.960170 0.087345
Si Si3 0.304866 0.949890 0.695124
Si Si4 0.858776 0.421729 0.236473
Si Si5 0.859055 0.067522 0.297700
Si Si6 0.122858 0.382998 0.176240
Si Si7 0.127753 0.746566 0.253402
Si Si8 0.226578 0.735176 0.406765
O O1 0.500000 0.334620 0.500000
O O2 0.398934 0.113660 0.904862
O O3 0.349064 0.120873 0.693450
O O4 0.246870 0.343556 0.042112
O O5 0.430751 0.874784 0.393774
O O6 0.500000 0.031666 0.000000
O O7 0.640237 0.810882 0.869990
O O8 0.216543 0.989853 0.711343
O O9 0.233378 0.850230 0.969140
O O10 0.815885 0.257096 0.422688
O O11 0.789456 0.593420 0.421566
O O12 0.854932 0.342676 0.058668
O O13 0.000000 0.462554 0.000000
O O14 0.848023 0.911755 0.441726
O O15 0.000000 0.089315 0.000000
O O16 0.101573 0.583099 0.193991
O O17 0.000000 0.316599 0.500000
O O18 0.172827 0.667101 0.338733
O O19 0.000000 0.844077 0.500000
#
# Coordination Sequence:
#
# PCOD9113930 Si02
#       8
#     2   2   2   2   2   2   2   2
#     4  10  23  45  68  98 139 184 235 292 355 427
#     4  11  24  44  71 100 134 187 235 296 355 422
#     4  11  21  45  69  97 139 180 238 292 351 420
#     4  11  24  44  69 106 150 182 236 301 354 424
#     4  11  23  40  71 103 135 187 231 291 366 422
#     4  11  24  45  69 103 145 185 235 302 360 420
#     4  11  24  42  69 103 139 185 235 293 357 427
#     4  12  24  44  69 102 143 188 242 284 360 424
#
# _framework density 22.597373999999999
#
# number of rings (size 3 to 8) (size 9 to 14) (size 15 to 20)
#    0.000    1.000    3.750    3.375    0.000    3.500 
#    2.250    0.000    2.750    0.000    0.000    0.000 
#    0.000    0.000    0.000    0.000    0.000    0.000 
#
# Total GULP energy -89133.854761 kJ/mol
# GULP energy per Si atom -5570.865923 kJ/mol
# Density = 2.254594 g / cm^3
# Si number density = 22.597374 Si / 1000 Ang^3
#
#
#
# Elastic Constant Matrix: (Units=GPa)
#
#
# Indices 1 2 3 4 5 6 
#
# 1 106.8753 -1.9062 39.9182 0.0000 -17.1316 0.0000
# 2 -1.9062 89.6383 57.3119 0.0000 -12.9397 0.0000
# 3 39.9182 57.3119 160.4086 0.0000 -22.2239 0.0000
# 4 0.0000 0.0000 0.0000 29.5127 0.0000 -10.6979
# 5 -17.1316 -12.9397 -22.2239 0.0000 27.3597 0.0000
# 6 0.0000 0.0000 0.0000 -10.6979 0.0000 33.3742
#
#
#
# Elastic Compliance Matrix: (Units=1/GPa)
#
#
# Indices 1 2 3 4 5 6 
#
# 1 0.011582 0.003154 -0.003153 0.000000 0.006183 0.000000
# 2 0.003154 0.015537 -0.005684 0.000000 0.004706 0.000000
# 3 -0.003153 -0.005684 0.009469 0.000000 0.003029 0.000000
# 4 0.000000 0.000000 0.000000 0.038338 0.000000 0.012289
# 5 0.006183 0.004706 0.003029 0.000000 0.045108 0.000000
# 6 0.000000 0.000000 0.000000 0.012289 0.000000 0.033903
#
#
# Mechanical properties :
#
#
# Convention : Reuss Voigt Hill
#
# Bulk Modulus (GPa) = 39.64618 60.84110 50.24364
# Shear Modulus (GPa) = 28.78394 35.48922 32.13658
#
# Velocity S-wave (km/s) = 3.57287 3.96725 3.77522
# Velocity P-wave (km/s) = 5.88245 6.92589 6.42538
#
# Compressibility (1/GPa) = 0.02522311
#
# Stress axis : x y z
#
# Youngs Moduli (GPa) = 86.34429 64.36442 105.60652
#
# Poissons Ratio (x) = -0.20303 0.33293
# Poissons Ratio (y) = -0.27237 0.60027
# Poissons Ratio (z) = 0.27220 0.36585
#
# Static dielectric constant tensor:
#      x y z
#    x 1.873010 0.000000 0.040400 
#    y 0.000000 1.822710 0.000000 
#    z 0.040400 0.000000 1.894710 
# 
# From -- ./inp_files/9450.got.cif
#   From: 2010.05.17/outbox.cif.g08.bks.cpg/sg3_5_cif.got.tgz:9450.got - 2010.06.03 18:33:08.
