data_PCOD9113972
_publ_section_title
;
Structure prediction by ZEFSAII (Michael W. Deem and Ramdas Pophale) SiO2 
 PCOD9113972
Probable space group: P 2
;
_chemical_formula_sum "Si O2"
_cell_formula_units_Z 14
_cell_length_a 8.816902
_cell_length_b 7.172654
_cell_length_c 10.000717
_cell_angle_alpha 90.000000
_cell_angle_beta 95.441312
_cell_angle_gamma 90.000000
_cell_volume 629.601298
_symmetry_space_group_name_H-M "P 2"
_symmetry_group_IT_number 3
_symmetry_cell_setting 'monoclinic'
loop_
_space_group_symop_operation_xyz
x,y,z
-x,y,-z
loop_
_atom_site_type_symbol
_atom_site_label
_atom_site_fract_x
_atom_site_fract_y
_atom_site_fract_z
Si Si1 0.817729 0.200370 0.641521
Si Si2 0.172235 0.840478 0.968196
Si Si3 0.152250 0.237274 0.660076
Si Si4 0.772373 0.645862 0.591189
Si Si5 0.616206 0.132659 0.114347
Si Si6 0.115388 0.670790 0.680138
Si Si7 0.371530 0.884719 0.224998
O O1 0.817686 0.153027 0.483141
O O2 0.774847 0.423179 0.628448
O O3 0.992478 0.157533 0.702494
O O4 0.709117 0.072248 0.721976
O O5 0.239405 0.046673 0.950016
O O6 0.178713 0.729917 0.828752
O O7 0.276314 0.778709 0.100784
O O8 0.000000 0.839487 0.000000
O O9 0.106520 0.451521 0.650755
O O10 0.305320 0.237089 0.758411
O O11 0.778913 0.716405 0.437944
O O12 0.632264 0.741328 0.654079
O O13 0.937021 0.726233 0.655996
O O14 0.523421 0.959270 0.168948
O O15 0.500000 0.225690 0.000000
#
# Coordination Sequence:
#
# PCOD9113972 Si02
#       7
#     2   2   2   2   2   2   2
#     4   9  20  38  68  97 122 161 217 276 318 372
#     4  11  21  39  60  90 121 166 223 256 315 384
#     4   9  19  40  63  94 126 163 218 269 318 377
#     4   9  19  38  64  98 127 154 216 275 326 377
#     4  10  24  41  56  90 133 173 213 251 325 401
#     4   9  19  37  64  95 123 160 218 280 314 369
#     4  11  22  39  62  90 134 171 200 267 324 393
#
# _framework density 22.236294000000001
#
# number of rings (size 3 to 8) (size 9 to 14) (size 15 to 20)
#    0.000    2.286    1.429    2.571    2.000    1.714 
#    7.714    1.429    0.000    0.000    0.000    0.000 
#    0.000    0.000    0.000    0.000    0.000    0.000 
#
# Total GULP energy -77945.434764 kJ/mol
# GULP energy per Si atom -5567.531055 kJ/mol
# Density = 2.218568 g / cm^3
# Si number density = 22.236294 Si / 1000 Ang^3
#
#
#
# Elastic Constant Matrix: (Units=GPa)
#
#
# Indices 1 2 3 4 5 6 
#
# 1 60.1740 7.8738 26.8382 0.0000 2.2192 0.0000
# 2 7.8738 63.8440 14.2775 0.0000 -3.4014 0.0000
# 3 26.8382 14.2775 118.4666 0.0000 -0.6945 0.0000
# 4 0.0000 0.0000 0.0000 28.0037 0.0000 -3.2891
# 5 2.2192 -3.4014 -0.6945 0.0000 22.2339 0.0000
# 6 0.0000 0.0000 0.0000 -3.2891 0.0000 25.0941
#
#
#
# Elastic Compliance Matrix: (Units=1/GPa)
#
#
# Indices 1 2 3 4 5 6 
#
# 1 0.018714 -0.001517 -0.004070 0.000000 -0.002227 0.000000
# 2 -0.001517 0.016349 -0.001612 0.000000 0.002602 0.000000
# 3 -0.004070 -0.001612 0.009560 0.000000 0.000458 0.000000
# 4 0.000000 0.000000 0.000000 0.036268 0.000000 0.004754
# 5 -0.002227 0.002602 0.000458 0.000000 0.045611 0.000000
# 6 0.000000 0.000000 0.000000 0.004754 0.000000 0.040473
#
#
# Mechanical properties :
#
#
# Convention : Reuss Voigt Hill
#
# Bulk Modulus (GPa) = 33.08233 37.82928 35.45580
# Shear Modulus (GPa) = 26.11683 27.96603 27.04143
#
# Velocity S-wave (km/s) = 3.43084 3.55022 3.49104
# Velocity P-wave (km/s) = 5.53210 5.81848 5.67710
#
# Compressibility (1/GPa) = 0.03022762
#
# Stress axis : x y z
#
# Youngs Moduli (GPa) = 53.43520 61.16489 104.60097
#
# Poissons Ratio (x) = 0.09276 0.42572
# Poissons Ratio (y) = 0.08103 0.16857
# Poissons Ratio (z) = 0.21748 0.09857
#
# Static dielectric constant tensor:
#      x y z
#    x 1.840120 0.000000 0.013610 
#    y 0.000000 1.853000 0.000000 
#    z 0.013610 0.000000 1.922980 
# 
# From -- ./inp_files/5560.got.cif
#   From: 2010.05.17/outbox.cif.g08.bks.cpg/sg3_3_cif.got.tgz:5560.got - 2010.06.03 18:33:08.
