data_PCOD9113210
_publ_section_title
;
Structure prediction by ZEFSAII (Michael W. Deem and Ramdas Pophale) SiO2 
 PCOD9113210
Probable space group: P 2
;
_chemical_formula_sum "Si O2"
_cell_formula_units_Z 13
_cell_length_a 7.866009
_cell_length_b 15.880958
_cell_length_c 5.353245
_cell_angle_alpha 90.000000
_cell_angle_beta 61.132943
_cell_angle_gamma 90.000000
_cell_volume 585.631677
_symmetry_space_group_name_H-M "P 2"
_symmetry_group_IT_number 3
_symmetry_cell_setting 'monoclinic'
loop_
_space_group_symop_operation_xyz
x,y,z
-x,y,-z
loop_
_atom_site_type_symbol
_atom_site_label
_atom_site_fract_x
_atom_site_fract_y
_atom_site_fract_z
Si Si1 0.267774 0.021370 0.666707
Si Si2 0.374115 0.464259 0.340021
Si Si3 0.222277 0.288923 0.335505
Si Si4 0.632139 0.658708 0.649881
Si Si5 0.000000 0.769915 0.500000
Si Si6 0.220625 0.214650 0.826731
Si Si7 0.735035 0.918439 0.839323
O O1 0.500000 0.025645 0.500000
O O2 0.206013 0.115475 0.783001
O O3 0.217300 0.977073 0.437848
O O4 0.215258 0.965461 0.941444
O O5 0.500000 0.445609 0.500000
O O6 0.228807 0.388471 0.382505
O O7 0.305359 0.560410 0.414852
O O8 0.500000 0.464789 0.000000
O O9 0.316999 0.249195 0.510469
O O10 0.000000 0.258817 0.500000
O O11 0.305875 0.251509 0.021369
O O12 0.500000 0.678297 0.500000
O O13 0.830884 0.712167 0.501494
O O14 0.500000 0.669542 0.000000
O O15 0.863073 0.834323 0.750026
O O16 0.000000 0.248982 0.000000
O O17 0.500000 0.901835 0.000000
#
# Coordination Sequence:
#
# PCOD9113210 Si02
#       7
#     2   2   2   2   1   2   2
#     4  10  22  41  60  86 130 168 208 270 323 375
#     4  10  21  40  63  90 127 167 205 262 321 377
#     4  10  21  36  57  90 125 162 211 260 305 372
#     4  10  25  46  68 103 141 169 223 282 327 408
#     4  12  26  44  78 100 126 192 212 274 360 400
#     4  10  21  35  57  88 124 164 212 266 307 371
#     4  10  24  41  62  97 130 165 221 274 321 399
#
# _framework density 22.198253000000001
#
# number of rings (size 3 to 8) (size 9 to 14) (size 15 to 20)
#    0.000    1.846    0.000    2.308    3.231    6.769 
#    0.000    0.000    0.000    0.000    0.000    0.000 
#    0.000    0.000    0.000    0.000    0.000    0.000 
#
# Total GULP energy -72486.177469 kJ/mol
# GULP energy per Si atom -5575.859805 kJ/mol
# Density = 2.214773 g / cm^3
# Si number density = 22.198253 Si / 1000 Ang^3
#
#
#
# Elastic Constant Matrix: (Units=GPa)
#
#
# Indices 1 2 3 4 5 6 
#
# 1 129.8229 52.2871 82.7714 0.0000 9.0221 0.0000
# 2 52.2871 116.7761 59.1604 0.0000 5.7793 0.0000
# 3 82.7714 59.1604 166.0949 0.0000 38.9614 0.0000
# 4 0.0000 0.0000 0.0000 27.9968 0.0000 -15.8527
# 5 9.0221 5.7793 38.9614 0.0000 31.7349 0.0000
# 6 0.0000 0.0000 0.0000 -15.8527 0.0000 41.9509
#
#
#
# Elastic Compliance Matrix: (Units=1/GPa)
#
#
# Indices 1 2 3 4 5 6 
#
# 1 0.012520 -0.002574 -0.006457 0.000000 0.004837 0.000000
# 2 -0.002574 0.011305 -0.003416 0.000000 0.002867 0.000000
# 3 -0.006457 -0.003416 0.013874 0.000000 -0.014576 0.000000
# 4 0.000000 0.000000 0.000000 0.045442 0.000000 0.017172
# 5 0.004837 0.002867 -0.014576 0.000000 0.047509 0.000000
# 6 0.000000 0.000000 0.000000 0.017172 0.000000 0.030326
#
#
# Mechanical properties :
#
#
# Convention : Reuss Voigt Hill
#
# Bulk Modulus (GPa) = 78.09848 89.01463 83.55655
# Shear Modulus (GPa) = 26.29647 34.90153 30.59900
#
# Velocity S-wave (km/s) = 3.44556 3.96948 3.71677
# Velocity P-wave (km/s) = 7.14758 7.82278 7.49279
#
# Compressibility (1/GPa) = 0.01280435
#
# Stress axis : x y z
#
# Youngs Moduli (GPa) = 79.87085 88.45720 72.07517
#
# Poissons Ratio (x) = 0.22770 0.46539
# Poissons Ratio (y) = 0.20560 0.24624
# Poissons Ratio (z) = 0.51572 0.30221
#
# Static dielectric constant tensor:
#      x y z
#    x 1.808540 0.000000 -0.033560 
#    y 0.000000 1.924040 0.000000 
#    z -0.033560 0.000000 1.826690 
# 
# From -- ./inp_files/1400.got.cif
#   From: 2010.05.17/outbox.cif.g08.bks.cpg/sg3_1_cif.got.tgz:1400.got - 2010.06.03 18:33:08.
