data_PCOD9113711
_publ_section_title
;
Structure prediction by ZEFSAII (Michael W. Deem and Ramdas Pophale) SiO2 
 PCOD9113711
Probable space group: P 2
;
_chemical_formula_sum "Si O2"
_cell_formula_units_Z 13
_cell_length_a 5.250324
_cell_length_b 5.060876
_cell_length_c 17.871873
_cell_angle_alpha 90.000000
_cell_angle_beta 86.057436
_cell_angle_gamma 90.000000
_cell_volume 473.753994
_symmetry_space_group_name_H-M "P 2"
_symmetry_group_IT_number 3
_symmetry_cell_setting 'monoclinic'
loop_
_space_group_symop_operation_xyz
x,y,z
-x,y,-z
loop_
_atom_site_type_symbol
_atom_site_label
_atom_site_fract_x
_atom_site_fract_y
_atom_site_fract_z
Si Si1 0.500000 0.535280 0.000000
Si Si2 0.245132 0.143702 0.222367
Si Si3 0.840617 0.523483 0.295927
Si Si4 0.073910 0.135607 0.074529
Si Si5 0.468637 0.145916 0.367910
Si Si6 0.348245 0.533995 0.852270
Si Si7 0.027592 0.891135 0.580224
O O1 0.720627 0.345927 0.962056
O O2 0.408125 0.687366 0.927618
O O3 0.184302 0.994367 0.146309
O O4 0.416289 0.028202 0.285389
O O5 0.404275 0.395045 0.188120
O O6 0.995742 0.260428 0.268502
O O7 0.587002 0.431035 0.345163
O O8 0.785252 0.658256 0.217281
O O9 0.003499 0.692130 0.350018
O O10 0.838373 0.301636 0.113533
O O11 0.000000 0.982958 0.000000
O O12 0.692341 0.009109 0.410264
O O13 0.198098 0.108982 0.413299
O O14 0.000000 0.758770 0.500000
#
# Coordination Sequence:
#
# PCOD9113711 Si02
#       7
#     1   2   2   2   2   2   2
#     4   8  12  22  42  82 128 162 214 270 312 382
#     4   9  17  35  60  91 128 172 221 265 332 397
#     4  10  22  42  69  96 133 176 225 274 339 404
#     4   8  13  23  45  85 127 165 216 269 313 389
#     4  11  24  46  69  98 133 174 219 278 339 408
#     4   8  15  26  52  86 126 165 218 267 321 392
#     4  12  28  47  68 101 134 171 228 278 348 417
#
# _framework density 27.440404999999998
#
# number of rings (size 3 to 8) (size 9 to 14) (size 15 to 20)
#    0.000    2.462    1.538    0.462    4.308    0.615 
#    2.769    0.000    0.000    0.000    4.000    0.000 
#    0.000    0.000    0.000    0.000    0.000    0.000 
#
# Total GULP energy -72628.104656 kJ/mol
# GULP energy per Si atom -5586.777281 kJ/mol
# Density = 2.737795 g / cm^3
# Si number density = 27.440405 Si / 1000 Ang^3
#
#
#
# Elastic Constant Matrix: (Units=GPa)
#
#
# Indices 1 2 3 4 5 6 
#
# 1 133.6820 28.3481 52.2081 0.0000 6.2788 0.0000
# 2 28.3481 55.1683 30.2028 0.0000 -2.8146 0.0000
# 3 52.2081 30.2028 211.9061 0.0000 74.8318 0.0000
# 4 0.0000 0.0000 0.0000 26.0278 0.0000 -83.4415
# 5 6.2788 -2.8146 74.8318 0.0000 69.5860 0.0000
# 6 0.0000 0.0000 0.0000 -83.4415 0.0000 -348.5324
#
#
#
# Elastic Compliance Matrix: (Units=1/GPa)
#
#
# Indices 1 2 3 4 5 6 
#
# 1 0.008999 -0.003300 -0.002278 0.000000 0.001504 0.000000
# 2 -0.003300 0.022645 -0.004584 0.000000 0.006143 0.000000
# 3 -0.002278 -0.004584 0.009555 0.000000 -0.010255 0.000000
# 4 0.000000 0.000000 0.000000 0.021737 0.000000 -0.005204
# 5 0.001504 0.006143 -0.010255 0.000000 0.025512 0.000000
# 6 0.000000 0.000000 0.000000 -0.005204 0.000000 -0.001623
#
#
# Mechanical properties :
#
#
# Convention : Reuss Voigt Hill
#
# Bulk Modulus (GPa) = 47.90370 69.14160 58.52265
# Shear Modulus (GPa) = 43.81809 -31.25056 6.28376
#
# Velocity S-wave (km/s) = 4.00039 -3.37835 1.51491
# Velocity P-wave (km/s) = 6.23159 3.16766 4.94302
#
# Compressibility (1/GPa) = 0.02087521
#
# Stress axis : x y z
#
# Youngs Moduli (GPa) = 111.11970 44.15956 104.65538
#
# Poissons Ratio (x) = 0.14575 0.23840
# Poissons Ratio (y) = 0.36674 0.47972
# Poissons Ratio (z) = 0.25313 0.20242
#
# Static dielectric constant tensor:
#      x y z
#    x 2.242020 0.000000 0.103850 
#    y 0.000000 2.163140 0.000000 
#    z 0.103850 0.000000 2.135850 
# 
# From -- ./inp_files/14566.got.cif
#   From: 2010.05.17/outbox.cif.g08.bks.cpg/sg3_8_cif.got.tgz:14566.got - 2010.06.03 18:33:08.
