data_PCOD9113933
_publ_section_title
;
Structure prediction by ZEFSAII (Michael W. Deem and Ramdas Pophale) SiO2 
 PCOD9113933
Probable space group: P 2
;
_chemical_formula_sum "Si O2"
_cell_formula_units_Z 14
_cell_length_a 9.206605
_cell_length_b 15.859308
_cell_length_c 5.532071
_cell_angle_alpha 90.000000
_cell_angle_beta 127.251647
_cell_angle_gamma 90.000000
_cell_volume 642.948454
_symmetry_space_group_name_H-M "P 2"
_symmetry_group_IT_number 3
_symmetry_cell_setting 'monoclinic'
loop_
_space_group_symop_operation_xyz
x,y,z
-x,y,-z
loop_
_atom_site_type_symbol
_atom_site_label
_atom_site_fract_x
_atom_site_fract_y
_atom_site_fract_z
Si Si1 0.114928 0.195360 0.365039
Si Si2 0.349128 0.531130 0.534944
Si Si3 0.388639 0.345206 0.645862
Si Si4 0.294532 0.022103 0.559532
Si Si5 0.165964 0.775369 0.830027
Si Si6 0.500000 0.677477 0.000000
Si Si7 0.000000 0.630362 0.000000
Si Si8 0.287623 0.953847 0.058105
O O1 0.214820 0.284860 0.448248
O O2 0.268916 0.122160 0.541637
O O3 0.000000 0.190750 0.500000
O O4 0.000000 0.182602 0.000000
O O5 0.500000 0.501430 0.500000
O O6 0.322937 0.441831 0.641384
O O7 0.457226 0.611175 0.749262
O O8 0.157338 0.570085 0.261982
O O9 0.500000 0.335378 0.500000
O O10 0.500000 0.319057 0.000000
O O11 0.208173 0.994368 0.219007
O O12 0.501106 0.985153 0.748576
O O13 0.213505 0.983301 0.723512
O O14 0.326885 0.736778 0.835358
O O15 0.000000 0.806053 0.500000
O O16 0.254764 0.854103 0.055994
O O17 0.092412 0.695561 0.906430
#
# Coordination Sequence:
#
# PCOD9113933 Si02
#       8
#     2   2   2   2   2   1   1   2
#     4  12  27  47  74 115 150 185 243 311 375 442
#     4  11  24  45  71 105 146 195 248 296 374 443
#     4  11  26  47  78 108 148 197 246 298 367 456
#     4  10  23  45  70  98 137 194 234 291 368 443
#     4  12  27  43  69 105 142 190 252 308 371 432
#     4  12  22  46  68  98 144 194 242 304 366 440
#     4  12  26  44  72 104 146 194 244 316 364 436
#     4  10  24  43  71 100 136 190 245 298 356 435
#
# _framework density 21.774684000000001
#
# number of rings (size 3 to 8) (size 9 to 14) (size 15 to 20)
#    0.000    0.857    3.571    2.571    7.000    4.000 
#    2.571    0.000    0.000    0.000    0.000    0.000 
#    0.000    0.000    0.000    0.000    0.000    0.000 
#
# Total GULP energy -78023.311381 kJ/mol
# GULP energy per Si atom -5573.093670 kJ/mol
# Density = 2.172512 g / cm^3
# Si number density = 21.774684 Si / 1000 Ang^3
#
#
#
# Elastic Constant Matrix: (Units=GPa)
#
#
# Indices 1 2 3 4 5 6 
#
# 1 74.2576 24.5080 52.2908 0.0000 -5.7967 0.0000
# 2 24.5080 119.9637 22.6257 0.0000 13.9004 0.0000
# 3 52.2908 22.6257 94.4743 0.0000 -3.8987 0.0000
# 4 0.0000 0.0000 0.0000 83.4251 0.0000 -35.5890
# 5 -5.7967 13.9004 -3.8987 0.0000 51.0024 0.0000
# 6 0.0000 0.0000 0.0000 -35.5890 0.0000 133.7903
#
#
#
# Elastic Compliance Matrix: (Units=1/GPa)
#
#
# Indices 1 2 3 4 5 6 
#
# 1 0.022983 -0.002721 -0.011969 0.000000 0.002439 0.000000
# 2 -0.002721 0.009395 -0.000865 0.000000 -0.002936 0.000000
# 3 -0.011969 -0.000865 0.017425 0.000000 0.000208 0.000000
# 4 0.000000 0.000000 0.000000 0.013521 0.000000 0.003597
# 5 0.002439 -0.002936 0.000208 0.000000 0.020700 0.000000
# 6 0.000000 0.000000 0.000000 0.003597 0.000000 0.008431
#
#
# Mechanical properties :
#
#
# Convention : Reuss Voigt Hill
#
# Bulk Modulus (GPa) = 53.49294 54.17164 53.83229
# Shear Modulus (GPa) = 38.52182 66.26163 52.39172
#
# Velocity S-wave (km/s) = 4.21064 5.52238 4.91051
# Velocity P-wave (km/s) = 6.94689 8.09904 7.54499
#
# Compressibility (1/GPa) = 0.01869406
#
# Stress axis : x y z
#
# Youngs Moduli (GPa) = 43.51030 106.43907 57.38773
#
# Poissons Ratio (x) = 0.28957 0.68686
# Poissons Ratio (y) = 0.11837 0.04966
# Poissons Ratio (z) = 0.52076 0.09211
#
# Static dielectric constant tensor:
#      x y z
#    x 1.306220 0.000000 -0.044030 
#    y 0.000000 1.808160 0.000000 
#    z -0.044030 0.000000 1.783490 
# 
# From -- ./inp_files/1642.got.cif
#   From: 2010.05.17/outbox.cif.g08.bks.cpg/sg3_1_cif.got.tgz:1642.got - 2010.06.03 18:33:08.
