data_PCOD9113226
_publ_section_title
;
Structure prediction by ZEFSAII (Michael W. Deem and Ramdas Pophale) SiO2 
 PCOD9113226
Probable space group: P 2
;
_chemical_formula_sum "Si O2"
_cell_formula_units_Z 14
_cell_length_a 5.828274
_cell_length_b 9.948685
_cell_length_c 11.266550
_cell_angle_alpha 90.000000
_cell_angle_beta 98.079656
_cell_angle_gamma 90.000000
_cell_volume 646.791168
_symmetry_space_group_name_H-M "P 2"
_symmetry_group_IT_number 3
_symmetry_cell_setting 'monoclinic'
loop_
_space_group_symop_operation_xyz
x,y,z
-x,y,-z
loop_
_atom_site_type_symbol
_atom_site_label
_atom_site_fract_x
_atom_site_fract_y
_atom_site_fract_z
Si Si1 0.000000 0.934260 0.500000
Si Si2 0.672798 0.527944 0.272299
Si Si3 0.000000 0.430112 0.500000
Si Si4 0.638354 0.038065 0.631014
Si Si5 0.115384 0.323473 0.883691
Si Si6 0.327666 0.837947 0.722314
Si Si7 0.234231 0.017528 0.935093
Si Si8 0.302709 0.324851 0.330682
O O1 0.819373 0.845497 0.411436
O O2 0.894886 0.025839 0.597548
O O3 0.725242 0.439524 0.159439
O O4 0.635266 0.683463 0.243937
O O5 0.453302 0.454797 0.314678
O O6 0.881480 0.511626 0.383910
O O7 0.198789 0.340087 0.454534
O O8 0.500000 0.020778 0.500000
O O9 0.569923 0.182982 0.674956
O O10 0.564630 0.919002 0.711854
O O11 0.229854 0.176830 0.904052
O O12 0.908724 0.312173 0.774606
O O13 0.000000 0.360430 0.000000
O O14 0.208588 0.920467 0.819699
O O15 0.500000 0.990135 0.000000
O O16 0.000000 0.999074 0.000000
#
# Coordination Sequence:
#
# PCOD9113226 Si02
#       8
#     1   2   1   2   2   2   2   2
#     4  10  22  40  68  94 140 178 232 292 346 426
#     4  11  24  41  65  97 137 180 226 280 349 424
#     4  10  22  40  62  98 132 180 222 284 344 412
#     4  10  21  36  63  99 128 173 222 283 344 411
#     4  10  25  43  69  96 125 177 230 287 345 405
#     4  11  25  42  65 101 138 184 230 284 357 424
#     4  11  27  49  76 107 139 186 238 299 353 415
#     4  11  22  40  66  96 133 173 227 289 340 415
#
# _framework density 21.645316999999999
#
# number of rings (size 3 to 8) (size 9 to 14) (size 15 to 20)
#    0.000    1.429    0.000    3.857   10.000   10.857 
#    2.571    0.000    0.000    0.000    0.000    0.000 
#    0.000    0.000    0.000    0.000    0.000    0.000 
#
# Total GULP energy -78128.874934 kJ/mol
# GULP energy per Si atom -5580.633924 kJ/mol
# Density = 2.159605 g / cm^3
# Si number density = 21.645317 Si / 1000 Ang^3
#
#
#
# Elastic Constant Matrix: (Units=GPa)
#
#
# Indices 1 2 3 4 5 6 
#
# 1 86.7275 47.3905 34.9435 0.0000 -21.5499 0.0000
# 2 47.3905 165.0489 44.4026 0.0000 -32.0433 0.0000
# 3 34.9435 44.4026 88.0050 0.0000 -20.6419 0.0000
# 4 0.0000 0.0000 0.0000 18.4451 0.0000 21.0502
# 5 -21.5499 -32.0433 -20.6419 0.0000 41.7463 0.0000
# 6 0.0000 0.0000 0.0000 21.0502 0.0000 -39.4939
#
#
#
# Elastic Compliance Matrix: (Units=1/GPa)
#
#
# Indices 1 2 3 4 5 6 
#
# 1 0.015547 -0.002624 -0.003891 0.000000 0.004088 0.000000
# 2 -0.002624 0.008137 -0.002168 0.000000 0.003819 0.000000
# 3 -0.003891 -0.002168 0.014864 0.000000 0.003677 0.000000
# 4 0.000000 0.000000 0.000000 0.033710 0.000000 0.017967
# 5 0.004088 0.003819 0.003677 0.000000 0.030814 0.000000
# 6 0.000000 0.000000 0.000000 0.017967 0.000000 -0.015744
#
#
# Mechanical properties :
#
#
# Convention : Reuss Voigt Hill
#
# Bulk Modulus (GPa) = 47.20533 65.91716 56.56125
# Shear Modulus (GPa) = 44.74083 18.34250 31.54167
#
# Velocity S-wave (km/s) = 4.55136 2.91419 3.82148
# Velocity P-wave (km/s) = 7.03390 6.46860 6.75716
#
# Compressibility (1/GPa) = 0.02118405
#
# Stress axis : x y z
#
# Youngs Moduli (GPa) = 64.31923 122.89739 67.27614
#
# Poissons Ratio (x) = 0.32246 0.26175
# Poissons Ratio (y) = 0.16876 0.14584
# Poissons Ratio (z) = 0.25024 0.26642
#
# Static dielectric constant tensor:
#      x y z
#    x 1.935570 0.000000 0.010060 
#    y 0.000000 1.752700 0.000000 
#    z 0.010060 0.000000 1.806870 
# 
# From -- ./inp_files/9890.got.cif
#   From: 2010.05.17/outbox.cif.g08.bks.cpg/sg3_5_cif.got.tgz:9890.got - 2010.06.03 18:33:08.
