data_PCOD9113300
_publ_section_title
;
Structure prediction by ZEFSAII (Michael W. Deem and Ramdas Pophale) SiO2 
 PCOD9113300
Probable space group: P 2
;
_chemical_formula_sum "Si O2"
_cell_formula_units_Z 15
_cell_length_a 24.270857
_cell_length_b 5.511952
_cell_length_c 15.086834
_cell_angle_alpha 90.000000
_cell_angle_beta 20.880181
_cell_angle_gamma 90.000000
_cell_volume 719.356905
_symmetry_space_group_name_H-M "P 2"
_symmetry_group_IT_number 3
_symmetry_cell_setting 'monoclinic'
loop_
_space_group_symop_operation_xyz
x,y,z
-x,y,-z
loop_
_atom_site_type_symbol
_atom_site_label
_atom_site_fract_x
_atom_site_fract_y
_atom_site_fract_z
Si Si1 0.656806 0.965540 0.822700
Si Si2 0.253108 0.812969 0.864826
Si Si3 0.860324 0.436857 0.080593
Si Si4 0.475593 0.834675 0.683441
Si Si5 0.557874 0.460094 0.014071
Si Si6 0.934826 0.048400 0.274304
Si Si7 0.581374 0.316297 0.605613
Si Si8 0.000000 0.812636 0.000000
O O1 0.639879 0.719742 0.905243
O O2 0.797760 0.965416 0.542375
O O3 0.666415 0.223632 0.857783
O O4 0.500000 0.977131 0.000000
O O5 0.221479 0.534257 0.884409
O O6 0.315513 0.841211 0.869703
O O7 0.390804 0.882323 0.590885
O O8 0.095203 0.949736 0.076612
O O9 0.745690 0.273059 0.310515
O O10 0.887625 0.650640 0.109687
O O11 0.023439 0.328774 0.805343
O O12 0.507684 0.561363 0.671588
O O13 0.491457 0.062820 0.725804
O O14 0.500000 0.473208 0.000000
O O15 0.420721 0.395540 0.288477
O O16 0.911361 0.955963 0.209458
#
# Coordination Sequence:
#
# PCOD9113300 Si02
#       8
#     2   2   2   2   2   2   2   1
#     4  10  24  40  62  86 121 177 217 258 307 380
#     4   9  21  37  60  96 132 163 211 254 343 390
#     4  10  22  37  60  97 130 173 204 271 328 402
#     4  10  21  38  65  96 129 168 205 268 326 402
#     4  10  23  41  61  89 120 170 218 265 309 379
#     4  11  22  39  61  90 134 168 218 262 331 395
#     4  11  22  39  66  92 131 162 220 264 325 383
#     4  10  24  34  56  94 132 170 200 270 330 394
#
# _framework density 20.851959000000001
#
# number of rings (size 3 to 8) (size 9 to 14) (size 15 to 20)
#    0.000    1.867    1.333    1.200    9.333    4.267 
#    0.000    0.000    0.000    4.800    0.000    0.000 
#    0.000    0.000    0.000    0.000    0.000    0.000 
#
# Total GULP energy -83553.799253 kJ/mol
# GULP energy per Si atom -5570.253284 kJ/mol
# Density = 2.080450 g / cm^3
# Si number density = 20.851959 Si / 1000 Ang^3
#
#
#
# Elastic Constant Matrix: (Units=GPa)
#
#
# Indices 1 2 3 4 5 6 
#
# 1 42.8562 6.6826 10.8674 0.0000 -9.7703 0.0000
# 2 6.6826 114.1979 14.6269 0.0000 1.0915 0.0000
# 3 10.8674 14.6269 89.4647 0.0000 3.0064 0.0000
# 4 0.0000 0.0000 0.0000 23.2192 0.0000 3.9472
# 5 -9.7703 1.0915 3.0064 0.0000 25.6849 0.0000
# 6 0.0000 0.0000 0.0000 3.9472 0.0000 20.0544
#
#
#
# Elastic Compliance Matrix: (Units=1/GPa)
#
#
# Indices 1 2 3 4 5 6 
#
# 1 0.026821 -0.001234 -0.003414 0.000000 0.010655 0.000000
# 2 -0.001234 0.009002 -0.001298 0.000000 -0.000700 0.000000
# 3 -0.003414 -0.001298 0.011893 0.000000 -0.002636 0.000000
# 4 0.000000 0.000000 0.000000 0.044559 0.000000 -0.008770
# 5 0.010655 -0.000700 -0.002636 0.000000 0.043325 0.000000
# 6 0.000000 0.000000 0.000000 -0.008770 0.000000 0.051591
#
#
# Mechanical properties :
#
#
# Convention : Reuss Voigt Hill
#
# Bulk Modulus (GPa) = 27.91511 34.54140 31.22826
# Shear Modulus (GPa) = 23.69393 28.08115 25.88754
#
# Velocity S-wave (km/s) = 3.37455 3.67371 3.52730
# Velocity P-wave (km/s) = 5.34788 5.88183 5.62120
#
# Compressibility (1/GPa) = 0.03582290
#
# Stress axis : x y z
#
# Youngs Moduli (GPa) = 37.28406 111.08737 84.08190
#
# Poissons Ratio (x) = 0.13709 0.28708
# Poissons Ratio (y) = 0.04601 0.10917
# Poissons Ratio (z) = 0.12730 0.14423
#
# Static dielectric constant tensor:
#      x y z
#    x 1.753450 0.000000 0.000900 
#    y 0.000000 1.919290 0.000000 
#    z 0.000900 0.000000 1.750210 
# 
# From -- ./inp_files/11235.got.cif
#   From: 2010.05.17/outbox.cif.g08.bks.cpg/sg3_6_cif.got.tgz:11235.got - 2010.06.03 18:33:08.
