data_PCOD9113200
_publ_section_title
;
Structure prediction by ZEFSAII (Michael W. Deem and Ramdas Pophale) SiO2 
 PCOD9113200
Probable space group: P 2
;
_chemical_formula_sum "Si O2"
_cell_formula_units_Z 12
_cell_length_a 15.571833
_cell_length_b 5.778141
_cell_length_c 9.426427
_cell_angle_alpha 90.000000
_cell_angle_beta 33.185207
_cell_angle_gamma 90.000000
_cell_volume 464.234972
_symmetry_space_group_name_H-M "P 2"
_symmetry_group_IT_number 3
_symmetry_cell_setting 'monoclinic'
loop_
_space_group_symop_operation_xyz
x,y,z
-x,y,-z
loop_
_atom_site_type_symbol
_atom_site_label
_atom_site_fract_x
_atom_site_fract_y
_atom_site_fract_z
Si Si1 0.356036 0.953140 0.855837
Si Si2 0.000000 0.957603 0.000000
Si Si3 0.780898 0.310633 0.153971
Si Si4 0.406466 0.628020 0.368260
Si Si5 0.034986 0.693851 0.227565
Si Si6 0.500000 0.322686 0.000000
Si Si7 0.270160 0.931875 0.298622
O O1 0.515312 0.809104 0.631238
O O2 0.337272 0.188231 0.793043
O O3 0.204001 0.804716 0.022471
O O4 0.344621 0.967056 0.041281
O O5 0.859517 0.117838 0.144154
O O6 0.970899 0.790535 0.168551
O O7 0.704364 0.484626 0.372523
O O8 0.920082 0.426985 0.864731
O O9 0.335606 0.760462 0.328978
O O10 0.525214 0.464731 0.112672
O O11 0.898131 0.813387 0.508835
O O12 0.662178 0.181215 0.739042
#
# Coordination Sequence:
#
# PCOD9113200 Si02
#       7
#     2   1   2   2   2   1   2
#     4  11  26  50  69 121 157 211 273 338 403 487
#     4  10  20  46  68 116 148 204 270 318 396 488
#     4  11  26  47  80 115 165 216 268 338 422 468
#     4  12  25  50  80 116 163 213 274 339 400 499
#     4  11  25  45  75 108 159 207 268 334 403 478
#     4  12  24  46  86 116 154 226 272 326 418 480
#     4  12  24  49  78 111 159 205 278 329 395 508
#
# _framework density 25.848976
#
# number of rings (size 3 to 8) (size 9 to 14) (size 15 to 20)
#    0.000    0.667    3.333    4.000    2.333    3.333 
#    3.000    3.333    0.000    0.000    0.000    0.000 
#    0.000    0.000    0.000    0.000    0.000    0.000 
#
# Total GULP energy -66883.413117 kJ/mol
# GULP energy per Si atom -5573.617760 kJ/mol
# Density = 2.579014 g / cm^3
# Si number density = 25.848976 Si / 1000 Ang^3
#
#
#
# Elastic Constant Matrix: (Units=GPa)
#
#
# Indices 1 2 3 4 5 6 
#
# 1 156.0950 52.6811 35.0300 0.0000 4.9823 0.0000
# 2 52.6811 103.2251 32.6756 0.0000 -5.3831 0.0000
# 3 35.0300 32.6756 95.5811 0.0000 0.0395 0.0000
# 4 0.0000 0.0000 0.0000 60.2130 0.0000 -9.7392
# 5 4.9823 -5.3831 0.0395 0.0000 47.0612 0.0000
# 6 0.0000 0.0000 0.0000 -9.7392 0.0000 63.2107
#
#
#
# Elastic Compliance Matrix: (Units=1/GPa)
#
#
# Indices 1 2 3 4 5 6 
#
# 1 0.008058 -0.003638 -0.001709 0.000000 -0.001268 0.000000
# 2 -0.003638 0.012579 -0.002968 0.000000 0.001826 0.000000
# 3 -0.001709 -0.002968 0.012103 0.000000 -0.000169 0.000000
# 4 0.000000 0.000000 0.000000 0.017032 0.000000 0.002624
# 5 -0.001268 0.001826 -0.000169 0.000000 0.021592 0.000000
# 6 0.000000 0.000000 0.000000 0.002624 0.000000 0.016224
#
#
# Mechanical properties :
#
#
# Convention : Reuss Voigt Hill
#
# Bulk Modulus (GPa) = 62.06902 66.18609 64.12756
# Shear Modulus (GPa) = 45.62535 49.73127 47.67831
#
# Velocity S-wave (km/s) = 4.20584 4.39101 4.29942
# Velocity P-wave (km/s) = 6.90288 7.16718 7.03627
#
# Compressibility (1/GPa) = 0.01611110
#
# Stress axis : x y z
#
# Youngs Moduli (GPa) = 124.10000 79.49965 82.62163
#
# Poissons Ratio (x) = 0.28918 0.14121
# Poissons Ratio (y) = 0.45141 0.24520
# Poissons Ratio (z) = 0.21211 0.23594
#
# Static dielectric constant tensor:
#      x y z
#    x 1.980360 0.000000 -0.044620 
#    y 0.000000 2.183740 0.000000 
#    z -0.044620 0.000000 2.066950 
# 
# From -- ./inp_files/8185.got.cif
#   From: 2010.05.17/outbox.cif.g08.bks.cpg/sg3_5_cif.got.tgz:8185.got - 2010.06.03 18:33:08.
