data_PCOD9113866
_publ_section_title
;
Structure prediction by ZEFSAII (Michael W. Deem and Ramdas Pophale) SiO2 
 PCOD9113866
Probable space group: P 2
;
_chemical_formula_sum "Si O2"
_cell_formula_units_Z 10
_cell_length_a 13.941294
_cell_length_b 4.976204
_cell_length_c 4.799478
_cell_angle_alpha 90.000000
_cell_angle_beta 72.613607
_cell_angle_gamma 90.000000
_cell_volume 317.749841
_symmetry_space_group_name_H-M "P 2"
_symmetry_group_IT_number 3
_symmetry_cell_setting 'monoclinic'
loop_
_space_group_symop_operation_xyz
x,y,z
-x,y,-z
loop_
_atom_site_type_symbol
_atom_site_label
_atom_site_fract_x
_atom_site_fract_y
_atom_site_fract_z
Si Si1 0.429340 0.541690 0.824809
Si Si2 0.304737 0.051950 0.028324
Si Si3 0.141732 0.675470 0.138961
Si Si4 0.834529 0.907498 0.392629
Si Si5 0.000000 0.161608 0.500000
Si Si6 0.000000 0.399747 0.000000
O O1 0.500000 0.561575 0.500000
O O2 0.393528 0.838284 0.940117
O O3 0.336379 0.336112 0.872168
O O4 0.500000 0.419332 0.000000
O O5 0.222104 0.897422 0.888743
O O6 0.254076 0.093767 0.371405
O O7 0.090940 0.657925 0.860483
O O8 0.065428 0.404679 0.252238
O O9 0.210583 0.652407 0.356352
O O10 0.916108 0.918589 0.645749
O O11 0.927676 0.161314 0.241727
#
# Coordination Sequence:
#
# PCOD9113866 Si02
#       6
#     2   2   2   2   1   1
#     4  12  28  48  78 104 144 178 236 300 370 430
#     4  10  28  46  78 106 142 186 238 288 364 422
#     4  10  23  41  66  94 144 183 238 279 343 409
#     4  10  23  41  66  94 144 183 238 279 343 409
#     4  12  24  38  64 102 142 194 240 286 340 400
#     4  12  24  38  64 102 142 194 240 286 340 400
#
# _framework density 31.471298999999998
#
# number of rings (size 3 to 8) (size 9 to 14) (size 15 to 20)
#    1.200    0.000    0.000    4.800    8.400    0.000 
#    0.000    0.000    0.000    0.000    0.000    0.000 
#    0.000    0.000    0.000    0.000    0.000    0.000 
#
# Total GULP energy -55824.359482 kJ/mol
# GULP energy per Si atom -5582.435948 kJ/mol
# Density = 3.139967 g / cm^3
# Si number density = 31.471299 Si / 1000 Ang^3
#
#
#
# Elastic Constant Matrix: (Units=GPa)
#
#
# Indices 1 2 3 4 5 6 
#
# 1 90.3812 45.7501 62.4662 0.0000 -3.6887 0.0000
# 2 45.7501 318.8884 98.3682 0.0000 -9.0796 0.0000
# 3 62.4662 98.3682 369.5358 0.0000 -20.1170 0.0000
# 4 0.0000 0.0000 0.0000 90.0992 0.0000 -18.6793
# 5 -3.6887 -9.0796 -20.1170 0.0000 81.6730 0.0000
# 6 0.0000 0.0000 0.0000 -18.6793 0.0000 124.2815
#
#
#
# Elastic Compliance Matrix: (Units=1/GPa)
#
#
# Indices 1 2 3 4 5 6 
#
# 1 0.013000 -0.001294 -0.001854 0.000000 -0.000013 0.000000
# 2 -0.001294 0.003547 -0.000717 0.000000 0.000159 0.000000
# 3 -0.001854 -0.000717 0.003245 0.000000 0.000636 0.000000
# 4 0.000000 0.000000 0.000000 0.011456 0.000000 0.001722
# 5 -0.000013 0.000159 0.000636 0.000000 0.012418 0.000000
# 6 0.000000 0.000000 0.000000 0.001722 0.000000 0.008305
#
#
# Mechanical properties :
#
#
# Convention : Reuss Voigt Hill
#
# Bulk Modulus (GPa) = 82.89661 132.44161 107.66911
# Shear Modulus (GPa) = 78.46817 97.35880 87.91349
#
# Velocity S-wave (km/s) = 4.99874 5.56803 5.29104
# Velocity P-wave (km/s) = 7.72749 9.13848 8.46244
#
# Compressibility (1/GPa) = 0.01206322
#
# Stress axis : x y z
#
# Youngs Moduli (GPa) = 76.92437 281.91599 308.17388
#
# Poissons Ratio (x) = 0.36467 0.57131
# Poissons Ratio (y) = 0.09951 0.22093
# Poissons Ratio (z) = 0.14261 0.20210
#
# Static dielectric constant tensor:
#      x y z
#    x 2.642850 0.000000 0.043750 
#    y 0.000000 2.434960 0.000000 
#    z 0.043750 0.000000 2.501850 
# 
# From -- ./inp_files/2685.got.cif
#   From: 2010.05.17/outbox.cif.g08.bks.cpg/sg3_2_cif.got.tgz:2685.got - 2010.06.03 18:33:08.
