data_PCOD9113789
_publ_section_title
;
Structure prediction by ZEFSAII (Michael W. Deem and Ramdas Pophale) SiO2 
 PCOD9113789
Probable space group: P 2
;
_chemical_formula_sum "Si O2"
_cell_formula_units_Z 14
_cell_length_a 10.676894
_cell_length_b 6.854910
_cell_length_c 8.566092
_cell_angle_alpha 90.000000
_cell_angle_beta 79.755213
_cell_angle_gamma 90.000000
_cell_volume 616.949514
_symmetry_space_group_name_H-M "P 2"
_symmetry_group_IT_number 3
_symmetry_cell_setting 'monoclinic'
loop_
_space_group_symop_operation_xyz
x,y,z
-x,y,-z
loop_
_atom_site_type_symbol
_atom_site_label
_atom_site_fract_x
_atom_site_fract_y
_atom_site_fract_z
Si Si1 0.586967 0.623720 0.244704
Si Si2 0.148430 0.476712 0.662329
Si Si3 0.172306 0.824125 0.428436
Si Si4 0.598455 0.299251 0.845203
Si Si5 0.417466 0.984955 0.398666
Si Si6 0.252503 0.642026 0.091002
Si Si7 0.000000 0.158084 0.500000
Si Si8 0.000000 0.574383 0.000000
O O1 0.705457 0.522334 0.312856
O O2 0.479859 0.461646 0.234570
O O3 0.511282 0.806727 0.333329
O O4 0.642769 0.691856 0.062970
O O5 0.116721 0.660616 0.556594
O O6 0.100707 0.291940 0.571182
O O7 0.063555 0.466986 0.838078
O O8 0.286388 0.917118 0.503125
O O9 0.243663 0.728882 0.265214
O O10 0.082598 0.997496 0.387734
O O11 0.720624 0.410700 0.887454
O O12 0.624415 0.114269 0.736343
O O13 0.500000 0.239467 0.000000
O O14 0.500000 0.111054 0.500000
O O15 0.117737 0.689850 0.044857
#
# Coordination Sequence:
#
# PCOD9113789 Si02
#       8
#     2   2   2   2   2   2   1   1
#     4  10  23  46  68 102 139 188 227 287 351 412
#     4  11  25  47  70  94 143 179 237 289 346 419
#     4  12  26  44  72 104 137 182 236 288 352 413
#     4  10  24  41  67 102 141 182 231 284 348 418
#     4  12  26  41  70 105 142 178 232 286 357 412
#     4  10  22  44  72  96 140 186 229 290 345 409
#     4  12  28  44  70 102 138 186 238 286 346 422
#     4  10  22  44  72  92 126 188 234 282 346 404
#
# _framework density 22.692294
#
# number of rings (size 3 to 8) (size 9 to 14) (size 15 to 20)
#    0.000    1.143    2.857    2.143    8.000    0.571 
#    0.000    4.286    0.000    0.000    0.000    0.000 
#    0.000    0.000    0.000    0.000    0.000    0.000 
#
# Total GULP energy -78032.330804 kJ/mol
# GULP energy per Si atom -5573.737915 kJ/mol
# Density = 2.264065 g / cm^3
# Si number density = 22.692294 Si / 1000 Ang^3
#
#
#
# Elastic Constant Matrix: (Units=GPa)
#
#
# Indices 1 2 3 4 5 6 
#
# 1 107.4817 27.5070 14.8189 0.0000 2.7064 0.0000
# 2 27.5070 72.3040 42.9994 0.0000 -20.5682 0.0000
# 3 14.8189 42.9994 81.4886 0.0000 -1.0150 0.0000
# 4 0.0000 0.0000 0.0000 23.4319 0.0000 -4.7437
# 5 2.7064 -20.5682 -1.0150 0.0000 27.2333 0.0000
# 6 0.0000 0.0000 0.0000 -4.7437 0.0000 -10.0617
#
#
#
# Elastic Compliance Matrix: (Units=1/GPa)
#
#
# Indices 1 2 3 4 5 6 
#
# 1 0.011009 -0.006887 0.001554 0.000000 -0.006238 0.000000
# 2 -0.006887 0.032985 -0.015841 0.000000 0.025006 0.000000
# 3 0.001554 -0.015841 0.020207 0.000000 -0.011366 0.000000
# 4 0.000000 0.000000 0.000000 0.038958 0.000000 -0.018368
# 5 -0.006238 0.025006 -0.011366 0.000000 0.055802 0.000000
# 6 0.000000 0.000000 0.000000 -0.018368 0.000000 -0.090727
#
#
# Mechanical properties :
#
#
# Convention : Reuss Voigt Hill
#
# Bulk Modulus (GPa) = 45.76143 47.99166 46.87655
# Shear Modulus (GPa) = 42.42060 19.85061 31.13561
#
# Velocity S-wave (km/s) = 4.32833 2.96087 3.70818
# Velocity P-wave (km/s) = 6.72228 5.73444 6.24791
#
# Compressibility (1/GPa) = 0.02185246
#
# Stress axis : x y z
#
# Youngs Moduli (GPa) = 90.83268 30.31677 49.48899
#
# Poissons Ratio (x) = 0.20880 -0.07693
# Poissons Ratio (y) = 0.62558 0.78398
# Poissons Ratio (z) = -0.14119 0.48026
#
# Static dielectric constant tensor:
#      x y z
#    x 1.909930 0.000000 0.015150 
#    y 0.000000 1.829100 0.000000 
#    z 0.015150 0.000000 1.929920 
# 
# From -- ./inp_files/6667.got.cif
#   From: 2010.05.17/outbox.cif.g08.bks.cpg/sg3_4_cif.got.tgz:6667.got - 2010.06.03 18:33:08.
