data_PCOD9113415
_publ_section_title
;
Structure prediction by ZEFSAII (Michael W. Deem and Ramdas Pophale) SiO2 
 PCOD9113415
Probable space group: P 2
;
_chemical_formula_sum "Si O2"
_cell_formula_units_Z 14
_cell_length_a 29.242001
_cell_length_b 5.597478
_cell_length_c 9.700728
_cell_angle_alpha 90.000000
_cell_angle_beta 23.849467
_cell_angle_gamma 90.000000
_cell_volume 642.015097
_symmetry_space_group_name_H-M "P 2"
_symmetry_group_IT_number 3
_symmetry_cell_setting 'monoclinic'
loop_
_space_group_symop_operation_xyz
x,y,z
-x,y,-z
loop_
_atom_site_type_symbol
_atom_site_label
_atom_site_fract_x
_atom_site_fract_y
_atom_site_fract_z
Si Si1 0.167713 0.193210 0.323821
Si Si2 0.360393 0.822065 0.788941
Si Si3 0.732452 0.473244 0.725858
Si Si4 0.515841 0.207637 0.297459
Si Si5 0.951214 0.049180 0.788049
Si Si6 0.691796 0.457287 0.282609
Si Si7 0.180620 0.552598 0.803600
O O1 0.166985 0.368560 0.456304
O O2 0.057225 0.040751 0.600969
O O3 0.203743 0.326047 0.082706
O O4 0.279067 0.040025 0.048556
O O5 0.313554 0.709416 0.778430
O O6 0.481176 0.930508 0.410721
O O7 0.336885 0.638020 0.976007
O O8 0.779884 0.597738 0.460779
O O9 0.643012 0.278122 0.913100
O O10 0.500000 0.292991 0.500000
O O11 0.423950 0.325779 0.447934
O O12 0.000000 0.071978 0.500000
O O13 0.889429 0.301516 0.995615
O O14 0.882748 0.798873 0.979788
O O15 0.717438 0.497935 0.370632
#
# Coordination Sequence:
#
# PCOD9113415 Si02
#       7
#     2   2   2   2   2   2   2
#     4  10  22  42  71 101 137 183 247 291 346 439
#     4  10  21  40  73  99 134 189 237 290 346 445
#     4  11  26  44  67 110 151 178 236 314 364 430
#     4  11  21  39  72 101 133 186 241 283 358 432
#     4  12  26  48  77 102 138 201 249 294 356 442
#     4  10  22  42  70 105 132 187 244 289 350 444
#     4  12  29  47  72 108 152 186 238 310 374 413
#
# _framework density 21.806339999999999
#
# number of rings (size 3 to 8) (size 9 to 14) (size 15 to 20)
#    0.000    1.143    5.714    1.286   10.000    1.143 
#    0.000    0.000    3.143    0.000    0.000    0.000 
#    0.000    0.000    0.000    0.000    0.000    0.000 
#
# Total GULP energy -78017.019859 kJ/mol
# GULP energy per Si atom -5572.644276 kJ/mol
# Density = 2.175671 g / cm^3
# Si number density = 21.806340 Si / 1000 Ang^3
#
#
#
# Elastic Constant Matrix: (Units=GPa)
#
#
# Indices 1 2 3 4 5 6 
#
# 1 124.7169 14.9009 22.1935 0.0000 -7.3708 0.0000
# 2 14.9009 74.9945 13.3388 0.0000 -6.3246 0.0000
# 3 22.1935 13.3388 33.1567 0.0000 -5.3733 0.0000
# 4 0.0000 0.0000 0.0000 -7.8670 0.0000 -43.6145
# 5 -7.3708 -6.3246 -5.3733 0.0000 32.9242 0.0000
# 6 0.0000 0.0000 0.0000 -43.6145 0.0000 4.6868
#
#
#
# Elastic Compliance Matrix: (Units=1/GPa)
#
#
# Indices 1 2 3 4 5 6 
#
# 1 0.009176 -0.000728 -0.005689 0.000000 0.000986 0.000000
# 2 -0.000728 0.014532 -0.005067 0.000000 0.001802 0.000000
# 3 -0.005689 -0.005067 0.036610 0.000000 0.003728 0.000000
# 4 0.000000 0.000000 0.000000 -0.002417 0.000000 -0.022492
# 5 0.000986 0.001802 0.003728 0.000000 0.031548 0.000000
# 6 0.000000 0.000000 0.000000 -0.022492 0.000000 0.004057
#
#
# Mechanical properties :
#
#
# Convention : Reuss Voigt Hill
#
# Bulk Modulus (GPa) = 26.77372 37.08160 31.92766
# Shear Modulus (GPa) = 38.78231 18.11112 28.44671
#
# Velocity S-wave (km/s) = 4.22179 2.88504 3.61573
# Velocity P-wave (km/s) = 6.00577 5.30470 5.66609
#
# Compressibility (1/GPa) = 0.03735006
#
# Stress axis : x y z
#
# Youngs Moduli (GPa) = 108.98224 68.81306 27.31462
#
# Poissons Ratio (x) = 0.05011 0.15540
# Poissons Ratio (y) = 0.07935 0.13840
# Poissons Ratio (z) = 0.62002 0.34867
#
# Static dielectric constant tensor:
#      x y z
#    x 1.799100 0.000000 -0.030770 
#    y 0.000000 1.892890 0.000000 
#    z -0.030770 0.000000 1.856290 
# 
# From -- ./inp_files/9583.got.cif
#   From: 2010.05.17/outbox.cif.g08.bks.cpg/sg3_5_cif.got.tgz:9583.got - 2010.06.03 18:33:08.
