data_PCOD9113197
_publ_section_title
;
Structure prediction by ZEFSAII (Michael W. Deem and Ramdas Pophale) SiO2 
 PCOD9113197
Probable space group: P 2
;
_chemical_formula_sum "Si O2"
_cell_formula_units_Z 13
_cell_length_a 11.337175
_cell_length_b 4.893155
_cell_length_c 13.772159
_cell_angle_alpha 90.000000
_cell_angle_beta 41.998143
_cell_angle_gamma 90.000000
_cell_volume 511.200316
_symmetry_space_group_name_H-M "P 2"
_symmetry_group_IT_number 3
_symmetry_cell_setting 'monoclinic'
loop_
_space_group_symop_operation_xyz
x,y,z
-x,y,-z
loop_
_atom_site_type_symbol
_atom_site_label
_atom_site_fract_x
_atom_site_fract_y
_atom_site_fract_z
Si Si1 0.862078 0.823900 0.356130
Si Si2 0.500000 0.691731 0.500000
Si Si3 0.113054 0.280277 0.527926
Si Si4 0.527159 0.991680 0.758755
Si Si5 0.727514 0.318636 0.218878
Si Si6 0.936546 0.468902 0.905355
Si Si7 0.565642 0.478311 0.062424
O O1 0.658666 0.868085 0.447897
O O2 0.854618 0.561698 0.434432
O O3 0.963079 0.725866 0.198835
O O4 0.964217 0.065903 0.347196
O O5 0.589626 0.495761 0.364721
O O6 0.288663 0.106902 0.393740
O O7 0.000000 0.323737 0.500000
O O8 0.375292 0.078652 0.774239
O O9 0.500925 0.179749 0.869171
O O10 0.505162 0.683392 0.809683
O O11 0.899756 0.261708 0.179436
O O12 0.826255 0.485137 0.072533
O O13 0.775228 0.439559 0.930705
O O14 0.500000 0.578310 0.000000
#
# Coordination Sequence:
#
# PCOD9113197 Si02
#       7
#     2   1   2   2   2   2   2
#     4  11  25  45  71 104 140 184 239 290 358 419
#     4  10  20  44  74 102 136 182 230 294 352 428
#     4  12  27  44  72 101 144 187 239 293 351 420
#     4  11  24  45  71 101 141 189 238 296 346 423
#     4   9  19  44  70 101 138 179 237 284 359 406
#     4   9  22  42  70 103 140 181 230 297 345 419
#     4  11  25  43  73 104 144 187 236 287 359 428
#
# _framework density 25.430344000000002
#
# number of rings (size 3 to 8) (size 9 to 14) (size 15 to 20)
#    0.000    1.538    1.538    1.846    6.462    3.077 
#    0.000   12.308    0.000    0.000    0.000    0.000 
#    0.000    0.000    0.000    0.000    0.000    0.000 
#
# Total GULP energy -72683.854774 kJ/mol
# GULP energy per Si atom -5591.065752 kJ/mol
# Density = 2.537246 g / cm^3
# Si number density = 25.430344 Si / 1000 Ang^3
#
#
#
# Elastic Constant Matrix: (Units=GPa)
#
#
# Indices 1 2 3 4 5 6 
#
# 1 142.5686 28.8933 30.5112 0.0000 10.9680 0.0000
# 2 28.8933 98.0046 26.4892 0.0000 14.1247 0.0000
# 3 30.5112 26.4892 119.3950 0.0000 -18.4711 0.0000
# 4 0.0000 0.0000 0.0000 25.0781 0.0000 14.2345
# 5 10.9680 14.1247 -18.4711 0.0000 19.4421 0.0000
# 6 0.0000 0.0000 0.0000 14.2345 0.0000 24.2024
#
#
#
# Elastic Compliance Matrix: (Units=1/GPa)
#
#
# Indices 1 2 3 4 5 6 
#
# 1 0.008361 -0.000567 -0.003138 0.000000 -0.007287 0.000000
# 2 -0.000567 0.013907 -0.005222 0.000000 -0.014745 0.000000
# 3 -0.003138 -0.005222 0.013126 0.000000 0.018035 0.000000
# 4 0.000000 0.000000 0.000000 0.059858 0.000000 -0.035205
# 5 -0.007287 -0.014745 0.018035 0.000000 0.083392 0.000000
# 6 0.000000 0.000000 0.000000 -0.035205 0.000000 0.062024
#
#
# Mechanical properties :
#
#
# Convention : Reuss Voigt Hill
#
# Bulk Modulus (GPa) = 57.00903 59.08397 58.04650
# Shear Modulus (GPa) = 18.91302 32.01617 25.46459
#
# Velocity S-wave (km/s) = 2.73008 3.55205 3.16784
# Velocity P-wave (km/s) = 5.69247 6.33300 6.02125
#
# Compressibility (1/GPa) = 0.01754108
#
# Stress axis : x y z
#
# Youngs Moduli (GPa) = 119.60000 71.90574 76.18390
#
# Poissons Ratio (x) = 0.04074 0.23909
# Poissons Ratio (y) = 0.06776 0.39782
# Poissons Ratio (z) = 0.37534 0.37548
#
# Static dielectric constant tensor:
#      x y z
#    x 2.057540 0.000000 0.056880 
#    y 0.000000 1.969990 0.000000 
#    z 0.056880 0.000000 2.140670 
# 
# From -- ./inp_files/13648.got.cif
#   From: 2010.05.17/outbox.cif.g08.bks.cpg/sg3_7_cif.got.tgz:13648.got - 2010.06.03 18:33:08.
