data_PCOD9113081
_publ_section_title
;
Structure prediction by ZEFSAII (Michael W. Deem and Ramdas Pophale) SiO2 
 PCOD9113081
Probable space group: P 2
;
_chemical_formula_sum "Si O2"
_cell_formula_units_Z 12
_cell_length_a 20.057253
_cell_length_b 6.241074
_cell_length_c 5.143073
_cell_angle_alpha 90.000000
_cell_angle_beta 118.915174
_cell_angle_gamma 90.000000
_cell_volume 563.544888
_symmetry_space_group_name_H-M "P 2"
_symmetry_group_IT_number 3
_symmetry_cell_setting 'monoclinic'
loop_
_space_group_symop_operation_xyz
x,y,z
-x,y,-z
loop_
_atom_site_type_symbol
_atom_site_label
_atom_site_fract_x
_atom_site_fract_y
_atom_site_fract_z
Si Si1 0.680877 0.603440 0.358575
Si Si2 0.191167 0.322962 0.610843
Si Si3 0.410080 0.660946 0.312054
Si Si4 0.707411 0.951435 0.048163
Si Si5 0.913750 0.948405 0.769785
Si Si6 0.855733 0.709324 0.160820
O O1 0.758889 0.473838 0.482089
O O2 0.632304 0.566065 0.520279
O O3 0.701284 0.852269 0.329231
O O4 0.624818 0.552513 0.010393
O O5 0.137731 0.161208 0.351183
O O6 0.146555 0.466539 0.737927
O O7 0.253936 0.178589 0.875958
O O8 0.500000 0.655219 0.500000
O O9 0.375143 0.903612 0.224733
O O10 0.768714 0.793799 0.026501
O O11 0.885770 0.781335 0.937853
O O12 0.903671 0.837497 0.470107
O O13 0.000000 0.004255 0.000000
#
# Coordination Sequence:
#
# PCOD9113081 Si02
#       6
#     2   2   2   2   2   2
#     4   9  21  37  62  95 127 172 221 268 320 402
#     4  10  22  43  72  98 127 180 230 273 329 404
#     4  10  20  39  64  90 137 171 206 276 340 374
#     4   8  21  36  64  91 125 165 223 265 320 396
#     4  11  25  45  67 100 137 175 219 286 340 400
#     4  10  23  41  66  97 132 173 225 272 335 404
#
# _framework density 21.293778
#
# number of rings (size 3 to 8) (size 9 to 14) (size 15 to 20)
#    1.000    1.333    0.000    1.000    7.000    6.000 
#    0.000    4.167    3.667    0.000    0.000    0.000 
#    0.000    0.000    0.000    0.000    0.000    0.000 
#
# Total GULP energy -66911.630613 kJ/mol
# GULP energy per Si atom -5575.969218 kJ/mol
# Density = 2.124531 g / cm^3
# Si number density = 21.293778 Si / 1000 Ang^3
#
#
#
# Elastic Constant Matrix: (Units=GPa)
#
#
# Indices 1 2 3 4 5 6 
#
# 1 91.1730 31.7201 62.6817 0.0000 5.5697 0.0000
# 2 31.7201 90.9512 32.8851 0.0000 10.7583 0.0000
# 3 62.6817 32.8851 133.3131 0.0000 10.9022 0.0000
# 4 0.0000 0.0000 0.0000 21.2983 0.0000 1.5125
# 5 5.5697 10.7583 10.9022 0.0000 47.9200 0.0000
# 6 0.0000 0.0000 0.0000 1.5125 0.0000 15.3784
#
#
#
# Elastic Compliance Matrix: (Units=1/GPa)
#
#
# Indices 1 2 3 4 5 6 
#
# 1 0.017099 -0.003397 -0.007236 0.000000 0.000422 0.000000
# 2 -0.003397 0.012952 -0.001419 0.000000 -0.002190 0.000000
# 3 -0.007236 -0.001419 0.011370 0.000000 -0.001427 0.000000
# 4 0.000000 0.000000 0.000000 0.047282 0.000000 -0.004650
# 5 0.000422 -0.002190 -0.001427 0.000000 0.021636 0.000000
# 6 0.000000 0.000000 0.000000 -0.004650 0.000000 0.065484
#
#
# Mechanical properties :
#
#
# Convention : Reuss Voigt Hill
#
# Bulk Modulus (GPa) = 57.74541 63.33455 60.53998
# Shear Modulus (GPa) = 24.30742 29.46271 26.88506
#
# Velocity S-wave (km/s) = 3.38231 3.72375 3.55713
# Velocity P-wave (km/s) = 6.51389 6.94955 6.73524
#
# Compressibility (1/GPa) = 0.01731739
#
# Stress axis : x y z
#
# Youngs Moduli (GPa) = 58.48210 77.21058 87.94936
#
# Poissons Ratio (x) = 0.26228 0.63643
# Poissons Ratio (y) = 0.19866 0.12476
# Poissons Ratio (z) = 0.42320 0.10953
#
# Static dielectric constant tensor:
#      x y z
#    x 1.756080 0.000000 -0.038410 
#    y 0.000000 1.826630 0.000000 
#    z -0.038410 0.000000 1.813630 
# 
# From -- ./inp_files/3864.got.cif
#   From: 2010.05.17/outbox.cif.g08.bks.cpg/sg3_2_cif.got.tgz:3864.got - 2010.06.03 18:33:08.
