data_PCOD9113332
_publ_section_title
;
Structure prediction by ZEFSAII (Michael W. Deem and Ramdas Pophale) SiO2 
 PCOD9113332
Probable space group: P 2
;
_chemical_formula_sum "Si O2"
_cell_formula_units_Z 15
_cell_length_a 13.049579
_cell_length_b 6.880051
_cell_length_c 10.946458
_cell_angle_alpha 90.000000
_cell_angle_beta 53.019822
_cell_angle_gamma 90.000000
_cell_volume 785.097455
_symmetry_space_group_name_H-M "P 2"
_symmetry_group_IT_number 3
_symmetry_cell_setting 'monoclinic'
loop_
_space_group_symop_operation_xyz
x,y,z
-x,y,-z
loop_
_atom_site_type_symbol
_atom_site_label
_atom_site_fract_x
_atom_site_fract_y
_atom_site_fract_z
Si Si1 0.685133 0.640380 0.780148
Si Si2 0.546461 0.972061 0.336329
Si Si3 0.604837 0.641455 0.107592
Si Si4 0.133901 0.350170 0.470998
Si Si5 0.735205 0.959582 0.547720
Si Si6 0.279195 0.346941 0.790703
Si Si7 0.167296 0.617118 0.679590
Si Si8 0.000000 0.463823 0.000000
O O1 0.542441 0.614116 0.827638
O O2 0.764454 0.446961 0.694272
O O3 0.740099 0.820582 0.663145
O O4 0.678751 0.680162 0.928540
O O5 0.500000 0.889584 0.500000
O O6 0.610897 0.816483 0.200389
O O7 0.411396 0.026586 0.368914
O O8 0.641927 0.151938 0.290031
O O9 0.656274 0.455059 0.141840
O O10 0.129175 0.498691 0.587021
O O11 0.000000 0.332397 0.500000
O O12 0.179447 0.146074 0.491297
O O13 0.782826 0.825258 0.400758
O O14 0.275141 0.492015 0.675958
O O15 0.126742 0.333229 0.929890
O O16 0.045774 0.603248 0.857090
#
# Coordination Sequence:
#
# PCOD9113332 Si02
#       8
#     2   2   2   2   2   2   2   1
#     4   9  22  40  60  87 127 157 205 264 314 378
#     4  11  22  36  63  94 122 156 214 263 314 379
#     4  10  21  40  63  89 118 166 205 256 321 365
#     4  11  23  38  62  89 119 165 208 256 321 378
#     4  10  21  40  61  92 122 162 210 267 311 376
#     4  10  21  39  63  89 122 166 206 260 317 376
#     4   9  21  42  60  87 129 161 211 260 315 375
#     4   8  22  42  62  90 128 172 206 252 320 390
#
# _framework density 19.105909
#
# number of rings (size 3 to 8) (size 9 to 14) (size 15 to 20)
#    0.800    1.333    0.000    2.400    1.867    5.867 
#    0.000    4.000    0.000    0.000    0.000    0.000 
#    0.000    0.000    0.000    0.000    0.000    0.000 
#
# Total GULP energy -83621.346177 kJ/mol
# GULP energy per Si atom -5574.756412 kJ/mol
# Density = 1.906242 g / cm^3
# Si number density = 19.105909 Si / 1000 Ang^3
#
#
#
# Elastic Constant Matrix: (Units=GPa)
#
#
# Indices 1 2 3 4 5 6 
#
# 1 58.8519 46.7197 31.1422 0.0000 3.2534 0.0000
# 2 46.7197 95.5511 56.4013 0.0000 -11.9644 0.0000
# 3 31.1422 56.4013 132.0648 0.0000 9.0982 0.0000
# 4 0.0000 0.0000 0.0000 8.2915 0.0000 34.8193
# 5 3.2534 -11.9644 9.0982 0.0000 27.3651 0.0000
# 6 0.0000 0.0000 0.0000 34.8193 0.0000 -68.9444
#
#
#
# Elastic Compliance Matrix: (Units=1/GPa)
#
#
# Indices 1 2 3 4 5 6 
#
# 1 0.030531 -0.016762 0.000731 0.000000 -0.011201 0.000000
# 2 -0.016762 0.025314 -0.007940 0.000000 0.015700 0.000000
# 3 0.000731 -0.007940 0.011294 0.000000 -0.007313 0.000000
# 4 0.000000 0.000000 0.000000 0.038645 0.000000 0.019517
# 5 -0.011201 0.015700 -0.007313 0.000000 0.047170 0.000000
# 6 0.000000 0.000000 0.000000 0.019517 0.000000 -0.004648
#
#
# Mechanical properties :
#
#
# Convention : Reuss Voigt Hill
#
# Bulk Modulus (GPa) = 52.09118 61.66604 56.87861
# Shear Modulus (GPa) = 24.67325 3.48942 14.08133
#
# Velocity S-wave (km/s) = 3.59749 1.35289 2.71775
# Velocity P-wave (km/s) = 6.67679 5.89800 6.29944
#
# Compressibility (1/GPa) = 0.01919711
#
# Stress axis : x y z
#
# Youngs Moduli (GPa) = 32.75371 39.50381 88.53900
#
# Poissons Ratio (x) = 0.66216 -0.06470
# Poissons Ratio (y) = 0.54902 0.70299
# Poissons Ratio (z) = -0.02394 0.31366
#
# Static dielectric constant tensor:
#      x y z
#    x 1.679250 0.000000 0.019990 
#    y 0.000000 1.638310 0.000000 
#    z 0.019990 0.000000 1.714340 
# 
# From -- ./inp_files/12059.got.cif
#   From: 2010.05.17/outbox.cif.g08.bks.cpg/sg3_7_cif.got.tgz:12059.got - 2010.06.03 18:33:08.
