data_PCOD9113027
_publ_section_title
;
Structure prediction by ZEFSAII (Michael W. Deem and Ramdas Pophale) SiO2 
 PCOD9113027
Probable space group: P 2
;
_chemical_formula_sum "Si O2"
_cell_formula_units_Z 10
_cell_length_a 13.314780
_cell_length_b 5.467293
_cell_length_c 5.963238
_cell_angle_alpha 90.000000
_cell_angle_beta 70.139762
_cell_angle_gamma 90.000000
_cell_volume 408.280298
_symmetry_space_group_name_H-M "P 2"
_symmetry_group_IT_number 3
_symmetry_cell_setting 'monoclinic'
loop_
_space_group_symop_operation_xyz
x,y,z
-x,y,-z
loop_
_atom_site_type_symbol
_atom_site_label
_atom_site_fract_x
_atom_site_fract_y
_atom_site_fract_z
Si Si1 0.700591 0.727050 0.601900
Si Si2 0.099667 0.709873 0.807663
Si Si3 0.801812 0.366219 0.885664
Si Si4 0.400186 0.088289 0.959966
Si Si5 0.000000 0.360899 0.500000
Si Si6 0.500000 0.750502 0.500000
O O1 0.797711 0.836692 0.380625
O O2 0.750133 0.523139 0.724607
O O3 0.602645 0.619881 0.529755
O O4 0.651381 0.929443 0.801745
O O5 0.149802 0.539533 0.961893
O O6 0.049092 0.537374 0.653711
O O7 0.000000 0.848987 0.000000
O O8 0.700836 0.227650 0.060890
O O9 0.901548 0.223210 0.694802
O O10 0.500000 0.229833 0.000000
O O11 0.448781 0.916665 0.732907
#
# Coordination Sequence:
#
# PCOD9113027 Si02
#       6
#     2   2   2   2   1   1
#     4  10  21  39  60  84 118 153 190 235 284 337
#     4   9  18  35  62  88 113 149 190 233 284 342
#     4  10  20  38  62  85 113 153 191 233 288 338
#     4  10  23  39  56  84 118 151 193 239 282 337
#     4   8  18  36  58  86 116 144 188 238 282 342
#     4  10  22  40  56  82 122 152 190 242 282 334
#
# _framework density 24.492978999999998
#
# number of rings (size 3 to 8) (size 9 to 14) (size 15 to 20)
#    0.000    2.400    0.000    1.200    0.000   10.400 
#    0.000   10.000    0.000   12.000    0.000    0.000 
#    0.000    0.000    0.000    0.000    0.000    0.000 
#
# Total GULP energy -55839.379541 kJ/mol
# GULP energy per Si atom -5583.937954 kJ/mol
# Density = 2.443723 g / cm^3
# Si number density = 24.492979 Si / 1000 Ang^3
#
#
#
# Elastic Constant Matrix: (Units=GPa)
#
#
# Indices 1 2 3 4 5 6 
#
# 1 196.4192 30.0609 83.6976 0.0000 -1.5902 0.0000
# 2 30.0609 13.8418 17.9560 0.0000 -6.1875 0.0000
# 3 83.6976 17.9560 149.9261 0.0000 -35.2182 0.0000
# 4 0.0000 0.0000 0.0000 59.7789 0.0000 -7.4909
# 5 -1.5902 -6.1875 -35.2182 0.0000 75.7615 0.0000
# 6 0.0000 0.0000 0.0000 -7.4909 0.0000 36.0065
#
#
#
# Elastic Compliance Matrix: (Units=1/GPa)
#
#
# Indices 1 2 3 4 5 6 
#
# 1 0.009216 -0.016291 -0.003885 0.000000 -0.002943 0.000000
# 2 -0.016291 0.114752 -0.002838 0.000000 0.007711 0.000000
# 3 -0.003885 -0.002838 0.010221 0.000000 0.004438 0.000000
# 4 0.000000 0.000000 0.000000 0.017176 0.000000 0.003573
# 5 -0.002943 0.007711 0.004438 0.000000 0.015830 0.000000
# 6 0.000000 0.000000 0.000000 0.003573 0.000000 0.028516
#
#
# Mechanical properties :
#
#
# Convention : Reuss Voigt Hill
#
# Bulk Modulus (GPa) = 11.34270 69.29069 40.31670
# Shear Modulus (GPa) = 18.44156 49.54088 33.99122
#
# Velocity S-wave (km/s) = 2.74694 4.50227 3.72935
# Velocity P-wave (km/s) = 3.83431 7.44169 5.91949
#
# Compressibility (1/GPa) = 0.08816240
#
# Stress axis : x y z
#
# Youngs Moduli (GPa) = 108.50610 8.71444 97.83460
#
# Poissons Ratio (x) = 0.14196 0.38011
# Poissons Ratio (y) = 1.76762 0.27763
# Poissons Ratio (z) = 0.42157 0.02473
#
# Static dielectric constant tensor:
#      x y z
#    x 2.024350 0.000000 -0.051830 
#    y 0.000000 1.993890 0.000000 
#    z -0.051830 0.000000 1.951480 
# 
# From -- ./inp_files/2642.got.cif
#   From: 2010.05.17/outbox.cif.g08.bks.cpg/sg3_2_cif.got.tgz:2642.got - 2010.06.03 18:33:08.
