data_PCOD9113620
_publ_section_title
;
Structure prediction by ZEFSAII (Michael W. Deem and Ramdas Pophale) SiO2 
 PCOD9113620
Probable space group: P 2
;
_chemical_formula_sum "Si O2"
_cell_formula_units_Z 12
_cell_length_a 8.412005
_cell_length_b 4.626883
_cell_length_c 20.203323
_cell_angle_alpha 90.000000
_cell_angle_beta 146.083038
_cell_angle_gamma 90.000000
_cell_volume 438.770972
_symmetry_space_group_name_H-M "P 2"
_symmetry_group_IT_number 3
_symmetry_cell_setting 'monoclinic'
loop_
_space_group_symop_operation_xyz
x,y,z
-x,y,-z
loop_
_atom_site_type_symbol
_atom_site_label
_atom_site_fract_x
_atom_site_fract_y
_atom_site_fract_z
Si Si1 0.040483 0.213090 0.728027
Si Si2 0.500000 0.671256 0.000000
Si Si3 0.000000 0.943872 0.000000
Si Si4 0.500000 0.840356 0.500000
Si Si5 0.420676 0.665224 0.832921
Si Si6 0.617348 0.746535 0.401376
Si Si7 0.000000 0.250810 0.500000
Si Si8 0.950428 0.063837 0.837580
O O1 0.152985 0.469538 0.719203
O O2 0.762331 0.046064 0.608129
O O3 0.968897 0.282044 0.781355
O O4 0.285826 0.972714 0.803436
O O5 0.481168 0.507344 0.924347
O O6 0.220701 0.861719 0.915942
O O7 0.020417 0.130829 0.074514
O O8 0.282122 0.740995 0.097708
O O9 0.543728 0.649502 0.449772
O O10 0.745441 0.484685 0.402494
O O11 0.843636 0.009153 0.490887
O O12 0.343387 0.889420 0.273075
#
# Coordination Sequence:
#
# PCOD9113620 Si02
#       8
#     2   1   1   1   2   2   1   2
#     4  10  23  42  65  93 131 171 213 264 323 383
#     4   8  18  38  62  88 126 170 210 258 320 380
#     4  10  22  42  68 100 130 168 220 270 322 384
#     4  10  24  42  70 100 126 170 226 268 312 386
#     4  10  22  40  64  95 130 168 212 265 322 383
#     4  10  23  43  68  96 132 172 215 265 324 386
#     4  10  24  44  66  96 138 174 206 266 336 386
#     4   9  20  40  66  95 129 170 215 266 322 383
#
# _framework density 27.349119000000002
#
# number of rings (size 3 to 8) (size 9 to 14) (size 15 to 20)
#    0.000    2.333    0.000    0.000    0.000   19.333 
#    0.000    8.333    0.000    4.000    0.000    0.000 
#    0.000    0.000    0.000    0.000    0.000    0.000 
#
# Total GULP energy -66995.510542 kJ/mol
# GULP energy per Si atom -5582.959212 kJ/mol
# Density = 2.728687 g / cm^3
# Si number density = 27.349119 Si / 1000 Ang^3
#
#
#
# Elastic Constant Matrix: (Units=GPa)
#
#
# Indices 1 2 3 4 5 6 
#
# 1 167.5345 38.6640 71.1329 0.0000 -1.6156 0.0000
# 2 38.6640 132.9604 23.4335 0.0000 14.6228 0.0000
# 3 71.1329 23.4335 92.9754 0.0000 11.0716 0.0000
# 4 0.0000 0.0000 0.0000 25.2831 0.0000 20.9243
# 5 -1.6156 14.6228 11.0716 0.0000 44.5921 0.0000
# 6 0.0000 0.0000 0.0000 20.9243 0.0000 15.7537
#
#
#
# Elastic Compliance Matrix: (Units=1/GPa)
#
#
# Indices 1 2 3 4 5 6 
#
# 1 0.009407 -0.001785 -0.007066 0.000000 0.002681 0.000000
# 2 -0.001785 0.008415 -0.000432 0.000000 -0.002717 0.000000
# 3 -0.007066 -0.000432 0.016780 0.000000 -0.004281 0.000000
# 4 0.000000 0.000000 0.000000 -0.398567 0.000000 0.529385
# 5 0.002681 -0.002717 -0.004281 0.000000 0.024476 0.000000
# 6 0.000000 0.000000 0.000000 0.529385 0.000000 -0.639662
#
#
# Mechanical properties :
#
#
# Convention : Reuss Voigt Hill
#
# Bulk Modulus (GPa) = 62.35874 73.32566 67.84220
# Shear Modulus (GPa) = -5.23430 34.47511 14.62041
#
# Velocity S-wave (km/s) = -1.38493 3.55428 2.31462
# Velocity P-wave (km/s) = 4.50479 6.61159 5.65713
#
# Compressibility (1/GPa) = 0.01603624
#
# Stress axis : x y z
#
# Youngs Moduli (GPa) = 106.30414 118.83572 59.59334
#
# Poissons Ratio (x) = 0.21211 0.42111
# Poissons Ratio (y) = 0.18974 0.02573
# Poissons Ratio (z) = 0.75118 0.05131
#
# Static dielectric constant tensor:
#      x y z
#    x 2.147680 0.000000 -0.047810 
#    y 0.000000 2.113670 0.000000 
#    z -0.047810 0.000000 2.312190 
# 
# From -- ./inp_files/16227.got.cif
#   From: 2010.05.17/outbox.cif.g08.bks.cpg/sg3_9_cif.got.tgz:16227.got - 2010.06.03 18:33:08.
