data_PCOD9113651
_publ_section_title
;
Structure prediction by ZEFSAII (Michael W. Deem and Ramdas Pophale) SiO2 
 PCOD9113651
Probable space group: P 2
;
_chemical_formula_sum "Si O2"
_cell_formula_units_Z 14
_cell_length_a 23.677466
_cell_length_b 4.972202
_cell_length_c 15.691179
_cell_angle_alpha 90.000000
_cell_angle_beta 21.287646
_cell_angle_gamma 90.000000
_cell_volume 670.666172
_symmetry_space_group_name_H-M "P 2"
_symmetry_group_IT_number 3
_symmetry_cell_setting 'monoclinic'
loop_
_space_group_symop_operation_xyz
x,y,z
-x,y,-z
loop_
_atom_site_type_symbol
_atom_site_label
_atom_site_fract_x
_atom_site_fract_y
_atom_site_fract_z
Si Si1 0.045565 0.781020 0.711353
Si Si2 0.815576 0.156918 0.253335
Si Si3 0.930776 0.600388 0.510472
Si Si4 0.296314 0.655517 0.491601
Si Si5 0.653449 0.713927 0.007462
Si Si6 0.219859 0.233731 0.072423
Si Si7 0.150953 0.268700 0.979727
O O1 0.052966 0.762533 0.599169
O O2 0.202954 0.689421 0.535176
O O3 0.909685 0.573780 0.930170
O O4 0.000550 0.075865 0.805603
O O5 0.724124 0.356081 0.444174
O O6 0.765632 0.209002 0.226119
O O7 0.786369 0.854117 0.324345
O O8 0.000000 0.219289 0.000000
O O9 0.000000 0.725104 0.500000
O O10 0.041105 0.337510 0.341772
O O11 0.751536 0.591346 0.789926
O O12 0.474749 0.739404 0.234930
O O13 0.677713 0.490947 0.046246
O O14 0.723103 0.988173 0.949590
O O15 0.233796 0.189584 0.951668
#
# Coordination Sequence:
#
# PCOD9113651 Si02
#       7
#     2   2   2   2   2   2   2
#     4  11  21  36  61  94 121 153 203 254 298 358
#     4  12  22  41  64  90 122 162 208 246 302 366
#     4   9  21  38  64  89 116 159 204 243 294 354
#     4  12  24  40  61  94 127 161 197 248 316 363
#     4  11  24  42  61  89 132 161 195 254 306 362
#     4  10  22  41  63  91 119 163 209 249 296 356
#     4  11  21  37  64  91 117 153 213 261 286 345
#
# _framework density 20.874766000000001
#
# number of rings (size 3 to 8) (size 9 to 14) (size 15 to 20)
#    0.000    1.143    2.857    4.714    0.000   11.429 
#    0.000    4.286    0.000    8.571    0.000    0.000 
#    0.000    0.000    0.000    0.000    0.000    0.000 
#
# Total GULP energy -78166.807055 kJ/mol
# GULP energy per Si atom -5583.343361 kJ/mol
# Density = 2.082725 g / cm^3
# Si number density = 20.874766 Si / 1000 Ang^3
#
#
#
# Elastic Constant Matrix: (Units=GPa)
#
#
# Indices 1 2 3 4 5 6 
#
# 1 96.9899 18.5318 18.5684 0.0000 21.9151 0.0000
# 2 18.5318 74.4062 -4.5221 0.0000 -6.2049 0.0000
# 3 18.5684 -4.5221 40.9539 0.0000 -8.2046 0.0000
# 4 0.0000 0.0000 0.0000 16.1087 0.0000 -1.7909
# 5 21.9151 -6.2049 -8.2046 0.0000 27.6699 0.0000
# 6 0.0000 0.0000 0.0000 -1.7909 0.0000 25.8452
#
#
#
# Elastic Compliance Matrix: (Units=1/GPa)
#
#
# Indices 1 2 3 4 5 6 
#
# 1 0.018959 -0.007267 -0.013537 0.000000 -0.020659 0.000000
# 2 -0.007267 0.016682 0.007484 0.000000 0.011716 0.000000
# 3 -0.013537 0.007484 0.036005 0.000000 0.023076 0.000000
# 4 0.000000 0.000000 0.000000 0.062560 0.000000 0.004335
# 5 -0.020659 0.011716 0.023076 0.000000 0.061972 0.000000
# 6 0.000000 0.000000 0.000000 0.004335 0.000000 0.038992
#
#
# Mechanical properties :
#
#
# Convention : Reuss Voigt Hill
#
# Bulk Modulus (GPa) = 22.22011 30.83403 26.52707
# Shear Modulus (GPa) = 18.06282 25.90957 21.98620
#
# Velocity S-wave (km/s) = 2.94478 3.52688 3.24889
# Velocity P-wave (km/s) = 4.71486 5.60251 5.17774
#
# Compressibility (1/GPa) = 0.04500427
#
# Stress axis : x y z
#
# Youngs Moduli (GPa) = 52.74663 59.94620 27.77413
#
# Poissons Ratio (x) = 0.43565 0.37598
# Poissons Ratio (y) = 0.38333 -0.20786
# Poissons Ratio (z) = 0.71403 -0.44864
#
# Static dielectric constant tensor:
#      x y z
#    x 1.770760 0.000000 -0.005690 
#    y 0.000000 1.745670 0.000000 
#    z -0.005690 0.000000 1.772590 
# 
# From -- ./inp_files/14392.got.cif
#   From: 2010.05.17/outbox.cif.g08.bks.cpg/sg3_8_cif.got.tgz:14392.got - 2010.06.03 18:33:08.
