data_PCOD9113372
_publ_section_title
;
Structure prediction by ZEFSAII (Michael W. Deem and Ramdas Pophale) SiO2 
 PCOD9113372
Probable space group: P 2
;
_chemical_formula_sum "Si O2"
_cell_formula_units_Z 16
_cell_length_a 5.505329
_cell_length_b 5.498567
_cell_length_c 22.680102
_cell_angle_alpha 90.000000
_cell_angle_beta 70.085621
_cell_angle_gamma 90.000000
_cell_volume 645.504516
_symmetry_space_group_name_H-M "P 2"
_symmetry_group_IT_number 3
_symmetry_cell_setting 'monoclinic'
loop_
_space_group_symop_operation_xyz
x,y,z
-x,y,-z
loop_
_atom_site_type_symbol
_atom_site_label
_atom_site_fract_x
_atom_site_fract_y
_atom_site_fract_z
Si Si1 0.721135 0.492870 0.695934
Si Si2 0.121009 0.485798 0.553847
Si Si3 0.661124 0.572143 0.936019
Si Si4 0.846840 0.775534 0.796061
Si Si5 0.619108 0.997475 0.666482
Si Si6 0.214291 0.395473 0.897922
Si Si7 0.760063 0.987600 0.411181
Si Si8 0.691604 0.908744 0.179465
O O1 0.850814 0.555358 0.748378
O O2 0.551748 0.727850 0.694567
O O3 0.915331 0.473954 0.624646
O O4 0.563405 0.245466 0.706242
O O5 0.243704 0.218970 0.545576
O O6 0.000000 0.527663 0.500000
O O7 0.282698 0.723190 0.557455
O O8 0.920294 0.453660 0.940426
O O9 0.442380 0.394625 0.927240
O O10 0.763125 0.711636 0.869866
O O11 0.500000 0.712299 0.000000
O O12 0.615692 0.943164 0.793044
O O13 0.117251 0.907737 0.780754
O O14 0.458539 0.027243 0.619698
O O15 0.936898 0.981669 0.636307
O O16 0.211375 0.132749 0.867990
O O17 0.284393 0.631122 0.849982
#
# Coordination Sequence:
#
# PCOD9113372 Si02
#       8
#     2   2   2   2   2   2   2   2
#     4  10  23  41  63  94 127 167 212 262 317 377
#     4  10  21  41  65  94 128 168 213 264 318 378
#     4  10  21  41  65  94 127 166 210 260 315 376
#     4  10  23  41  66  94 128 167 211 262 316 377
#     4  10  22  40  63  90 124 163 207 257 312 372
#     4  10  21  40  63  90 124 161 204 253 307 368
#     4  10  21  40  63  90 124 163 207 257 312 372
#     4  10  22  40  63  90 122 161 204 253 309 368
#
# _framework density 24.786812000000001
#
# number of rings (size 3 to 8) (size 9 to 14) (size 15 to 20)
#    0.000    2.000    0.000    2.250    0.000    8.000 
#    0.000   31.250    0.000    0.000    0.000    0.000 
#    0.000    0.000    0.000    0.000    0.000    0.000 
#
# Total GULP energy -89233.524363 kJ/mol
# GULP energy per Si atom -5577.095273 kJ/mol
# Density = 2.473040 g / cm^3
# Si number density = 24.786812 Si / 1000 Ang^3
#
#
#
# Elastic Constant Matrix: (Units=GPa)
#
#
# Indices 1 2 3 4 5 6 
#
# 1 175.2916 14.4978 33.8033 0.0000 10.3384 0.0000
# 2 14.4978 156.5906 22.4647 0.0000 9.1220 0.0000
# 3 33.8033 22.4647 111.4047 0.0000 0.9973 0.0000
# 4 0.0000 0.0000 0.0000 3.5397 0.0000 34.2073
# 5 10.3384 9.1220 0.9973 0.0000 54.1473 0.0000
# 6 0.0000 0.0000 0.0000 34.2073 0.0000 -0.7321
#
#
#
# Elastic Compliance Matrix: (Units=1/GPa)
#
#
# Indices 1 2 3 4 5 6 
#
# 1 0.006137 -0.000246 -0.001803 0.000000 -0.001097 0.000000
# 2 -0.000246 0.006650 -0.001257 0.000000 -0.001050 0.000000
# 3 -0.001803 -0.001257 0.009773 0.000000 0.000376 0.000000
# 4 0.000000 0.000000 0.000000 0.000624 0.000000 0.029169
# 5 -0.001097 -0.001050 0.000376 0.000000 0.018848 0.000000
# 6 0.000000 0.000000 0.000000 0.029169 0.000000 -0.003018
#
#
# Mechanical properties :
#
#
# Convention : Reuss Voigt Hill
#
# Bulk Modulus (GPa) = 62.69619 64.97984 63.83801
# Shear Modulus (GPa) = 98.14905 36.22571 67.18738
#
# Velocity S-wave (km/s) = 6.29946 3.82709 5.21200
# Velocity P-wave (km/s) = 8.84647 6.76766 7.87596
#
# Compressibility (1/GPa) = 0.01594993
#
# Stress axis : x y z
#
# Youngs Moduli (GPa) = 162.93307 150.36795 102.31786
#
# Poissons Ratio (x) = 0.03694 0.18447
# Poissons Ratio (y) = 0.04003 0.12862
# Poissons Ratio (z) = 0.29376 0.18903
#
# Static dielectric constant tensor:
#      x y z
#    x 2.306060 0.000000 -0.308460 
#    y 0.000000 1.979790 0.000000 
#    z -0.308460 0.000000 2.382680 
# 
# From -- ./inp_files/15589.got.cif
#   From: 2010.05.17/outbox.cif.g08.bks.cpg/sg3_8_cif.got.tgz:15589.got - 2010.06.03 18:33:08.
