data_PCOD9113484
_publ_section_title
;
Structure prediction by ZEFSAII (Michael W. Deem and Ramdas Pophale) SiO2 
 PCOD9113484
Probable space group: P 2
;
_chemical_formula_sum "Si O2"
_cell_formula_units_Z 14
_cell_length_a 11.589765
_cell_length_b 8.983737
_cell_length_c 14.097538
_cell_angle_alpha 90.000000
_cell_angle_beta 28.617323
_cell_angle_gamma 90.000000
_cell_volume 703.026539
_symmetry_space_group_name_H-M "P 2"
_symmetry_group_IT_number 3
_symmetry_cell_setting 'monoclinic'
loop_
_space_group_symop_operation_xyz
x,y,z
-x,y,-z
loop_
_atom_site_type_symbol
_atom_site_label
_atom_site_fract_x
_atom_site_fract_y
_atom_site_fract_z
Si Si1 0.861463 0.396540 0.316880
Si Si2 0.148130 0.648284 0.038341
Si Si3 0.783513 0.906768 0.301580
Si Si4 0.489045 0.871885 0.898950
Si Si5 0.000000 0.143301 0.000000
Si Si6 0.942412 0.087674 0.752780
Si Si7 0.000000 0.007051 0.500000
Si Si8 0.668508 0.404219 0.238384
O O1 0.995676 0.244980 0.245763
O O2 0.764209 0.403943 0.278043
O O3 0.618398 0.402562 0.553410
O O4 0.039397 0.535995 0.195374
O O5 0.930065 0.759064 0.170252
O O6 0.356905 0.752736 0.928419
O O7 0.240760 0.544533 0.886629
O O8 0.500000 0.884662 0.500000
O O9 0.872260 0.036959 0.167599
O O10 0.866665 0.966476 0.344350
O O11 0.754860 0.911436 0.671917
O O12 0.500000 0.817131 0.000000
O O13 0.315226 0.017949 0.031117
O O14 0.791633 0.252986 0.110986
O O15 0.967785 0.096230 0.621249
#
# Coordination Sequence:
#
# PCOD9113484 Si02
#       8
#     2   2   2   2   1   2   1   2
#     4  11  23  40  60  87 137 173 212 259 321 383
#     4  11  24  40  62  93 130 177 213 258 324 394
#     4  11  25  38  63  97 133 171 217 265 325 389
#     4   9  22  44  70  93 123 161 220 282 327 373
#     4  12  22  36  60  88 126 174 222 258 306 382
#     4  10  21  43  66  95 123 170 215 275 322 377
#     4  10  22  44  72  94 120 162 228 280 326 376
#     4  11  23  39  60  88 134 184 209 253 317 393
#
# _framework density 19.913900999999999
#
# number of rings (size 3 to 8) (size 9 to 14) (size 15 to 20)
#    0.000    1.429    2.857    0.857    4.000    9.143 
#    0.000    3.571    0.000    1.714    0.000    0.000 
#    0.000    0.000    0.000    0.000    0.000    0.000 
#
# Total GULP energy -78195.394433 kJ/mol
# GULP energy per Si atom -5585.385317 kJ/mol
# Density = 1.986858 g / cm^3
# Si number density = 19.913901 Si / 1000 Ang^3
#
#
#
# Elastic Constant Matrix: (Units=GPa)
#
#
# Indices 1 2 3 4 5 6 
#
# 1 81.3197 56.8630 58.9596 0.0000 -4.5506 0.0000
# 2 56.8630 160.9038 86.5452 0.0000 -0.1270 0.0000
# 3 58.9596 86.5452 166.9476 0.0000 -18.3165 0.0000
# 4 0.0000 0.0000 0.0000 7.1523 0.0000 1.3096
# 5 -4.5506 -0.1270 -18.3165 0.0000 32.8646 0.0000
# 6 0.0000 0.0000 0.0000 1.3096 0.0000 29.3727
#
#
#
# Elastic Compliance Matrix: (Units=1/GPa)
#
#
# Indices 1 2 3 4 5 6 
#
# 1 0.018337 -0.004166 -0.004303 0.000000 0.000125 0.000000
# 2 -0.004166 0.009781 -0.003897 0.000000 -0.002711 0.000000
# 3 -0.004303 -0.003897 0.010079 0.000000 0.005006 0.000000
# 4 0.000000 0.000000 0.000000 0.140966 0.000000 -0.006285
# 5 0.000125 -0.002711 0.005006 0.000000 0.033225 0.000000
# 6 0.000000 0.000000 0.000000 -0.006285 0.000000 0.034325
#
#
# Mechanical properties :
#
#
# Convention : Reuss Voigt Hill
#
# Bulk Modulus (GPa) = 74.25984 90.43408 82.34696
# Shear Modulus (GPa) = 18.12052 27.66480 22.89266
#
# Velocity S-wave (km/s) = 3.01980 3.73127 3.39423
# Velocity P-wave (km/s) = 7.03778 8.00464 7.53673
#
# Compressibility (1/GPa) = 0.01346623
#
# Stress axis : x y z
#
# Youngs Moduli (GPa) = 54.53580 102.24170 99.22002
#
# Poissons Ratio (x) = 0.42592 0.42690
# Poissons Ratio (y) = 0.22718 0.38661
# Poissons Ratio (z) = 0.23464 0.39839
#
# Static dielectric constant tensor:
#      x y z
#    x 1.736530 0.000000 0.014490 
#    y 0.000000 1.691130 0.000000 
#    z 0.014490 0.000000 1.719540 
# 
# From -- ./inp_files/13753.got.cif
#   From: 2010.05.17/outbox.cif.g08.bks.cpg/sg3_7_cif.got.tgz:13753.got - 2010.06.03 18:33:08.
