data_PCOD9113218
_publ_section_title
;
Structure prediction by ZEFSAII (Michael W. Deem and Ramdas Pophale) SiO2 
 PCOD9113218
Probable space group: P 2
;
_chemical_formula_sum "Si O2"
_cell_formula_units_Z 14
_cell_length_a 8.403618
_cell_length_b 17.225277
_cell_length_c 8.391274
_cell_angle_alpha 90.000000
_cell_angle_beta 34.965028
_cell_angle_gamma 90.000000
_cell_volume 696.102024
_symmetry_space_group_name_H-M "P 2"
_symmetry_group_IT_number 3
_symmetry_cell_setting 'monoclinic'
loop_
_space_group_symop_operation_xyz
x,y,z
-x,y,-z
loop_
_atom_site_type_symbol
_atom_site_label
_atom_site_fract_x
_atom_site_fract_y
_atom_site_fract_z
Si Si1 0.401542 0.623760 0.898479
Si Si2 0.310539 0.292839 0.808499
Si Si3 0.313965 0.171230 0.304840
Si Si4 0.304008 0.997083 0.320507
Si Si5 0.904313 0.720269 0.393781
Si Si6 0.694814 0.465453 0.186779
Si Si7 0.203792 0.875875 0.685075
O O1 0.599556 0.683298 0.643528
O O2 0.410165 0.535640 0.833961
O O3 0.500000 0.625009 0.000000
O O4 0.095616 0.658451 0.147236
O O5 0.500000 0.303360 0.500000
O O6 0.499948 0.233670 0.753797
O O7 0.287475 0.378908 0.904353
O O8 0.000000 0.268985 0.000000
O O9 0.315247 0.085365 0.380244
O O10 0.000000 0.192128 0.500000
O O11 0.500000 0.157076 0.000000
O O12 0.000000 0.988527 0.500000
O O13 0.302462 0.939726 0.473176
O O14 0.500000 0.984641 0.000000
O O15 0.938852 0.804344 0.288343
O O16 0.000000 0.725794 0.500000
O O17 0.500000 0.462554 0.500000
O O18 0.000000 0.483557 0.000000
O O19 0.500000 0.844663 0.500000
O O20 0.000000 0.900900 0.000000
#
# Coordination Sequence:
#
# PCOD9113218 Si02
#       7
#     2   2   2   2   2   2   2
#     4  10  21  37  57  83 111 148 198 242 286 344
#     4  10  21  38  59  87 122 159 195 239 304 366
#     4  10  21  39  63  90 116 154 207 251 293 355
#     4  10  22  42  64  85 119 163 200 242 305 367
#     4  10  22  39  58  80 114 156 192 235 297 358
#     4  10  21  36  56  82 116 155 191 233 294 358
#     4  12  25  39  60  93 121 149 200 252 296 352
#
# _framework density 20.111992999999998
#
# number of rings (size 3 to 8) (size 9 to 14) (size 15 to 20)
#    0.000    1.714    0.000    3.857    0.000    6.286 
#    0.000    3.571    0.000    0.000    0.000    0.000 
#    0.000    0.000    0.000    0.000    0.000    0.000 
#
# Total GULP energy -77954.307217 kJ/mol
# GULP energy per Si atom -5568.164801 kJ/mol
# Density = 2.006622 g / cm^3
# Si number density = 20.111993 Si / 1000 Ang^3
#
#
#
# Elastic Constant Matrix: (Units=GPa)
#
#
# Indices 1 2 3 4 5 6 
#
# 1 38.0240 62.8239 26.1913 0.0000 -3.2451 0.0000
# 2 62.8239 119.6582 25.8670 0.0000 11.0783 0.0000
# 3 26.1913 25.8670 126.3552 0.0000 -11.5979 0.0000
# 4 0.0000 0.0000 0.0000 32.3959 0.0000 8.8292
# 5 -3.2451 11.0783 -11.5979 0.0000 24.9590 0.0000
# 6 0.0000 0.0000 0.0000 8.8292 0.0000 20.2600
#
#
#
# Elastic Compliance Matrix: (Units=1/GPa)
#
#
# Indices 1 2 3 4 5 6 
#
# 1 0.881916 -0.478461 -0.057283 0.000000 0.300415 0.000000
# 2 -0.478461 0.268941 0.028677 0.000000 -0.168254 0.000000
# 3 -0.057283 0.028677 0.012603 0.000000 -0.014320 0.000000
# 4 0.000000 0.000000 0.000000 0.035029 0.000000 -0.015265
# 5 0.300415 -0.168254 -0.014320 0.000000 0.147152 0.000000
# 6 0.000000 0.000000 0.000000 -0.015265 0.000000 0.056011
#
#
# Mechanical properties :
#
#
# Convention : Reuss Voigt Hill
#
# Bulk Modulus (GPa) = 6.69679 57.08909 31.89294
# Shear Modulus (GPa) = 2.02794 26.79998 14.41396
#
# Velocity S-wave (km/s) = 1.00524 3.65435 2.68000
# Velocity P-wave (km/s) = 2.16433 6.80095 5.04665
#
# Compressibility (1/GPa) = 0.14932524
#
# Stress axis : x y z
#
# Youngs Moduli (GPa) = 1.13389 3.71829 79.34567
#
# Poissons Ratio (x) = 1.77906 4.54516
# Poissons Ratio (y) = 0.54252 -2.27536
# Poissons Ratio (z) = 0.06495 -0.10663
#
# Static dielectric constant tensor:
#      x y z
#    x 1.698860 0.000000 0.043180 
#    y 0.000000 1.786860 0.000000 
#    z 0.043180 0.000000 1.709520 
# 
# From -- ./inp_files/6172.got.cif
#   From: 2010.05.17/outbox.cif.g08.bks.cpg/sg3_4_cif.got.tgz:6172.got - 2010.06.03 18:33:08.
