data_PCOD9113268
_publ_section_title
;
Structure prediction by ZEFSAII (Michael W. Deem and Ramdas Pophale) SiO2 
 PCOD9113268
Probable space group: P 2
;
_chemical_formula_sum "Si O2"
_cell_formula_units_Z 12
_cell_length_a 15.028329
_cell_length_b 5.996677
_cell_length_c 6.098582
_cell_angle_alpha 90.000000
_cell_angle_beta 79.053192
_cell_angle_gamma 90.000000
_cell_volume 539.603767
_symmetry_space_group_name_H-M "P 2"
_symmetry_group_IT_number 3
_symmetry_cell_setting 'monoclinic'
loop_
_space_group_symop_operation_xyz
x,y,z
-x,y,-z
loop_
_atom_site_type_symbol
_atom_site_label
_atom_site_fract_x
_atom_site_fract_y
_atom_site_fract_z
Si Si1 0.000000 0.086900 0.500000
Si Si2 0.668213 0.546543 0.663503
Si Si3 0.416467 0.244226 0.919508
Si Si4 0.252474 0.190211 0.726641
Si Si5 0.079742 0.431969 0.808103
Si Si6 0.834893 0.813066 0.531130
Si Si7 0.500000 0.552824 0.500000
O O1 0.035843 0.240400 0.678107
O O2 0.085290 0.940039 0.380724
O O3 0.707293 0.365249 0.471144
O O4 0.751486 0.700913 0.695986
O O5 0.585795 0.672163 0.574040
O O6 0.627239 0.412793 0.885055
O O7 0.332565 0.116889 0.851014
O O8 0.460402 0.392757 0.707122
O O9 0.500000 0.120051 0.000000
O O10 0.168515 0.321394 0.878704
O O11 0.211920 0.984664 0.613851
O O12 0.115176 0.624499 0.633369
O O13 0.000000 0.515024 0.000000
#
# Coordination Sequence:
#
# PCOD9113268 Si02
#       7
#     1   2   2   2   2   2   1
#     4  10  22  40  58  84 118 152 194 242 286 338
#     4   9  18  36  58  83 116 156 192 232 285 339
#     4   9  17  34  62  85 113 157 191 228 287 342
#     4   9  20  36  55  85 118 148 193 243 283 336
#     4  10  22  40  60  83 116 155 192 237 291 343
#     4  10  21  38  60  85 117 152 192 242 287 338
#     4   8  16  34  58  84 118 152 188 232 282 340
#
# _framework density 22.238541000000001
#
# number of rings (size 3 to 8) (size 9 to 14) (size 15 to 20)
#    0.000    2.667    0.000    0.500    0.000    8.000 
#    0.000   18.333    0.000   18.000    0.000    0.000 
#    0.000    0.000    0.000    0.000    0.000    0.000 
#
# Total GULP energy -66971.192055 kJ/mol
# GULP energy per Si atom -5580.932671 kJ/mol
# Density = 2.218792 g / cm^3
# Si number density = 22.238541 Si / 1000 Ang^3
#
#
#
# Elastic Constant Matrix: (Units=GPa)
#
#
# Indices 1 2 3 4 5 6 
#
# 1 185.4441 48.3672 33.8697 0.0000 3.2859 0.0000
# 2 48.3672 52.2540 -3.2967 0.0000 -1.0419 0.0000
# 3 33.8697 -3.2967 59.6991 0.0000 -20.6421 0.0000
# 4 0.0000 0.0000 0.0000 13.0413 0.0000 -42.6889
# 5 3.2859 -1.0419 -20.6421 0.0000 34.6968 0.0000
# 6 0.0000 0.0000 0.0000 -42.6889 0.0000 659.9094
#
#
#
# Elastic Compliance Matrix: (Units=1/GPa)
#
#
# Indices 1 2 3 4 5 6 
#
# 1 0.009336 -0.009251 -0.007817 0.000000 -0.005813 0.000000
# 2 -0.009251 0.028434 0.009337 0.000000 0.007285 0.000000
# 3 -0.007817 0.009337 0.027766 0.000000 0.017540 0.000000
# 4 0.000000 0.000000 0.000000 0.097279 0.000000 0.006293
# 5 -0.005813 0.007285 0.017540 0.000000 0.040025 0.000000
# 6 0.000000 0.000000 0.000000 0.006293 0.000000 0.001922
#
#
# Mechanical properties :
#
#
# Convention : Reuss Voigt Hill
#
# Bulk Modulus (GPa) = 19.97004 50.58640 35.27822
# Shear Modulus (GPa) = 21.10458 156.09329 88.59893
#
# Velocity S-wave (km/s) = 3.08394 8.38706 6.31876
# Velocity P-wave (km/s) = 4.65622 10.79754 8.31467
#
# Compressibility (1/GPa) = 0.05007501
#
# Stress axis : x y z
#
# Youngs Moduli (GPa) = 107.11268 35.16891 36.01516
#
# Poissons Ratio (x) = 0.32533 0.28154
# Poissons Ratio (y) = 0.99086 -0.33629
# Poissons Ratio (z) = 0.83734 -0.32839
#
# Static dielectric constant tensor:
#      x y z
#    x 1.898660 0.000000 -0.021680 
#    y 0.000000 1.798880 0.000000 
#    z -0.021680 0.000000 1.556250 
# 
# From -- ./inp_files/2712.got.cif
#   From: 2010.05.17/outbox.cif.g08.bks.cpg/sg3_2_cif.got.tgz:2712.got - 2010.06.03 18:33:08.
