data_PCOD9113369
_publ_section_title
;
Structure prediction by ZEFSAII (Michael W. Deem and Ramdas Pophale) SiO2 
 PCOD9113369
Probable space group: P 2
;
_chemical_formula_sum "Si O2"
_cell_formula_units_Z 12
_cell_length_a 19.321998
_cell_length_b 6.257776
_cell_length_c 13.995642
_cell_angle_alpha 90.000000
_cell_angle_beta 19.516558
_cell_angle_gamma 90.000000
_cell_volume 565.346082
_symmetry_space_group_name_H-M "P 2"
_symmetry_group_IT_number 3
_symmetry_cell_setting 'monoclinic'
loop_
_space_group_symop_operation_xyz
x,y,z
-x,y,-z
loop_
_atom_site_type_symbol
_atom_site_label
_atom_site_fract_x
_atom_site_fract_y
_atom_site_fract_z
Si Si1 0.033394 0.087260 0.845403
Si Si2 0.270955 0.230879 0.071643
Si Si3 0.968115 0.708527 0.298144
Si Si4 0.354139 0.342766 0.316322
Si Si5 0.835285 0.074417 0.604803
Si Si6 0.690193 0.364826 0.182736
O O1 0.238787 0.221730 0.553285
O O2 0.849299 0.221379 0.036041
O O3 0.038005 0.861991 0.785852
O O4 0.000000 0.064061 0.000000
O O5 0.266507 0.042865 0.158520
O O6 0.025308 0.244313 0.369664
O O7 0.413371 0.388880 0.950106
O O8 0.363017 0.235076 0.845247
O O9 0.772891 0.551835 0.544915
O O10 0.937599 0.863190 0.428160
O O11 0.179998 0.572990 0.019772
O O12 0.309897 0.178635 0.286770
O O13 0.500000 0.415491 0.500000
#
# Coordination Sequence:
#
# PCOD9113369 Si02
#       6
#     2   2   2   2   2   2
#     4  10  21  40  62  89 135 179 215 283 341 400
#     4  11  21  43  70  92 134 182 215 278 346 395
#     4  10  21  44  64  96 140 171 236 287 323 405
#     4  10  21  42  64  95 132 173 226 276 343 397
#     4  10  22  45  65  95 137 176 228 279 336 405
#     4  11  23  42  66 101 135 176 226 280 340 410
#
# _framework density 21.225935
#
# number of rings (size 3 to 8) (size 9 to 14) (size 15 to 20)
#    0.000    1.667    5.000    1.500    0.000    4.667 
#   15.000    3.333    0.000    0.000    0.000    0.000 
#    0.000    0.000    0.000    0.000    0.000    0.000 
#
# Total GULP energy -66813.512322 kJ/mol
# GULP energy per Si atom -5567.792693 kJ/mol
# Density = 2.117762 g / cm^3
# Si number density = 21.225935 Si / 1000 Ang^3
#
#
#
# Elastic Constant Matrix: (Units=GPa)
#
#
# Indices 1 2 3 4 5 6 
#
# 1 152.7009 37.4091 55.7600 0.0000 24.2122 0.0000
# 2 37.4091 88.0254 48.3118 0.0000 13.3955 0.0000
# 3 55.7600 48.3118 112.1019 0.0000 1.3807 0.0000
# 4 0.0000 0.0000 0.0000 9.3691 0.0000 5.2503
# 5 24.2122 13.3955 1.3807 0.0000 60.6228 0.0000
# 6 0.0000 0.0000 0.0000 5.2503 0.0000 6.7530
#
#
#
# Elastic Compliance Matrix: (Units=1/GPa)
#
#
# Indices 1 2 3 4 5 6 
#
# 1 0.008716 -0.001136 -0.003807 0.000000 -0.003143 0.000000
# 2 -0.001136 0.015652 -0.006145 0.000000 -0.002865 0.000000
# 3 -0.003807 -0.006145 0.013430 0.000000 0.002572 0.000000
# 4 0.000000 0.000000 0.000000 0.189142 0.000000 -0.147054
# 5 -0.003143 -0.002865 0.002572 0.000000 0.018325 0.000000
# 6 0.000000 0.000000 0.000000 -0.147054 0.000000 0.262415
#
#
# Mechanical properties :
#
#
# Convention : Reuss Voigt Hill
#
# Bulk Modulus (GPa) = 64.01243 70.64334 67.32789
# Shear Modulus (GPa) = 9.34469 29.43878 19.39173
#
# Velocity S-wave (km/s) = 2.10049 3.72818 3.02584
# Velocity P-wave (km/s) = 6.00881 7.20322 6.63296
#
# Compressibility (1/GPa) = 0.01562197
#
# Stress axis : x y z
#
# Youngs Moduli (GPa) = 114.73724 63.89059 74.45763
#
# Poissons Ratio (x) = 0.07260 0.28344
# Poissons Ratio (y) = 0.13038 0.45753
# Poissons Ratio (z) = 0.43677 0.39260
#
# Static dielectric constant tensor:
#      x y z
#    x 1.777460 0.000000 0.000730 
#    y 0.000000 1.749140 0.000000 
#    z 0.000730 0.000000 1.865500 
# 
# From -- ./inp_files/14219.got.cif
#   From: 2010.05.17/outbox.cif.g08.bks.cpg/sg3_8_cif.got.tgz:14219.got - 2010.06.03 18:33:08.
