data_PCOD9113982
_publ_section_title
;
Structure prediction by ZEFSAII (Michael W. Deem and Ramdas Pophale) SiO2 
 PCOD9113982
Probable space group: P 2
;
_chemical_formula_sum "Si O2"
_cell_formula_units_Z 10
_cell_length_a 13.020197
_cell_length_b 5.990197
_cell_length_c 6.221312
_cell_angle_alpha 90.000000
_cell_angle_beta 67.151588
_cell_angle_gamma 90.000000
_cell_volume 447.149409
_symmetry_space_group_name_H-M "P 2"
_symmetry_group_IT_number 3
_symmetry_cell_setting 'monoclinic'
loop_
_space_group_symop_operation_xyz
x,y,z
-x,y,-z
loop_
_atom_site_type_symbol
_atom_site_label
_atom_site_fract_x
_atom_site_fract_y
_atom_site_fract_z
Si Si1 0.401165 0.678990 0.424093
Si Si2 0.303319 0.342334 0.161780
Si Si3 0.207805 0.689512 0.892337
Si Si4 0.095006 0.068502 0.270678
Si Si5 0.000000 0.405560 0.000000
Si Si6 0.500000 0.021071 0.000000
O O1 0.500000 0.602520 0.500000
O O2 0.353451 0.478867 0.319260
O O3 0.299246 0.769955 0.649209
O O4 0.451486 0.864790 0.225829
O O5 0.194515 0.198327 0.309935
O O6 0.267559 0.517242 0.007186
O O7 0.399323 0.176524 0.002360
O O8 0.106289 0.559082 0.862575
O O9 0.153475 0.885480 0.074932
O O10 0.000000 0.968780 0.500000
O O11 0.034210 0.249663 0.169932
#
# Coordination Sequence:
#
# PCOD9113982 Si02
#       6
#     2   2   2   2   1   1
#     4  12  25  44  68  97 131 173 222 274 329 391
#     4  11  25  45  67  97 134 176 219 269 332 391
#     4  11  25  45  69  99 135 174 220 271 326 391
#     4  11  24  44  69  99 135 175 219 269 326 389
#     4  10  24  42  68 102 134 176 218 264 326 392
#     4  12  26  44  68  98 130 172 224 276 330 388
#
# _framework density 22.363889
#
# number of rings (size 3 to 8) (size 9 to 14) (size 15 to 20)
#    0.000    0.800    0.000    7.200    0.000   15.200 
#    0.000    2.000    0.000    0.000    0.000    0.000 
#    0.000    0.000    0.000    0.000    0.000    0.000 
#
# Total GULP energy -56041.772521 kJ/mol
# GULP energy per Si atom -5604.177252 kJ/mol
# Density = 2.231299 g / cm^3
# Si number density = 22.363889 Si / 1000 Ang^3
#
#
#
# Elastic Constant Matrix: (Units=GPa)
#
#
# Indices 1 2 3 4 5 6 
#
# 1 184.5778 80.9961 75.1860 0.0000 -11.6794 0.0000
# 2 80.9961 121.1111 70.8390 0.0000 -11.4205 0.0000
# 3 75.1860 70.8390 155.7905 0.0000 -48.5848 0.0000
# 4 0.0000 0.0000 0.0000 23.2980 0.0000 -0.8979
# 5 -11.6794 -11.4205 -48.5848 0.0000 42.7683 0.0000
# 6 0.0000 0.0000 0.0000 -0.8979 0.0000 21.9593
#
#
#
# Elastic Compliance Matrix: (Units=1/GPa)
#
#
# Indices 1 2 3 4 5 6 
#
# 1 0.008183 -0.004079 -0.002690 0.000000 -0.001911 0.000000
# 2 -0.004079 0.013829 -0.005444 0.000000 -0.003606 0.000000
# 3 -0.002690 -0.005444 0.014728 0.000000 0.014542 0.000000
# 4 0.000000 0.000000 0.000000 0.042990 0.000000 0.001758
# 5 -0.001911 -0.003606 0.014542 0.000000 0.038417 0.000000
# 6 0.000000 0.000000 0.000000 0.001758 0.000000 0.045611
#
#
# Mechanical properties :
#
#
# Convention : Reuss Voigt Hill
#
# Bulk Modulus (GPa) = 81.21378 101.72465 91.46922
# Shear Modulus (GPa) = 26.00264 33.23568 29.61916
#
# Velocity S-wave (km/s) = 3.41355 3.85922 3.64320
# Velocity P-wave (km/s) = 7.20624 8.08968 7.66071
#
# Compressibility (1/GPa) = 0.01231318
#
# Stress axis : x y z
#
# Youngs Moduli (GPa) = 122.21040 72.31121 67.89899
#
# Poissons Ratio (x) = 0.29496 0.18265
# Poissons Ratio (y) = 0.49850 0.36964
# Poissons Ratio (z) = 0.32876 0.39366
#
# Static dielectric constant tensor:
#      x y z
#    x 1.817110 0.000000 -0.001170 
#    y 0.000000 1.802140 0.000000 
#    z -0.001170 0.000000 1.802930 
# 
# From -- ./inp_files/1922.got.cif
#   From: 2010.05.17/outbox.cif.g08.bks.cpg/sg3_1_cif.got.tgz:1922.got - 2010.06.03 18:33:08.
