data_PCOD9113565
_publ_section_title
;
Structure prediction by ZEFSAII (Michael W. Deem and Ramdas Pophale) SiO2 
 PCOD9113565
Probable space group: P 2
;
_chemical_formula_sum "Si O2"
_cell_formula_units_Z 16
_cell_length_a 9.130918
_cell_length_b 9.176678
_cell_length_c 13.529998
_cell_angle_alpha 90.000000
_cell_angle_beta 45.506532
_cell_angle_gamma 90.000000
_cell_volume 808.701728
_symmetry_space_group_name_H-M "P 2"
_symmetry_group_IT_number 3
_symmetry_cell_setting 'monoclinic'
loop_
_space_group_symop_operation_xyz
x,y,z
-x,y,-z
loop_
_atom_site_type_symbol
_atom_site_label
_atom_site_fract_x
_atom_site_fract_y
_atom_site_fract_z
Si Si1 0.015761 0.642150 0.606870
Si Si2 0.575128 0.089585 0.715390
Si Si3 0.221109 0.298949 0.947960
Si Si4 0.458928 0.795949 0.403682
Si Si5 0.280218 0.156509 0.551286
Si Si6 0.002296 0.403149 0.229480
Si Si7 0.072476 0.955569 0.350214
Si Si8 0.198055 0.589753 0.848458
O O1 0.249917 0.701021 0.506144
O O2 0.945924 0.505309 0.703397
O O3 0.000000 0.605862 0.500000
O O4 0.888143 0.788150 0.694956
O O5 0.549975 0.941582 0.660859
O O6 0.724913 0.052564 0.735521
O O7 0.372782 0.169779 0.847871
O O8 0.679560 0.192354 0.583052
O O9 0.287417 0.456570 0.872240
O O10 0.000000 0.271076 0.000000
O O11 0.179294 0.322268 0.083892
O O12 0.500000 0.826758 0.500000
O O13 0.635075 0.701298 0.268642
O O14 0.500000 0.133759 0.500000
O O15 0.166537 0.287004 0.658692
O O16 0.110604 0.026080 0.627142
O O17 0.897647 0.511992 0.201403
O O18 0.000000 0.950796 0.500000
O O19 0.000000 0.653840 0.000000
#
# Coordination Sequence:
#
# PCOD9113565 Si02
#       8
#     2   2   2   2   2   2   2   2
#     4  11  21  39  62  97 132 166 211 279 332 386
#     4  11  22  39  63  91 127 168 210 269 328 395
#     4   9  21  42  62  90 131 172 217 271 324 397
#     4  12  22  35  66 102 123 169 222 273 326 388
#     4  11  21  35  61  95 119 160 214 272 326 378
#     4  10  22  38  63  93 126 167 215 272 322 391
#     4   9  20  40  55  87 129 158 202 267 331 381
#     4   9  21  40  59  90 133 166 213 275 329 384
#
# _framework density 19.784799
#
# number of rings (size 3 to 8) (size 9 to 14) (size 15 to 20)
#    0.000    2.000    5.000    1.875    3.500    2.000 
#    0.000    3.125    2.750    0.000    0.000    0.000 
#    0.000    0.000    0.000    0.000    0.000    0.000 
#
# Total GULP energy -89168.960178 kJ/mol
# GULP energy per Si atom -5573.060011 kJ/mol
# Density = 1.973977 g / cm^3
# Si number density = 19.784799 Si / 1000 Ang^3
#
#
#
# Elastic Constant Matrix: (Units=GPa)
#
#
# Indices 1 2 3 4 5 6 
#
# 1 82.9695 35.6620 38.4174 0.0000 9.1127 0.0000
# 2 35.6620 61.1336 63.1078 0.0000 -5.6902 0.0000
# 3 38.4174 63.1078 112.0238 0.0000 -4.5337 0.0000
# 4 0.0000 0.0000 0.0000 35.1326 0.0000 -6.0966
# 5 9.1127 -5.6902 -4.5337 0.0000 23.2059 0.0000
# 6 0.0000 0.0000 0.0000 -6.0966 0.0000 9.1490
#
#
#
# Elastic Compliance Matrix: (Units=1/GPa)
#
#
# Indices 1 2 3 4 5 6 
#
# 1 0.018072 -0.011116 -0.000336 0.000000 -0.009888 0.000000
# 2 -0.011116 0.046591 -0.021969 0.000000 0.011497 0.000000
# 3 -0.000336 -0.021969 0.021374 0.000000 -0.001079 0.000000
# 4 0.000000 0.000000 0.000000 0.032185 0.000000 0.021447
# 5 -0.009888 0.011497 -0.001079 0.000000 0.049584 0.000000
# 6 0.000000 0.000000 0.000000 0.021447 0.000000 0.123593
#
#
# Mechanical properties :
#
#
# Convention : Reuss Voigt Hill
#
# Bulk Modulus (GPa) = 52.09592 58.94459 55.52026
# Shear Modulus (GPa) = 13.71219 21.42684 17.56951
#
# Velocity S-wave (km/s) = 2.63547 3.29446 2.98322
# Velocity P-wave (km/s) = 5.97071 6.65799 6.32369
#
# Compressibility (1/GPa) = 0.01919536
#
# Stress axis : x y z
#
# Youngs Moduli (GPa) = 55.33435 21.46338 46.78517
#
# Poissons Ratio (x) = 0.23859 0.01570
# Poissons Ratio (y) = 0.61510 1.02783
# Poissons Ratio (z) = 0.01857 0.47153
#
# Static dielectric constant tensor:
#      x y z
#    x 1.749580 0.000000 -0.002090 
#    y 0.000000 1.731500 0.000000 
#    z -0.002090 0.000000 1.723090 
# 
# From -- ./inp_files/10715.got.cif
#   From: 2010.05.17/outbox.cif.g08.bks.cpg/sg3_6_cif.got.tgz:10715.got - 2010.06.03 18:33:08.
