data_PCOD9113044
_publ_section_title
;
Structure prediction by ZEFSAII (Michael W. Deem and Ramdas Pophale) SiO2 
 PCOD9113044
Probable space group: P 2
;
_chemical_formula_sum "Si O2"
_cell_formula_units_Z 13
_cell_length_a 8.432368
_cell_length_b 10.624263
_cell_length_c 9.749954
_cell_angle_alpha 90.000000
_cell_angle_beta 35.049312
_cell_angle_gamma 90.000000
_cell_volume 501.620821
_symmetry_space_group_name_H-M "P 2"
_symmetry_group_IT_number 3
_symmetry_cell_setting 'monoclinic'
loop_
_space_group_symop_operation_xyz
x,y,z
-x,y,-z
loop_
_atom_site_type_symbol
_atom_site_label
_atom_site_fract_x
_atom_site_fract_y
_atom_site_fract_z
Si Si1 0.827722 0.750000 0.253362
Si Si2 0.500000 0.532454 0.000000
Si Si3 0.000000 0.170189 0.500000
Si Si4 0.341616 0.005703 0.739058
Si Si5 0.000000 0.231786 0.000000
Si Si6 0.309274 0.926886 0.258268
Si Si7 0.235061 0.607441 0.442304
Si Si8 0.052584 0.373541 0.687512
O O1 0.500000 0.718519 0.500000
O O2 0.902074 0.701709 0.350700
O O3 0.834211 0.900751 0.222762
O O4 0.000000 0.698064 0.000000
O O5 0.472446 0.619473 0.158863
O O6 0.246900 0.437857 0.135230
O O7 0.233775 0.073119 0.285103
O O8 0.904333 0.258779 0.446320
O O9 0.500000 0.067136 0.500000
O O10 0.518939 0.925688 0.721815
O O11 0.213233 0.125394 0.904831
O O12 0.923902 0.320125 0.178323
O O13 0.000000 0.871263 0.500000
O O14 0.500000 0.881256 0.000000
O O15 0.000000 0.577227 0.500000
O O16 0.278375 0.480474 0.497055
#
# Coordination Sequence:
#
# PCOD9113044 Si02
#       8
#     2   1   1   2   1   2   2   2
#     4  11  27  49  78 105 147 199 249 318 385 437
#     4  10  22  42  72 106 146 192 256 318 368 454
#     4  10  20  38  64 104 144 198 234 296 368 434
#     4  11  25  48  69 105 153 196 251 309 374 450
#     4  12  26  38  70 110 158 198 238 306 384 468
#     4  10  24  40  73 103 146 197 248 298 360 444
#     4  10  24  46  75 104 144 193 259 318 373 447
#     4  11  23  39  67 110 146 195 243 302 382 446
#
# _framework density 25.915991000000002
#
# number of rings (size 3 to 8) (size 9 to 14) (size 15 to 20)
#    0.462    0.923    3.077    1.846   10.769    1.231 
#    0.000    6.154    1.692    0.000    0.000    0.000 
#    0.000    0.000    0.000    0.000    0.000    0.000 
#
# Total GULP energy -72436.515189 kJ/mol
# GULP energy per Si atom -5572.039630 kJ/mol
# Density = 2.585700 g / cm^3
# Si number density = 25.915991 Si / 1000 Ang^3
#
#
#
# Elastic Constant Matrix: (Units=GPa)
#
#
# Indices 1 2 3 4 5 6 
#
# 1 68.3656 33.8232 54.3607 0.0000 36.3502 0.0000
# 2 33.8232 126.9860 67.2045 0.0000 38.4932 0.0000
# 3 54.3607 67.2045 201.1693 0.0000 37.5595 0.0000
# 4 0.0000 0.0000 0.0000 128.0141 0.0000 54.3668
# 5 36.3502 38.4932 37.5595 0.0000 49.7152 0.0000
# 6 0.0000 0.0000 0.0000 54.3668 0.0000 42.7638
#
#
#
# Elastic Compliance Matrix: (Units=1/GPa)
#
#
# Indices 1 2 3 4 5 6 
#
# 1 0.026596 0.000077 -0.004157 0.000000 -0.016365 0.000000
# 2 0.000077 0.011265 -0.002497 0.000000 -0.006892 0.000000
# 3 -0.004157 -0.002497 0.006985 0.000000 -0.000304 0.000000
# 4 0.000000 0.000000 0.000000 0.016979 0.000000 -0.021586
# 5 -0.016365 -0.006892 -0.000304 0.000000 0.037646 0.000000
# 6 0.000000 0.000000 0.000000 -0.021586 0.000000 0.050827
#
#
# Mechanical properties :
#
#
# Convention : Reuss Voigt Hill
#
# Bulk Modulus (GPa) = 31.55440 78.58861 55.07151
# Shear Modulus (GPa) = 28.73262 60.17410 44.45336
#
# Velocity S-wave (km/s) = 3.33330 4.82383 4.14610
# Velocity P-wave (km/s) = 5.19775 7.83683 6.64953
#
# Compressibility (1/GPa) = 0.03169130
#
# Stress axis : x y z
#
# Youngs Moduli (GPa) = 37.59953 88.76899 143.15614
#
# Poissons Ratio (x) = -0.00682 0.59511
# Poissons Ratio (y) = -0.00289 0.35751
# Poissons Ratio (z) = 0.15630 0.22169
#
# Static dielectric constant tensor:
#      x y z
#    x 2.168590 0.000000 0.047730 
#    y 0.000000 1.978870 0.000000 
#    z 0.047730 0.000000 1.924370 
# 
# From -- ./inp_files/5920.got.cif
#   From: 2010.05.17/outbox.cif.g08.bks.cpg/sg3_3_cif.got.tgz:5920.got - 2010.06.03 18:33:08.
