data_PCOD9113439
_publ_section_title
;
Structure prediction by ZEFSAII (Michael W. Deem and Ramdas Pophale) SiO2 
 PCOD9113439
Probable space group: P 2
;
_chemical_formula_sum "Si O2"
_cell_formula_units_Z 13
_cell_length_a 8.271491
_cell_length_b 8.591601
_cell_length_c 7.942679
_cell_angle_alpha 90.000000
_cell_angle_beta 112.890538
_cell_angle_gamma 90.000000
_cell_volume 519.998691
_symmetry_space_group_name_H-M "P 2"
_symmetry_group_IT_number 3
_symmetry_cell_setting 'monoclinic'
loop_
_space_group_symop_operation_xyz
x,y,z
-x,y,-z
loop_
_atom_site_type_symbol
_atom_site_label
_atom_site_fract_x
_atom_site_fract_y
_atom_site_fract_z
Si Si1 0.157138 0.274730 0.434127
Si Si2 0.926355 0.470785 0.130678
Si Si3 0.746062 0.599333 0.365831
Si Si4 0.500000 0.189819 0.500000
Si Si5 0.500000 0.729256 0.000000
Si Si6 0.000000 0.857950 0.500000
Si Si7 0.645668 0.241709 0.920251
Si Si8 0.852616 0.933182 0.077479
O O1 0.252906 0.437672 0.531102
O O2 0.302938 0.140085 0.481726
O O3 0.000000 0.244704 0.500000
O O4 0.059583 0.330364 0.226386
O O5 0.894461 0.568904 0.282458
O O6 0.740811 0.397067 0.015707
O O7 0.000000 0.556198 0.000000
O O8 0.826976 0.753392 0.481860
O O9 0.568589 0.636105 0.192603
O O10 0.566712 0.259352 0.703499
O O11 0.324930 0.826901 0.980884
O O12 0.935944 0.939279 0.299966
O O13 0.500000 0.206250 0.000000
O O14 0.779068 0.098925 0.986833
O O15 0.000000 0.888421 0.000000
#
# Coordination Sequence:
#
# PCOD9113439 Si02
#       8
#     2   2   2   1   1   1   2   2
#     4  10  21  42  61 100 140 179 223 272 346 420
#     4  11  21  39  68 101 144 182 223 278 355 422
#     4  10  21  41  68 101 139 175 230 289 344 418
#     4  12  26  42  70 106 144 180 232 278 358 430
#     4  10  24  46  70  98 140 180 234 302 336 406
#     4  10  22  48  70  96 138 182 240 288 340 404
#     4  12  26  46  71 105 145 184 232 295 351 415
#     4  11  26  51  73 100 132 192 243 288 349 410
#
# _framework density 25.000064999999999
#
# number of rings (size 3 to 8) (size 9 to 14) (size 15 to 20)
#    0.000    1.231    4.615    2.308    3.231    3.692 
#    6.923    0.000    0.000    0.000    0.000    0.000 
#    0.000    0.000    0.000    0.000    0.000    0.000 
#
# Total GULP energy -72528.450435 kJ/mol
# GULP energy per Si atom -5579.111572 kJ/mol
# Density = 2.494316 g / cm^3
# Si number density = 25.000065 Si / 1000 Ang^3
#
#
#
# Elastic Constant Matrix: (Units=GPa)
#
#
# Indices 1 2 3 4 5 6 
#
# 1 157.4918 31.0538 47.3282 0.0000 10.5626 0.0000
# 2 31.0538 83.2625 44.7941 0.0000 11.7126 0.0000
# 3 47.3282 44.7941 192.2838 0.0000 18.7155 0.0000
# 4 0.0000 0.0000 0.0000 11.7119 0.0000 11.1684
# 5 10.5626 11.7126 18.7155 0.0000 52.6820 0.0000
# 6 0.0000 0.0000 0.0000 11.1684 0.0000 16.3374
#
#
#
# Elastic Compliance Matrix: (Units=1/GPa)
#
#
# Indices 1 2 3 4 5 6 
#
# 1 0.007142 -0.001907 -0.001259 0.000000 -0.000561 0.000000
# 2 -0.001907 0.014444 -0.002714 0.000000 -0.001865 0.000000
# 3 -0.001259 -0.002714 0.006276 0.000000 -0.001374 0.000000
# 4 0.000000 0.000000 0.000000 0.245271 0.000000 -0.167668
# 5 -0.000561 -0.001865 -0.001374 0.000000 0.019997 0.000000
# 6 0.000000 0.000000 0.000000 -0.167668 0.000000 0.175828
#
#
# Mechanical properties :
#
#
# Convention : Reuss Voigt Hill
#
# Bulk Modulus (GPa) = 62.10550 75.48781 68.79665
# Shear Modulus (GPa) = 10.28626 36.80373 23.54499
#
# Velocity S-wave (km/s) = 2.03062 3.84102 3.07220
# Velocity P-wave (km/s) = 5.51307 7.06624 6.33742
#
# Compressibility (1/GPa) = 0.01610163
#
# Stress axis : x y z
#
# Youngs Moduli (GPa) = 140.02582 69.23321 159.32566
#
# Poissons Ratio (x) = 0.13206 0.20057
# Poissons Ratio (y) = 0.26709 0.43239
# Poissons Ratio (z) = 0.17628 0.18789
#
# Static dielectric constant tensor:
#      x y z
#    x 2.069160 0.000000 0.015630 
#    y 0.000000 2.083060 0.000000 
#    z 0.015630 0.000000 1.983630 
# 
# From -- ./inp_files/5656.got.cif
#   From: 2010.05.17/outbox.cif.g08.bks.cpg/sg3_3_cif.got.tgz:5656.got - 2010.06.03 18:33:08.
