data_PCOD9113361
_publ_section_title
;
Structure prediction by ZEFSAII (Michael W. Deem and Ramdas Pophale) SiO2 
 PCOD9113361
Probable space group: P 2
;
_chemical_formula_sum "Si O2"
_cell_formula_units_Z 13
_cell_length_a 8.397230
_cell_length_b 10.061868
_cell_length_c 11.929383
_cell_angle_alpha 90.000000
_cell_angle_beta 35.303428
_cell_angle_gamma 90.000000
_cell_volume 582.492302
_symmetry_space_group_name_H-M "P 2"
_symmetry_group_IT_number 3
_symmetry_cell_setting 'monoclinic'
loop_
_space_group_symop_operation_xyz
x,y,z
-x,y,-z
loop_
_atom_site_type_symbol
_atom_site_label
_atom_site_fract_x
_atom_site_fract_y
_atom_site_fract_z
Si Si1 0.169802 0.338110 0.559983
Si Si2 0.138506 0.052487 0.580618
Si Si3 0.000000 0.576931 0.500000
Si Si4 0.736060 0.989892 0.233721
Si Si5 0.835886 0.700051 0.210887
Si Si6 0.805323 0.785245 0.780981
Si Si7 0.219407 0.403981 0.775546
O O1 0.083576 0.363936 0.737038
O O2 0.501759 0.322680 0.367475
O O3 0.118329 0.471160 0.520152
O O4 0.032637 0.197977 0.607022
O O5 0.446077 0.039909 0.353746
O O6 0.184590 0.050272 0.690424
O O7 0.953214 0.923684 0.662944
O O8 0.804373 0.677879 0.681019
O O9 0.666817 0.834725 0.297305
O O10 0.000000 0.001860 0.000000
O O11 0.693990 0.557887 0.291018
O O12 0.024515 0.721552 0.212213
O O13 0.000000 0.697984 0.000000
O O14 0.500000 0.812898 0.000000
O O15 0.000000 0.389977 0.000000
#
# Coordination Sequence:
#
# PCOD9113361 Si02
#       7
#     2   2   1   2   2   2   2
#     4  11  25  42  64  99 136 172 221 272 342 401
#     4  10  23  41  63  98 135 173 223 277 331 404
#     4  12  28  44  66  92 138 182 226 278 326 402
#     4   9  18  35  67 102 133 165 218 282 340 392
#     4   9  19  36  66 100 128 161 223 277 332 383
#     4  11  26  46  68  97 135 182 232 277 329 394
#     4  10  21  39  69 100 131 172 215 278 337 404
#
# _framework density 22.317890999999999
#
# number of rings (size 3 to 8) (size 9 to 14) (size 15 to 20)
#    0.000    1.846    1.538    1.846    6.462    6.769 
#    0.000    2.308    0.000    0.000    0.000    0.000 
#    0.000    0.000    0.000    0.000    0.000    0.000 
#
# Total GULP energy -72561.184293 kJ/mol
# GULP energy per Si atom -5581.629561 kJ/mol
# Density = 2.226709 g / cm^3
# Si number density = 22.317891 Si / 1000 Ang^3
#
#
#
# Elastic Constant Matrix: (Units=GPa)
#
#
# Indices 1 2 3 4 5 6 
#
# 1 51.8945 38.4733 36.5694 0.0000 15.1600 0.0000
# 2 38.4733 190.9850 39.2639 0.0000 0.5311 0.0000
# 3 36.5694 39.2639 161.7457 0.0000 13.3742 0.0000
# 4 0.0000 0.0000 0.0000 16.8995 0.0000 1.6570
# 5 15.1600 0.5311 13.3742 0.0000 31.2580 0.0000
# 6 0.0000 0.0000 0.0000 1.6570 0.0000 -30.9799
#
#
#
# Elastic Compliance Matrix: (Units=1/GPa)
#
#
# Indices 1 2 3 4 5 6 
#
# 1 0.029811 -0.005049 -0.004485 0.000000 -0.012454 0.000000
# 2 -0.005049 0.006374 -0.000621 0.000000 0.002606 0.000000
# 3 -0.004485 -0.000621 0.007429 0.000000 -0.000993 0.000000
# 4 0.000000 0.000000 0.000000 0.058865 0.000000 0.003148
# 5 -0.012454 0.002606 -0.000993 0.000000 0.038412 0.000000
# 6 0.000000 0.000000 0.000000 0.003148 0.000000 -0.032111
#
#
# Mechanical properties :
#
#
# Convention : Reuss Voigt Hill
#
# Bulk Modulus (GPa) = 42.90947 70.35981 56.63464
# Shear Modulus (GPa) = 36.53408 22.79010 29.66209
#
# Velocity S-wave (km/s) = 4.05036 3.19902 3.64960
# Velocity P-wave (km/s) = 6.41421 6.72604 6.57198
#
# Compressibility (1/GPa) = 0.02330488
#
# Stress axis : x y z
#
# Youngs Moduli (GPa) = 33.54429 156.89896 134.59990
#
# Poissons Ratio (x) = 0.79214 0.60365
# Poissons Ratio (y) = 0.16936 0.08361
# Poissons Ratio (z) = 0.15044 0.09746
#
# Static dielectric constant tensor:
#      x y z
#    x 1.861380 0.000000 0.038750 
#    y 0.000000 1.854370 0.000000 
#    z 0.038750 0.000000 1.830880 
# 
# From -- ./inp_files/10635.got.cif
#   From: 2010.05.17/outbox.cif.g08.bks.cpg/sg3_6_cif.got.tgz:10635.got - 2010.06.03 18:33:08.
