data_PCOD9113815
_publ_section_title
;
Structure prediction by ZEFSAII (Michael W. Deem and Ramdas Pophale) SiO2 
 PCOD9113815
Probable space group: P 2
;
_chemical_formula_sum "Si O2"
_cell_formula_units_Z 14
_cell_length_a 16.581339
_cell_length_b 6.319582
_cell_length_c 8.989851
_cell_angle_alpha 90.000000
_cell_angle_beta 39.227445
_cell_angle_gamma 90.000000
_cell_volume 595.734298
_symmetry_space_group_name_H-M "P 2"
_symmetry_group_IT_number 3
_symmetry_cell_setting 'monoclinic'
loop_
_space_group_symop_operation_xyz
x,y,z
-x,y,-z
loop_
_atom_site_type_symbol
_atom_site_label
_atom_site_fract_x
_atom_site_fract_y
_atom_site_fract_z
Si Si1 0.763806 0.766130 0.159839
Si Si2 0.500000 0.150964 0.000000
Si Si3 0.726071 0.498132 0.665659
Si Si4 0.572687 0.798493 0.671714
Si Si5 0.065339 0.184853 0.637955
Si Si6 0.809235 0.107487 0.850723
Si Si7 0.656001 0.492463 0.084870
Si Si8 0.000000 0.875377 0.000000
O O1 0.655745 0.875441 0.414330
O O2 0.704891 0.556067 0.176726
O O3 0.888364 0.744980 0.081546
O O4 0.794294 0.899805 0.969387
O O5 0.505236 0.988090 0.854573
O O6 0.619975 0.309663 0.814425
O O7 0.669723 0.685279 0.648082
O O8 0.858313 0.395401 0.426999
O O9 0.737657 0.561503 0.822128
O O10 0.475561 0.614479 0.757692
O O11 0.144745 0.085279 0.385135
O O12 0.925731 0.228034 0.768921
O O13 0.054917 0.026882 0.791130
O O14 0.680213 0.242570 0.044774
#
# Coordination Sequence:
#
# PCOD9113815 Si02
#       8
#     2   1   2   2   2   2   2   1
#     4  11  26  42  67  95 140 172 227 287 332 403
#     4  12  22  42  70  94 134 184 224 286 346 396
#     4  11  23  43  71  96 134 182 223 290 334 410
#     4  12  25  43  64 107 133 178 236 274 340 415
#     4   9  20  41  73  96 131 171 237 267 342 409
#     4   9  22  45  66  97 131 185 219 282 339 398
#     4  11  23  43  63  98 135 173 231 270 340 408
#     4  10  22  46  66 108 126 178 232 280 342 404
#
# _framework density 23.500409999999999
#
# number of rings (size 3 to 8) (size 9 to 14) (size 15 to 20)
#    0.000    1.429    2.857    1.286    4.000    5.714 
#    2.571   10.714    0.000    0.000    0.000    0.000 
#    0.000    0.000    0.000    0.000    0.000    0.000 
#
# Total GULP energy -78227.686409 kJ/mol
# GULP energy per Si atom -5587.691886 kJ/mol
# Density = 2.344692 g / cm^3
# Si number density = 23.500410 Si / 1000 Ang^3
#
#
#
# Elastic Constant Matrix: (Units=GPa)
#
#
# Indices 1 2 3 4 5 6 
#
# 1 120.3933 45.7915 34.9600 0.0000 19.1412 0.0000
# 2 45.7915 46.8099 29.4881 0.0000 1.1782 0.0000
# 3 34.9600 29.4881 88.8499 0.0000 9.4962 0.0000
# 4 0.0000 0.0000 0.0000 33.1966 0.0000 -6.4931
# 5 19.1412 1.1782 9.4962 0.0000 34.1456 0.0000
# 6 0.0000 0.0000 0.0000 -6.4931 0.0000 40.1864
#
#
#
# Elastic Compliance Matrix: (Units=1/GPa)
#
#
# Indices 1 2 3 4 5 6 
#
# 1 0.015133 -0.014395 -0.000333 0.000000 -0.007894 0.000000
# 2 -0.014395 0.040790 -0.008848 0.000000 0.009123 0.000000
# 3 -0.000333 -0.008848 0.014707 0.000000 -0.003598 0.000000
# 4 0.000000 0.000000 0.000000 0.031107 0.000000 0.005026
# 5 -0.007894 0.009123 -0.003598 0.000000 0.034397 0.000000
# 6 0.000000 0.000000 0.000000 0.005026 0.000000 0.025696
#
#
# Mechanical properties :
#
#
# Convention : Reuss Voigt Hill
#
# Bulk Modulus (GPa) = 42.59636 52.94802 47.77219
# Shear Modulus (GPa) = 23.06175 31.22665 27.14420
#
# Velocity S-wave (km/s) = 3.13602 3.64918 3.40229
# Velocity P-wave (km/s) = 5.59267 6.35098 5.98385
#
# Compressibility (1/GPa) = 0.02347618
#
# Stress axis : x y z
#
# Youngs Moduli (GPa) = 66.08005 24.51607 67.99367
#
# Poissons Ratio (x) = 0.35292 0.02265
# Poissons Ratio (y) = 0.95124 0.60163
# Poissons Ratio (z) = 0.02202 0.21693
#
# Static dielectric constant tensor:
#      x y z
#    x 1.922780 0.000000 -0.014030 
#    y 0.000000 1.901610 0.000000 
#    z -0.014030 0.000000 1.891410 
# 
# From -- ./inp_files/8834.got.cif
#   From: 2010.05.17/outbox.cif.g08.bks.cpg/sg3_5_cif.got.tgz:8834.got - 2010.06.03 18:33:08.
