data_PCOD9113824
_publ_section_title
;
Structure prediction by ZEFSAII (Michael W. Deem and Ramdas Pophale) SiO2 
 PCOD9113824
Probable space group: P 2
;
_chemical_formula_sum "Si O2"
_cell_formula_units_Z 14
_cell_length_a 8.735650
_cell_length_b 9.880322
_cell_length_c 8.191830
_cell_angle_alpha 90.000000
_cell_angle_beta 120.459681
_cell_angle_gamma 90.000000
_cell_volume 609.463243
_symmetry_space_group_name_H-M "P 2"
_symmetry_group_IT_number 3
_symmetry_cell_setting 'monoclinic'
loop_
_space_group_symop_operation_xyz
x,y,z
-x,y,-z
loop_
_atom_site_type_symbol
_atom_site_label
_atom_site_fract_x
_atom_site_fract_y
_atom_site_fract_z
Si Si1 0.309140 0.952360 0.984766
Si Si2 0.223497 0.401468 0.772124
Si Si3 0.988281 0.135237 0.311805
Si Si4 0.819986 0.715006 0.309151
Si Si5 0.555421 0.752803 0.713660
Si Si6 0.687771 0.289875 0.536608
Si Si7 0.214863 0.486130 0.119008
O O1 0.212916 0.821197 0.852800
O O2 0.162373 0.067114 0.878889
O O3 0.500000 0.984196 0.000000
O O4 0.362879 0.896226 0.189137
O O5 0.069158 0.291745 0.701966
O O6 0.162460 0.555964 0.718898
O O7 0.315475 0.347644 0.652931
O O8 0.292830 0.410008 0.998299
O O9 0.000000 0.073272 0.500000
O O10 0.188159 0.158789 0.368214
O O11 0.629586 0.726594 0.293877
O O12 0.000000 0.753038 0.500000
O O13 0.500000 0.750945 0.500000
O O14 0.691040 0.631350 0.823734
O O15 0.500000 0.246458 0.500000
O O16 0.741448 0.408969 0.690220
O O17 0.000000 0.495790 0.000000
#
# Coordination Sequence:
#
# PCOD9113824 Si02
#       7
#     2   2   2   2   2   2   2
#     4  10  23  46  72 103 138 195 252 298 364 446
#     4  11  23  42  75 107 146 194 238 295 375 432
#     4  10  22  46  73 103 146 196 246 301 368 442
#     4  11  22  41  74 106 141 186 244 296 374 447
#     4  11  25  42  72 107 149 186 246 314 371 431
#     4  11  24  43  72 113 156 187 240 304 376 449
#     4  12  24  41  73 114 153 188 245 307 364 442
#
# _framework density 22.971032000000001
#
# number of rings (size 3 to 8) (size 9 to 14) (size 15 to 20)
#    0.000    1.143    2.857    3.857    2.000    1.714 
#    7.714    0.000   34.571    0.000    0.000    0.000 
#    0.000    0.000    0.000    0.000    0.000    0.000 
#
# Total GULP energy -78098.107188 kJ/mol
# GULP energy per Si atom -5578.436228 kJ/mol
# Density = 2.291875 g / cm^3
# Si number density = 22.971032 Si / 1000 Ang^3
#
#
#
# Elastic Constant Matrix: (Units=GPa)
#
#
# Indices 1 2 3 4 5 6 
#
# 1 123.5565 45.3461 62.9323 0.0000 22.1876 0.0000
# 2 45.3461 88.6044 26.7752 0.0000 15.4388 0.0000
# 3 62.9323 26.7752 109.3597 0.0000 9.0569 0.0000
# 4 0.0000 0.0000 0.0000 20.1217 0.0000 12.4407
# 5 22.1876 15.4388 9.0569 0.0000 49.2476 0.0000
# 6 0.0000 0.0000 0.0000 12.4407 0.0000 14.4827
#
#
#
# Elastic Compliance Matrix: (Units=1/GPa)
#
#
# Indices 1 2 3 4 5 6 
#
# 1 0.013655 -0.004406 -0.006483 0.000000 -0.003579 0.000000
# 2 -0.004406 0.014169 -0.000742 0.000000 -0.002321 0.000000
# 3 -0.006483 -0.000742 0.012993 0.000000 0.000764 0.000000
# 4 0.000000 0.000000 0.000000 0.105987 0.000000 -0.091043
# 5 -0.003579 -0.002321 0.000764 0.000000 0.022505 0.000000
# 6 0.000000 0.000000 0.000000 -0.091043 0.000000 0.147254
#
#
# Mechanical properties :
#
#
# Convention : Reuss Voigt Hill
#
# Bulk Modulus (GPa) = 56.95749 65.73642 61.34695
# Shear Modulus (GPa) = 14.46437 29.20154 21.83296
#
# Velocity S-wave (km/s) = 2.51206 3.56930 3.08629
# Velocity P-wave (km/s) = 5.76742 6.75765 6.28207
#
# Compressibility (1/GPa) = 0.01755695
#
# Stress axis : x y z
#
# Youngs Moduli (GPa) = 73.23309 70.57465 76.96395
#
# Poissons Ratio (x) = 0.31094 0.49895
# Poissons Ratio (y) = 0.32265 0.05708
# Poissons Ratio (z) = 0.47476 0.05234
#
# Static dielectric constant tensor:
#      x y z
#    x 1.909920 0.000000 0.009010 
#    y 0.000000 1.841060 0.000000 
#    z 0.009010 0.000000 1.925930 
# 
# From -- ./inp_files/5653.got.cif
#   From: 2010.05.17/outbox.cif.g08.bks.cpg/sg3_3_cif.got.tgz:5653.got - 2010.06.03 18:33:08.
