data_PCOD9113854
_publ_section_title
;
Structure prediction by ZEFSAII (Michael W. Deem and Ramdas Pophale) SiO2 
 PCOD9113854
Probable space group: P 2
;
_chemical_formula_sum "Si O2"
_cell_formula_units_Z 12
_cell_length_a 12.870000
_cell_length_b 7.251893
_cell_length_c 7.508736
_cell_angle_alpha 90.000000
_cell_angle_beta 129.527220
_cell_angle_gamma 90.000000
_cell_volume 540.546006
_symmetry_space_group_name_H-M "P 2"
_symmetry_group_IT_number 3
_symmetry_cell_setting 'monoclinic'
loop_
_space_group_symop_operation_xyz
x,y,z
-x,y,-z
loop_
_atom_site_type_symbol
_atom_site_label
_atom_site_fract_x
_atom_site_fract_y
_atom_site_fract_z
Si Si1 0.994739 0.879230 0.193532
Si Si2 0.832476 0.559304 0.137081
Si Si3 0.137792 0.148196 0.740670
Si Si4 0.284272 0.066116 0.563536
Si Si5 0.637731 0.679238 0.242138
Si Si6 0.345505 0.426250 0.398760
O O1 0.867940 0.017243 0.093901
O O2 0.958318 0.694490 0.255350
O O3 0.137434 0.979562 0.366737
O O4 0.000000 0.813378 0.000000
O O5 0.744498 0.512018 0.861355
O O6 0.884519 0.357734 0.239174
O O7 0.744533 0.651425 0.199096
O O8 0.261858 0.144551 0.740283
O O9 0.000000 0.074447 0.500000
O O10 0.316377 0.220917 0.450931
O O11 0.376924 0.887301 0.696272
O O12 0.673044 0.555263 0.449572
O O13 0.500000 0.618125 0.000000
O O14 0.500000 0.427823 0.500000
#
# Coordination Sequence:
#
# PCOD9113854 Si02
#       6
#     2   2   2   2   2   2
#     4  11  24  43  68 106 143 185 244 304 370 443
#     4  12  25  44  76 103 147 191 241 307 374 442
#     4  10  23  39  69 102 139 188 235 293 370 436
#     4  11  25  46  72 106 149 190 249 307 370 441
#     4  12  26  47  73 104 147 194 250 308 376 446
#     4  12  27  48  73 112 148 199 254 308 367 448
#
# _framework density 22.199776
#
# number of rings (size 3 to 8) (size 9 to 14) (size 15 to 20)
#    0.000    0.667    5.000    2.000    2.333    6.000 
#    3.000    0.000    0.000    0.000    0.000    0.000 
#    0.000    0.000    0.000    0.000    0.000    0.000 
#
# Total GULP energy -66885.803630 kJ/mol
# GULP energy per Si atom -5573.816969 kJ/mol
# Density = 2.214925 g / cm^3
# Si number density = 22.199776 Si / 1000 Ang^3
#
#
#
# Elastic Constant Matrix: (Units=GPa)
#
#
# Indices 1 2 3 4 5 6 
#
# 1 80.9069 6.8676 32.9155 0.0000 -25.3324 0.0000
# 2 6.8676 122.4012 12.8604 0.0000 -19.0973 0.0000
# 3 32.9155 12.8604 93.1186 0.0000 -20.0329 0.0000
# 4 0.0000 0.0000 0.0000 31.8869 0.0000 -3.2834
# 5 -25.3324 -19.0973 -20.0329 0.0000 26.4905 0.0000
# 6 0.0000 0.0000 0.0000 -3.2834 0.0000 36.4424
#
#
#
# Elastic Compliance Matrix: (Units=1/GPa)
#
#
# Indices 1 2 3 4 5 6 
#
# 1 0.018827 0.001927 -0.003283 0.000000 0.016910 0.000000
# 2 0.001927 0.009405 -0.000149 0.000000 0.008510 0.000000
# 3 -0.003283 -0.000149 0.013402 0.000000 0.006888 0.000000
# 4 0.000000 0.000000 0.000000 0.031654 0.000000 0.002852
# 5 0.016910 0.008510 0.006888 0.000000 0.065264 0.000000
# 6 0.000000 0.000000 0.000000 0.002852 0.000000 0.027698
#
#
# Mechanical properties :
#
#
# Convention : Reuss Voigt Hill
#
# Bulk Modulus (GPa) = 25.89127 44.63486 35.26306
# Shear Modulus (GPa) = 27.45220 35.21617 31.33419
#
# Velocity S-wave (km/s) = 3.52034 3.98720 3.76102
# Velocity P-wave (km/s) = 5.31149 6.43013 5.89740
#
# Compressibility (1/GPa) = 0.03862306
#
# Stress axis : x y z
#
# Youngs Moduli (GPa) = 53.11637 106.32419 74.61637
#
# Poissons Ratio (x) = -0.20488 0.24497
# Poissons Ratio (y) = -0.10235 0.01114
# Poissons Ratio (z) = 0.17438 0.01587
#
# Static dielectric constant tensor:
#      x y z
#    x 1.843750 0.000000 -0.078750 
#    y 0.000000 1.805360 0.000000 
#    z -0.078750 0.000000 1.867420 
# 
# From -- ./inp_files/8351.got.cif
#   From: 2010.05.17/outbox.cif.g08.bks.cpg/sg3_5_cif.got.tgz:8351.got - 2010.06.03 18:33:08.
