data_PCOD9113096
_publ_section_title
;
Structure prediction by ZEFSAII (Michael W. Deem and Ramdas Pophale) SiO2 
 PCOD9113096
Probable space group: P 2
;
_chemical_formula_sum "Si O2"
_cell_formula_units_Z 14
_cell_length_a 7.165562
_cell_length_b 9.616485
_cell_length_c 10.278835
_cell_angle_alpha 90.000000
_cell_angle_beta 46.360062
_cell_angle_gamma 90.000000
_cell_volume 512.582382
_symmetry_space_group_name_H-M "P 2"
_symmetry_group_IT_number 3
_symmetry_cell_setting 'monoclinic'
loop_
_space_group_symop_operation_xyz
x,y,z
-x,y,-z
loop_
_atom_site_type_symbol
_atom_site_label
_atom_site_fract_x
_atom_site_fract_y
_atom_site_fract_z
Si Si1 0.924796 0.891140 0.764552
Si Si2 0.097666 0.496244 0.753422
Si Si3 0.564782 0.209361 0.748272
Si Si4 0.603909 0.518554 0.125427
Si Si5 0.319249 0.693540 0.431724
Si Si6 0.598675 0.910706 0.155905
Si Si7 0.911277 0.192144 0.335044
O O1 0.669569 0.909210 0.797973
O O2 0.098201 0.792984 0.593469
O O3 0.818496 0.849485 0.957187
O O4 0.079966 0.034163 0.716181
O O5 0.240621 0.543190 0.814902
O O6 0.253907 0.563308 0.559210
O O7 0.100029 0.328507 0.747788
O O8 0.798747 0.541347 0.913162
O O9 0.452948 0.355787 0.844231
O O10 0.680534 0.210009 0.548267
O O11 0.816516 0.197189 0.718734
O O12 0.374156 0.077463 0.844802
O O13 0.356678 0.613957 0.275781
O O14 0.545225 0.812482 0.305718
#
# Coordination Sequence:
#
# PCOD9113096 Si02
#       7
#     2   2   2   2   2   2   2
#     4  10  21  38  62  94 130 165 205 259 318 374
#     4  11  25  44  65  91 126 169 214 260 313 373
#     4  10  20  39  68  98 126 160 207 261 315 372
#     4  11  25  44  65  91 126 169 214 260 313 373
#     4  12  22  38  60  86 123 170 209 252 305 368
#     4  10  21  38  62  94 130 165 205 259 318 374
#     4  10  20  39  68  98 126 160 207 261 315 372
#
# _framework density 27.312684000000001
#
# number of rings (size 3 to 8) (size 9 to 14) (size 15 to 20)
#    0.000    1.429    2.857    2.571    0.000    4.000 
#    0.000    2.857    0.000    6.857    0.000    0.000 
#    0.000    0.000    0.000    0.000    0.000    0.000 
#
# Total GULP energy -78267.099716 kJ/mol
# GULP energy per Si atom -5590.507123 kJ/mol
# Density = 2.725052 g / cm^3
# Si number density = 27.312684 Si / 1000 Ang^3
#
#
#
# Elastic Constant Matrix: (Units=GPa)
#
#
# Indices 1 2 3 4 5 6 
#
# 1 60.1235 18.5264 36.5811 0.0000 12.4577 0.0000
# 2 18.5264 229.7209 84.5319 0.0000 -13.1125 0.0000
# 3 36.5811 84.5319 210.7103 0.0000 -20.0484 0.0000
# 4 0.0000 0.0000 0.0000 19.4610 0.0000 -4.2309
# 5 12.4577 -13.1125 -20.0484 0.0000 20.2536 0.0000
# 6 0.0000 0.0000 0.0000 -4.2309 0.0000 4.9827
#
#
#
# Elastic Compliance Matrix: (Units=1/GPa)
#
#
# Indices 1 2 3 4 5 6 
#
# 1 0.025268 -0.001073 -0.006073 0.000000 -0.022248 0.000000
# 2 -0.001073 0.005189 -0.001670 0.000000 0.002366 0.000000
# 3 -0.006073 -0.001670 0.007422 0.000000 0.010001 0.000000
# 4 0.000000 0.000000 0.000000 0.063018 0.000000 0.053509
# 5 -0.022248 0.002366 0.010001 0.000000 0.074490 0.000000
# 6 0.000000 0.000000 0.000000 0.053509 0.000000 0.246127
#
#
# Mechanical properties :
#
#
# Convention : Reuss Voigt Hill
#
# Bulk Modulus (GPa) = 49.39206 86.64816 68.02011
# Shear Modulus (GPa) = 11.21337 33.00048 22.10693
#
# Velocity S-wave (km/s) = 2.02842 3.47976 2.84808
# Velocity P-wave (km/s) = 4.85892 6.92375 5.98111
#
# Compressibility (1/GPa) = 0.02024617
#
# Stress axis : x y z
#
# Youngs Moduli (GPa) = 39.57574 192.70092 134.73671
#
# Poissons Ratio (x) = 0.20676 0.81827
# Poissons Ratio (y) = 0.04246 0.22507
# Poissons Ratio (z) = 0.24035 0.32190
#
# Static dielectric constant tensor:
#      x y z
#    x 2.380050 0.000000 -0.116760 
#    y 0.000000 2.138720 0.000000 
#    z -0.116760 0.000000 2.135830 
# 
# From -- ./inp_files/10646.got.cif
#   From: 2010.05.17/outbox.cif.g08.bks.cpg/sg3_6_cif.got.tgz:10646.got - 2010.06.03 18:33:08.
