data_PCOD9113551
_publ_section_title
;
Structure prediction by ZEFSAII (Michael W. Deem and Ramdas Pophale) SiO2 
 PCOD9113551
Probable space group: P 2
;
_chemical_formula_sum "Si O2"
_cell_formula_units_Z 12
_cell_length_a 11.704424
_cell_length_b 9.401688
_cell_length_c 8.058965
_cell_angle_alpha 90.000000
_cell_angle_beta 40.336567
_cell_angle_gamma 90.000000
_cell_volume 574.017217
_symmetry_space_group_name_H-M "P 2"
_symmetry_group_IT_number 3
_symmetry_cell_setting 'monoclinic'
loop_
_space_group_symop_operation_xyz
x,y,z
-x,y,-z
loop_
_atom_site_type_symbol
_atom_site_label
_atom_site_fract_x
_atom_site_fract_y
_atom_site_fract_z
Si Si1 0.694367 0.099120 0.829269
Si Si2 0.708862 0.770247 0.757273
Si Si3 0.045307 0.727443 0.195406
Si Si4 0.000000 0.312931 0.500000
Si Si5 0.873229 0.431120 0.989524
Si Si6 0.000000 0.982943 0.000000
Si Si7 0.312921 0.152611 0.776405
O O1 0.844351 0.208896 0.610735
O O2 0.711933 0.942004 0.732720
O O3 0.500000 0.153570 0.000000
O O4 0.710383 0.093949 0.011319
O O5 0.841231 0.697396 0.477370
O O6 0.819793 0.744175 0.801680
O O7 0.500000 0.728724 0.000000
O O8 0.133454 0.601094 0.992337
O O9 0.028221 0.875665 0.120195
O O10 0.057541 0.401853 0.275160
O O11 0.710621 0.323224 0.186437
O O12 0.000000 0.387419 0.000000
O O13 0.831443 0.084098 0.184128
O O14 0.500000 0.112117 0.500000
#
# Coordination Sequence:
#
# PCOD9113551 Si02
#       7
#     2   2   2   1   2   1   2
#     4  10  22  37  64  97 125 165 221 271 334 384
#     4  10  22  40  66  96 131 171 219 278 331 394
#     4  11  23  43  65  95 132 174 219 273 335 402
#     4  10  22  40  64  92 128 178 218 276 322 396
#     4  11  24  45  67  95 136 177 224 273 340 399
#     4  12  24  40  68  96 132 172 218 276 334 394
#     4  11  26  43  66 100 133 172 225 279 332 399
#
# _framework density 20.905296
#
# number of rings (size 3 to 8) (size 9 to 14) (size 15 to 20)
#    0.000    1.333    3.333    2.000    9.333    0.000 
#    3.000    5.000    0.000    0.000    0.000    0.000 
#    0.000    0.000    0.000    0.000    0.000    0.000 
#
# Total GULP energy -66919.086784 kJ/mol
# GULP energy per Si atom -5576.590565 kJ/mol
# Density = 2.085771 g / cm^3
# Si number density = 20.905296 Si / 1000 Ang^3
#
#
#
# Elastic Constant Matrix: (Units=GPa)
#
#
# Indices 1 2 3 4 5 6 
#
# 1 85.3497 12.0866 19.2341 0.0000 -21.4346 0.0000
# 2 12.0866 83.6350 23.7613 0.0000 -18.7152 0.0000
# 3 19.2341 23.7613 53.5587 0.0000 -28.0181 0.0000
# 4 0.0000 0.0000 0.0000 -30.4960 0.0000 64.1459
# 5 -21.4346 -18.7152 -28.0181 0.0000 43.7382 0.0000
# 6 0.0000 0.0000 0.0000 64.1459 0.0000 -91.3548
#
#
#
# Elastic Compliance Matrix: (Units=1/GPa)
#
#
# Indices 1 2 3 4 5 6 
#
# 1 0.013518 -0.000206 -0.002021 0.000000 0.005242 0.000000
# 2 -0.000206 0.013943 -0.004578 0.000000 0.002933 0.000000
# 3 -0.002021 -0.004578 0.029907 0.000000 0.016209 0.000000
# 4 0.000000 0.000000 0.000000 0.068753 0.000000 0.048276
# 5 0.005242 0.002933 0.016209 0.000000 0.037070 0.000000
# 6 0.000000 0.000000 0.000000 0.048276 0.000000 0.022951
#
#
# Mechanical properties :
#
#
# Convention : Reuss Voigt Hill
#
# Bulk Modulus (GPa) = 22.85292 36.96750 29.91021
# Shear Modulus (GPa) = 23.32771 -4.45842 9.43464
#
# Velocity S-wave (km/s) = 3.34410 -1.46195 2.12670
# Velocity P-wave (km/s) = 5.08586 3.85642 4.51320
#
# Compressibility (1/GPa) = 0.04375809
#
# Stress axis : x y z
#
# Youngs Moduli (GPa) = 73.97816 71.71879 33.43694
#
# Poissons Ratio (x) = 0.01481 0.06757
# Poissons Ratio (y) = 0.01527 0.15306
# Poissons Ratio (z) = 0.14950 0.32830
#
# Static dielectric constant tensor:
#      x y z
#    x 1.768400 0.000000 0.126990 
#    y 0.000000 1.753260 0.000000 
#    z 0.126990 0.000000 1.963070 
# 
# From -- ./inp_files/7318.got.cif
#   From: 2010.05.17/outbox.cif.g08.bks.cpg/sg3_4_cif.got.tgz:7318.got - 2010.06.03 18:33:08.
