data_PCOD9113115
_publ_section_title
;
Structure prediction by ZEFSAII (Michael W. Deem and Ramdas Pophale) SiO2 
 PCOD9113115
Probable space group: P 2
;
_chemical_formula_sum "Si O2"
_cell_formula_units_Z 11
_cell_length_a 8.442360
_cell_length_b 4.899505
_cell_length_c 10.390450
_cell_angle_alpha 90.000000
_cell_angle_beta 76.299192
_cell_angle_gamma 90.000000
_cell_volume 417.555010
_symmetry_space_group_name_H-M "P 2"
_symmetry_group_IT_number 3
_symmetry_cell_setting 'monoclinic'
loop_
_space_group_symop_operation_xyz
x,y,z
-x,y,-z
loop_
_atom_site_type_symbol
_atom_site_label
_atom_site_fract_x
_atom_site_fract_y
_atom_site_fract_z
Si Si1 0.588003 0.673060 0.231125
Si Si2 0.673959 0.010940 0.975619
Si Si3 0.424114 0.203930 0.379608
Si Si4 0.937673 0.573586 0.260950
Si Si5 0.000000 0.942919 0.000000
Si Si6 0.876212 0.038517 0.684404
O O1 0.448573 0.450497 0.275391
O O2 0.745415 0.559259 0.276439
O O3 0.633114 0.753358 0.076297
O O4 0.530743 0.948015 0.312214
O O5 0.835222 0.120547 0.018618
O O6 0.500000 0.158416 0.000000
O O7 0.737363 0.965337 0.819157
O O8 0.500000 0.290343 0.500000
O O9 0.233300 0.128294 0.415097
O O10 0.992340 0.739649 0.122160
O O11 0.021030 0.286647 0.274222
O O12 0.006081 0.782821 0.353818
#
# Coordination Sequence:
#
# PCOD9113115 Si02
#       6
#     2   2   2   2   1   2
#     4  11  24  45  69 100 135 180 232 278 347 414
#     4  10  20  40  66 101 135 178 218 275 343 421
#     4  12  26  46  68  97 137 181 233 291 336 400
#     4  10  22  41  65  95 135 174 218 276 339 414
#     4   8  20  34  60  92 142 166 210 268 342 396
#     4  11  23  42  66  98 135 172 223 277 344 402
#
# _framework density 26.343836
#
# number of rings (size 3 to 8) (size 9 to 14) (size 15 to 20)
#    0.000    1.455    1.818    2.727    2.545    8.727 
#    0.000    5.455    0.000    0.000    0.000    0.000 
#    0.000    0.000    0.000    0.000    0.000    0.000 
#
# Total GULP energy -61544.353614 kJ/mol
# GULP energy per Si atom -5594.941238 kJ/mol
# Density = 2.628388 g / cm^3
# Si number density = 26.343836 Si / 1000 Ang^3
#
#
#
# Elastic Constant Matrix: (Units=GPa)
#
#
# Indices 1 2 3 4 5 6 
#
# 1 153.0760 17.0026 19.4184 0.0000 16.1863 0.0000
# 2 17.0026 127.0765 24.7244 0.0000 -11.5777 0.0000
# 3 19.4184 24.7244 94.1316 0.0000 9.9672 0.0000
# 4 0.0000 0.0000 0.0000 20.9560 0.0000 -2.0459
# 5 16.1863 -11.5777 9.9672 0.0000 35.4655 0.0000
# 6 0.0000 0.0000 0.0000 -2.0459 0.0000 44.0311
#
#
#
# Elastic Compliance Matrix: (Units=1/GPa)
#
#
# Indices 1 2 3 4 5 6 
#
# 1 0.007116 -0.001100 -0.000822 0.000000 -0.003376 0.000000
# 2 -0.001100 0.008886 -0.002543 0.000000 0.004118 0.000000
# 3 -0.000822 -0.002543 0.011862 0.000000 -0.003789 0.000000
# 4 0.000000 0.000000 0.000000 0.047936 0.000000 0.002227
# 5 -0.003376 0.004118 -0.003789 0.000000 0.032146 0.000000
# 6 0.000000 0.000000 0.000000 0.002227 0.000000 0.022815
#
#
# Mechanical properties :
#
#
# Convention : Reuss Voigt Hill
#
# Bulk Modulus (GPa) = 52.81159 55.17500 53.99329
# Shear Modulus (GPa) = 34.24589 40.96644 37.60616
#
# Velocity S-wave (km/s) = 3.60940 3.94771 3.78234
# Velocity P-wave (km/s) = 6.12054 6.46289 6.29404
#
# Compressibility (1/GPa) = 0.01893524
#
# Stress axis : x y z
#
# Youngs Moduli (GPa) = 140.52722 112.53157 84.30208
#
# Poissons Ratio (x) = 0.12377 0.06927
# Poissons Ratio (y) = 0.15456 0.21440
# Poissons Ratio (z) = 0.11546 0.28619
#
# Static dielectric constant tensor:
#      x y z
#    x 2.123760 0.000000 0.033110 
#    y 0.000000 1.965840 0.000000 
#    z 0.033110 0.000000 2.118940 
# 
# From -- ./inp_files/10113.got.cif
#   From: 2010.05.17/outbox.cif.g08.bks.cpg/sg3_6_cif.got.tgz:10113.got - 2010.06.03 18:33:08.
