data_PCOD9113774
_publ_section_title
;
Structure prediction by ZEFSAII (Michael W. Deem and Ramdas Pophale) SiO2 
 PCOD9113774
Probable space group: P 2
;
_chemical_formula_sum "Si O2"
_cell_formula_units_Z 15
_cell_length_a 23.562443
_cell_length_b 5.112826
_cell_length_c 5.266595
_cell_angle_alpha 90.000000
_cell_angle_beta 119.287073
_cell_angle_gamma 90.000000
_cell_volume 553.372036
_symmetry_space_group_name_H-M "P 2"
_symmetry_group_IT_number 3
_symmetry_cell_setting 'monoclinic'
loop_
_space_group_symop_operation_xyz
x,y,z
-x,y,-z
loop_
_atom_site_type_symbol
_atom_site_label
_atom_site_fract_x
_atom_site_fract_y
_atom_site_fract_z
Si Si1 0.429569 0.521110 0.284024
Si Si2 0.753326 0.450807 0.623825
Si Si3 0.682900 0.147027 0.107627
Si Si4 0.927564 0.608773 0.965639
Si Si5 0.619019 0.754468 0.334135
Si Si6 0.896972 0.104314 0.632832
Si Si7 0.000000 0.300212 0.500000
Si Si8 0.213990 0.933909 0.992107
O O1 0.500000 0.405571 0.500000
O O2 0.416903 0.736562 0.476322
O O3 0.373087 0.303112 0.157993
O O4 0.424746 0.647012 0.993762
O O5 0.741706 0.344615 0.312265
O O6 0.680383 0.562362 0.501375
O O7 0.793091 0.687574 0.836905
O O8 0.774441 0.192726 0.817878
O O9 0.650300 0.017823 0.286151
O O10 0.719656 0.921177 0.031621
O O11 0.885233 0.394458 0.717981
O O12 0.904877 0.902588 0.880367
O O13 0.942407 0.485542 0.270556
O O14 0.000000 0.596657 0.000000
O O15 0.965304 0.124671 0.633653
O O16 0.844973 0.981963 0.328504
#
# Coordination Sequence:
#
# PCOD9113774 Si02
#       8
#     2   2   2   2   2   2   1   2
#     4  11  25  46  75 114 154 201 262 325 391 468
#     4  11  24  45  72 105 148 193 252 304 384 456
#     4  11  26  46  75 104 155 201 252 322 387 464
#     4  10  22  44  68 103 141 188 250 301 377 445
#     4  11  23  46  75 107 151 203 253 316 391 462
#     4  11  25  44  70 108 146 192 255 312 372 461
#     4  10  24  48  76  98 150 204 238 322 382 448
#     4  12  25  47  73 108 154 195 254 317 384 461
#
# _framework density 27.106534
#
# number of rings (size 3 to 8) (size 9 to 14) (size 15 to 20)
#    0.000    1.067    2.667    3.200    1.867    6.400 
#    2.400    8.000    0.000    0.000    0.000    0.000 
#    0.000    0.000    0.000    0.000    0.000    0.000 
#
# Total GULP energy -84062.784025 kJ/mol
# GULP energy per Si atom -5604.185602 kJ/mol
# Density = 2.704484 g / cm^3
# Si number density = 27.106534 Si / 1000 Ang^3
#
#
#
# Elastic Constant Matrix: (Units=GPa)
#
#
# Indices 1 2 3 4 5 6 
#
# 1 75.7227 24.0927 45.3199 0.0000 -11.0299 0.0000
# 2 24.0927 168.7919 71.1356 0.0000 -3.1995 0.0000
# 3 45.3199 71.1356 171.6991 0.0000 18.4056 0.0000
# 4 0.0000 0.0000 0.0000 53.9542 0.0000 -13.5091
# 5 -11.0299 -3.1995 18.4056 0.0000 47.4890 0.0000
# 6 0.0000 0.0000 0.0000 -13.5091 0.0000 26.2361
#
#
#
# Elastic Compliance Matrix: (Units=1/GPa)
#
#
# Indices 1 2 3 4 5 6 
#
# 1 0.017183 -0.000193 -0.005093 0.000000 0.005952 0.000000
# 2 -0.000193 0.007315 -0.003159 0.000000 0.001672 0.000000
# 3 -0.005093 -0.003159 0.009001 0.000000 -0.004884 0.000000
# 4 0.000000 0.000000 0.000000 0.021277 0.000000 0.010956
# 5 0.005952 0.001672 -0.004884 0.000000 0.024446 0.000000
# 6 0.000000 0.000000 0.000000 0.010956 0.000000 0.043757
#
#
# Mechanical properties :
#
#
# Convention : Reuss Voigt Hill
#
# Bulk Modulus (GPa) = 60.21289 77.47890 68.84590
# Shear Modulus (GPa) = 34.38662 43.91357 39.15010
#
# Velocity S-wave (km/s) = 3.56557 4.02933 3.80452
# Velocity P-wave (km/s) = 6.26200 7.09172 6.68974
#
# Compressibility (1/GPa) = 0.01660774
#
# Stress axis : x y z
#
# Youngs Moduli (GPa) = 58.19734 136.70504 111.10043
#
# Poissons Ratio (x) = 0.02642 0.56588
# Poissons Ratio (y) = 0.01125 0.35095
# Poissons Ratio (z) = 0.29642 0.43184
#
# Static dielectric constant tensor:
#      x y z
#    x 2.169140 0.000000 0.000150 
#    y 0.000000 2.082920 0.000000 
#    z 0.000150 0.000000 2.154830 
# 
# From -- ./inp_files/4029.got.cif
#   From: 2010.05.17/outbox.cif.g08.bks.cpg/sg3_3_cif.got.tgz:4029.got - 2010.06.03 18:33:08.
