data_PCOD9113795
_publ_section_title
;
Structure prediction by ZEFSAII (Michael W. Deem and Ramdas Pophale) SiO2 
 PCOD9113795
Probable space group: P 2
;
_chemical_formula_sum "Si O2"
_cell_formula_units_Z 9
_cell_length_a 11.121686
_cell_length_b 4.904481
_cell_length_c 8.923146
_cell_angle_alpha 90.000000
_cell_angle_beta 46.990995
_cell_angle_gamma 90.000000
_cell_volume 355.914342
_symmetry_space_group_name_H-M "P 2"
_symmetry_group_IT_number 3
_symmetry_cell_setting 'monoclinic'
loop_
_space_group_symop_operation_xyz
x,y,z
-x,y,-z
loop_
_atom_site_type_symbol
_atom_site_label
_atom_site_fract_x
_atom_site_fract_y
_atom_site_fract_z
Si Si1 0.500000 0.402930 0.000000
Si Si2 0.713793 0.105395 0.288273
Si Si3 0.234378 0.309089 0.442605
Si Si4 0.952336 0.838867 0.302096
Si Si5 0.302386 0.635587 0.900126
O O1 0.654027 0.250605 0.795305
O O2 0.568757 0.573176 0.079998
O O3 0.662803 0.238566 0.491400
O O4 0.869193 0.929509 0.215699
O O5 0.740536 0.361515 0.156396
O O6 0.625471 0.870936 0.268327
O O7 0.162458 0.610710 0.523728
O O8 0.076481 0.114571 0.583053
O O9 0.135193 0.741496 0.119271
#
# Coordination Sequence:
#
# PCOD9113795 Si02
#       5
#     1   2   2   2   2
#     4  12  32  52  68 122 164 214 232 320 400 474
#     4  10  22  44  79 113 141 201 262 323 358 453
#     4  10  24  47  75 107 154 193 270 297 392 436
#     4  10  22  44  80 112 136 201 265 323 356 449
#     4  12  25  45  80 112 158 189 257 314 394 450
#
# _framework density 25.286984
#
# number of rings (size 3 to 8) (size 9 to 14) (size 15 to 20)
#    1.333    0.000    2.222    2.000    3.111    7.111 
#    4.000    2.222    0.000    0.000    0.000    0.000 
#    0.000    0.000    0.000    0.000    0.000    0.000 
#
# Total GULP energy -50296.280796 kJ/mol
# GULP energy per Si atom -5588.475644 kJ/mol
# Density = 2.522943 g / cm^3
# Si number density = 25.286984 Si / 1000 Ang^3
#
#
#
# Elastic Constant Matrix: (Units=GPa)
#
#
# Indices 1 2 3 4 5 6 
#
# 1 77.6374 -0.1917 -5.8497 0.0000 14.8327 0.0000
# 2 -0.1917 112.3937 2.0231 0.0000 7.3012 0.0000
# 3 -5.8497 2.0231 112.7780 0.0000 1.5504 0.0000
# 4 0.0000 0.0000 0.0000 18.2572 0.0000 -25.7519
# 5 14.8327 7.3012 1.5504 0.0000 46.0986 0.0000
# 6 0.0000 0.0000 0.0000 -25.7519 0.0000 -3.7306
#
#
#
# Elastic Compliance Matrix: (Units=1/GPa)
#
#
# Indices 1 2 3 4 5 6 
#
# 1 0.013802 0.000303 0.000773 0.000000 -0.004515 0.000000
# 2 0.000303 0.008999 -0.000125 0.000000 -0.001519 0.000000
# 3 0.000773 -0.000125 0.008917 0.000000 -0.000529 0.000000
# 4 0.000000 0.000000 0.000000 0.005102 0.000000 -0.035215
# 5 -0.004515 -0.001519 -0.000529 0.000000 0.023404 0.000000
# 6 0.000000 0.000000 0.000000 -0.035215 0.000000 -0.024966
#
#
# Mechanical properties :
#
#
# Convention : Reuss Voigt Hill
#
# Bulk Modulus (GPa) = 29.74559 32.75248 31.24904
# Shear Modulus (GPa) = 112.20638 32.58021 72.39329
#
# Velocity S-wave (km/s) = 6.66855 3.59335 5.35638
# Velocity P-wave (km/s) = 8.43098 5.49515 7.11611
#
# Compressibility (1/GPa) = 0.03361842
#
# Stress axis : x y z
#
# Youngs Moduli (GPa) = 72.45374 111.12708 112.15089
#
# Poissons Ratio (x) = -0.03366 -0.08664
# Poissons Ratio (y) = -0.02195 0.01400
# Poissons Ratio (z) = -0.05597 0.01387
#
# Static dielectric constant tensor:
#      x y z
#    x 2.077880 0.000000 0.001170 
#    y 0.000000 1.950240 0.000000 
#    z 0.001170 0.000000 2.051490 
# 
# From -- ./inp_files/6355.got.cif
#   From: 2010.05.17/outbox.cif.g08.bks.cpg/sg3_4_cif.got.tgz:6355.got - 2010.06.03 18:33:08.
