data_PCOD9113436
_publ_section_title
;
Structure prediction by ZEFSAII (Michael W. Deem and Ramdas Pophale) SiO2 
 PCOD9113436
Probable space group: P 2
;
_chemical_formula_sum "Si O2"
_cell_formula_units_Z 12
_cell_length_a 9.802987
_cell_length_b 6.257813
_cell_length_c 9.717564
_cell_angle_alpha 90.000000
_cell_angle_beta 105.030212
_cell_angle_gamma 90.000000
_cell_volume 575.732531
_symmetry_space_group_name_H-M "P 2"
_symmetry_group_IT_number 3
_symmetry_cell_setting 'monoclinic'
loop_
_space_group_symop_operation_xyz
x,y,z
-x,y,-z
loop_
_atom_site_type_symbol
_atom_site_label
_atom_site_fract_x
_atom_site_fract_y
_atom_site_fract_z
Si Si1 0.794513 0.515000 0.320519
Si Si2 0.574866 0.138629 0.270452
Si Si3 0.978763 0.174756 0.692677
Si Si4 0.766940 0.896441 0.119864
Si Si5 0.741624 0.038591 0.806800
Si Si6 0.756687 0.882739 0.522487
O O1 0.663630 0.355139 0.308025
O O2 0.764002 0.658528 0.178061
O O3 0.802654 0.673725 0.452628
O O4 0.936812 0.382986 0.329471
O O5 0.633788 0.022216 0.149340
O O6 0.407681 0.158280 0.225548
O O7 0.625025 0.983932 0.407609
O O8 0.867529 0.194524 0.789851
O O9 0.878715 0.064666 0.552313
O O10 0.096500 0.007408 0.775014
O O11 0.772324 0.928024 0.959166
O O12 0.731738 0.866575 0.678963
#
# Coordination Sequence:
#
# PCOD9113436 Si02
#       6
#     2   2   2   2   2   2
#     4  10  22  43  69 100 124 178 235 261 330 408
#     4  10  21  41  67  95 131 174 223 271 329 395
#     4   9  22  40  69  95 133 173 218 277 328 390
#     4  10  21  41  67  95 131 174 223 271 329 395
#     4  10  21  44  67  92 138 174 208 282 338 374
#     4   9  22  40  69  95 133 173 218 277 328 390
#
# _framework density 20.84301
#
# number of rings (size 3 to 8) (size 9 to 14) (size 15 to 20)
#    1.000    1.333    0.000    1.500    0.000    8.667 
#    0.000   33.333    7.333    0.000    0.000    0.000 
#    0.000    0.000    0.000    0.000    0.000    0.000 
#
# Total GULP energy -66969.367139 kJ/mol
# GULP energy per Si atom -5580.780595 kJ/mol
# Density = 2.079557 g / cm^3
# Si number density = 20.843010 Si / 1000 Ang^3
#
#
#
# Elastic Constant Matrix: (Units=GPa)
#
#
# Indices 1 2 3 4 5 6 
#
# 1 135.0253 45.4709 16.7998 0.0000 -6.3114 0.0000
# 2 45.4709 114.3281 44.7252 0.0000 -8.8044 0.0000
# 3 16.7998 44.7252 136.2192 0.0000 -19.1151 0.0000
# 4 0.0000 0.0000 0.0000 14.6932 0.0000 -1.2029
# 5 -6.3114 -8.8044 -19.1151 0.0000 31.4926 0.0000
# 6 0.0000 0.0000 0.0000 -1.2029 0.0000 9.4195
#
#
#
# Elastic Compliance Matrix: (Units=1/GPa)
#
#
# Indices 1 2 3 4 5 6 
#
# 1 0.008574 -0.003416 0.000187 0.000000 0.000877 0.000000
# 2 -0.003416 0.011419 -0.003253 0.000000 0.000533 0.000000
# 3 0.000187 -0.003253 0.009033 0.000000 0.004611 0.000000
# 4 0.000000 0.000000 0.000000 0.068778 0.000000 0.008783
# 5 0.000877 0.000533 0.004611 0.000000 0.034877 0.000000
# 6 0.000000 0.000000 0.000000 0.008783 0.000000 0.107285
#
#
# Mechanical properties :
#
#
# Convention : Reuss Voigt Hill
#
# Bulk Modulus (GPa) = 62.25615 66.61825 64.43720
# Shear Modulus (GPa) = 19.35860 29.69283 24.52571
#
# Velocity S-wave (km/s) = 3.05090 3.77847 3.43401
# Velocity P-wave (km/s) = 6.50727 7.14613 6.83417
#
# Compressibility (1/GPa) = 0.01606267
#
# Stress axis : x y z
#
# Youngs Moduli (GPa) = 116.63156 87.57364 110.70323
#
# Poissons Ratio (x) = 0.29913 -0.02072
# Poissons Ratio (y) = 0.39838 0.36013
# Poissons Ratio (z) = -0.02183 0.28489
#
# Static dielectric constant tensor:
#      x y z
#    x 1.772080 0.000000 -0.027760 
#    y 0.000000 1.727000 0.000000 
#    z -0.027760 0.000000 1.770840 
# 
# From -- ./inp_files/10255.got.cif
#   From: 2010.05.17/outbox.cif.g08.bks.cpg/sg3_6_cif.got.tgz:10255.got - 2010.06.03 18:33:08.
