data_PCOD9113046
_publ_section_title
;
Structure prediction by ZEFSAII (Michael W. Deem and Ramdas Pophale) SiO2 
 PCOD9113046
Probable space group: P 2
;
_chemical_formula_sum "Si O2"
_cell_formula_units_Z 14
_cell_length_a 8.011398
_cell_length_b 17.172375
_cell_length_c 8.077616
_cell_angle_alpha 90.000000
_cell_angle_beta 144.160431
_cell_angle_gamma 90.000000
_cell_volume 650.671637
_symmetry_space_group_name_H-M "P 2"
_symmetry_group_IT_number 3
_symmetry_cell_setting 'monoclinic'
loop_
_space_group_symop_operation_xyz
x,y,z
-x,y,-z
loop_
_atom_site_type_symbol
_atom_site_label
_atom_site_fract_x
_atom_site_fract_y
_atom_site_fract_z
Si Si1 0.317312 0.835630 0.186532
Si Si2 0.303674 0.300262 0.696116
Si Si3 0.825257 0.597260 0.698621
Si Si4 0.191509 0.715156 0.795504
Si Si5 0.681357 0.005549 0.812172
Si Si6 0.820501 0.418078 0.695095
Si Si7 0.318672 0.175000 0.187573
O O1 0.500000 0.817258 0.500000
O O2 0.395430 0.921205 0.175735
O O3 0.296221 0.772746 0.025060
O O4 0.000000 0.841407 0.000000
O O5 0.190167 0.362655 0.471284
O O6 0.529327 0.240207 0.799194
O O7 0.000000 0.260708 0.500000
O O8 0.500000 0.336903 0.000000
O O9 0.500000 0.604204 0.500000
O O10 0.897393 0.507308 0.715383
O O11 0.954497 0.652993 0.664301
O O12 0.000000 0.620172 0.000000
O O13 0.000000 0.757979 0.500000
O O14 0.500000 0.677270 0.000000
O O15 0.500000 0.009029 0.500000
O O16 0.659546 0.089681 0.881234
O O17 0.000000 0.003349 0.000000
O O18 0.500000 0.420839 0.500000
O O19 0.000000 0.391445 0.000000
O O20 0.500000 0.172135 0.500000
O O21 0.000000 0.190603 0.000000
#
# Coordination Sequence:
#
# PCOD9113046 Si02
#       7
#     2   2   2   2   2   2   2
#     4  10  20  38  64  89 119 162 212 255 298 360
#     4  12  25  39  60  95 132 162 199 251 316 373
#     4  10  22  43  68  90 116 160 214 257 300 363
#     4  12  25  39  60  95 132 162 199 251 316 373
#     4   8  16  32  59  90 113 150 210 262 294 342
#     4  10  22  43  68  90 116 160 214 257 300 363
#     4  10  20  38  64  89 119 162 212 255 298 360
#
# _framework density 21.51623
#
# number of rings (size 3 to 8) (size 9 to 14) (size 15 to 20)
#    0.000    1.714    0.000    4.286    0.000    2.857 
#    0.000    2.143    0.000    1.714    0.000    0.000 
#    0.000    0.000    0.000    0.000    0.000    0.000 
#
# Total GULP energy -78016.222879 kJ/mol
# GULP energy per Si atom -5572.587348 kJ/mol
# Density = 2.146726 g / cm^3
# Si number density = 21.516230 Si / 1000 Ang^3
#
#
#
# Elastic Constant Matrix: (Units=GPa)
#
#
# Indices 1 2 3 4 5 6 
#
# 1 57.3475 43.5238 32.9510 0.0000 7.6747 0.0000
# 2 43.5238 94.7868 24.9286 0.0000 -16.0033 0.0000
# 3 32.9510 24.9286 180.9533 0.0000 3.1355 0.0000
# 4 0.0000 0.0000 0.0000 27.2039 0.0000 11.2796
# 5 7.6747 -16.0033 3.1355 0.0000 35.1005 0.0000
# 6 0.0000 0.0000 0.0000 11.2796 0.0000 -10.2857
#
#
#
# Elastic Compliance Matrix: (Units=1/GPa)
#
#
# Indices 1 2 3 4 5 6 
#
# 1 0.035088 -0.017751 -0.003676 0.000000 -0.015437 0.000000
# 2 -0.017751 0.020935 0.000116 0.000000 0.013416 0.000000
# 3 -0.003676 0.000116 0.006175 0.000000 0.000305 0.000000
# 4 0.000000 0.000000 0.000000 0.025269 0.000000 0.027711
# 5 -0.015437 0.013416 0.000305 0.000000 0.037954 0.000000
# 6 0.000000 0.000000 0.000000 0.027711 0.000000 -0.066834
#
#
# Mechanical properties :
#
#
# Convention : Reuss Voigt Hill
#
# Bulk Modulus (GPa) = 51.08642 59.54381 55.31512
# Shear Modulus (GPa) = 46.40990 25.84938 36.12964
#
# Velocity S-wave (km/s) = 4.64936 3.46987 4.10223
# Velocity P-wave (km/s) = 7.25374 6.61720 6.94277
#
# Compressibility (1/GPa) = 0.01957467
#
# Stress axis : x y z
#
# Youngs Moduli (GPa) = 28.49993 47.76615 161.95578
#
# Poissons Ratio (x) = 0.84789 0.59543
# Poissons Ratio (y) = 0.50590 -0.01875
# Poissons Ratio (z) = 0.10478 -0.00553
#
# Static dielectric constant tensor:
#      x y z
#    x 1.763840 0.000000 -0.012910 
#    y 0.000000 1.922710 0.000000 
#    z -0.012910 0.000000 1.746970 
# 
# From -- ./inp_files/6160.got.cif
#   From: 2010.05.17/outbox.cif.g08.bks.cpg/sg3_4_cif.got.tgz:6160.got - 2010.06.03 18:33:08.
