data_PCOD9113298
_publ_section_title
;
Structure prediction by ZEFSAII (Michael W. Deem and Ramdas Pophale) SiO2 
 PCOD9113298
Probable space group: P 2
;
_chemical_formula_sum "Si O2"
_cell_formula_units_Z 14
_cell_length_a 19.621188
_cell_length_b 5.240911
_cell_length_c 10.902361
_cell_angle_alpha 90.000000
_cell_angle_beta 30.648173
_cell_angle_gamma 90.000000
_cell_volume 571.508369
_symmetry_space_group_name_H-M "P 2"
_symmetry_group_IT_number 3
_symmetry_cell_setting 'monoclinic'
loop_
_space_group_symop_operation_xyz
x,y,z
-x,y,-z
loop_
_atom_site_type_symbol
_atom_site_label
_atom_site_fract_x
_atom_site_fract_y
_atom_site_fract_z
Si Si1 0.190562 0.276190 0.232220
Si Si2 0.927785 0.234430 0.319088
Si Si3 0.215036 0.779784 0.098799
Si Si4 0.383477 0.914975 0.604060
Si Si5 0.545934 0.542540 0.182966
Si Si6 0.925319 0.730822 0.987169
Si Si7 0.279338 0.347603 0.576488
O O1 0.157465 0.242619 0.424756
O O2 0.137559 0.523739 0.244479
O O3 0.351676 0.308061 0.957286
O O4 0.139083 0.032852 0.242435
O O5 0.006051 0.500463 0.191726
O O6 0.824941 0.242826 0.362244
O O7 0.030893 0.998016 0.145046
O O8 0.278204 0.807195 0.866576
O O9 0.334459 0.750215 0.018525
O O10 0.500000 0.059980 0.500000
O O11 0.466290 0.681667 0.415798
O O12 0.319713 0.117719 0.607496
O O13 0.419655 0.447648 0.300162
O O14 0.000000 0.764344 0.000000
O O15 0.789876 0.588485 0.246930
#
# Coordination Sequence:
#
# PCOD9113298 Si02
#       7
#     2   2   2   2   2   2   2
#     4  10  21  42  61  96 139 191 218 274 357 439
#     4  11  24  43  68  95 140 185 231 291 345 422
#     4   9  21  37  63  94 141 179 221 270 345 437
#     4  10  21  38  65 104 149 180 228 292 359 426
#     4   9  21  35  61  99 136 178 220 278 351 425
#     4  10  23  43  66  97 131 179 243 294 343 396
#     4  11  24  39  72 104 140 180 240 297 356 414
#
# _framework density 24.496579000000001
#
# number of rings (size 3 to 8) (size 9 to 14) (size 15 to 20)
#    0.857    1.143    0.000    3.857    8.000    1.143 
#    0.000    0.000    0.000    0.857    0.000    0.000 
#    0.000    0.000    0.000    0.000    0.000    0.000 
#
# Total GULP energy -77963.856283 kJ/mol
# GULP energy per Si atom -5568.846877 kJ/mol
# Density = 2.444082 g / cm^3
# Si number density = 24.496579 Si / 1000 Ang^3
#
#
#
# Elastic Constant Matrix: (Units=GPa)
#
#
# Indices 1 2 3 4 5 6 
#
# 1 122.5602 36.9039 52.6710 0.0000 -6.2022 0.0000
# 2 36.9039 185.5027 35.6325 0.0000 18.2771 0.0000
# 3 52.6710 35.6325 122.2997 0.0000 -5.7447 0.0000
# 4 0.0000 0.0000 0.0000 620.4149 0.0000 -293.3429
# 5 -6.2022 18.2771 -5.7447 0.0000 46.9625 0.0000
# 6 0.0000 0.0000 0.0000 -293.3429 0.0000 163.0722
#
#
#
# Elastic Compliance Matrix: (Units=1/GPa)
#
#
# Indices 1 2 3 4 5 6 
#
# 1 0.010378 -0.001442 -0.003981 0.000000 0.001445 0.000000
# 2 -0.001442 0.006203 -0.001316 0.000000 -0.002766 0.000000
# 3 -0.003981 -0.001316 0.010333 0.000000 0.001250 0.000000
# 4 0.000000 0.000000 0.000000 0.010784 0.000000 0.019398
# 5 0.001445 -0.002766 0.001250 0.000000 0.022714 0.000000
# 6 0.000000 0.000000 0.000000 0.019398 0.000000 0.041026
#
#
# Mechanical properties :
#
#
# Convention : Reuss Voigt Hill
#
# Bulk Modulus (GPa) = 74.43252 75.64193 75.03722
# Shear Modulus (GPa) = 41.87789 186.43359 114.15574
#
# Velocity S-wave (km/s) = 4.13914 8.73334 6.83388
# Velocity P-wave (km/s) = 7.30029 11.51697 9.64196
#
# Compressibility (1/GPa) = 0.01343499
#
# Stress axis : x y z
#
# Youngs Moduli (GPa) = 96.36147 161.21414 96.77308
#
# Poissons Ratio (x) = 0.23249 0.38528
# Poissons Ratio (y) = 0.13896 0.12736
# Poissons Ratio (z) = 0.38364 0.21217
#
# Static dielectric constant tensor:
#      x y z
#    x 1.556160 0.000000 -0.367050 
#    y 0.000000 1.980040 0.000000 
#    z -0.367050 0.000000 1.937020 
# 
# From -- ./inp_files/12593.got.cif
#   From: 2010.05.17/outbox.cif.g08.bks.cpg/sg3_7_cif.got.tgz:12593.got - 2010.06.03 18:33:08.
