data_PCOD9113371
_publ_section_title
;
Structure prediction by ZEFSAII (Michael W. Deem and Ramdas Pophale) SiO2 
 PCOD9113371
Probable space group: P 2
;
_chemical_formula_sum "Si O2"
_cell_formula_units_Z 14
_cell_length_a 6.105900
_cell_length_b 5.963863
_cell_length_c 17.586930
_cell_angle_alpha 90.000000
_cell_angle_beta 75.758314
_cell_angle_gamma 90.000000
_cell_volume 620.741293
_symmetry_space_group_name_H-M "P 2"
_symmetry_group_IT_number 3
_symmetry_cell_setting 'monoclinic'
loop_
_space_group_symop_operation_xyz
x,y,z
-x,y,-z
loop_
_atom_site_type_symbol
_atom_site_label
_atom_site_fract_x
_atom_site_fract_y
_atom_site_fract_z
Si Si1 0.844952 0.282910 0.853456
Si Si2 0.895896 0.324928 0.433100
Si Si3 0.500000 0.291102 0.000000
Si Si4 0.827615 0.978358 0.072499
Si Si5 0.456031 0.926818 0.214677
Si Si6 0.335182 0.946447 0.647194
Si Si7 0.066472 0.595977 0.286826
Si Si8 0.500000 0.668546 0.500000
O O1 0.669117 0.408093 0.925806
O O2 0.968912 0.444838 0.784511
O O3 0.021745 0.139745 0.887326
O O4 0.695436 0.108132 0.816974
O O5 0.719259 0.512840 0.475482
O O6 0.000000 0.220580 0.500000
O O7 0.071832 0.444745 0.361785
O O8 0.768447 0.146293 0.392529
O O9 0.334175 0.132479 0.965417
O O10 0.659631 0.848010 0.142421
O O11 0.000000 0.855683 0.000000
O O12 0.554828 0.026676 0.284075
O O13 0.298349 0.724104 0.253042
O O14 0.503656 0.818839 0.575518
O O15 0.135095 0.773751 0.685873
#
# Coordination Sequence:
#
# PCOD9113371 Si02
#       8
#     2   2   1   2   2   2   2   1
#     4  10  21  40  63  89 123 163 205 253 305 359
#     4  11  24  43  64  88 123 163 202 253 310 363
#     4   8  18  36  64  90 120 162 204 250 304 360
#     4   9  18  37  64  91 121 163 207 250 303 359
#     4  11  22  39  62  90 124 163 203 252 306 362
#     4  11  25  42  62  92 125 159 205 254 305 366
#     4  11  24  39  61  93 124 160 204 252 305 367
#     4  10  24  42  64  90 120 162 208 252 302 368
#
# _framework density 22.553682999999999
#
# number of rings (size 3 to 8) (size 9 to 14) (size 15 to 20)
#    0.000    1.714    0.000    3.857    0.000   11.429 
#    0.000    5.714    0.000    8.571    0.000    0.000 
#    0.000    0.000    0.000    0.000    0.000    0.000 
#
# Total GULP energy -78298.906035 kJ/mol
# GULP energy per Si atom -5592.779002 kJ/mol
# Density = 2.250235 g / cm^3
# Si number density = 22.553683 Si / 1000 Ang^3
#
#
#
# Elastic Constant Matrix: (Units=GPa)
#
#
# Indices 1 2 3 4 5 6 
#
# 1 98.7769 30.6118 78.0334 0.0000 8.5056 0.0000
# 2 30.6118 59.0486 51.4688 0.0000 -8.2039 0.0000
# 3 78.0334 51.4688 183.2477 0.0000 -12.7467 0.0000
# 4 0.0000 0.0000 0.0000 13.6468 0.0000 -14.6183
# 5 8.5056 -8.2039 -12.7467 0.0000 69.4158 0.0000
# 6 0.0000 0.0000 0.0000 -14.6183 0.0000 21.3342
#
#
#
# Elastic Compliance Matrix: (Units=1/GPa)
#
#
# Indices 1 2 3 4 5 6 
#
# 1 0.016497 -0.003589 -0.006267 0.000000 -0.003596 0.000000
# 2 -0.003589 0.023364 -0.004873 0.000000 0.002306 0.000000
# 3 -0.006267 -0.004873 0.009631 0.000000 0.001960 0.000000
# 4 0.000000 0.000000 0.000000 0.275462 0.000000 0.188748
# 5 -0.003596 0.002306 0.001960 0.000000 0.015479 0.000000
# 6 0.000000 0.000000 0.000000 0.188748 0.000000 0.176204
#
#
# Mechanical properties :
#
#
# Convention : Reuss Voigt Hill
#
# Bulk Modulus (GPa) = 49.91891 73.47793 61.69842
# Shear Modulus (GPa) = 9.04529 32.94330 20.99430
#
# Velocity S-wave (km/s) = 2.00481 3.82601 3.05431
# Velocity P-wave (km/s) = 5.24790 7.22272 6.31301
#
# Compressibility (1/GPa) = 0.02003249
#
# Stress axis : x y z
#
# Youngs Moduli (GPa) = 60.61806 42.80046 103.83210
#
# Poissons Ratio (x) = 0.15363 0.65071
# Poissons Ratio (y) = 0.21758 0.50602
# Poissons Ratio (z) = 0.37989 0.20858
#
# Static dielectric constant tensor:
#      x y z
#    x 1.828730 0.000000 -0.025360 
#    y 0.000000 1.822550 0.000000 
#    z -0.025360 0.000000 1.859900 
# 
# From -- ./inp_files/3561.got.cif
#   From: 2010.05.17/outbox.cif.g08.bks.cpg/sg3_2_cif.got.tgz:3561.got - 2010.06.03 18:33:08.
