data_PCOD9113654
_publ_section_title
;
Structure prediction by ZEFSAII (Michael W. Deem and Ramdas Pophale) SiO2 
 PCOD9113654
Probable space group: P 2
;
_chemical_formula_sum "Si O2"
_cell_formula_units_Z 13
_cell_length_a 13.527978
_cell_length_b 6.685922
_cell_length_c 8.049766
_cell_angle_alpha 90.000000
_cell_angle_beta 126.503937
_cell_angle_gamma 90.000000
_cell_volume 585.240118
_symmetry_space_group_name_H-M "P 2"
_symmetry_group_IT_number 3
_symmetry_cell_setting 'monoclinic'
loop_
_space_group_symop_operation_xyz
x,y,z
-x,y,-z
loop_
_atom_site_type_symbol
_atom_site_label
_atom_site_fract_x
_atom_site_fract_y
_atom_site_fract_z
Si Si1 0.699937 0.323130 0.738602
Si Si2 0.921770 0.858798 0.582041
Si Si3 0.459669 0.021467 0.226207
Si Si4 0.832495 0.431964 0.534422
Si Si5 0.691283 0.130250 0.244601
Si Si6 0.500000 0.663653 0.500000
Si Si7 0.947807 0.214733 0.131706
O O1 0.767684 0.329292 0.629169
O O2 0.616550 0.520870 0.649287
O O3 0.609669 0.141745 0.696623
O O4 0.809691 0.293324 0.981235
O O5 0.854817 0.664714 0.588011
O O6 0.000000 0.796017 0.500000
O O7 0.810128 0.003940 0.418561
O O8 0.018511 0.985200 0.790048
O O9 0.501637 0.809010 0.341492
O O10 0.579710 0.122010 0.264991
O O11 0.363327 0.032471 0.976746
O O12 0.744507 0.357548 0.297578
O O13 0.969175 0.342035 0.660619
O O14 0.000000 0.248875 0.000000
#
# Coordination Sequence:
#
# PCOD9113654 Si02
#       7
#     2   2   2   2   2   1   2
#     4  11  23  42  66  95 131 174 222 277 331 391
#     4  11  23  40  65  95 128 170 219 274 331 394
#     4  11  24  42  65  93 131 178 220 272 333 391
#     4  10  22  41  64  92 128 168 218 277 330 391
#     4  10  23  43  63  91 132 171 217 272 330 392
#     4  12  24  38  64  96 128 172 226 268 324 398
#     4   9  22  41  62  90 126 168 215 271 333 387
#
# _framework density 22.213103
#
# number of rings (size 3 to 8) (size 9 to 14) (size 15 to 20)
#    0.000    1.538    0.000    4.154    0.000   11.692 
#    0.000    3.077    0.000    0.000    0.000    0.000 
#    0.000    0.000    0.000    0.000    0.000    0.000 
#
# Total GULP energy -72477.324688 kJ/mol
# GULP energy per Si atom -5575.178822 kJ/mol
# Density = 2.216255 g / cm^3
# Si number density = 22.213103 Si / 1000 Ang^3
#
#
#
# Elastic Constant Matrix: (Units=GPa)
#
#
# Indices 1 2 3 4 5 6 
#
# 1 104.6836 17.9135 43.1672 0.0000 11.5665 0.0000
# 2 17.9135 108.9173 57.9400 0.0000 26.2261 0.0000
# 3 43.1672 57.9400 146.3948 0.0000 36.9404 0.0000
# 4 0.0000 0.0000 0.0000 27.4424 0.0000 -0.1417
# 5 11.5665 26.2261 36.9404 0.0000 38.4577 0.0000
# 6 0.0000 0.0000 0.0000 -0.1417 0.0000 9.8632
#
#
#
# Elastic Compliance Matrix: (Units=1/GPa)
#
#
# Indices 1 2 3 4 5 6 
#
# 1 0.010877 -0.000075 -0.003122 0.000000 -0.000222 0.000000
# 2 -0.000075 0.012291 -0.003608 0.000000 -0.004894 0.000000
# 3 -0.003122 -0.003608 0.010984 0.000000 -0.007151 0.000000
# 4 0.000000 0.000000 0.000000 0.036443 0.000000 0.000524
# 5 -0.000222 -0.004894 -0.007151 0.000000 0.036276 0.000000
# 6 0.000000 0.000000 0.000000 0.000524 0.000000 0.101395
#
#
# Mechanical properties :
#
#
# Convention : Reuss Voigt Hill
#
# Bulk Modulus (GPa) = 48.67695 66.44856 57.56276
# Shear Modulus (GPa) = 21.86066 31.21767 26.53916
#
# Velocity S-wave (km/s) = 3.14049 3.75290 3.46027
# Velocity P-wave (km/s) = 5.92549 6.98270 6.47570
#
# Compressibility (1/GPa) = 0.02054360
#
# Stress axis : x y z
#
# Youngs Moduli (GPa) = 91.93554 81.35956 91.04460
#
# Poissons Ratio (x) = 0.00610 0.28422
# Poissons Ratio (y) = 0.00689 0.32844
# Poissons Ratio (z) = 0.28700 0.29351
#
# Static dielectric constant tensor:
#      x y z
#    x 1.858770 0.000000 -0.012350 
#    y 0.000000 1.847000 0.000000 
#    z -0.012350 0.000000 1.896370 
# 
# From -- ./inp_files/8379.got.cif
#   From: 2010.05.17/outbox.cif.g08.bks.cpg/sg3_5_cif.got.tgz:8379.got - 2010.06.03 18:33:08.
