data_PCOD9113682
_publ_section_title
;
Structure prediction by ZEFSAII (Michael W. Deem and Ramdas Pophale) SiO2 
 PCOD9113682
Probable space group: P 2
;
_chemical_formula_sum "Si O2"
_cell_formula_units_Z 14
_cell_length_a 6.106176
_cell_length_b 6.182556
_cell_length_c 16.926821
_cell_angle_alpha 90.000000
_cell_angle_beta 86.245416
_cell_angle_gamma 90.000000
_cell_volume 637.646008
_symmetry_space_group_name_H-M "P 2"
_symmetry_group_IT_number 3
_symmetry_cell_setting 'monoclinic'
loop_
_space_group_symop_operation_xyz
x,y,z
-x,y,-z
loop_
_atom_site_type_symbol
_atom_site_label
_atom_site_fract_x
_atom_site_fract_y
_atom_site_fract_z
Si Si1 0.500000 0.243201 0.500000
Si Si2 0.644320 0.401362 0.067091
Si Si3 0.193685 0.184953 0.642678
Si Si4 0.091408 0.779307 0.856345
Si Si5 0.000000 0.064466 0.000000
Si Si6 0.549600 0.127328 0.212385
Si Si7 0.135733 0.534093 0.423907
Si Si8 0.844202 0.847350 0.711711
O O1 0.359499 0.118883 0.568789
O O2 0.327863 0.390677 0.456550
O O3 0.800575 0.575880 0.103988
O O4 0.508150 0.288344 0.140740
O O5 0.500000 0.498003 0.000000
O O6 0.794356 0.215941 0.024411
O O7 0.329323 0.246515 0.717801
O O8 0.039999 0.377858 0.615273
O O9 0.039933 0.987122 0.669817
O O10 0.941551 0.722503 0.785108
O O11 0.283807 0.940668 0.821951
O O12 0.958367 0.914197 0.925138
O O13 0.337200 0.011016 0.251748
O O14 0.233196 0.693443 0.356477
O O15 0.000000 0.639309 0.500000
#
# Coordination Sequence:
#
# PCOD9113682 Si02
#       8
#     1   2   2   2   1   2   2   2
#     4  10  22  42  64  90 126 162 204 256 312 370
#     4  11  23  40  65  92 123 165 207 254 309 365
#     4  10  22  42  63  89 123 163 206 257 309 364
#     4  10  23  40  62  93 126 161 205 256 310 367
#     4  10  22  42  62  90 124 160 206 256 304 364
#     4  10  23  39  62  94 125 160 209 257 305 368
#     4  10  23  40  61  90 125 162 205 255 310 371
#     4  11  23  41  65  91 124 165 207 255 309 367
#
# _framework density 21.955759
#
# number of rings (size 3 to 8) (size 9 to 14) (size 15 to 20)
#    0.000    1.714    0.000    3.000    0.000   14.286 
#    0.000    1.429    0.000    0.000    0.000    0.000 
#    0.000    0.000    0.000    0.000    0.000    0.000 
#
# Total GULP energy -78314.252578 kJ/mol
# GULP energy per Si atom -5593.875184 kJ/mol
# Density = 2.190579 g / cm^3
# Si number density = 21.955759 Si / 1000 Ang^3
#
#
#
# Elastic Constant Matrix: (Units=GPa)
#
#
# Indices 1 2 3 4 5 6 
#
# 1 85.8275 20.7275 65.6356 0.0000 4.1551 0.0000
# 2 20.7275 56.1707 55.6002 0.0000 3.2718 0.0000
# 3 65.6356 55.6002 171.6069 0.0000 3.8535 0.0000
# 4 0.0000 0.0000 0.0000 -18.0154 0.0000 21.4987
# 5 4.1551 3.2718 3.8535 0.0000 45.6388 0.0000
# 6 0.0000 0.0000 0.0000 21.4987 0.0000 6.8546
#
#
#
# Elastic Compliance Matrix: (Units=1/GPa)
#
#
# Indices 1 2 3 4 5 6 
#
# 1 0.016514 0.000285 -0.006387 0.000000 -0.000985 0.000000
# 2 0.000285 0.026275 -0.008595 0.000000 -0.001184 0.000000
# 3 -0.006387 -0.008595 0.011049 0.000000 0.000265 0.000000
# 4 0.000000 0.000000 0.000000 -0.011704 0.000000 0.036707
# 5 -0.000985 -0.001184 0.000265 0.000000 0.022063 0.000000
# 6 0.000000 0.000000 0.000000 0.036707 0.000000 0.030760
#
#
# Mechanical properties :
#
#
# Convention : Reuss Voigt Hill
#
# Bulk Modulus (GPa) = 40.90957 66.39242 53.65099
# Shear Modulus (GPa) = 37.73621 18.33839 28.03730
#
# Velocity S-wave (km/s) = 4.15026 2.89319 3.57738
# Velocity P-wave (km/s) = 6.45286 6.43938 6.44612
#
# Compressibility (1/GPa) = 0.02444416
#
# Stress axis : x y z
#
# Youngs Moduli (GPa) = 60.55422 38.05940 90.50642
#
# Poissons Ratio (x) = -0.01085 0.57802
# Poissons Ratio (y) = -0.01727 0.77794
# Poissons Ratio (z) = 0.38673 0.32714
#
# Static dielectric constant tensor:
#      x y z
#    x 1.796090 0.000000 0.007480 
#    y 0.000000 1.778030 0.000000 
#    z 0.007480 0.000000 1.817500 
# 
# From -- ./inp_files/3539.got.cif
#   From: 2010.05.17/outbox.cif.g08.bks.cpg/sg3_2_cif.got.tgz:3539.got - 2010.06.03 18:33:08.
