data_PCOD9113586
_publ_section_title
;
Structure prediction by ZEFSAII (Michael W. Deem and Ramdas Pophale) SiO2 
 PCOD9113586
Probable space group: P 2
;
_chemical_formula_sum "Si O2"
_cell_formula_units_Z 12
_cell_length_a 13.169881
_cell_length_b 9.264111
_cell_length_c 8.374584
_cell_angle_alpha 90.000000
_cell_angle_beta 28.185905
_cell_angle_gamma 90.000000
_cell_volume 482.611874
_symmetry_space_group_name_H-M "P 2"
_symmetry_group_IT_number 3
_symmetry_cell_setting 'monoclinic'
loop_
_space_group_symop_operation_xyz
x,y,z
-x,y,-z
loop_
_atom_site_type_symbol
_atom_site_label
_atom_site_fract_x
_atom_site_fract_y
_atom_site_fract_z
Si Si1 0.036515 0.044680 0.247397
Si Si2 0.729705 0.805893 0.269326
Si Si3 0.182741 0.287731 0.615930
Si Si4 0.956689 0.544655 0.768305
Si Si5 0.249972 0.785047 0.372201
Si Si6 0.631834 0.289275 0.148847
O O1 0.863500 0.167160 0.448644
O O2 0.881138 0.917061 0.523007
O O3 0.226723 0.143373 0.057730
O O4 0.153853 0.954363 0.943981
O O5 0.500000 0.818197 0.500000
O O6 0.756436 0.787286 0.422974
O O7 0.827512 0.663579 0.049010
O O8 0.432169 0.292531 0.307766
O O9 0.101825 0.442895 0.676917
O O10 0.000000 0.245671 0.000000
O O11 0.143147 0.645779 0.435565
O O12 0.791815 0.428087 0.919461
O O13 0.500000 0.794427 0.000000
O O14 0.500000 0.293762 0.500000
#
# Coordination Sequence:
#
# PCOD9113586 Si02
#       6
#     2   2   2   2   2   2
#     4  10  22  39  63  98 126 166 216 265 323 380
#     4  11  23  37  69  96 124 162 221 269 312 376
#     4  11  19  34  61  97 130 158 206 273 328 371
#     4  10  22  39  63  98 126 166 216 265 323 380
#     4  11  25  45  65  89 136 178 210 265 323 376
#     4  11  21  32  65 101 129 155 212 276 321 377
#
# _framework density 24.864699000000002
#
# number of rings (size 3 to 8) (size 9 to 14) (size 15 to 20)
#    0.000    1.333    3.333    5.000    4.667    0.000 
#    0.000    6.667    0.000    2.000    0.000    0.000 
#    0.000    0.000    0.000    0.000    0.000    0.000 
#
# Total GULP energy -66959.772632 kJ/mol
# GULP energy per Si atom -5579.981053 kJ/mol
# Density = 2.480811 g / cm^3
# Si number density = 24.864699 Si / 1000 Ang^3
#
#
#
# Elastic Constant Matrix: (Units=GPa)
#
#
# Indices 1 2 3 4 5 6 
#
# 1 103.9763 42.4540 60.1972 0.0000 -44.8989 0.0000
# 2 42.4540 188.1523 73.5492 0.0000 -23.8511 0.0000
# 3 60.1972 73.5492 150.2457 0.0000 -59.5097 0.0000
# 4 0.0000 0.0000 0.0000 13.3217 0.0000 -7.4803
# 5 -44.8989 -23.8511 -59.5097 0.0000 65.9115 0.0000
# 6 0.0000 0.0000 0.0000 -7.4803 0.0000 21.1251
#
#
#
# Elastic Compliance Matrix: (Units=1/GPa)
#
#
# Indices 1 2 3 4 5 6 
#
# 1 0.014754 -0.001520 -0.002186 0.000000 0.007527 0.000000
# 2 -0.001520 0.006758 -0.003332 0.000000 -0.001599 0.000000
# 3 -0.002186 -0.003332 0.012602 0.000000 0.008683 0.000000
# 4 0.000000 0.000000 0.000000 0.093695 0.000000 0.033177
# 5 0.007527 -0.001599 0.008683 0.000000 0.027560 0.000000
# 6 0.000000 0.000000 0.000000 0.033177 0.000000 0.059085
#
#
# Mechanical properties :
#
#
# Convention : Reuss Voigt Hill
#
# Bulk Modulus (GPa) = 49.90809 88.30833 69.10821
# Shear Modulus (GPa) = 21.25763 37.81658 29.53711
#
# Velocity S-wave (km/s) = 2.92709 3.90410 3.45035
# Velocity P-wave (km/s) = 5.61598 7.47765 6.61266
#
# Compressibility (1/GPa) = 0.02003683
#
# Stress axis : x y z
#
# Youngs Moduli (GPa) = 67.77796 147.97683 79.35236
#
# Poissons Ratio (x) = 0.22500 0.17345
# Poissons Ratio (y) = 0.10306 0.26442
# Poissons Ratio (z) = 0.14815 0.49309
#
# Static dielectric constant tensor:
#      x y z
#    x 2.268520 0.000000 0.063320 
#    y 0.000000 1.885370 0.000000 
#    z 0.063320 0.000000 2.513490 
# 
# From -- ./inp_files/12474.got.cif
#   From: 2010.05.17/outbox.cif.g08.bks.cpg/sg3_7_cif.got.tgz:12474.got - 2010.06.03 18:33:08.
