data_PCOD9113418
_publ_section_title
;
Structure prediction by ZEFSAII (Michael W. Deem and Ramdas Pophale) SiO2 
 PCOD9113418
Probable space group: P 2
;
_chemical_formula_sum "Si O2"
_cell_formula_units_Z 14
_cell_length_a 6.014450
_cell_length_b 6.124378
_cell_length_c 17.561155
_cell_angle_alpha 90.000000
_cell_angle_beta 76.034474
_cell_angle_gamma 90.000000
_cell_volume 627.740529
_symmetry_space_group_name_H-M "P 2"
_symmetry_group_IT_number 3
_symmetry_cell_setting 'monoclinic'
loop_
_space_group_symop_operation_xyz
x,y,z
-x,y,-z
loop_
_atom_site_type_symbol
_atom_site_label
_atom_site_fract_x
_atom_site_fract_y
_atom_site_fract_z
Si Si1 0.568024 0.294140 0.075810
Si Si2 0.758681 0.945493 0.283321
Si Si3 0.068429 0.990368 0.573552
Si Si4 0.500000 0.299222 0.500000
Si Si5 0.829227 0.946445 0.855803
Si Si6 0.000000 0.995836 0.000000
Si Si7 0.538015 0.606633 0.785825
Si Si8 0.363946 0.295480 0.352939
O O1 0.791559 0.148064 0.044687
O O2 0.595388 0.463308 0.141234
O O3 0.359383 0.133216 0.115336
O O4 0.500000 0.397684 0.000000
O O5 0.858780 0.865112 0.356259
O O6 0.573374 0.134240 0.314393
O O7 0.633558 0.755891 0.247797
O O8 0.962072 0.030706 0.212883
O O9 0.283776 0.143866 0.535369
O O10 0.000000 0.872200 0.500000
O O11 0.857077 0.145634 0.614499
O O12 0.433139 0.415206 0.426594
O O13 0.712221 0.754373 0.818581
O O14 0.915916 0.871137 0.931851
O O15 0.667709 0.457263 0.714074
#
# Coordination Sequence:
#
# PCOD9113418 Si02
#       8
#     2   2   2   1   2   1   2   2
#     4  10  24  44  64  88 122 162 203 250 303 362
#     4  11  23  39  63  93 125 162 201 250 306 360
#     4   9  18  38  66  89 119 165 208 248 299 356
#     4   8  18  36  64  90 118 164 208 248 298 354
#     4  11  24  42  63  91 124 159 201 252 304 362
#     4  10  22  46  68  84 120 164 202 250 304 360
#     4  12  24  38  62  96 125 157 201 251 307 362
#     4  10  21  41  63  89 125 164 204 250 302 358
#
# _framework density 22.302206999999999
#
# number of rings (size 3 to 8) (size 9 to 14) (size 15 to 20)
#    0.000    1.714    0.000    4.286    0.000    8.571 
#    0.000    7.143    0.000    8.571    0.000    0.000 
#    0.000    0.000    0.000    0.000    0.000    0.000 
#
# Total GULP energy -78288.338257 kJ/mol
# GULP energy per Si atom -5592.024161 kJ/mol
# Density = 2.225145 g / cm^3
# Si number density = 22.302207 Si / 1000 Ang^3
#
#
#
# Elastic Constant Matrix: (Units=GPa)
#
#
# Indices 1 2 3 4 5 6 
#
# 1 128.8098 28.4575 80.0696 0.0000 -2.8785 0.0000
# 2 28.4575 43.9592 59.9932 0.0000 16.7961 0.0000
# 3 80.0696 59.9932 205.3063 0.0000 38.2036 0.0000
# 4 0.0000 0.0000 0.0000 -51.4529 0.0000 -32.6839
# 5 -2.8785 16.7961 38.2036 0.0000 75.9261 0.0000
# 6 0.0000 0.0000 0.0000 -32.6839 0.0000 -9.8958
#
#
#
# Elastic Compliance Matrix: (Units=1/GPa)
#
#
# Indices 1 2 3 4 5 6 
#
# 1 0.010946 -0.002746 -0.004035 0.000000 0.003053 0.000000
# 2 -0.002746 0.039199 -0.009654 0.000000 -0.003918 0.000000
# 3 -0.004035 -0.009654 0.009815 0.000000 -0.002956 0.000000
# 4 0.000000 0.000000 0.000000 0.017700 0.000000 -0.058461
# 5 0.003053 -0.003918 -0.002956 0.000000 0.015641 0.000000
# 6 0.000000 0.000000 0.000000 -0.058461 0.000000 0.092033
#
#
# Mechanical properties :
#
#
# Convention : Reuss Voigt Hill
#
# Bulk Modulus (GPa) = 36.91390 79.45734 58.18562
# Shear Modulus (GPa) = 22.00364 16.88580 19.44472
#
# Velocity S-wave (km/s) = 3.14445 2.75460 2.95595
# Velocity P-wave (km/s) = 5.45628 6.76919 6.14788
#
# Compressibility (1/GPa) = 0.02709007
#
# Stress axis : x y z
#
# Youngs Moduli (GPa) = 91.35524 25.51093 101.88028
#
# Poissons Ratio (x) = 0.07006 0.41104
# Poissons Ratio (y) = 0.25090 0.98358
# Poissons Ratio (z) = 0.36858 0.24629
#
# Static dielectric constant tensor:
#      x y z
#    x 1.815490 0.000000 0.037220 
#    y 0.000000 1.794470 0.000000 
#    z 0.037220 0.000000 1.858060 
# 
# From -- ./inp_files/3536.got.cif
#   From: 2010.05.17/outbox.cif.g08.bks.cpg/sg3_2_cif.got.tgz:3536.got - 2010.06.03 18:33:08.
