data_PCOD9113945
_publ_section_title
;
Structure prediction by ZEFSAII (Michael W. Deem and Ramdas Pophale) SiO2 
 PCOD9113945
Probable space group: P 2
;
_chemical_formula_sum "Si O2"
_cell_formula_units_Z 15
_cell_length_a 10.252371
_cell_length_b 5.280074
_cell_length_c 21.305761
_cell_angle_alpha 90.000000
_cell_angle_beta 34.884815
_cell_angle_gamma 90.000000
_cell_volume 659.634109
_symmetry_space_group_name_H-M "P 2"
_symmetry_group_IT_number 3
_symmetry_cell_setting 'monoclinic'
loop_
_space_group_symop_operation_xyz
x,y,z
-x,y,-z
loop_
_atom_site_type_symbol
_atom_site_label
_atom_site_fract_x
_atom_site_fract_y
_atom_site_fract_z
Si Si1 0.500000 0.669190 0.500000
Si Si2 0.824381 0.554865 0.923788
Si Si3 0.695339 0.669997 0.839424
Si Si4 0.094058 0.069810 0.830790
Si Si5 0.602497 0.074404 0.667865
Si Si6 0.248895 0.351248 0.509044
Si Si7 0.914450 0.046667 0.309782
Si Si8 0.200312 0.573666 0.345675
O O1 0.462120 0.501551 0.452875
O O2 0.728604 0.831125 0.401172
O O3 0.806203 0.523447 0.855037
O O4 0.916803 0.294733 0.917105
O O5 0.573749 0.646830 0.043152
O O6 0.988619 0.789439 0.874530
O O7 0.738862 0.588353 0.751621
O O8 0.827918 0.938710 0.791763
O O9 0.328959 0.072896 0.775648
O O10 0.146893 0.119505 0.736551
O O11 0.684432 0.127274 0.564184
O O12 0.689869 0.320153 0.670178
O O13 0.707531 0.823531 0.656634
O O14 0.072198 0.535614 0.544078
O O15 0.124508 0.246663 0.620108
#
# Coordination Sequence:
#
# PCOD9113945 Si02
#       8
#     1   2   2   2   2   2   2   2
#     4  12  24  42  72 112 136 192 240 310 362 430
#     4  10  24  44  77 106 131 177 226 317 358 429
#     4  10  23  46  72 104 139 174 238 288 378 417
#     4  11  24  46  70 104 140 177 240 290 367 405
#     4  12  29  46  69  98 146 195 241 279 340 426
#     4  12  27  44  70 104 146 193 242 297 359 430
#     4  11  24  43  73 105 147 183 233 314 364 428
#     4  12  27  47  68  99 143 194 233 283 340 435
#
# _framework density 22.739878000000001
#
# number of rings (size 3 to 8) (size 9 to 14) (size 15 to 20)
#    0.000    0.800    1.333    4.800    9.333    9.600 
#    0.000    4.000    0.000    0.000    0.000    0.000 
#    0.000    0.000    0.000    0.000    0.000    0.000 
#
# Total GULP energy -83957.189707 kJ/mol
# GULP energy per Si atom -5597.145980 kJ/mol
# Density = 2.268812 g / cm^3
# Si number density = 22.739878 Si / 1000 Ang^3
#
#
#
# Elastic Constant Matrix: (Units=GPa)
#
#
# Indices 1 2 3 4 5 6 
#
# 1 122.8385 72.1715 31.8471 0.0000 -32.5966 0.0000
# 2 72.1715 138.5638 32.2798 0.0000 -20.9737 0.0000
# 3 31.8471 32.2798 64.2262 0.0000 -10.7568 0.0000
# 4 0.0000 0.0000 0.0000 -30.4894 0.0000 1.9174
# 5 -32.5966 -20.9737 -10.7568 0.0000 33.2838 0.0000
# 6 0.0000 0.0000 0.0000 1.9174 0.0000 37.0264
#
#
#
# Elastic Compliance Matrix: (Units=1/GPa)
#
#
# Indices 1 2 3 4 5 6 
#
# 1 0.014805 -0.005512 -0.002880 0.000000 0.010095 0.000000
# 2 -0.005512 0.010775 -0.002589 0.000000 0.000555 0.000000
# 3 -0.002880 -0.002589 0.018558 0.000000 0.001546 0.000000
# 4 0.000000 0.000000 0.000000 -0.032692 0.000000 0.001693
# 5 0.010095 0.000555 0.001546 0.000000 0.040780 0.000000
# 6 0.000000 0.000000 0.000000 0.001693 0.000000 0.026920
#
#
# Mechanical properties :
#
#
# Convention : Reuss Voigt Hill
#
# Bulk Modulus (GPa) = 45.09548 66.46948 55.78248
# Shear Modulus (GPa) = 46.08231 20.58615 33.33423
#
# Velocity S-wave (km/s) = 4.50655 3.01207 3.83285
# Velocity P-wave (km/s) = 6.85220 6.43355 6.64617
#
# Compressibility (1/GPa) = 0.02217517
#
# Stress axis : x y z
#
# Youngs Moduli (GPa) = 67.54554 92.80629 53.88427
#
# Poissons Ratio (x) = 0.51157 0.15518
# Poissons Ratio (y) = 0.37233 0.13953
# Poissons Ratio (z) = 0.19453 0.24031
#
# Static dielectric constant tensor:
#      x y z
#    x 1.842910 0.000000 0.005390 
#    y 0.000000 1.862120 0.000000 
#    z 0.005390 0.000000 1.862080 
# 
# From -- ./inp_files/15663.got.cif
#   From: 2010.05.17/outbox.cif.g08.bks.cpg/sg3_8_cif.got.tgz:15663.got - 2010.06.03 18:33:08.
