data_PCOD9113656
_publ_section_title
;
Structure prediction by ZEFSAII (Michael W. Deem and Ramdas Pophale) SiO2 
 PCOD9113656
Probable space group: P 2
;
_chemical_formula_sum "Si O2"
_cell_formula_units_Z 13
_cell_length_a 10.914038
_cell_length_b 9.441196
_cell_length_c 8.227491
_cell_angle_alpha 90.000000
_cell_angle_beta 45.497972
_cell_angle_gamma 90.000000
_cell_volume 604.653872
_symmetry_space_group_name_H-M "P 2"
_symmetry_group_IT_number 3
_symmetry_cell_setting 'monoclinic'
loop_
_space_group_symop_operation_xyz
x,y,z
-x,y,-z
loop_
_atom_site_type_symbol
_atom_site_label
_atom_site_fract_x
_atom_site_fract_y
_atom_site_fract_z
Si Si1 0.407787 0.029520 0.299990
Si Si2 0.077723 0.983622 0.763942
Si Si3 0.254134 0.907510 0.100922
Si Si4 0.335035 0.591004 0.051828
Si Si5 0.562388 0.316840 0.254999
Si Si6 0.000000 0.452485 0.500000
Si Si7 0.959435 0.294958 0.872922
O O1 0.437090 0.200724 0.284885
O O2 0.276137 0.959663 0.548493
O O3 0.322102 0.973387 0.210111
O O4 0.598464 0.971820 0.150444
O O5 0.941564 0.948813 0.750076
O O6 0.067720 0.153117 0.785126
O O7 0.000000 0.919961 0.000000
O O8 0.263714 0.740272 0.057958
O O9 0.179503 0.533598 0.307908
O O10 0.500000 0.633982 0.000000
O O11 0.406396 0.468150 0.864639
O O12 0.500000 0.331861 0.500000
O O13 0.757748 0.259270 0.063375
O O14 0.991077 0.366150 0.341232
O O15 0.000000 0.382093 0.000000
#
# Coordination Sequence:
#
# PCOD9113656 Si02
#       7
#     2   2   2   2   2   1   2
#     4  11  24  41  71  97 134 175 225 295 333 408
#     4  11  24  41  68 100 136 176 220 288 351 409
#     4  11  25  46  64 104 136 179 236 277 350 423
#     4  11  26  45  68  99 139 186 234 284 349 429
#     4  11  24  44  68 103 139 182 232 293 353 412
#     4  10  26  40  70  96 140 192 228 288 350 430
#     4  10  22  41  65 105 139 173 235 292 352 415
#
# _framework density 21.499903
#
# number of rings (size 3 to 8) (size 9 to 14) (size 15 to 20)
#    0.000    1.231    3.077    2.308   10.769    0.000 
#    2.769    3.077    0.000    0.000    0.000    0.000 
#    0.000    0.000    0.000    0.000    0.000    0.000 
#
# Total GULP energy -72410.554336 kJ/mol
# GULP energy per Si atom -5570.042641 kJ/mol
# Density = 2.145097 g / cm^3
# Si number density = 21.499903 Si / 1000 Ang^3
#
#
#
# Elastic Constant Matrix: (Units=GPa)
#
#
# Indices 1 2 3 4 5 6 
#
# 1 59.1307 19.9331 25.5916 0.0000 3.3791 0.0000
# 2 19.9331 80.3342 44.9567 0.0000 6.5426 0.0000
# 3 25.5916 44.9567 156.9978 0.0000 -6.5325 0.0000
# 4 0.0000 0.0000 0.0000 -23.1126 0.0000 -22.3328
# 5 3.3791 6.5426 -6.5325 0.0000 31.9824 0.0000
# 6 0.0000 0.0000 0.0000 -22.3328 0.0000 32.7988
#
#
#
# Elastic Compliance Matrix: (Units=1/GPa)
#
#
# Indices 1 2 3 4 5 6 
#
# 1 0.019108 -0.003347 -0.002231 0.000000 -0.001790 0.000000
# 2 -0.003347 0.015917 -0.004168 0.000000 -0.003754 0.000000
# 3 -0.002231 -0.004168 0.008040 0.000000 0.002731 0.000000
# 4 0.000000 0.000000 0.000000 -0.026097 0.000000 -0.017769
# 5 -0.001790 -0.003754 0.002731 0.000000 0.032782 0.000000
# 6 0.000000 0.000000 0.000000 -0.017769 0.000000 0.018390
#
#
# Mechanical properties :
#
#
# Convention : Reuss Voigt Hill
#
# Bulk Modulus (GPa) = 42.42201 53.04727 47.73464
# Shear Modulus (GPa) = 52.36140 22.06580 37.21360
#
# Velocity S-wave (km/s) = 4.94036 3.20710 4.16489
# Velocity P-wave (km/s) = 7.23304 6.20007 6.73638
#
# Compressibility (1/GPa) = 0.02357267
#
# Stress axis : x y z
#
# Youngs Moduli (GPa) = 52.33488 62.82594 124.37180
#
# Poissons Ratio (x) = 0.21028 0.27744
# Poissons Ratio (y) = 0.17517 0.51844
# Poissons Ratio (z) = 0.11674 0.26189
#
# Static dielectric constant tensor:
#      x y z
#    x 1.873050 0.000000 0.116880 
#    y 0.000000 1.810350 0.000000 
#    z 0.116880 0.000000 1.960060 
# 
# From -- ./inp_files/7321.got.cif
#   From: 2010.05.17/outbox.cif.g08.bks.cpg/sg3_4_cif.got.tgz:7321.got - 2010.06.03 18:33:08.
