data_PCOD9113447
_publ_section_title
;
Structure prediction by ZEFSAII (Michael W. Deem and Ramdas Pophale) SiO2 
 PCOD9113447
Probable space group: P 2
;
_chemical_formula_sum "Si O2"
_cell_formula_units_Z 16
_cell_length_a 25.041668
_cell_length_b 5.296622
_cell_length_c 7.948847
_cell_angle_alpha 90.000000
_cell_angle_beta 143.216149
_cell_angle_gamma 90.000000
_cell_volume 631.315758
_symmetry_space_group_name_H-M "P 2"
_symmetry_group_IT_number 3
_symmetry_cell_setting 'monoclinic'
loop_
_space_group_symop_operation_xyz
x,y,z
-x,y,-z
loop_
_atom_site_type_symbol
_atom_site_label
_atom_site_fract_x
_atom_site_fract_y
_atom_site_fract_z
Si Si1 0.505004 0.079120 0.810767
Si Si2 0.941271 0.756711 0.509626
Si Si3 0.572440 0.572970 0.035387
Si Si4 0.250687 0.722269 0.860014
Si Si5 0.940373 0.422625 0.995609
Si Si6 0.313627 0.238292 0.190132
Si Si7 0.850168 0.111695 0.035411
Si Si8 0.232548 0.711285 0.433734
O O1 0.574842 0.301933 0.952765
O O2 0.410991 0.183191 0.509667
O O3 0.538749 0.805763 0.835940
O O4 0.500000 0.040202 0.000000
O O5 0.000000 0.662979 0.500000
O O6 0.848381 0.634258 0.332547
O O7 0.008087 0.682319 0.827277
O O8 0.100191 0.013302 0.671752
O O9 0.500000 0.539880 0.000000
O O10 0.667148 0.633998 0.356917
O O11 0.244770 0.817217 0.653039
O O12 0.309688 0.478180 0.056303
O O13 0.284618 0.967134 0.043646
O O14 0.837816 0.489963 0.703521
O O15 0.926519 0.238891 0.116884
O O16 0.000000 0.304065 0.000000
O O17 0.235124 0.281678 0.131544
O O18 0.809011 0.886391 0.816190
#
# Coordination Sequence:
#
# PCOD9113447 Si02
#       8
#     2   2   2   2   2   2   2   2
#     4  10  21  41  71 105 141 181 247 313 368 441
#     4  11  23  47  66 108 140 191 254 312 369 442
#     4  10  23  40  73 105 144 187 248 311 368 449
#     4  11  27  46  73 106 159 201 243 319 393 461
#     4  12  27  48  74 106 154 200 259 310 394 455
#     4  11  25  48  75 113 150 197 255 315 386 454
#     4  11  27  44  80 103 149 201 264 319 376 458
#     4  12  27  48  72 111 153 197 258 312 395 446
#
# _framework density 25.343893999999999
#
# number of rings (size 3 to 8) (size 9 to 14) (size 15 to 20)
#    0.000    1.000    2.500    3.000    8.750    4.000 
#    0.000    3.750    0.000    0.000    0.000    0.000 
#    0.000    0.000    0.000    0.000    0.000    0.000 
#
# Total GULP energy -89335.174744 kJ/mol
# GULP energy per Si atom -5583.448422 kJ/mol
# Density = 2.528621 g / cm^3
# Si number density = 25.343894 Si / 1000 Ang^3
#
#
#
# Elastic Constant Matrix: (Units=GPa)
#
#
# Indices 1 2 3 4 5 6 
#
# 1 61.1413 3.3083 4.9966 0.0000 12.2080 0.0000
# 2 3.3083 105.1057 9.5614 0.0000 3.3766 0.0000
# 3 4.9966 9.5614 118.0106 0.0000 21.7415 0.0000
# 4 0.0000 0.0000 0.0000 54.9439 0.0000 -3.0372
# 5 12.2080 3.3766 21.7415 0.0000 25.7538 0.0000
# 6 0.0000 0.0000 0.0000 -3.0372 0.0000 7.1201
#
#
#
# Elastic Compliance Matrix: (Units=1/GPa)
#
#
# Indices 1 2 3 4 5 6 
#
# 1 0.018172 -0.000360 0.000992 0.000000 -0.009404 0.000000
# 2 -0.000360 0.009603 -0.000666 0.000000 -0.000526 0.000000
# 3 0.000992 -0.000666 0.010132 0.000000 -0.008937 0.000000
# 4 0.000000 0.000000 0.000000 0.018640 0.000000 0.007951
# 5 -0.009404 -0.000526 -0.008937 0.000000 0.050901 0.000000
# 6 0.000000 0.000000 0.000000 0.007951 0.000000 0.143838
#
#
# Mechanical properties :
#
#
# Convention : Reuss Voigt Hill
#
# Bulk Modulus (GPa) = 26.42720 35.55447 30.99083
# Shear Modulus (GPa) = 18.94181 35.32297 27.13239
#
# Velocity S-wave (km/s) = 2.73681 3.73734 3.27551
# Velocity P-wave (km/s) = 4.52072 5.71690 5.15363
#
# Compressibility (1/GPa) = 0.03783981
#
# Stress axis : x y z
#
# Youngs Moduli (GPa) = 55.03053 104.13362 98.69533
#
# Poissons Ratio (x) = 0.03750 -0.09795
# Poissons Ratio (y) = 0.01982 0.06572
# Poissons Ratio (z) = -0.05461 0.06934
#
# Static dielectric constant tensor:
#      x y z
#    x 2.103930 0.000000 -0.060440 
#    y 0.000000 2.088430 0.000000 
#    z -0.060440 0.000000 1.997640 
# 
# From -- ./inp_files/9603.got.cif
#   From: 2010.05.17/outbox.cif.g08.bks.cpg/sg3_5_cif.got.tgz:9603.got - 2010.06.03 18:33:08.
