data_PCOD9113180
_publ_section_title
;
Structure prediction by ZEFSAII (Michael W. Deem and Ramdas Pophale) SiO2 
 PCOD9113180
Probable space group: P 2
;
_chemical_formula_sum "Si O2"
_cell_formula_units_Z 14
_cell_length_a 12.767124
_cell_length_b 7.447292
_cell_length_c 9.248111
_cell_angle_alpha 90.000000
_cell_angle_beta 131.975736
_cell_angle_gamma 90.000000
_cell_volume 653.707520
_symmetry_space_group_name_H-M "P 2"
_symmetry_group_IT_number 3
_symmetry_cell_setting 'monoclinic'
loop_
_space_group_symop_operation_xyz
x,y,z
-x,y,-z
loop_
_atom_site_type_symbol
_atom_site_label
_atom_site_fract_x
_atom_site_fract_y
_atom_site_fract_z
Si Si1 0.146042 0.898320 0.564277
Si Si2 0.505799 0.635306 0.333668
Si Si3 0.433589 0.240908 0.291744
Si Si4 0.979217 0.960213 0.149791
Si Si5 0.896058 0.351475 0.037631
Si Si6 0.212830 0.683090 0.897602
Si Si7 0.568123 0.959225 0.212821
O O1 0.192821 0.732140 0.710593
O O2 0.277093 0.033086 0.682544
O O3 0.000000 0.965537 0.500000
O O4 0.098993 0.868260 0.356531
O O5 0.500000 0.676904 0.500000
O O6 0.526556 0.420996 0.348822
O O7 0.597817 0.787306 0.341959
O O8 0.365058 0.651489 0.105950
O O9 0.500000 0.162958 0.500000
O O10 0.267396 0.294249 0.154401
O O11 0.466522 0.099165 0.197315
O O12 0.838757 0.861923 0.069281
O O13 0.000000 0.936090 0.000000
O O14 0.966320 0.171880 0.165621
O O15 0.879200 0.514711 0.133440
O O16 0.000000 0.403308 0.000000
O O17 0.500000 0.901352 0.000000
#
# Coordination Sequence:
#
# PCOD9113180 Si02
#       7
#     2   2   2   2   2   2   2
#     4  10  24  44  61  93 136 173 224 271 321 399
#     4  10  22  41  67  97 130 168 224 278 325 395
#     4  10  24  43  66 101 133 167 225 277 331 399
#     4  10  22  38  65  97 127 170 224 276 325 390
#     4  10  22  40  71 100 132 173 221 276 335 391
#     4  10  20  43  63  92 137 174 213 273 330 397
#     4  12  24  42  69  94 131 183 218 270 341 390
#
# _framework density 21.416302999999999
#
# number of rings (size 3 to 8) (size 9 to 14) (size 15 to 20)
#    0.000    1.714    1.429    1.714    8.000    0.571 
#    7.714    6.429    0.000    0.000    0.000    0.000 
#    0.000    0.000    0.000    0.000    0.000    0.000 
#
# Total GULP energy -77971.752846 kJ/mol
# GULP energy per Si atom -5569.410918 kJ/mol
# Density = 2.136756 g / cm^3
# Si number density = 21.416303 Si / 1000 Ang^3
#
#
#
# Elastic Constant Matrix: (Units=GPa)
#
#
# Indices 1 2 3 4 5 6 
#
# 1 102.4058 44.5857 54.8038 0.0000 -4.7220 0.0000
# 2 44.5857 78.3422 27.8435 0.0000 -29.2287 0.0000
# 3 54.8038 27.8435 117.8491 0.0000 -23.7201 0.0000
# 4 0.0000 0.0000 0.0000 13.2723 0.0000 3.7789
# 5 -4.7220 -29.2287 -23.7201 0.0000 45.5066 0.0000
# 6 0.0000 0.0000 0.0000 3.7789 0.0000 11.1226
#
#
#
# Elastic Compliance Matrix: (Units=1/GPa)
#
#
# Indices 1 2 3 4 5 6 
#
# 1 0.018353 -0.011157 -0.007773 0.000000 -0.009314 0.000000
# 2 -0.011157 0.024006 0.002667 0.000000 0.015651 0.000000
# 3 -0.007773 0.002667 0.013018 0.000000 0.007692 0.000000
# 4 0.000000 0.000000 0.000000 0.083414 0.000000 -0.028340
# 5 -0.009314 0.015651 0.007692 0.000000 0.035071 0.000000
# 6 0.000000 0.000000 0.000000 -0.028340 0.000000 0.099535
#
#
# Mechanical properties :
#
#
# Convention : Reuss Voigt Hill
#
# Bulk Modulus (GPa) = 43.76351 61.45145 52.60748
# Shear Modulus (GPa) = 15.94684 25.40457 20.67570
#
# Velocity S-wave (km/s) = 2.73172 3.44790 3.11049
# Velocity P-wave (km/s) = 5.51623 6.67883 6.12517
#
# Compressibility (1/GPa) = 0.02285009
#
# Stress axis : x y z
#
# Youngs Moduli (GPa) = 54.48592 41.65675 76.81381
#
# Poissons Ratio (x) = 0.46478 0.59711
# Poissons Ratio (y) = 0.60791 -0.20486
# Poissons Ratio (z) = 0.42355 -0.11110
#
# Static dielectric constant tensor:
#      x y z
#    x 1.886610 0.000000 0.028060 
#    y 0.000000 1.780080 0.000000 
#    z 0.028060 0.000000 1.853660 
# 
# From -- ./inp_files/7489.got.cif
#   From: 2010.05.17/outbox.cif.g08.bks.cpg/sg3_4_cif.got.tgz:7489.got - 2010.06.03 18:33:08.
