data_PCOD9113282
_publ_section_title
;
Structure prediction by ZEFSAII (Michael W. Deem and Ramdas Pophale) SiO2 
 PCOD9113282
Probable space group: P 2
;
_chemical_formula_sum "Si O2"
_cell_formula_units_Z 14
_cell_length_a 8.771253
_cell_length_b 9.891240
_cell_length_c 7.965634
_cell_angle_alpha 90.000000
_cell_angle_beta 97.297603
_cell_angle_gamma 90.000000
_cell_volume 685.489031
_symmetry_space_group_name_H-M "P 2"
_symmetry_group_IT_number 3
_symmetry_cell_setting 'monoclinic'
loop_
_space_group_symop_operation_xyz
x,y,z
-x,y,-z
loop_
_atom_site_type_symbol
_atom_site_label
_atom_site_fract_x
_atom_site_fract_y
_atom_site_fract_z
Si Si1 0.250812 0.600970 0.202476
Si Si2 0.183666 0.663972 0.550436
Si Si3 0.754965 0.900933 0.206211
Si Si4 0.316681 0.184309 0.957371
Si Si5 0.673100 0.385246 0.325445
Si Si6 0.500000 0.721361 0.000000
Si Si7 0.000000 0.780626 0.000000
Si Si8 0.306188 0.316314 0.292637
O O1 0.280495 0.653269 0.393324
O O2 0.390241 0.630876 0.098449
O O3 0.212827 0.444814 0.213982
O O4 0.107095 0.685353 0.122732
O O5 0.201006 0.816263 0.622129
O O6 0.260194 0.538641 0.664763
O O7 0.000000 0.637043 0.500000
O O8 0.604732 0.820250 0.124355
O O9 0.727813 0.058129 0.167769
O O10 0.893239 0.868412 0.100872
O O11 0.273207 0.313299 0.837777
O O12 0.500000 0.178173 0.000000
O O13 0.270504 0.199838 0.149247
O O14 0.486447 0.364904 0.301831
O O15 0.722288 0.311343 0.509559
#
# Coordination Sequence:
#
# PCOD9113282 Si02
#       8
#     2   2   2   2   2   1   1   2
#     4  10  21  38  62  96 120 164 211 270 326 369
#     4  11  22  40  62  91 132 169 209 267 321 385
#     4  11  22  41  60  91 129 168 213 261 314 385
#     4  10  21  39  61  89 126 171 207 265 322 378
#     4   9  20  38  60  93 125 157 216 271 320 376
#     4  10  22  36  62  94 116 160 220 266 308 372
#     4  10  22  38  60  86 128 164 210 258 312 382
#     4   9  19  36  63  91 125 158 208 272 325 373
#
# _framework density 20.423376000000001
#
# number of rings (size 3 to 8) (size 9 to 14) (size 15 to 20)
#    0.000    2.000    2.143    0.857    7.000    1.714 
#    5.143    5.714    0.000    0.000    0.000    0.000 
#    0.000    0.000    0.000    0.000    0.000    0.000 
#
# Total GULP energy -77937.593782 kJ/mol
# GULP energy per Si atom -5566.970984 kJ/mol
# Density = 2.037689 g / cm^3
# Si number density = 20.423376 Si / 1000 Ang^3
#
#
#
# Elastic Constant Matrix: (Units=GPa)
#
#
# Indices 1 2 3 4 5 6 
#
# 1 70.5322 3.8067 32.9996 0.0000 -23.6476 0.0000
# 2 3.8067 88.1920 50.0221 0.0000 12.1089 0.0000
# 3 32.9996 50.0221 88.9126 0.0000 -31.4523 0.0000
# 4 0.0000 0.0000 0.0000 33.5925 0.0000 -0.8227
# 5 -23.6476 12.1089 -31.4523 0.0000 50.4647 0.0000
# 6 0.0000 0.0000 0.0000 -0.8227 0.0000 41.5538
#
#
#
# Elastic Compliance Matrix: (Units=1/GPa)
#
#
# Indices 1 2 3 4 5 6 
#
# 1 0.018595 0.002822 -0.007244 0.000000 0.003522 0.000000
# 2 0.002822 0.027117 -0.023267 0.000000 -0.019685 0.000000
# 3 -0.007244 -0.023267 0.035662 0.000000 0.024415 0.000000
# 4 0.000000 0.000000 0.000000 0.029783 0.000000 0.000590
# 5 0.003522 -0.019685 0.024415 0.000000 0.041406 0.000000
# 6 0.000000 0.000000 0.000000 0.000590 0.000000 0.024077
#
#
# Mechanical properties :
#
#
# Convention : Reuss Voigt Hill
#
# Bulk Modulus (GPa) = 38.46464 46.81039 42.63752
# Shear Modulus (GPa) = 20.77419 35.84276 28.30848
#
# Velocity S-wave (km/s) = 3.19278 4.19380 3.72705
# Velocity P-wave (km/s) = 5.69792 6.81325 6.28039
#
# Compressibility (1/GPa) = 0.02599790
#
# Stress axis : x y z
#
# Youngs Moduli (GPa) = 53.77657 36.87747 28.04094
#
# Poissons Ratio (x) = -0.10408 0.20312
# Poissons Ratio (y) = -0.15178 0.65243
# Poissons Ratio (z) = 0.38954 0.85803
#
# Static dielectric constant tensor:
#      x y z
#    x 1.720250 0.000000 0.001740 
#    y 0.000000 1.734500 0.000000 
#    z 0.001740 0.000000 1.788020 
# 
# From -- ./inp_files/5370.got.cif
#   From: 2010.05.17/outbox.cif.g08.bks.cpg/sg3_3_cif.got.tgz:5370.got - 2010.06.03 18:33:08.
