data_PCOD9113021
_publ_section_title
;
Structure prediction by ZEFSAII (Michael W. Deem and Ramdas Pophale) SiO2 
 PCOD9113021
Probable space group: P 2
;
_chemical_formula_sum "Si O2"
_cell_formula_units_Z 10
_cell_length_a 8.150727
_cell_length_b 11.718070
_cell_length_c 9.569046
_cell_angle_alpha 90.000000
_cell_angle_beta 148.659333
_cell_angle_gamma 90.000000
_cell_volume 475.367169
_symmetry_space_group_name_H-M "P 2"
_symmetry_group_IT_number 3
_symmetry_cell_setting 'monoclinic'
loop_
_space_group_symop_operation_xyz
x,y,z
-x,y,-z
loop_
_atom_site_type_symbol
_atom_site_label
_atom_site_fract_x
_atom_site_fract_y
_atom_site_fract_z
Si Si1 0.554253 0.285590 0.873816
Si Si2 0.810882 0.165292 0.628755
Si Si3 0.554253 0.550042 0.873816
Si Si4 0.872470 0.917816 0.749795
Si Si5 0.810882 0.670340 0.628755
O O1 0.511360 0.417816 0.802813
O O2 0.911983 0.244506 0.110713
O O3 0.500000 0.274709 0.000000
O O4 0.312121 0.210001 0.609116
O O5 0.500000 0.168158 0.500000
O O6 0.947327 0.036441 0.728070
O O7 0.911983 0.591126 0.110713
O O8 0.500000 0.560923 0.000000
O O9 0.312121 0.625631 0.609116
O O10 0.500000 0.917816 0.500000
O O11 0.947327 0.799191 0.728070
O O12 0.000000 0.917816 0.000000
O O13 0.500000 0.667474 0.500000
#
# Coordination Sequence:
#
# PCOD9113021 Si02
#       5
#     2   2   2   2   2
#     4  11  24  41  59  85 125 162 192 240 303 351
#     4  11  22  39  64  90 115 154 204 245 287 350
#     4  11  24  41  59  85 125 162 192 240 303 351
#     4  10  20  38  61  88 121 152 187 244 307 344
#     4  11  22  39  64  90 115 154 204 245 287 350
#
# _framework density 21.036372
#
# number of rings (size 3 to 8) (size 9 to 14) (size 15 to 20)
#    0.000    1.200    0.000    8.400    0.000    8.000 
#    0.000    6.000    0.000    0.000    0.000    0.000 
#    0.000    0.000    0.000    0.000    0.000    0.000 
#
# Total GULP energy -55906.567659 kJ/mol
# GULP energy per Si atom -5590.656766 kJ/mol
# Density = 2.098849 g / cm^3
# Si number density = 21.036372 Si / 1000 Ang^3
#
#
#
# Elastic Constant Matrix: (Units=GPa)
#
#
# Indices 1 2 3 4 5 6 
#
# 1 45.3683 40.9192 11.9566 0.0000 1.7358 0.0000
# 2 40.9192 173.9413 76.6913 0.0000 -35.6565 0.0000
# 3 11.9566 76.6913 168.1406 0.0000 -19.8988 0.0000
# 4 0.0000 0.0000 0.0000 153.8583 0.0000 89.0042
# 5 1.7358 -35.6565 -19.8988 0.0000 29.2492 0.0000
# 6 0.0000 0.0000 0.0000 89.0042 0.0000 99.1337
#
#
#
# Elastic Compliance Matrix: (Units=1/GPa)
#
#
# Indices 1 2 3 4 5 6 
#
# 1 0.032319 -0.011064 0.001006 0.000000 -0.014722 0.000000
# 2 -0.011064 0.012662 -0.003354 0.000000 0.013810 0.000000
# 3 0.001006 -0.003354 0.007520 0.000000 0.000968 0.000000
# 4 0.000000 0.000000 0.000000 0.013523 0.000000 -0.012141
# 5 -0.014722 0.013810 0.000968 0.000000 0.052556 0.000000
# 6 0.000000 0.000000 0.000000 -0.012141 0.000000 0.020988
#
#
# Mechanical properties :
#
#
# Convention : Reuss Voigt Hill
#
# Bulk Modulus (GPa) = 38.94600 71.84271 55.39435
# Shear Modulus (GPa) = 28.57927 73.64045 51.10986
#
# Velocity S-wave (km/s) = 3.68987 5.92303 4.93444
# Velocity P-wave (km/s) = 6.05866 9.00012 7.67168
#
# Compressibility (1/GPa) = 0.02567658
#
# Stress axis : x y z
#
# Youngs Moduli (GPa) = 30.94124 78.97823 132.97546
#
# Poissons Ratio (x) = 0.87385 -0.13379
# Poissons Ratio (y) = 0.34235 0.44600
# Poissons Ratio (z) = -0.03113 0.26489
#
# Static dielectric constant tensor:
#      x y z
#    x 1.772700 0.000000 0.003450 
#    y 0.000000 1.807660 0.000000 
#    z 0.003450 0.000000 1.714690 
# 
# From -- ./inp_files/4225.got.cif
#   From: 2010.05.17/outbox.cif.g08.bks.cpg/sg3_3_cif.got.tgz:4225.got - 2010.06.03 18:33:08.
