data_PCOD9113523
_publ_section_title
;
Structure prediction by ZEFSAII (Michael W. Deem and Ramdas Pophale) SiO2 
 PCOD9113523
Probable space group: P 2
;
_chemical_formula_sum "Si O2"
_cell_formula_units_Z 13
_cell_length_a 8.166662
_cell_length_b 15.881397
_cell_length_c 5.345406
_cell_angle_alpha 90.000000
_cell_angle_beta 124.077734
_cell_angle_gamma 90.000000
_cell_volume 574.235692
_symmetry_space_group_name_H-M "P 2"
_symmetry_group_IT_number 3
_symmetry_cell_setting 'monoclinic'
loop_
_space_group_symop_operation_xyz
x,y,z
-x,y,-z
loop_
_atom_site_type_symbol
_atom_site_label
_atom_site_fract_x
_atom_site_fract_y
_atom_site_fract_z
Si Si1 0.000000 0.155100 0.000000
Si Si2 0.500000 0.921881 0.000000
Si Si3 0.000000 0.872861 0.000000
Si Si4 0.129900 0.610257 0.857779
Si Si5 0.628988 0.256203 0.868663
Si Si6 0.662886 0.768574 0.818379
Si Si7 0.136692 0.421602 0.867963
Si Si8 0.147831 0.018203 0.441527
O O1 0.152424 0.213143 0.973815
O O2 0.164118 0.087831 0.244076
O O3 0.396991 0.855083 0.096167
O O4 0.652582 0.980786 0.278590
O O5 0.169347 0.807416 0.212326
O O6 0.013922 0.939224 0.236338
O O7 0.221337 0.517010 0.947267
O O8 0.000000 0.609823 0.500000
O O9 0.264531 0.692939 0.951518
O O10 0.000000 0.619807 0.000000
O O11 0.500000 0.248401 0.500000
O O12 0.500000 0.225995 0.000000
O O13 0.691340 0.352898 0.972146
O O14 0.500000 0.732664 0.500000
O O15 0.000000 0.411685 0.500000
O O16 0.000000 0.412532 0.000000
O O17 0.000000 0.065120 0.500000
#
# Coordination Sequence:
#
# PCOD9113523 Si02
#       8
#     1   1   1   2   2   2   2   2
#     4  11  30  52  73 108 154 192 247 320 390 453
#     4  12  26  42  70 102 134 194 254 306 366 444
#     4  11  22  44  61  92 134 184 235 290 380 429
#     4  10  24  42  70 106 149 201 245 300 364 437
#     4  12  28  49  83 118 151 198 251 310 383 468
#     4  12  25  40  66 100 143 190 251 305 362 435
#     4  10  21  46  77 107 153 201 245 299 375 448
#     4  11  25  45  71  96 137 192 236 311 379 442
#
# _framework density 22.638788999999999
#
# number of rings (size 3 to 8) (size 9 to 14) (size 15 to 20)
#    0.000    0.923    4.615    0.923    6.462    1.846 
#    1.385    0.000    0.000    0.000    0.000    0.000 
#    0.000    0.000    0.000    0.000    0.000    0.000 
#
# Total GULP energy -72433.756203 kJ/mol
# GULP energy per Si atom -5571.827400 kJ/mol
# Density = 2.258726 g / cm^3
# Si number density = 22.638789 Si / 1000 Ang^3
#
#
#
# Elastic Constant Matrix: (Units=GPa)
#
#
# Indices 1 2 3 4 5 6 
#
# 1 70.8589 36.7697 31.1094 0.0000 -1.9932 0.0000
# 2 36.7697 142.3748 51.0607 0.0000 14.6445 0.0000
# 3 31.1094 51.0607 115.1766 0.0000 -6.7161 0.0000
# 4 0.0000 0.0000 0.0000 37.7457 0.0000 1.4887
# 5 -1.9932 14.6445 -6.7161 0.0000 29.8175 0.0000
# 6 0.0000 0.0000 0.0000 1.4887 0.0000 2.2397
#
#
#
# Elastic Compliance Matrix: (Units=1/GPa)
#
#
# Indices 1 2 3 4 5 6 
#
# 1 0.017369 -0.003672 -0.002929 0.000000 0.002305 0.000000
# 2 -0.003672 0.009935 -0.003761 0.000000 -0.005972 0.000000
# 3 -0.002929 -0.003761 0.011387 0.000000 0.004216 0.000000
# 4 0.000000 0.000000 0.000000 0.027206 0.000000 -0.018083
# 5 0.002305 -0.005972 0.004216 0.000000 0.037574 0.000000
# 6 0.000000 0.000000 0.000000 -0.018083 0.000000 0.458499
#
#
# Mechanical properties :
#
#
# Convention : Reuss Voigt Hill
#
# Bulk Modulus (GPa) = 55.65948 62.92112 59.29030
# Shear Modulus (GPa) = 8.49353 27.92528 18.20941
#
# Velocity S-wave (km/s) = 1.93905 3.51595 2.83918
# Velocity P-wave (km/s) = 5.44541 6.65856 6.08231
#
# Compressibility (1/GPa) = 0.01796639
#
# Stress axis : x y z
#
# Youngs Moduli (GPa) = 57.57401 100.65216 87.82292
#
# Poissons Ratio (x) = 0.36963 0.25723
# Poissons Ratio (y) = 0.21143 0.33029
# Poissons Ratio (z) = 0.16863 0.37854
#
# Static dielectric constant tensor:
#      x y z
#    x 2.169730 0.000000 -0.062390 
#    y 0.000000 1.790050 0.000000 
#    z -0.062390 0.000000 1.895700 
# 
# From -- ./inp_files/1654.got.cif
#   From: 2010.05.17/outbox.cif.g08.bks.cpg/sg3_1_cif.got.tgz:1654.got - 2010.06.03 18:33:08.
