data_PCOD9113161
_publ_section_title
;
Structure prediction by ZEFSAII (Michael W. Deem and Ramdas Pophale) SiO2 
 PCOD9113161
Probable space group: P 2
;
_chemical_formula_sum "Si O2"
_cell_formula_units_Z 12
_cell_length_a 13.867416
_cell_length_b 6.123012
_cell_length_c 13.222336
_cell_angle_alpha 90.000000
_cell_angle_beta 148.286543
_cell_angle_gamma 90.000000
_cell_volume 590.178313
_symmetry_space_group_name_H-M "P 2"
_symmetry_group_IT_number 3
_symmetry_cell_setting 'monoclinic'
loop_
_space_group_symop_operation_xyz
x,y,z
-x,y,-z
loop_
_atom_site_type_symbol
_atom_site_label
_atom_site_fract_x
_atom_site_fract_y
_atom_site_fract_z
Si Si1 0.000000 0.705981 0.500000
Si Si2 0.302090 0.402585 0.866840
Si Si3 0.000000 0.022220 0.000000
Si Si4 0.904732 0.330904 0.749083
Si Si5 0.781416 0.649804 0.015882
Si Si6 0.700071 0.657579 0.710202
Si Si7 0.963595 0.029865 0.288307
O O1 0.823107 0.558670 0.315552
O O2 0.036817 0.860276 0.436289
O O3 0.334528 0.535668 0.000162
O O4 0.171103 0.199517 0.776208
O O5 0.500000 0.342589 0.000000
O O6 0.841142 0.857974 0.823180
O O7 0.032269 0.188570 0.937659
O O8 0.758163 0.450183 0.691713
O O9 0.023336 0.526270 0.809848
O O10 0.879451 0.163032 0.633355
O O11 0.833442 0.892904 0.095733
O O12 0.705776 0.618719 0.835847
O O13 0.500000 0.727742 0.500000
#
# Coordination Sequence:
#
# PCOD9113161 Si02
#       7
#     1   2   1   2   2   2   2
#     4  10  22  44  70  98 132 160 224 268 324 378
#     4  10  23  43  68  94 130 170 214 272 326 383
#     4  12  20  42  66  88 132 172 210 264 324 376
#     4  11  20  41  72  88 131 178 208 258 331 380
#     4  10  20  42  66  92 130 173 213 269 323 378
#     4  12  24  40  65  99 132 170 219 269 314 387
#     4  10  21  40  74  94 125 179 213 261 330 386
#
# _framework density 20.332837999999999
#
# number of rings (size 3 to 8) (size 9 to 14) (size 15 to 20)
#    0.000    1.333    5.000    0.500    0.000    3.333 
#   15.000    0.000    0.000    0.000    0.000    0.000 
#    0.000    0.000    0.000    0.000    0.000    0.000 
#
# Total GULP energy -66870.916195 kJ/mol
# GULP energy per Si atom -5572.576350 kJ/mol
# Density = 2.028656 g / cm^3
# Si number density = 20.332838 Si / 1000 Ang^3
#
#
#
# Elastic Constant Matrix: (Units=GPa)
#
#
# Indices 1 2 3 4 5 6 
#
# 1 104.3778 47.3017 35.7387 0.0000 -8.2627 0.0000
# 2 47.3017 115.8043 41.6310 0.0000 -2.7488 0.0000
# 3 35.7387 41.6310 76.8363 0.0000 -1.4461 0.0000
# 4 0.0000 0.0000 0.0000 12.7413 0.0000 -29.6388
# 5 -8.2627 -2.7488 -1.4461 0.0000 21.2820 0.0000
# 6 0.0000 0.0000 0.0000 -29.6388 0.0000 5.4153
#
#
#
# Elastic Compliance Matrix: (Units=1/GPa)
#
#
# Indices 1 2 3 4 5 6 
#
# 1 0.012975 -0.003797 -0.003897 0.000000 0.004282 0.000000
# 2 -0.003797 0.011856 -0.004663 0.000000 -0.000260 0.000000
# 3 -0.003897 -0.004663 0.017336 0.000000 -0.000937 0.000000
# 4 0.000000 0.000000 0.000000 -0.006690 0.000000 -0.036616
# 5 0.004282 -0.000260 -0.000937 0.000000 0.048553 0.000000
# 6 0.000000 0.000000 0.000000 -0.036616 0.000000 -0.015741
#
#
# Mechanical properties :
#
#
# Convention : Reuss Voigt Hill
#
# Bulk Modulus (GPa) = 57.29532 60.70682 59.00107
# Shear Modulus (GPa) = 50.59668 19.37753 34.98710
#
# Velocity S-wave (km/s) = 4.99382 3.09045 4.15266
# Velocity P-wave (km/s) = 7.84161 6.53114 7.21619
#
# Compressibility (1/GPa) = 0.01745343
#
# Stress axis : x y z
#
# Youngs Moduli (GPa) = 77.07355 84.34374 57.68373
#
# Poissons Ratio (x) = 0.32026 0.22479
# Poissons Ratio (y) = 0.29265 0.26896
# Poissons Ratio (z) = 0.30035 0.39326
#
# Static dielectric constant tensor:
#      x y z
#    x 1.784440 0.000000 -0.049120 
#    y 0.000000 1.747010 0.000000 
#    z -0.049120 0.000000 1.711740 
# 
# From -- ./inp_files/13858.got.cif
#   From: 2010.05.17/outbox.cif.g08.bks.cpg/sg3_7_cif.got.tgz:13858.got - 2010.06.03 18:33:08.
