data_PCOD9113261
_publ_section_title
;
Structure prediction by ZEFSAII (Michael W. Deem and Ramdas Pophale) SiO2 
 PCOD9113261
Probable space group: P 2
;
_chemical_formula_sum "Si O2"
_cell_formula_units_Z 15
_cell_length_a 23.227704
_cell_length_b 6.341849
_cell_length_c 7.792758
_cell_angle_alpha 90.000000
_cell_angle_beta 142.637884
_cell_angle_gamma 90.000000
_cell_volume 696.618559
_symmetry_space_group_name_H-M "P 2"
_symmetry_group_IT_number 3
_symmetry_cell_setting 'monoclinic'
loop_
_space_group_symop_operation_xyz
x,y,z
-x,y,-z
loop_
_atom_site_type_symbol
_atom_site_label
_atom_site_fract_x
_atom_site_fract_y
_atom_site_fract_z
Si Si1 0.648057 0.357050 0.679952
Si Si2 0.785847 0.851737 0.712353
Si Si3 0.345775 0.750550 0.072324
Si Si4 0.500000 0.041873 0.500000
Si Si5 0.741835 0.456897 0.417567
Si Si6 0.106020 0.121416 0.318121
Si Si7 0.811125 0.048579 0.130623
Si Si8 0.390195 0.149277 0.746904
O O1 0.630224 0.578047 0.726544
O O2 0.574054 0.188611 0.580903
O O3 0.624245 0.337490 0.425136
O O4 0.754559 0.268250 0.962553
O O5 0.841777 0.949601 0.681625
O O6 0.680916 0.959757 0.468332
O O7 0.773780 0.601452 0.656361
O O8 0.833993 0.937797 0.002474
O O9 0.436857 0.886438 0.234303
O O10 0.299947 0.629556 0.807759
O O11 0.268291 0.901722 0.970951
O O12 0.834520 0.335038 0.572427
O O13 0.660889 0.271634 0.218864
O O14 0.112265 0.072308 0.536575
O O15 0.000000 0.141253 0.000000
O O16 0.500000 0.092448 0.000000
#
# Coordination Sequence:
#
# PCOD9113261 Si02
#       8
#     2   2   2   1   2   2   2   2
#     4  10  21  38  55  84 124 169 221 267 329 384
#     4  10  23  44  66  94 133 171 224 268 332 400
#     4  11  21  37  64  88 125 172 219 269 327 392
#     4  10  24  30  58  86 122 170 228 262 314 394
#     4  11  23  41  65  95 132 173 220 276 334 395
#     4  11  24  44  71  99 129 170 220 279 347 402
#     4  10  21  42  66  93 125 171 210 271 337 395
#     4  10  24  36  59  89 131 176 217 274 323 385
#
# _framework density 21.532586999999999
#
# number of rings (size 3 to 8) (size 9 to 14) (size 15 to 20)
#    0.000    1.600    2.667    1.200    5.600    1.600 
#    0.000    0.000    0.000    0.000    0.000    0.000 
#    0.000    0.000    0.000    0.000    0.000    0.000 
#
# Total GULP energy -83690.585885 kJ/mol
# GULP energy per Si atom -5579.372392 kJ/mol
# Density = 2.148358 g / cm^3
# Si number density = 21.532587 Si / 1000 Ang^3
#
#
#
# Elastic Constant Matrix: (Units=GPa)
#
#
# Indices 1 2 3 4 5 6 
#
# 1 32.1929 -0.9507 21.3972 0.0000 -4.4894 0.0000
# 2 -0.9507 65.5975 17.9527 0.0000 4.3506 0.0000
# 3 21.3972 17.9527 100.1108 0.0000 8.1542 0.0000
# 4 0.0000 0.0000 0.0000 21.4313 0.0000 -11.1001
# 5 -4.4894 4.3506 8.1542 0.0000 31.9658 0.0000
# 6 0.0000 0.0000 0.0000 -11.1001 0.0000 23.3267
#
#
#
# Elastic Compliance Matrix: (Units=1/GPa)
#
#
# Indices 1 2 3 4 5 6 
#
# 1 0.038324 0.002599 -0.009259 0.000000 0.007391 0.000000
# 2 0.002599 0.016276 -0.003394 0.000000 -0.000984 0.000000
# 3 -0.009259 -0.003394 0.012913 0.000000 -0.004133 0.000000
# 4 0.000000 0.000000 0.000000 0.061922 0.000000 0.029466
# 5 0.007391 -0.000984 -0.004133 0.000000 0.033510 0.000000
# 6 0.000000 0.000000 0.000000 0.029466 0.000000 0.056891
#
#
# Mechanical properties :
#
#
# Convention : Reuss Voigt Hill
#
# Bulk Modulus (GPa) = 21.09456 30.52218 25.80837
# Shear Modulus (GPa) = 19.55058 25.97822 22.76440
#
# Velocity S-wave (km/s) = 3.01650 3.47718 3.25500
# Velocity P-wave (km/s) = 4.68510 5.50697 5.11258
#
# Compressibility (1/GPa) = 0.04740559
#
# Stress axis : x y z
#
# Youngs Moduli (GPa) = 26.09300 61.43882 77.43969
#
# Poissons Ratio (x) = -0.15970 0.71705
# Poissons Ratio (y) = -0.06783 0.26285
# Poissons Ratio (z) = 0.24161 0.20854
#
# Static dielectric constant tensor:
#      x y z
#    x 1.977980 0.000000 -0.057190 
#    y 0.000000 1.784890 0.000000 
#    z -0.057190 0.000000 1.825930 
# 
# From -- ./inp_files/8881.got.cif
#   From: 2010.05.17/outbox.cif.g08.bks.cpg/sg3_5_cif.got.tgz:8881.got - 2010.06.03 18:33:08.
