data_PCOD9113745
_publ_section_title
;
Structure prediction by ZEFSAII (Michael W. Deem and Ramdas Pophale) SiO2 
 PCOD9113745
Probable space group: P 2
;
_chemical_formula_sum "Si O2"
_cell_formula_units_Z 14
_cell_length_a 9.735141
_cell_length_b 8.960445
_cell_length_c 11.947266
_cell_angle_alpha 90.000000
_cell_angle_beta 37.145889
_cell_angle_gamma 90.000000
_cell_volume 629.313395
_symmetry_space_group_name_H-M "P 2"
_symmetry_group_IT_number 3
_symmetry_cell_setting 'monoclinic'
loop_
_space_group_symop_operation_xyz
x,y,z
-x,y,-z
loop_
_atom_site_type_symbol
_atom_site_label
_atom_site_fract_x
_atom_site_fract_y
_atom_site_fract_z
Si Si1 0.737930 0.431550 0.321732
Si Si2 0.863398 0.564496 0.845559
Si Si3 0.367631 0.675505 0.796546
Si Si4 0.433996 0.012733 0.673132
Si Si5 0.000000 0.211899 0.000000
Si Si6 0.731163 0.098415 0.680099
Si Si7 0.750553 0.765259 0.714238
Si Si8 0.500000 0.325519 0.000000
O O1 0.500000 0.349089 0.500000
O O2 0.652384 0.553481 0.287271
O O3 0.874474 0.512612 0.332752
O O4 0.929451 0.322866 0.146172
O O5 0.781686 0.688844 0.812484
O O6 0.694550 0.427874 0.929474
O O7 0.836200 0.635805 0.986121
O O8 0.378028 0.840234 0.738138
O O9 0.584171 0.674180 0.740220
O O10 0.500000 0.019985 0.500000
O O11 0.640922 0.075776 0.612934
O O12 0.219358 0.106473 0.858591
O O13 0.608790 0.224600 0.831775
O O14 0.000000 0.125350 0.500000
O O15 0.677447 0.937109 0.770085
O O16 0.000000 0.768223 0.500000
#
# Coordination Sequence:
#
# PCOD9113745 Si02
#       8
#     2   2   2   2   1   2   2   1
#     4  12  26  46  71 103 145 192 237 296 360 428
#     4  12  24  45  71 106 139 190 243 298 357 422
#     4  11  23  46  71 104 139 186 248 297 361 418
#     4  11  27  48  76 108 143 191 243 300 359 427
#     4  12  26  46  68 104 146 186 234 290 358 436
#     4  10  26  47  72 106 145 187 238 290 358 429
#     4  10  22  43  69 104 138 186 241 299 350 422
#     4  12  26  44  74 106 146 192 232 292 360 426
#
# _framework density 22.246466000000002
#
# number of rings (size 3 to 8) (size 9 to 14) (size 15 to 20)
#    0.000    0.857    2.857    2.571    6.000    6.286 
#    0.000    0.000    0.000    0.000    0.000    0.000 
#    0.000    0.000    0.000    0.000    0.000    0.000 
#
# Total GULP energy -78254.619662 kJ/mol
# GULP energy per Si atom -5589.615690 kJ/mol
# Density = 2.219583 g / cm^3
# Si number density = 22.246466 Si / 1000 Ang^3
#
#
#
# Elastic Constant Matrix: (Units=GPa)
#
#
# Indices 1 2 3 4 5 6 
#
# 1 128.3890 54.7716 58.2625 0.0000 -1.9725 0.0000
# 2 54.7716 87.0995 41.7158 0.0000 23.1884 0.0000
# 3 58.2625 41.7158 106.8767 0.0000 -4.3916 0.0000
# 4 0.0000 0.0000 0.0000 -130.8432 0.0000 -56.5331
# 5 -1.9725 23.1884 -4.3916 0.0000 37.5269 0.0000
# 6 0.0000 0.0000 0.0000 -56.5331 0.0000 2.5634
#
#
#
# Elastic Compliance Matrix: (Units=1/GPa)
#
#
# Indices 1 2 3 4 5 6 
#
# 1 0.012816 -0.007506 -0.003857 0.000000 0.004860 0.000000
# 2 -0.007506 0.022842 -0.005446 0.000000 -0.015146 0.000000
# 3 -0.003857 -0.005446 0.013781 0.000000 0.004775 0.000000
# 4 0.000000 0.000000 0.000000 -0.000726 0.000000 -0.016009
# 5 0.004860 -0.015146 0.004775 0.000000 0.036821 0.000000
# 6 0.000000 0.000000 0.000000 -0.016009 0.000000 0.037051
#
#
# Mechanical properties :
#
#
# Convention : Reuss Voigt Hill
#
# Bulk Modulus (GPa) = 63.20813 70.20722 66.70767
# Shear Modulus (GPa) = 30.96424 -6.97621 11.99401
#
# Velocity S-wave (km/s) = 3.73483 -1.77276 2.32446
# Velocity P-wave (km/s) = 6.86097 5.23804 6.10369
#
# Compressibility (1/GPa) = 0.01582075
#
# Stress axis : x y z
#
# Youngs Moduli (GPa) = 78.02893 43.77951 72.56258
#
# Poissons Ratio (x) = 0.32859 0.27988
# Poissons Ratio (y) = 0.58565 0.39520
# Poissons Ratio (z) = 0.30096 0.23844
#
# Static dielectric constant tensor:
#      x y z
#    x 1.823800 0.000000 0.019300 
#    y 0.000000 1.835310 0.000000 
#    z 0.019300 0.000000 1.934020 
# 
# From -- ./inp_files/10683.got.cif
#   From: 2010.05.17/outbox.cif.g08.bks.cpg/sg3_6_cif.got.tgz:10683.got - 2010.06.03 18:33:08.
