data_PCOD9113578
_publ_section_title
;
Structure prediction by ZEFSAII (Michael W. Deem and Ramdas Pophale) SiO2 
 PCOD9113578
Probable space group: P 2
;
_chemical_formula_sum "Si O2"
_cell_formula_units_Z 10
_cell_length_a 7.070066
_cell_length_b 7.894000
_cell_length_c 8.634873
_cell_angle_alpha 90.000000
_cell_angle_beta 66.319029
_cell_angle_gamma 90.000000
_cell_volume 441.342046
_symmetry_space_group_name_H-M "P 2"
_symmetry_group_IT_number 3
_symmetry_cell_setting 'monoclinic'
loop_
_space_group_symop_operation_xyz
x,y,z
-x,y,-z
loop_
_atom_site_type_symbol
_atom_site_label
_atom_site_fract_x
_atom_site_fract_y
_atom_site_fract_z
Si Si1 0.738849 0.049970 0.474366
Si Si2 0.205672 0.901653 0.871554
Si Si3 0.333262 0.358193 0.290313
Si Si4 0.767932 0.267196 0.025731
Si Si5 0.598875 0.722143 0.638133
O O1 0.500000 0.061683 0.500000
O O2 0.767925 0.222651 0.558849
O O3 0.842390 0.991098 0.280105
O O4 0.744625 0.886925 0.584071
O O5 0.736706 0.325349 0.861177
O O6 0.399177 0.777746 0.802148
O O7 0.255749 0.063868 0.959845
O O8 0.000000 0.814625 0.000000
O O9 0.584399 0.334897 0.197442
O O10 0.293681 0.550919 0.348312
O O11 0.000000 0.310284 0.000000
O O12 0.500000 0.695571 0.500000
#
# Coordination Sequence:
#
# PCOD9113578 Si02
#       5
#     2   2   2   2   2
#     4   9  17  36  63  93 122 169 209 256 318 382
#     4   9  18  38  64  95 130 168 206 271 323 368
#     4  11  20  38  67  91 125 177 210 256 324 379
#     4  10  22  39  59  97 129 165 216 261 317 374
#     4   9  19  34  64  95 117 169 214 251 317 383
#
# _framework density 22.658162999999998
#
# number of rings (size 3 to 8) (size 9 to 14) (size 15 to 20)
#    0.000    2.800    4.000    0.600    0.000    0.800 
#    7.200    4.000    0.000    0.000   10.400    0.000 
#    0.000    0.000    0.000    0.000    0.000    0.000 
#
# Total GULP energy -55826.967833 kJ/mol
# GULP energy per Si atom -5582.696783 kJ/mol
# Density = 2.260659 g / cm^3
# Si number density = 22.658163 Si / 1000 Ang^3
#
#
#
# Elastic Constant Matrix: (Units=GPa)
#
#
# Indices 1 2 3 4 5 6 
#
# 1 62.6026 32.1744 25.1365 0.0000 -6.5091 0.0000
# 2 32.1744 178.2384 33.6193 0.0000 18.0199 0.0000
# 3 25.1365 33.6193 91.1576 0.0000 -3.7528 0.0000
# 4 0.0000 0.0000 0.0000 38.5227 0.0000 -12.1355
# 5 -6.5091 18.0199 -3.7528 0.0000 28.0082 0.0000
# 6 0.0000 0.0000 0.0000 -12.1355 0.0000 42.8088
#
#
#
# Elastic Compliance Matrix: (Units=1/GPa)
#
#
# Indices 1 2 3 4 5 6 
#
# 1 0.020036 -0.003514 -0.003966 0.000000 0.006386 0.000000
# 2 -0.003514 0.007181 -0.001914 0.000000 -0.005694 0.000000
# 3 -0.003966 -0.001914 0.012853 0.000000 0.002032 0.000000
# 4 0.000000 0.000000 0.000000 0.028504 0.000000 0.008080
# 5 0.006386 -0.005694 0.002032 0.000000 0.041123 0.000000
# 6 0.000000 0.000000 0.000000 0.008080 0.000000 0.025650
#
#
# Mechanical properties :
#
#
# Convention : Reuss Voigt Hill
#
# Bulk Modulus (GPa) = 46.98690 57.09545 52.04117
# Shear Modulus (GPa) = 31.01128 37.93916 34.47522
#
# Velocity S-wave (km/s) = 3.70355 4.09640 3.90492
# Velocity P-wave (km/s) = 6.25066 6.90126 6.58400
#
# Compressibility (1/GPa) = 0.02128253
#
# Stress axis : x y z
#
# Youngs Moduli (GPa) = 49.90905 139.24709 77.80216
#
# Poissons Ratio (x) = 0.48937 0.30856
# Poissons Ratio (y) = 0.17540 0.14890
# Poissons Ratio (z) = 0.19794 0.26650
#
# Static dielectric constant tensor:
#      x y z
#    x 1.836630 0.000000 -0.010410 
#    y 0.000000 1.843640 0.000000 
#    z -0.010410 0.000000 1.913770 
# 
# From -- ./inp_files/13451.got.cif
#   From: 2010.05.17/outbox.cif.g08.bks.cpg/sg3_7_cif.got.tgz:13451.got - 2010.06.03 18:33:08.
