data_PCOD9113050
_publ_section_title
;
Structure prediction by ZEFSAII (Michael W. Deem and Ramdas Pophale) SiO2 
 PCOD9113050
Probable space group: P 2
;
_chemical_formula_sum "Si O2"
_cell_formula_units_Z 12
_cell_length_a 13.897298
_cell_length_b 5.476521
_cell_length_c 8.222213
_cell_angle_alpha 90.000000
_cell_angle_beta 130.734910
_cell_angle_gamma 90.000000
_cell_volume 474.178953
_symmetry_space_group_name_H-M "P 2"
_symmetry_group_IT_number 3
_symmetry_cell_setting 'monoclinic'
loop_
_space_group_symop_operation_xyz
x,y,z
-x,y,-z
loop_
_atom_site_type_symbol
_atom_site_label
_atom_site_fract_x
_atom_site_fract_y
_atom_site_fract_z
Si Si1 0.085235 0.721440 0.879312
Si Si2 0.656119 0.196951 0.055664
Si Si3 0.739254 0.777870 0.611260
Si Si4 0.058479 0.222289 0.748215
Si Si5 0.747523 0.696299 0.266280
Si Si6 0.582558 0.277796 0.431466
O O1 0.020814 0.458189 0.808609
O O2 0.154351 0.703337 0.776224
O O3 0.017455 0.980303 0.794974
O O4 0.177980 0.740847 0.135858
O O5 0.786282 0.205005 0.089641
O O6 0.683545 0.431499 0.197170
O O7 0.657736 0.927777 0.133083
O O8 0.524077 0.243976 0.823800
O O9 0.801373 0.737956 0.503153
O O10 0.638210 0.552313 0.502479
O O11 0.681428 0.051933 0.540650
O O12 0.000000 0.227828 0.500000
O O13 0.500000 0.239191 0.500000
#
# Coordination Sequence:
#
# PCOD9113050 Si02
#       6
#     2   2   2   2   2   2
#     4  10  21  40  61  88 121 146 190 246 280 336
#     4  10  21  37  56  82 120 150 190 247 279 330
#     4  12  24  38  62  86 118 161 190 225 286 348
#     4  10  20  38  65  86 109 153 194 235 296 342
#     4  10  21  38  58  83 118 155 193 232 282 334
#     4  12  23  37  57  87 121 156 194 232 280 338
#
# _framework density 25.306899999999999
#
# number of rings (size 3 to 8) (size 9 to 14) (size 15 to 20)
#    0.000    1.333    0.000    8.000    0.000    4.000 
#    0.000    0.000    0.000   24.000    0.000    0.000 
#    0.000    0.000    0.000    0.000    0.000    0.000 
#
# Total GULP energy -67111.821319 kJ/mol
# GULP energy per Si atom -5592.651777 kJ/mol
# Density = 2.524930 g / cm^3
# Si number density = 25.306900 Si / 1000 Ang^3
#
#
#
# Elastic Constant Matrix: (Units=GPa)
#
#
# Indices 1 2 3 4 5 6 
#
# 1 60.9257 -1.2336 29.5428 0.0000 -14.5838 0.0000
# 2 -1.2336 168.0657 28.2581 0.0000 36.8719 0.0000
# 3 29.5428 28.2581 123.4561 0.0000 9.7081 0.0000
# 4 0.0000 0.0000 0.0000 43.9831 0.0000 -6.0828
# 5 -14.5838 36.8719 9.7081 0.0000 39.8405 0.0000
# 6 0.0000 0.0000 0.0000 -6.0828 0.0000 62.5623
#
#
#
# Elastic Compliance Matrix: (Units=1/GPa)
#
#
# Indices 1 2 3 4 5 6 
#
# 1 0.021660 -0.001158 -0.005736 0.000000 0.010398 0.000000
# 2 -0.001158 0.007703 -0.000910 0.000000 -0.007331 0.000000
# 3 -0.005736 -0.000910 0.009971 0.000000 -0.003688 0.000000
# 4 0.000000 0.000000 0.000000 0.023046 0.000000 0.002241
# 5 0.010398 -0.007331 -0.003688 0.000000 0.036590 0.000000
# 6 0.000000 0.000000 0.000000 0.002241 0.000000 0.016202
#
#
# Mechanical properties :
#
#
# Convention : Reuss Voigt Hill
#
# Bulk Modulus (GPa) = 42.14545 51.73134 46.93840
# Shear Modulus (GPa) = 36.05227 49.00251 42.52739
#
# Velocity S-wave (km/s) = 3.77849 4.40515 4.10380
# Velocity P-wave (km/s) = 5.97711 6.80880 6.40646
#
# Compressibility (1/GPa) = 0.02372735
#
# Stress axis : x y z
#
# Youngs Moduli (GPa) = 46.16726 129.82202 100.29277
#
# Poissons Ratio (x) = 0.15031 0.57527
# Poissons Ratio (y) = 0.05345 0.09122
# Poissons Ratio (z) = 0.26481 0.11808
#
# Static dielectric constant tensor:
#      x y z
#    x 2.027650 0.000000 0.057810 
#    y 0.000000 2.042770 0.000000 
#    z 0.057810 0.000000 1.798820 
# 
# From -- ./inp_files/8788.got.cif
#   From: 2010.05.17/outbox.cif.g08.bks.cpg/sg3_5_cif.got.tgz:8788.got - 2010.06.03 18:33:08.
