data_PCOD9113706
_publ_section_title
;
Structure prediction by ZEFSAII (Michael W. Deem and Ramdas Pophale) SiO2 
 PCOD9113706
Probable space group: P 2
;
_chemical_formula_sum "Si O2"
_cell_formula_units_Z 11
_cell_length_a 7.186453
_cell_length_b 13.150238
_cell_length_c 5.343249
_cell_angle_alpha 90.000000
_cell_angle_beta 78.687200
_cell_angle_gamma 90.000000
_cell_volume 495.145229
_symmetry_space_group_name_H-M "P 2"
_symmetry_group_IT_number 3
_symmetry_cell_setting 'monoclinic'
loop_
_space_group_symop_operation_xyz
x,y,z
-x,y,-z
loop_
_atom_site_type_symbol
_atom_site_label
_atom_site_fract_x
_atom_site_fract_y
_atom_site_fract_z
Si Si1 0.228712 0.062880 0.953768
Si Si2 0.000000 0.317258 0.500000
Si Si3 0.795144 0.455212 0.932411
Si Si4 0.228169 0.943045 0.453090
Si Si5 0.500000 0.761161 0.500000
Si Si6 0.671165 0.264395 0.261411
Si Si7 0.500000 0.630263 0.000000
O O1 0.313740 0.175617 0.945532
O O2 0.285027 0.012117 0.675389
O O3 0.000000 0.066089 0.000000
O O4 0.285546 0.995886 0.177627
O O5 0.150434 0.389302 0.322922
O O6 0.126223 0.252249 0.651834
O O7 0.680090 0.376799 0.140037
O O8 0.677761 0.555296 0.910012
O O9 0.000000 0.478209 0.000000
O O10 0.326187 0.835163 0.474300
O O11 0.000000 0.932763 0.500000
O O12 0.536326 0.694870 0.241469
O O13 0.500000 0.253157 0.500000
#
# Coordination Sequence:
#
# PCOD9113706 Si02
#       7
#     2   1   2   2   1   2   1
#     4  10  22  42  71 102 140 187 227 272 341 418
#     4  10  22  42  68  94 154 178 238 268 338 410
#     4  10  24  43  69 102 143 186 228 285 342 417
#     4  10  24  47  70  98 137 177 232 289 346 410
#     4  12  28  48  72 102 132 174 238 308 354 412
#     4  11  24  40  65 107 146 186 226 277 335 419
#     4  12  28  46  74 102 136 176 240 294 362 414
#
# _framework density 22.215700999999999
#
# number of rings (size 3 to 8) (size 9 to 14) (size 15 to 20)
#    0.000    1.455    0.000    3.818   14.000    1.455 
#    0.000    0.000    0.000    0.000    0.000    0.000 
#    0.000    0.000    0.000    0.000    0.000    0.000 
#
# Total GULP energy -61594.562288 kJ/mol
# GULP energy per Si atom -5599.505663 kJ/mol
# Density = 2.216514 g / cm^3
# Si number density = 22.215701 Si / 1000 Ang^3
#
#
#
# Elastic Constant Matrix: (Units=GPa)
#
#
# Indices 1 2 3 4 5 6 
#
# 1 110.4656 56.9310 44.9173 0.0000 13.2946 0.0000
# 2 56.9310 122.7574 58.4363 0.0000 5.8432 0.0000
# 3 44.9173 58.4363 142.6788 0.0000 7.5234 0.0000
# 4 0.0000 0.0000 0.0000 -48.0609 0.0000 -14.5674
# 5 13.2946 5.8432 7.5234 0.0000 40.9896 0.0000
# 6 0.0000 0.0000 0.0000 -14.5674 0.0000 34.1502
#
#
#
# Elastic Compliance Matrix: (Units=1/GPa)
#
#
# Indices 1 2 3 4 5 6 
#
# 1 0.012673 -0.004856 -0.001839 0.000000 -0.003081 0.000000
# 2 -0.004856 0.011999 -0.003411 0.000000 0.000491 0.000000
# 3 -0.001839 -0.003411 0.009015 0.000000 -0.000572 0.000000
# 4 0.000000 0.000000 0.000000 -0.018425 0.000000 -0.007859
# 5 -0.003081 0.000491 -0.000572 0.000000 0.025431 0.000000
# 6 0.000000 0.000000 0.000000 -0.007859 0.000000 0.025930
#
#
# Mechanical properties :
#
#
# Convention : Reuss Voigt Hill
#
# Bulk Modulus (GPa) = 74.20840 77.38567 75.79703
# Shear Modulus (GPa) = 54.74874 19.79026 37.26950
#
# Velocity S-wave (km/s) = 4.96967 2.98790 4.10032
# Velocity P-wave (km/s) = 8.14901 6.84199 7.52393
#
# Compressibility (1/GPa) = 0.01347556
#
# Stress axis : x y z
#
# Youngs Moduli (GPa) = 78.90499 83.34253 110.92674
#
# Poissons Ratio (x) = 0.40468 0.20395
# Poissons Ratio (y) = 0.38314 0.37842
# Poissons Ratio (z) = 0.14508 0.28432
#
# Static dielectric constant tensor:
#      x y z
#    x 1.834920 0.000000 0.011710 
#    y 0.000000 1.777060 0.000000 
#    z 0.011710 0.000000 1.856440 
# 
# From -- ./inp_files/1082.got.cif
#   From: 2010.05.17/outbox.cif.g08.bks.cpg/sg3_1_cif.got.tgz:1082.got - 2010.06.03 18:33:08.
