data_PCOD9113688
_publ_section_title
;
Structure prediction by ZEFSAII (Michael W. Deem and Ramdas Pophale) SiO2 
 PCOD9113688
Probable space group: P 2
;
_chemical_formula_sum "Si O2"
_cell_formula_units_Z 16
_cell_length_a 21.605715
_cell_length_b 5.504898
_cell_length_c 7.415926
_cell_angle_alpha 90.000000
_cell_angle_beta 133.388611
_cell_angle_gamma 90.000000
_cell_volume 640.981035
_symmetry_space_group_name_H-M "P 2"
_symmetry_group_IT_number 3
_symmetry_cell_setting 'monoclinic'
loop_
_space_group_symop_operation_xyz
x,y,z
-x,y,-z
loop_
_atom_site_type_symbol
_atom_site_label
_atom_site_fract_x
_atom_site_fract_y
_atom_site_fract_z
Si Si1 0.342384 0.705230 0.512975
Si Si2 0.935808 0.818319 0.755490
Si Si3 0.196650 0.200633 0.515634
Si Si4 0.611457 0.207078 0.220288
Si Si5 0.843765 0.534389 0.866487
Si Si6 0.425753 0.363761 0.205049
Si Si7 0.599816 0.861680 0.746715
Si Si8 0.914659 0.475645 0.402347
O O1 0.382872 0.448791 0.649361
O O2 0.242096 0.684215 0.346109
O O3 0.352641 0.740329 0.322525
O O4 0.385420 0.942823 0.685493
O O5 0.917851 0.639633 0.888503
O O6 0.954421 0.697185 0.599786
O O7 0.845612 0.943575 0.535471
O O8 0.000000 0.993333 0.000000
O O9 0.297778 0.218095 0.709194
O O10 0.172543 0.276926 0.261893
O O11 0.148955 0.358269 0.575811
O O12 0.544807 0.240348 0.923800
O O13 0.863325 0.530189 0.116703
O O14 0.500000 0.401940 0.500000
O O15 0.393973 0.639057 0.097131
O O16 0.370340 0.140413 0.175348
O O17 0.500000 0.892665 0.500000
O O18 0.000000 0.335677 0.500000
#
# Coordination Sequence:
#
# PCOD9113688 Si02
#       8
#     2   2   2   2   2   2   2   2
#     4  11  23  43  69  97 132 177 221 276 333 401
#     4  11  22  40  62  90 131 170 219 287 328 397
#     4  10  25  40  64  91 130 172 221 279 335 391
#     4  11  23  44  68  99 131 175 226 271 338 397
#     4  10  23  43  60  91 132 166 227 272 335 398
#     4  10  22  42  66  97 135 168 213 273 328 396
#     4  10  22  42  65  99 133 168 214 268 331 394
#     4  11  24  40  61  95 125 176 221 275 341 401
#
# _framework density 24.961739000000001
#
# number of rings (size 3 to 8) (size 9 to 14) (size 15 to 20)
#    0.000    1.500    2.500    1.500    3.500    2.500 
#    0.000   15.000    0.000    0.000    0.000    0.000 
#    0.000    0.000    0.000    0.000    0.000    0.000 
#
# Total GULP energy -89141.975907 kJ/mol
# GULP energy per Si atom -5571.373494 kJ/mol
# Density = 2.490492 g / cm^3
# Si number density = 24.961739 Si / 1000 Ang^3
#
#
#
# Elastic Constant Matrix: (Units=GPa)
#
#
# Indices 1 2 3 4 5 6 
#
# 1 61.0904 17.3436 -5.4505 0.0000 -4.1035 0.0000
# 2 17.3436 105.5995 32.8503 0.0000 3.8421 0.0000
# 3 -5.4505 32.8503 138.9744 0.0000 -17.0759 0.0000
# 4 0.0000 0.0000 0.0000 20.0815 0.0000 -7.2126
# 5 -4.1035 3.8421 -17.0759 0.0000 36.3049 0.0000
# 6 0.0000 0.0000 0.0000 -7.2126 0.0000 42.2590
#
#
#
# Elastic Compliance Matrix: (Units=1/GPa)
#
#
# Indices 1 2 3 4 5 6 
#
# 1 0.017808 -0.003659 0.001972 0.000000 0.003328 0.000000
# 2 -0.003659 0.011166 -0.003162 0.000000 -0.003082 0.000000
# 3 0.001972 -0.003162 0.008585 0.000000 0.004595 0.000000
# 4 0.000000 0.000000 0.000000 0.053049 0.000000 0.009054
# 5 0.003328 -0.003082 0.004595 0.000000 0.030408 0.000000
# 6 0.000000 0.000000 0.000000 0.009054 0.000000 0.025209
#
#
# Mechanical properties :
#
#
# Convention : Reuss Voigt Hill
#
# Bulk Modulus (GPa) = 35.89205 43.90568 39.89887
# Shear Modulus (GPa) = 30.26455 37.12381 33.69418
#
# Velocity S-wave (km/s) = 3.48579 3.86064 3.67799
# Velocity P-wave (km/s) = 5.53272 6.12374 5.83571
#
# Compressibility (1/GPa) = 0.02786132
#
# Stress axis : x y z
#
# Youngs Moduli (GPa) = 56.15597 89.55392 116.48320
#
# Poissons Ratio (x) = 0.32770 -0.22973
# Poissons Ratio (y) = 0.20549 0.36829
# Poissons Ratio (z) = -0.11075 0.28315
#
# Static dielectric constant tensor:
#      x y z
#    x 1.191200 0.000000 -0.036100 
#    y 0.000000 2.068270 0.000000 
#    z -0.036100 0.000000 2.088670 
# 
# From -- ./inp_files/3909.got.cif
#   From: 2010.05.17/outbox.cif.g08.bks.cpg/sg3_2_cif.got.tgz:3909.got - 2010.06.03 18:33:08.
