data_PCOD9113215
_publ_section_title
;
Structure prediction by ZEFSAII (Michael W. Deem and Ramdas Pophale) SiO2 
 PCOD9113215
Probable space group: P 2
;
_chemical_formula_sum "Si O2"
_cell_formula_units_Z 13
_cell_length_a 14.991107
_cell_length_b 6.683795
_cell_length_c 8.608555
_cell_angle_alpha 90.000000
_cell_angle_beta 56.728289
_cell_angle_gamma 90.000000
_cell_volume 721.164021
_symmetry_space_group_name_H-M "P 2"
_symmetry_group_IT_number 3
_symmetry_cell_setting 'monoclinic'
loop_
_space_group_symop_operation_xyz
x,y,z
-x,y,-z
loop_
_atom_site_type_symbol
_atom_site_label
_atom_site_fract_x
_atom_site_fract_y
_atom_site_fract_z
Si Si1 0.792702 0.528680 0.090627
Si Si2 0.182996 0.795207 0.647926
Si Si3 0.994502 0.537285 0.689829
Si Si4 0.905977 0.202327 0.200554
Si Si5 0.500000 0.086681 0.000000
Si Si6 0.587733 0.463574 0.092186
Si Si7 0.616746 0.708488 0.753418
O O1 0.793222 0.721311 0.200718
O O2 0.841028 0.355806 0.154531
O O3 0.677366 0.472606 0.136437
O O4 0.875832 0.559670 0.870880
O O5 0.072321 0.700641 0.693260
O O6 0.277780 0.719325 0.448222
O O7 0.168781 0.031508 0.662439
O O8 0.039710 0.328197 0.713734
O O9 0.000000 0.547856 0.500000
O O10 0.000000 0.116776 0.000000
O O11 0.441998 0.240207 0.936891
O O12 0.577822 0.931865 0.836434
O O13 0.479977 0.586559 0.236253
O O14 0.631134 0.584167 0.899314
#
# Coordination Sequence:
#
# PCOD9113215 Si02
#       7
#     2   2   2   2   1   2   2
#     4  10  21  36  55  79 109 142 177 217 265 318
#     4  11  21  36  55  79 113 142 171 218 269 316
#     4  10  21  37  57  81 105 138 182 220 261 315
#     4   9  20  36  53  78 110 142 175 215 266 319
#     4   8  18  36  56  78 106 138 180 226 262 302
#     4   9  19  38  58  77 107 141 178 224 264 304
#     4   9  20  35  56  82 104 139 184 217 261 320
#
# _framework density 18.026413000000002
#
# number of rings (size 3 to 8) (size 9 to 14) (size 15 to 20)
#    0.000    2.769    0.000    3.231    0.000    9.846 
#    0.000    3.077    0.000    0.000    0.000    0.000 
#    0.000    0.000    0.000    0.000    0.000    0.000 
#
# Total GULP energy -72489.204863 kJ/mol
# GULP energy per Si atom -5576.092682 kJ/mol
# Density = 1.798538 g / cm^3
# Si number density = 18.026413 Si / 1000 Ang^3
#
#
#
# Elastic Constant Matrix: (Units=GPa)
#
#
# Indices 1 2 3 4 5 6 
#
# 1 77.2747 0.7118 -20.2099 0.0000 8.2186 0.0000
# 2 0.7118 71.9722 4.1214 0.0000 -1.6211 0.0000
# 3 -20.2099 4.1214 7.6107 0.0000 4.6546 0.0000
# 4 0.0000 0.0000 0.0000 15.5461 0.0000 -4.9389
# 5 8.2186 -1.6211 4.6546 0.0000 29.1801 0.0000
# 6 0.0000 0.0000 0.0000 -4.9389 0.0000 6.7663
#
#
#
# Elastic Compliance Matrix: (Units=1/GPa)
#
#
# Indices 1 2 3 4 5 6 
#
# 1 0.231685 -0.049941 0.757812 0.000000 -0.188909 0.000000
# 2 -0.049941 0.025239 -0.172582 0.000000 0.042997 0.000000
# 3 0.757812 -0.172582 2.630191 0.000000 -0.642573 0.000000
# 4 0.000000 0.000000 0.000000 0.083744 0.000000 0.061127
# 5 -0.188909 0.042997 -0.642573 0.000000 0.192363 0.000000
# 6 0.000000 0.000000 0.000000 0.061127 0.000000 0.192410
#
#
# Mechanical properties :
#
#
# Convention : Reuss Voigt Hill
#
# Bulk Modulus (GPa) = 0.25267 14.01157 7.13212
# Shear Modulus (GPa) = 1.38724 21.78076 11.58400
#
# Velocity S-wave (km/s) = 0.87820 3.47979 2.53773
# Velocity P-wave (km/s) = 1.08110 4.89233 3.54286
#
# Compressibility (1/GPa) = 3.95769232
#
# Stress axis : x y z
#
# Youngs Moduli (GPa) = 4.31620 39.62070 0.38020
#
# Poissons Ratio (x) = 1.97871 -0.28812
# Poissons Ratio (y) = 0.21556 0.06562
# Poissons Ratio (z) = -3.27087 6.83783
#
# Static dielectric constant tensor:
#      x y z
#    x 1.603200 0.000000 -0.008570 
#    y 0.000000 1.609500 0.000000 
#    z -0.008570 0.000000 1.614530 
# 
# From -- ./inp_files/6731.got.cif
#   From: 2010.05.17/outbox.cif.g08.bks.cpg/sg3_4_cif.got.tgz:6731.got - 2010.06.03 18:33:08.
