data_PCOD9113685
_publ_section_title
;
Structure prediction by ZEFSAII (Michael W. Deem and Ramdas Pophale) SiO2 
 PCOD9113685
Probable space group: P 2
;
_chemical_formula_sum "Si O2"
_cell_formula_units_Z 9
_cell_length_a 13.421446
_cell_length_b 5.682673
_cell_length_c 15.663075
_cell_angle_alpha 90.000000
_cell_angle_beta 162.177429
_cell_angle_gamma 90.000000
_cell_volume 365.637119
_symmetry_space_group_name_H-M "P 2"
_symmetry_group_IT_number 3
_symmetry_cell_setting 'monoclinic'
loop_
_space_group_symop_operation_xyz
x,y,z
-x,y,-z
loop_
_atom_site_type_symbol
_atom_site_label
_atom_site_fract_x
_atom_site_fract_y
_atom_site_fract_z
Si Si1 0.099659 0.385290 0.300107
Si Si2 0.229950 0.128233 0.111466
Si Si3 0.666135 0.787617 0.379373
Si Si4 0.000000 0.539243 0.500000
Si Si5 0.215932 0.165486 0.810822
O O1 0.428016 0.228754 0.574188
O O2 0.203810 0.621052 0.436992
O O3 0.794391 0.280301 0.105260
O O4 0.958032 0.342032 0.090322
O O5 0.324556 0.906284 0.127562
O O6 0.000000 0.045652 0.000000
O O7 0.730824 0.664768 0.340719
O O8 0.900741 0.007802 0.557585
O O9 0.178392 0.370614 0.711821
O O10 0.500000 0.013484 0.000000
#
# Coordination Sequence:
#
# PCOD9113685 Si02
#       5
#     2   2   2   1   2
#     4  10  25  44  71 106 145 188 247 302 366 434
#     4  11  25  50  75 105 145 194 247 313 364 435
#     4  10  24  44  73 107 144 196 243 297 375 446
#     4  10  22  42  64 108 146 188 236 294 368 442
#     4  10  23  40  65 100 145 189 233 293 359 441
#
# _framework density 24.614568999999999
#
# number of rings (size 3 to 8) (size 9 to 14) (size 15 to 20)
#    0.000    1.778    0.000    1.333   12.444    8.000 
#    4.000    4.444    0.000    0.000    0.000    0.000 
#    0.000    0.000    0.000    0.000    0.000    0.000 
#
# Total GULP energy -50183.661835 kJ/mol
# GULP energy per Si atom -5575.962426 kJ/mol
# Density = 2.455854 g / cm^3
# Si number density = 24.614569 Si / 1000 Ang^3
#
#
#
# Elastic Constant Matrix: (Units=GPa)
#
#
# Indices 1 2 3 4 5 6 
#
# 1 152.6524 57.4928 54.6267 0.0000 37.9101 0.0000
# 2 57.4928 86.1696 21.8680 0.0000 15.2085 0.0000
# 3 54.6267 21.8680 99.6809 0.0000 23.0422 0.0000
# 4 0.0000 0.0000 0.0000 25.7252 0.0000 18.3965
# 5 37.9101 15.2085 23.0422 0.0000 47.8630 0.0000
# 6 0.0000 0.0000 0.0000 18.3965 0.0000 -13.1702
#
#
#
# Elastic Compliance Matrix: (Units=1/GPa)
#
#
# Indices 1 2 3 4 5 6 
#
# 1 0.011370 -0.005685 -0.003735 0.000000 -0.005401 0.000000
# 2 -0.005685 0.015509 -0.000212 0.000000 -0.000323 0.000000
# 3 -0.003735 -0.000212 0.012857 0.000000 -0.003164 0.000000
# 4 0.000000 0.000000 0.000000 0.019447 0.000000 0.027164
# 5 -0.005401 -0.000323 -0.003164 0.000000 0.026796 0.000000
# 6 0.000000 0.000000 0.000000 0.027164 0.000000 -0.037985
#
#
# Mechanical properties :
#
#
# Convention : Reuss Voigt Hill
#
# Bulk Modulus (GPa) = 48.84997 67.38644 58.11820
# Shear Modulus (GPa) = 67.49286 25.71794 46.60540
#
# Velocity S-wave (km/s) = 5.24208 3.23588 4.35605
# Velocity P-wave (km/s) = 7.51853 6.43408 6.99734
#
# Compressibility (1/GPa) = 0.02047084
#
# Stress axis : x y z
#
# Youngs Moduli (GPa) = 87.95199 64.47919 77.77967
#
# Poissons Ratio (x) = 0.36656 0.29052
# Poissons Ratio (y) = 0.49999 0.01651
# Poissons Ratio (z) = 0.32852 0.01369
#
# Static dielectric constant tensor:
#      x y z
#    x 2.208940 0.000000 0.130600 
#    y 0.000000 2.038330 0.000000 
#    z 0.130600 0.000000 2.335730 
# 
# From -- ./inp_files/1794.got.cif
#   From: 2010.05.17/outbox.cif.g08.bks.cpg/sg3_1_cif.got.tgz:1794.got - 2010.06.03 18:33:08.
