data_PCOD9113013
_publ_section_title
;
Structure prediction by ZEFSAII (Michael W. Deem and Ramdas Pophale) SiO2 
 PCOD9113013
Probable space group: P 2
;
_chemical_formula_sum "Si O2"
_cell_formula_units_Z 14
_cell_length_a 6.014374
_cell_length_b 6.026113
_cell_length_c 17.703210
_cell_angle_alpha 90.000000
_cell_angle_beta 75.116491
_cell_angle_gamma 90.000000
_cell_volume 620.096293
_symmetry_space_group_name_H-M "P 2"
_symmetry_group_IT_number 3
_symmetry_cell_setting 'monoclinic'
loop_
_space_group_symop_operation_xyz
x,y,z
-x,y,-z
loop_
_atom_site_type_symbol
_atom_site_label
_atom_site_fract_x
_atom_site_fract_y
_atom_site_fract_z
Si Si1 0.603936 0.196710 0.570594
Si Si2 0.294185 0.053800 0.070475
Si Si3 0.000000 0.706483 0.000000
Si Si4 0.821869 0.814543 0.782004
Si Si5 0.070714 0.434952 0.858548
Si Si6 0.000000 0.849229 0.500000
Si Si7 0.893345 0.543341 0.639329
Si Si8 0.189169 0.194489 0.710865
O O1 0.500000 0.270151 0.500000
O O2 0.730857 0.397296 0.600975
O O3 0.407719 0.117071 0.645109
O O4 0.784551 0.004766 0.536502
O O5 0.118014 0.251489 0.102419
O O6 0.165568 0.864626 0.033287
O O7 0.353028 0.940610 0.146464
O O8 0.500000 0.132581 0.000000
O O9 0.856068 0.552695 0.070506
O O10 0.750230 0.691707 0.711676
O O11 0.946755 0.625233 0.820387
O O12 0.012224 0.996258 0.742085
O O13 0.244461 0.311417 0.786595
O O14 0.963717 0.700017 0.429164
O O15 0.057417 0.376770 0.671146
#
# Coordination Sequence:
#
# PCOD9113013 Si02
#       8
#     2   2   1   2   2   1   2   2
#     4  12  25  41  64  93 123 159 204 250 305 368
#     4  10  21  38  62  91 126 165 208 255 303 361
#     4  10  20  38  60  90 128 166 208 258 306 356
#     4   9  20  41  64  89 124 161 205 256 304 360
#     4   9  20  38  62  92 126 163 206 255 304 360
#     4  12  26  42  62  92 126 158 198 252 308 370
#     4  11  23  43  65  89 124 161 203 256 307 362
#     4  10  22  44  66  89 122 162 207 255 304 362
#
# _framework density 22.577138999999999
#
# number of rings (size 3 to 8) (size 9 to 14) (size 15 to 20)
#    0.000    1.714    0.000    4.286    0.000    7.429 
#    0.000   21.429    0.000    0.000    0.000    0.000 
#    0.000    0.000    0.000    0.000    0.000    0.000 
#
# Total GULP energy -78280.950133 kJ/mol
# GULP energy per Si atom -5591.496438 kJ/mol
# Density = 2.252575 g / cm^3
# Si number density = 22.577139 Si / 1000 Ang^3
#
#
#
# Elastic Constant Matrix: (Units=GPa)
#
#
# Indices 1 2 3 4 5 6 
#
# 1 45.8559 30.1645 50.3811 0.0000 -14.3988 0.0000
# 2 30.1645 122.3642 82.9257 0.0000 6.1014 0.0000
# 3 50.3811 82.9257 186.9607 0.0000 -16.3280 0.0000
# 4 0.0000 0.0000 0.0000 112.9440 0.0000 -13.3668
# 5 -14.3988 6.1014 -16.3280 0.0000 36.1480 0.0000
# 6 0.0000 0.0000 0.0000 -13.3668 0.0000 16.5212
#
#
#
# Elastic Compliance Matrix: (Units=1/GPa)
#
#
# Indices 1 2 3 4 5 6 
#
# 1 0.036088 -0.005230 -0.006322 0.000000 0.012402 0.000000
# 2 -0.005230 0.013187 -0.005014 0.000000 -0.006574 0.000000
# 3 -0.006322 -0.005014 0.009505 0.000000 0.002622 0.000000
# 4 0.000000 0.000000 0.000000 0.009792 0.000000 0.007922
# 5 0.012402 -0.006574 0.002622 0.000000 0.034898 0.000000
# 6 0.000000 0.000000 0.000000 0.007922 0.000000 0.066938
#
#
# Mechanical properties :
#
#
# Convention : Reuss Voigt Hill
#
# Bulk Modulus (GPa) = 38.98879 75.79149 57.39014
# Shear Modulus (GPa) = 23.57497 45.90325 34.73911
#
# Velocity S-wave (km/s) = 3.23491 4.51396 3.92686
# Velocity P-wave (km/s) = 5.59102 7.79812 6.78492
#
# Compressibility (1/GPa) = 0.02564840
#
# Stress axis : x y z
#
# Youngs Moduli (GPa) = 27.71014 75.82995 105.20646
#
# Poissons Ratio (x) = 0.39662 0.66508
# Poissons Ratio (y) = 0.14493 0.52750
# Poissons Ratio (z) = 0.17518 0.38020
#
# Static dielectric constant tensor:
#      x y z
#    x 1.832550 0.000000 0.006510 
#    y 0.000000 1.823850 0.000000 
#    z 0.006510 0.000000 1.877130 
# 
# From -- ./inp_files/14580.got.cif
#   From: 2010.05.17/outbox.cif.g08.bks.cpg/sg3_8_cif.got.tgz:14580.got - 2010.06.03 18:33:08.
