data_PCOD9113485
_publ_section_title
;
Structure prediction by ZEFSAII (Michael W. Deem and Ramdas Pophale) SiO2 
 PCOD9113485
Probable space group: P 2
;
_chemical_formula_sum "Si O2"
_cell_formula_units_Z 14
_cell_length_a 9.787340
_cell_length_b 6.553706
_cell_length_c 14.292700
_cell_angle_alpha 90.000000
_cell_angle_beta 45.423956
_cell_angle_gamma 90.000000
_cell_volume 653.041498
_symmetry_space_group_name_H-M "P 2"
_symmetry_group_IT_number 3
_symmetry_cell_setting 'monoclinic'
loop_
_space_group_symop_operation_xyz
x,y,z
-x,y,-z
loop_
_atom_site_type_symbol
_atom_site_label
_atom_site_fract_x
_atom_site_fract_y
_atom_site_fract_z
Si Si1 0.558395 0.162270 0.164160
Si Si2 0.083320 0.896460 0.660655
Si Si3 0.800428 0.213057 0.558243
Si Si4 0.367592 0.568333 0.480124
Si Si5 0.312195 0.878891 0.736408
Si Si6 0.700263 0.839906 0.945048
Si Si7 0.190839 0.546460 0.943524
O O1 0.332096 0.139487 0.292241
O O2 0.635339 0.391221 0.125319
O O3 0.647625 0.062601 0.214151
O O4 0.634861 0.033840 0.039285
O O5 0.164698 0.667716 0.605414
O O6 0.195801 0.953160 0.702352
O O7 0.858560 0.896565 0.791898
O O8 0.143283 0.041049 0.545482
O O9 0.676078 0.389577 0.569884
O O10 0.000000 0.298062 0.500000
O O11 0.500000 0.483720 0.500000
O O12 0.492539 0.762942 0.386661
O O13 0.213595 0.706040 0.847405
O O14 0.500000 0.756254 0.000000
O O15 0.804889 0.681097 0.964502
O O16 0.000000 0.429823 0.000000
#
# Coordination Sequence:
#
# PCOD9113485 Si02
#       7
#     2   2   2   2   2   2   2
#     4  11  25  41  71  97 132 172 220 274 326 388
#     4  11  24  42  68  96 133 172 221 269 325 389
#     4  12  26  42  66 101 133 173 218 269 331 393
#     4  10  23  41  67  97 128 168 217 275 327 383
#     4  10  21  43  66  99 130 168 219 275 327 381
#     4  11  26  46  66  94 137 182 216 264 328 394
#     4  11  23  41  70 100 130 170 224 271 326 386
#
# _framework density 21.438147000000001
#
# number of rings (size 3 to 8) (size 9 to 14) (size 15 to 20)
#    0.000    1.143    4.286    0.857    4.000    3.429 
#    0.000    0.000    0.000    0.000    0.000    0.000 
#    0.000    0.000    0.000    0.000    0.000    0.000 
#
# Total GULP energy -78137.073995 kJ/mol
# GULP energy per Si atom -5581.219571 kJ/mol
# Density = 2.138935 g / cm^3
# Si number density = 21.438147 Si / 1000 Ang^3
#
#
#
# Elastic Constant Matrix: (Units=GPa)
#
#
# Indices 1 2 3 4 5 6 
#
# 1 93.0208 25.3191 31.8558 0.0000 -9.9279 0.0000
# 2 25.3191 44.5500 17.3769 0.0000 -2.8945 0.0000
# 3 31.8558 17.3769 114.1211 0.0000 -26.1040 0.0000
# 4 0.0000 0.0000 0.0000 17.4520 0.0000 -2.9814
# 5 -9.9279 -2.8945 -26.1040 0.0000 25.1531 0.0000
# 6 0.0000 0.0000 0.0000 -2.9814 0.0000 19.4393
#
#
#
# Elastic Compliance Matrix: (Units=1/GPa)
#
#
# Indices 1 2 3 4 5 6 
#
# 1 0.013586 -0.006694 -0.002259 0.000000 0.002248 0.000000
# 2 -0.006694 0.027197 -0.002834 0.000000 -0.002453 0.000000
# 3 -0.002259 -0.002834 0.012518 0.000000 0.011773 0.000000
# 4 0.000000 0.000000 0.000000 0.058842 0.000000 0.009024
# 5 0.002248 -0.002453 0.011773 0.000000 0.052580 0.000000
# 6 0.000000 0.000000 0.000000 0.009024 0.000000 0.052826
#
#
# Mechanical properties :
#
#
# Convention : Reuss Voigt Hill
#
# Bulk Modulus (GPa) = 33.63954 44.53283 39.08618
# Shear Modulus (GPa) = 19.91787 24.21821 22.06804
#
# Velocity S-wave (km/s) = 3.05140 3.36472 3.21188
# Velocity P-wave (km/s) = 5.30473 5.99274 5.65920
#
# Compressibility (1/GPa) = 0.02972692
#
# Stress axis : x y z
#
# Youngs Moduli (GPa) = 73.60617 36.76863 79.88701
#
# Poissons Ratio (x) = 0.24613 0.18046
# Poissons Ratio (y) = 0.49273 0.22638
# Poissons Ratio (z) = 0.16627 0.10420
#
# Static dielectric constant tensor:
#      x y z
#    x 1.783590 0.000000 -0.032110 
#    y 0.000000 1.741600 0.000000 
#    z -0.032110 0.000000 1.869150 
# 
# From -- ./inp_files/12102.got.cif
#   From: 2010.05.17/outbox.cif.g08.bks.cpg/sg3_7_cif.got.tgz:12102.got - 2010.06.03 18:33:08.
