data_PCOD9113056
_publ_section_title
;
Structure prediction by ZEFSAII (Michael W. Deem and Ramdas Pophale) SiO2 
 PCOD9113056
Probable space group: P 2
;
_chemical_formula_sum "Si O2"
_cell_formula_units_Z 14
_cell_length_a 12.164743
_cell_length_b 4.869278
_cell_length_c 9.551820
_cell_angle_alpha 90.000000
_cell_angle_beta 105.711156
_cell_angle_gamma 90.000000
_cell_volume 544.649499
_symmetry_space_group_name_H-M "P 2"
_symmetry_group_IT_number 3
_symmetry_cell_setting 'monoclinic'
loop_
_space_group_symop_operation_xyz
x,y,z
-x,y,-z
loop_
_atom_site_type_symbol
_atom_site_label
_atom_site_fract_x
_atom_site_fract_y
_atom_site_fract_z
Si Si1 0.805925 0.598720 0.734516
Si Si2 0.110580 0.767061 0.621516
Si Si3 0.249862 0.111511 0.447749
Si Si4 0.146783 0.231857 0.812750
Si Si5 0.604799 0.310584 0.092203
Si Si6 0.567931 0.577005 0.791437
Si Si7 0.000000 0.425787 0.000000
Si Si8 0.500000 0.957240 0.500000
O O1 0.808084 0.405368 0.596880
O O2 0.690695 0.486706 0.769724
O O3 0.784094 0.913954 0.692236
O O4 0.921969 0.580007 0.860404
O O5 0.153188 0.518159 0.730957
O O6 0.000000 0.674352 0.500000
O O7 0.202497 0.935041 0.561059
O O8 0.069772 0.012529 0.708215
O O9 0.386310 0.127018 0.493899
O O10 0.278724 0.149211 0.865072
O O11 0.093276 0.262182 0.945195
O O12 0.553411 0.423555 0.219246
O O13 0.500000 0.124326 0.000000
O O14 0.608559 0.548043 0.972014
O O15 0.529766 0.790177 0.654528
#
# Coordination Sequence:
#
# PCOD9113056 Si02
#       8
#     2   2   2   2   2   2   1   1
#     4  11  23  42  66  97 132 172 217 272 323 391
#     4  12  26  46  66 100 131 176 218 277 325 398
#     4  11  25  42  67  98 134 169 217 270 333 391
#     4  12  25  43  72  94 133 175 222 267 337 387
#     4   8  18  41  63  98 132 175 211 276 324 405
#     4   8  18  38  64  94 136 165 224 261 335 384
#     4  12  24  46  66 100 124 180 218 278 316 398
#     4  10  20  38  66 100 128 178 214 280 326 396
#
# _framework density 25.704601
#
# number of rings (size 3 to 8) (size 9 to 14) (size 15 to 20)
#    0.857    0.571    1.429    3.857    0.000    6.857 
#    0.000    0.714    0.000    0.000    0.000    0.000 
#    0.000    0.000    0.000    0.000    0.000    0.000 
#
# Total GULP energy -78040.290329 kJ/mol
# GULP energy per Si atom -5574.306452 kJ/mol
# Density = 2.564610 g / cm^3
# Si number density = 25.704601 Si / 1000 Ang^3
#
#
#
# Elastic Constant Matrix: (Units=GPa)
#
#
# Indices 1 2 3 4 5 6 
#
# 1 166.5854 6.6494 33.4195 0.0000 1.2694 0.0000
# 2 6.6494 75.3154 22.7988 0.0000 8.1452 0.0000
# 3 33.4195 22.7988 96.1628 0.0000 6.8239 0.0000
# 4 0.0000 0.0000 0.0000 -21.6272 0.0000 -11.6368
# 5 1.2694 8.1452 6.8239 0.0000 37.3133 0.0000
# 6 0.0000 0.0000 0.0000 -11.6368 0.0000 -17.0318
#
#
#
# Elastic Compliance Matrix: (Units=1/GPa)
#
#
# Indices 1 2 3 4 5 6 
#
# 1 0.006455 0.000101 -0.002280 0.000000 0.000175 0.000000
# 2 0.000101 0.014546 -0.003301 0.000000 -0.002575 0.000000
# 3 -0.002280 -0.003301 0.012074 0.000000 -0.001410 0.000000
# 4 0.000000 0.000000 0.000000 -0.073118 0.000000 0.049957
# 5 0.000175 -0.002575 -0.001410 0.000000 0.027614 0.000000
# 6 0.000000 0.000000 0.000000 0.049957 0.000000 -0.092846
#
#
# Mechanical properties :
#
#
# Convention : Reuss Voigt Hill
#
# Bulk Modulus (GPa) = 45.21619 51.53323 48.37471
# Shear Modulus (GPa) = -57.50850 18.07725 -19.71563
#
# Velocity S-wave (km/s) = -4.73513 2.65480 -2.77249
# Velocity P-wave (km/s) = 3.50233 5.43038 2.93451
#
# Compressibility (1/GPa) = 0.02211597
#
# Stress axis : x y z
#
# Youngs Moduli (GPa) = 154.92114 68.74582 82.82251
#
# Poissons Ratio (x) = -0.00696 0.18881
# Poissons Ratio (y) = -0.01569 0.27341
# Poissons Ratio (z) = 0.35318 0.22694
#
# Static dielectric constant tensor:
#      x y z
#    x 2.066370 0.000000 -0.258740 
#    y 0.000000 1.963010 0.000000 
#    z -0.258740 0.000000 2.919450 
# 
# From -- ./inp_files/6757.got.cif
#   From: 2010.05.17/outbox.cif.g08.bks.cpg/sg3_4_cif.got.tgz:6757.got - 2010.06.03 18:33:08.
