data_PCOD9113535
_publ_section_title
;
Structure prediction by ZEFSAII (Michael W. Deem and Ramdas Pophale) SiO2 
 PCOD9113535
Probable space group: P 2
;
_chemical_formula_sum "Si O2"
_cell_formula_units_Z 15
_cell_length_a 15.017623
_cell_length_b 5.380217
_cell_length_c 23.755997
_cell_angle_alpha 90.000000
_cell_angle_beta 20.789128
_cell_angle_gamma 90.000000
_cell_volume 681.265562
_symmetry_space_group_name_H-M "P 2"
_symmetry_group_IT_number 3
_symmetry_cell_setting 'monoclinic'
loop_
_space_group_symop_operation_xyz
x,y,z
-x,y,-z
loop_
_atom_site_type_symbol
_atom_site_label
_atom_site_fract_x
_atom_site_fract_y
_atom_site_fract_z
Si Si1 0.944569 0.115260 0.714348
Si Si2 0.375372 0.097315 0.204150
Si Si3 0.201210 0.447135 0.019186
Si Si4 0.227880 0.618046 0.129875
Si Si5 0.202903 0.541003 0.829069
Si Si6 0.594290 0.744061 0.723458
Si Si7 0.000000 0.420587 0.500000
Si Si8 0.517180 0.042266 0.662853
O O1 0.711966 0.108406 0.807776
O O2 0.926815 0.381398 0.755054
O O3 0.898658 0.880393 0.781433
O O4 0.208655 0.072301 0.526702
O O5 0.657698 0.186676 0.050995
O O6 0.184184 0.269483 0.351709
O O7 0.327740 0.834236 0.260729
O O8 0.360185 0.576026 0.875556
O O9 0.235888 0.586313 0.057909
O O10 0.928541 0.466978 0.152769
O O11 0.500000 0.610752 0.000000
O O12 0.359991 0.800352 0.733227
O O13 0.373272 0.301545 0.742066
O O14 0.000000 0.567967 0.000000
O O15 0.546258 0.972675 0.711458
O O16 0.820871 0.583862 0.566270
#
# Coordination Sequence:
#
# PCOD9113535 Si02
#       8
#     2   2   2   2   2   2   1   2
#     4  12  27  46  73 106 149 191 241 301 369 435
#     4  11  23  40  68 102 143 182 234 300 372 436
#     4  11  26  45  73 102 141 186 252 304 357 432
#     4  12  26  48  73 109 143 192 246 299 362 434
#     4  12  26  48  73 109 143 192 246 299 362 434
#     4  11  23  40  68 102 143 182 234 300 372 436
#     4  10  22  36  60 110 138 190 220 288 380 456
#     4  12  27  46  73 106 149 191 241 301 369 435
#
# _framework density 22.017845000000001
#
# number of rings (size 3 to 8) (size 9 to 14) (size 15 to 20)
#    0.000    0.533    2.667    5.200   11.200    0.000 
#    0.000    4.000    0.000    0.000    0.000    0.000 
#    0.000    0.000    0.000    0.000    0.000    0.000 
#
# Total GULP energy -83839.757718 kJ/mol
# GULP energy per Si atom -5589.317181 kJ/mol
# Density = 2.196773 g / cm^3
# Si number density = 22.017845 Si / 1000 Ang^3
#
#
#
# Elastic Constant Matrix: (Units=GPa)
#
#
# Indices 1 2 3 4 5 6 
#
# 1 113.3975 13.6802 29.4300 0.0000 -7.4093 0.0000
# 2 13.6802 112.7995 37.8815 0.0000 -4.2978 0.0000
# 3 29.4300 37.8815 76.2714 0.0000 -0.6010 0.0000
# 4 0.0000 0.0000 0.0000 38.1550 0.0000 14.7556
# 5 -7.4093 -4.2978 -0.6010 0.0000 22.2970 0.0000
# 6 0.0000 0.0000 0.0000 14.7556 0.0000 7.5498
#
#
#
# Elastic Compliance Matrix: (Units=1/GPa)
#
#
# Indices 1 2 3 4 5 6 
#
# 1 0.010032 0.000239 -0.003964 0.000000 0.003273 0.000000
# 2 0.000239 0.010728 -0.005405 0.000000 0.002002 0.000000
# 3 -0.003964 -0.005405 0.017310 0.000000 -0.001892 0.000000
# 4 0.000000 0.000000 0.000000 0.107342 0.000000 -0.209794
# 5 0.003273 0.002002 -0.001892 0.000000 0.046272 0.000000
# 6 0.000000 0.000000 0.000000 -0.209794 0.000000 0.542485
#
#
# Mechanical properties :
#
#
# Convention : Reuss Voigt Hill
#
# Bulk Modulus (GPa) = 50.47683 51.60577 51.04130
# Shear Modulus (GPa) = 6.58734 28.36545 17.47640
#
# Velocity S-wave (km/s) = 1.73156 3.59317 2.82039
# Velocity P-wave (km/s) = 5.19355 6.37994 5.81707
#
# Compressibility (1/GPa) = 0.01981107
#
# Stress axis : x y z
#
# Youngs Moduli (GPa) = 99.67771 93.21787 57.76996
#
# Poissons Ratio (x) = -0.02230 0.22901
# Poissons Ratio (y) = -0.02385 0.31222
# Poissons Ratio (z) = 0.39513 0.50380
#
# Static dielectric constant tensor:
#      x y z
#    x 1.850490 0.000000 -0.061530 
#    y 0.000000 1.842280 0.000000 
#    z -0.061530 0.000000 1.866710 
# 
# From -- ./inp_files/16321.got.cif
#   From: 2010.05.17/outbox.cif.g08.bks.cpg/sg3_9_cif.got.tgz:16321.got - 2010.06.03 18:33:08.
