data_PCOD9113427
_publ_section_title
;
Structure prediction by ZEFSAII (Michael W. Deem and Ramdas Pophale) SiO2 
 PCOD9113427
Probable space group: P 2
;
_chemical_formula_sum "Si O2"
_cell_formula_units_Z 12
_cell_length_a 14.455118
_cell_length_b 6.548233
_cell_length_c 9.234368
_cell_angle_alpha 90.000000
_cell_angle_beta 138.468568
_cell_angle_gamma 90.000000
_cell_volume 579.544327
_symmetry_space_group_name_H-M "P 2"
_symmetry_group_IT_number 3
_symmetry_cell_setting 'monoclinic'
loop_
_space_group_symop_operation_xyz
x,y,z
-x,y,-z
loop_
_atom_site_type_symbol
_atom_site_label
_atom_site_fract_x
_atom_site_fract_y
_atom_site_fract_z
Si Si1 0.247495 0.464250 0.525560
Si Si2 0.154182 0.701896 0.152646
Si Si3 0.929035 0.368014 0.175210
Si Si4 0.269587 0.989212 0.047327
Si Si5 0.279943 0.603486 0.883608
Si Si6 0.490142 0.337172 0.321262
O O1 0.224527 0.649682 0.386343
O O2 0.299144 0.544649 0.740254
O O3 0.360503 0.322588 0.579853
O O4 0.095272 0.364756 0.366803
O O5 0.244181 0.844311 0.155036
O O6 0.125140 0.489119 0.031600
O O7 0.000000 0.792002 0.000000
O O8 0.865153 0.505706 0.229055
O O9 0.858107 0.148693 0.106117
O O10 0.406646 0.125702 0.220944
O O11 0.275813 0.841982 0.916029
O O12 0.398633 0.497092 0.121131
O O13 0.500000 0.404616 0.500000
#
# Coordination Sequence:
#
# PCOD9113427 Si02
#       6
#     2   2   2   2   2   2
#     4  11  21  41  67  91 127 164 199 256 315 361
#     4   9  20  38  63  93 123 161 208 253 301 362
#     4   9  20  41  67  92 123 161 205 253 303 365
#     4  10  21  41  65  91 123 162 210 255 302 365
#     4  10  22  43  64  91 128 162 201 254 312 370
#     4  11  24  42  63  88 125 168 210 255 304 363
#
# _framework density 20.705921
#
# number of rings (size 3 to 8) (size 9 to 14) (size 15 to 20)
#    0.000    2.000    0.000    4.000    0.000    5.333 
#    0.000   38.333    0.000    0.000    0.000    0.000 
#    0.000    0.000    0.000    0.000    0.000    0.000 
#
# Total GULP energy -67069.424222 kJ/mol
# GULP energy per Si atom -5589.118685 kJ/mol
# Density = 2.065879 g / cm^3
# Si number density = 20.705921 Si / 1000 Ang^3
#
#
#
# Elastic Constant Matrix: (Units=GPa)
#
#
# Indices 1 2 3 4 5 6 
#
# 1 136.0320 41.6658 67.6384 0.0000 1.5788 0.0000
# 2 41.6658 95.0246 53.5120 0.0000 3.3023 0.0000
# 3 67.6384 53.5120 127.9483 0.0000 -13.9567 0.0000
# 4 0.0000 0.0000 0.0000 0.0581 0.0000 -0.0954
# 5 1.5788 3.3023 -13.9567 0.0000 52.6537 0.0000
# 6 0.0000 0.0000 0.0000 -0.0954 0.0000 14.2799
#
#
#
# Elastic Compliance Matrix: (Units=1/GPa)
#
#
# Indices 1 2 3 4 5 6 
#
# 1 0.010336 -0.001714 -0.004911 0.000000 -0.001504 0.000000
# 2 -0.001714 0.014367 -0.005350 0.000000 -0.002268 0.000000
# 3 -0.004911 -0.005350 0.013080 0.000000 0.003950 0.000000
# 4 0.000000 0.000000 0.000000 17.417155 0.000000 0.116397
# 5 -0.001504 -0.002268 0.003950 0.000000 0.020226 0.000000
# 6 0.000000 0.000000 0.000000 0.116397 0.000000 0.070807
#
#
# Mechanical properties :
#
#
# Convention : Reuss Voigt Hill
#
# Bulk Modulus (GPa) = 72.29298 76.07083 74.18190
# Shear Modulus (GPa) = 0.28450 26.47757 13.38104
#
# Velocity S-wave (km/s) = 0.37108 3.57983 2.54489
# Velocity P-wave (km/s) = 5.93073 7.34203 6.67379
#
# Compressibility (1/GPa) = 0.01383260
#
# Stress axis : x y z
#
# Youngs Moduli (GPa) = 96.75376 69.60552 76.45190
#
# Poissons Ratio (x) = 0.11931 0.37545
# Poissons Ratio (y) = 0.16584 0.40901
# Poissons Ratio (z) = 0.47515 0.37238
#
# Static dielectric constant tensor:
#      x y z
#    x 1.762960 0.000000 0.012220 
#    y 0.000000 1.719610 0.000000 
#    z 0.012220 0.000000 1.754830 
# 
# From -- ./inp_files/8354.got.cif
#   From: 2010.05.17/outbox.cif.g08.bks.cpg/sg3_5_cif.got.tgz:8354.got - 2010.06.03 18:33:08.
