data_PCOD9113834
_publ_section_title
;
Structure prediction by ZEFSAII (Michael W. Deem and Ramdas Pophale) SiO2 
 PCOD9113834
Probable space group: P 2
;
_chemical_formula_sum "Si O2"
_cell_formula_units_Z 9
_cell_length_a 8.948777
_cell_length_b 5.824704
_cell_length_c 9.103511
_cell_angle_alpha 90.000000
_cell_angle_beta 51.231164
_cell_angle_gamma 90.000000
_cell_volume 369.966260
_symmetry_space_group_name_H-M "P 2"
_symmetry_group_IT_number 3
_symmetry_cell_setting 'monoclinic'
loop_
_space_group_symop_operation_xyz
x,y,z
-x,y,-z
loop_
_atom_site_type_symbol
_atom_site_label
_atom_site_fract_x
_atom_site_fract_y
_atom_site_fract_z
Si Si1 0.778407 0.087390 0.489014
Si Si2 0.478669 0.727237 0.787522
Si Si3 0.889609 0.035257 0.914415
Si Si4 0.698263 0.347335 0.827715
Si Si5 0.500000 0.408863 0.500000
O O1 0.797296 0.228567 0.628341
O O2 0.683557 0.258634 0.430677
O O3 0.959608 0.963599 0.305294
O O4 0.612973 0.911337 0.628817
O O5 0.618011 0.588435 0.814995
O O6 0.437007 0.549971 0.681994
O O7 0.288486 0.858488 0.960813
O O8 0.824622 0.288084 0.892660
O O9 0.000000 0.046506 0.000000
O O10 0.500000 0.225917 0.000000
#
# Coordination Sequence:
#
# PCOD9113834 Si02
#       5
#     2   2   2   2   1
#     4  11  24  49  76 111 159 205 264 319 384 462
#     4  11  25  49  78 112 165 209 251 319 402 462
#     4  12  26  50  82 119 153 200 267 326 382 459
#     4  11  26  50  75 109 161 214 251 313 396 464
#     4  10  22  46  80 112 162 206 250 328 396 456
#
# _framework density 24.326542
#
# number of rings (size 3 to 8) (size 9 to 14) (size 15 to 20)
#    0.000    0.889    2.222    4.000    6.222    0.000 
#   16.000    2.222    0.000    0.000    0.000    0.000 
#    0.000    0.000    0.000    0.000    0.000    0.000 
#
# Total GULP energy -50249.869212 kJ/mol
# GULP energy per Si atom -5583.318801 kJ/mol
# Density = 2.427117 g / cm^3
# Si number density = 24.326542 Si / 1000 Ang^3
#
#
#
# Elastic Constant Matrix: (Units=GPa)
#
#
# Indices 1 2 3 4 5 6 
#
# 1 137.5674 71.0438 44.2479 0.0000 3.3869 0.0000
# 2 71.0438 115.0871 62.4874 0.0000 4.3199 0.0000
# 3 44.2479 62.4874 197.2871 0.0000 -41.1409 0.0000
# 4 0.0000 0.0000 0.0000 32.1648 0.0000 -7.2213
# 5 3.3869 4.3199 -41.1409 0.0000 45.2214 0.0000
# 6 0.0000 0.0000 0.0000 -7.2213 0.0000 -42.9184
#
#
#
# Elastic Compliance Matrix: (Units=1/GPa)
#
#
# Indices 1 2 3 4 5 6 
#
# 1 0.010711 -0.006280 -0.000562 0.000000 -0.000714 0.000000
# 2 -0.006280 0.015166 -0.004442 0.000000 -0.005019 0.000000
# 3 -0.000562 -0.004442 0.008267 0.000000 0.007988 0.000000
# 4 0.000000 0.000000 0.000000 0.029958 0.000000 -0.005041
# 5 -0.000714 -0.005019 0.007988 0.000000 0.029913 0.000000
# 6 0.000000 0.000000 0.000000 -0.005041 0.000000 -0.022452
#
#
# Mechanical properties :
#
#
# Convention : Reuss Voigt Hill
#
# Bulk Modulus (GPa) = 86.38091 89.49999 87.94045
# Shear Modulus (GPa) = 51.02606 25.03771 38.03188
#
# Velocity S-wave (km/s) = 4.58487 3.21165 3.95826
# Velocity P-wave (km/s) = 7.97584 7.11505 7.55771
#
# Compressibility (1/GPa) = 0.01157663
#
# Stress axis : x y z
#
# Youngs Moduli (GPa) = 93.36603 65.93827 120.95754
#
# Poissons Ratio (x) = 0.41408 0.06797
# Poissons Ratio (y) = 0.58632 0.53726
# Poissons Ratio (z) = 0.05247 0.29288
#
# Static dielectric constant tensor:
#      x y z
#    x 2.031240 0.000000 0.005800 
#    y 0.000000 1.950850 0.000000 
#    z 0.005800 0.000000 1.964830 
# 
# From -- ./inp_files/4796.got.cif
#   From: 2010.05.17/outbox.cif.g08.bks.cpg/sg3_3_cif.got.tgz:4796.got - 2010.06.03 18:33:08.
