data_PCOD9113472
_publ_section_title
;
Structure prediction by ZEFSAII (Michael W. Deem and Ramdas Pophale) SiO2 
 PCOD9113472
Probable space group: P 2
;
_chemical_formula_sum "Si O2"
_cell_formula_units_Z 15
_cell_length_a 5.296130
_cell_length_b 5.309331
_cell_length_c 24.299482
_cell_angle_alpha 90.000000
_cell_angle_beta 126.137849
_cell_angle_gamma 90.000000
_cell_volume 551.813128
_symmetry_space_group_name_H-M "P 2"
_symmetry_group_IT_number 3
_symmetry_cell_setting 'monoclinic'
loop_
_space_group_symop_operation_xyz
x,y,z
-x,y,-z
loop_
_atom_site_type_symbol
_atom_site_label
_atom_site_fract_x
_atom_site_fract_y
_atom_site_fract_z
Si Si1 0.500000 0.431590 0.500000
Si Si2 0.848781 0.658813 0.632824
Si Si3 0.531886 0.619821 0.228137
Si Si4 0.696598 0.106499 0.187971
Si Si5 0.702597 0.055716 0.431030
Si Si6 0.339570 0.267998 0.298485
Si Si7 0.198448 0.945654 0.921659
Si Si8 0.125010 0.444342 0.955739
O O1 0.785724 0.584274 0.562206
O O2 0.631530 0.268357 0.467249
O O3 0.773083 0.432839 0.664768
O O4 0.201454 0.706225 0.693566
O O5 0.591634 0.871156 0.608398
O O6 0.624040 0.397725 0.195504
O O7 0.330894 0.449415 0.244285
O O8 0.500265 0.891532 0.194462
O O9 0.688953 0.043192 0.122511
O O10 0.065402 0.067669 0.251127
O O11 0.675555 0.166697 0.364816
O O12 0.000000 0.934288 0.500000
O O13 0.999533 0.170523 0.923272
O O14 0.047697 0.668019 0.903696
O O15 0.500000 0.908450 0.000000
O O16 0.500000 0.411605 0.000000
O O17 0.000000 0.512923 0.000000
#
# Coordination Sequence:
#
# PCOD9113472 Si02
#       8
#     1   2   2   2   2   2   2   2
#     4  10  22  38  56  94 120 176 220 296 360 426
#     4  10  22  40  62  89 135 172 236 292 361 434
#     4  11  24  43  71  95 140 187 238 294 368 427
#     4  11  24  46  69 102 138 189 240 300 356 453
#     4  11  22  38  64  92 132 173 240 294 367 436
#     4  10  24  43  64  98 134 185 239 299 361 445
#     4  10  22  44  70 102 147 180 240 300 369 437
#     4  10  21  42  70 104 147 192 236 297 368 443
#
# _framework density 27.183114
#
# number of rings (size 3 to 8) (size 9 to 14) (size 15 to 20)
#    0.000    1.600    1.333    2.400    1.867    4.267 
#   14.400    0.000    0.000    0.000    0.000    0.000 
#    0.000    0.000    0.000    0.000    0.000    0.000 
#
# Total GULP energy -83830.124697 kJ/mol
# GULP energy per Si atom -5588.674980 kJ/mol
# Density = 2.712124 g / cm^3
# Si number density = 27.183114 Si / 1000 Ang^3
#
#
#
# Elastic Constant Matrix: (Units=GPa)
#
#
# Indices 1 2 3 4 5 6 
#
# 1 71.8344 15.5397 19.9775 0.0000 -15.2446 0.0000
# 2 15.5397 148.2862 46.5318 0.0000 -7.9527 0.0000
# 3 19.9775 46.5318 140.9018 0.0000 -19.3009 0.0000
# 4 0.0000 0.0000 0.0000 42.9396 0.0000 -27.6925
# 5 -15.2446 -7.9527 -19.3009 0.0000 48.6166 0.0000
# 6 0.0000 0.0000 0.0000 -27.6925 0.0000 56.1885
#
#
#
# Elastic Compliance Matrix: (Units=1/GPa)
#
#
# Indices 1 2 3 4 5 6 
#
# 1 0.015372 -0.000985 -0.001286 0.000000 0.004149 0.000000
# 2 -0.000985 0.007590 -0.002368 0.000000 -0.000007 0.000000
# 3 -0.001286 -0.002368 0.008410 0.000000 0.002548 0.000000
# 4 0.000000 0.000000 0.000000 0.034140 0.000000 0.016826
# 5 0.004149 -0.000007 0.002548 0.000000 0.022880 0.000000
# 6 0.000000 0.000000 0.000000 0.016826 0.000000 0.026090
#
#
# Mechanical properties :
#
#
# Convention : Reuss Voigt Hill
#
# Bulk Modulus (GPa) = 45.25954 58.34670 51.80312
# Shear Modulus (GPa) = 38.13180 48.14719 43.13950
#
# Velocity S-wave (km/s) = 3.74943 4.21315 3.98803
# Velocity P-wave (km/s) = 5.95234 6.72149 6.34857
#
# Compressibility (1/GPa) = 0.02209479
#
# Stress axis : x y z
#
# Youngs Moduli (GPa) = 65.05341 131.76046 118.89918
#
# Poissons Ratio (x) = 0.12977 0.15290
# Poissons Ratio (y) = 0.06407 0.28152
# Poissons Ratio (z) = 0.08366 0.31198
#
# Static dielectric constant tensor:
#      x y z
#    x 2.292940 0.000000 0.138220 
#    y 0.000000 2.184680 0.000000 
#    z 0.138220 0.000000 2.025410 
# 
# From -- ./inp_files/3968.got.cif
#   From: 2010.05.17/outbox.cif.g08.bks.cpg/sg3_2_cif.got.tgz:3968.got - 2010.06.03 18:33:08.
