data_PCOD9113501
_publ_section_title
;
Structure prediction by ZEFSAII (Michael W. Deem and Ramdas Pophale) SiO2 
 PCOD9113501
Probable space group: P 2
;
_chemical_formula_sum "Si O2"
_cell_formula_units_Z 15
_cell_length_a 8.742971
_cell_length_b 5.792981
_cell_length_c 20.688708
_cell_angle_alpha 90.000000
_cell_angle_beta 36.039654
_cell_angle_gamma 90.000000
_cell_volume 616.490798
_symmetry_space_group_name_H-M "P 2"
_symmetry_group_IT_number 3
_symmetry_cell_setting 'monoclinic'
loop_
_space_group_symop_operation_xyz
x,y,z
-x,y,-z
loop_
_atom_site_type_symbol
_atom_site_label
_atom_site_fract_x
_atom_site_fract_y
_atom_site_fract_z
Si Si1 0.267265 0.543510 0.406304
Si Si2 0.405683 0.687512 0.595599
Si Si3 0.498293 0.542843 0.858439
Si Si4 0.980337 0.280490 0.312628
Si Si5 0.683696 0.272142 0.193364
Si Si6 0.753818 0.922825 0.696328
Si Si7 0.000796 0.989338 0.816886
Si Si8 0.500000 0.665213 0.000000
O O1 0.336215 0.622419 0.454150
O O2 0.550743 0.447960 0.288945
O O3 0.200477 0.740149 0.376560
O O4 0.000000 0.395302 0.500000
O O5 0.500000 0.822501 0.500000
O O6 0.227655 0.838860 0.704415
O O7 0.253967 0.458939 0.620962
O O8 0.776837 0.431339 0.747757
O O9 0.293985 0.416877 0.880943
O O10 0.566994 0.804194 0.814772
O O11 0.453117 0.525528 0.949895
O O12 0.007173 0.059268 0.351799
O O13 0.052237 0.184655 0.217617
O O14 0.442016 0.102868 0.267539
O O15 0.908782 0.119446 0.148632
O O16 0.754405 0.825062 0.907669
#
# Coordination Sequence:
#
# PCOD9113501 Si02
#       8
#     2   2   2   2   2   2   2   1
#     4  11  25  42  68 105 149 199 249 312 375 448
#     4  12  27  45  70 112 157 201 253 321 375 449
#     4  10  23  44  75 107 140 196 236 321 371 450
#     4  11  22  45  73 100 145 194 250 300 372 443
#     4  10  23  46  74  98 154 191 248 305 382 456
#     4  10  21  44  70  96 145 191 242 307 367 448
#     4  12  25  49  75 112 149 199 251 315 381 455
#     4  12  24  46  86 108 152 192 260 318 388 444
#
# _framework density 24.331261000000001
#
# number of rings (size 3 to 8) (size 9 to 14) (size 15 to 20)
#    0.000    1.067    5.333    0.000    7.467    1.600 
#    0.000    0.667    5.867    0.000    0.000    0.000 
#    0.000    0.000    0.000    0.000    0.000    0.000 
#
# Total GULP energy -83701.328126 kJ/mol
# GULP energy per Si atom -5580.088542 kJ/mol
# Density = 2.427588 g / cm^3
# Si number density = 24.331261 Si / 1000 Ang^3
#
#
#
# Elastic Constant Matrix: (Units=GPa)
#
#
# Indices 1 2 3 4 5 6 
#
# 1 156.5233 31.3745 40.0591 0.0000 16.5521 0.0000
# 2 31.3745 57.8161 15.9739 0.0000 8.8082 0.0000
# 3 40.0591 15.9739 77.8584 0.0000 5.0488 0.0000
# 4 0.0000 0.0000 0.0000 14.3742 0.0000 -3.1395
# 5 16.5521 8.8082 5.0488 0.0000 47.6597 0.0000
# 6 0.0000 0.0000 0.0000 -3.1395 0.0000 44.1896
#
#
#
# Elastic Compliance Matrix: (Units=1/GPa)
#
#
# Indices 1 2 3 4 5 6 
#
# 1 0.008089 -0.003169 -0.003391 0.000000 -0.001864 0.000000
# 2 -0.003169 0.020016 -0.002324 0.000000 -0.002353 0.000000
# 3 -0.003391 -0.002324 0.015064 0.000000 0.000011 0.000000
# 4 0.000000 0.000000 0.000000 0.070666 0.000000 0.005020
# 5 -0.001864 -0.002353 0.000011 0.000000 0.022063 0.000000
# 6 0.000000 0.000000 0.000000 0.005020 0.000000 0.022986
#
#
# Mechanical properties :
#
#
# Convention : Reuss Voigt Hill
#
# Bulk Modulus (GPa) = 39.36534 51.89031 45.62783
# Shear Modulus (GPa) = 27.00961 34.89740 30.95350
#
# Velocity S-wave (km/s) = 3.33540 3.79127 3.57062
# Velocity P-wave (km/s) = 5.57200 6.36694 5.98269
#
# Compressibility (1/GPa) = 0.02540305
#
# Stress axis : x y z
#
# Youngs Moduli (GPa) = 123.62536 49.95956 66.38128
#
# Poissons Ratio (x) = 0.15830 0.22509
# Poissons Ratio (y) = 0.39173 0.15426
# Poissons Ratio (z) = 0.41920 0.11610
#
# Static dielectric constant tensor:
#      x y z
#    x 1.957180 0.000000 0.039930 
#    y 0.000000 2.114780 0.000000 
#    z 0.039930 0.000000 1.978990 
# 
# From -- ./inp_files/15709.got.cif
#   From: 2010.05.17/outbox.cif.g08.bks.cpg/sg3_8_cif.got.tgz:15709.got - 2010.06.03 18:33:08.
