data_PCOD9113881
_publ_section_title
;
Structure prediction by ZEFSAII (Michael W. Deem and Ramdas Pophale) SiO2 
 PCOD9113881
Probable space group: P 2
;
_chemical_formula_sum "Si O2"
_cell_formula_units_Z 13
_cell_length_a 8.336762
_cell_length_b 8.569445
_cell_length_c 12.050311
_cell_angle_alpha 90.000000
_cell_angle_beta 139.642574
_cell_angle_gamma 90.000000
_cell_volume 557.473527
_symmetry_space_group_name_H-M "P 2"
_symmetry_group_IT_number 3
_symmetry_cell_setting 'monoclinic'
loop_
_space_group_symop_operation_xyz
x,y,z
-x,y,-z
loop_
_atom_site_type_symbol
_atom_site_label
_atom_site_fract_x
_atom_site_fract_y
_atom_site_fract_z
Si Si1 0.100047 0.912520 0.899849
Si Si2 0.411761 0.810471 0.252399
Si Si3 0.500000 0.319312 0.500000
Si Si4 0.288813 0.465609 0.173128
Si Si5 0.961767 0.253997 0.602605
Si Si6 0.946156 0.892340 0.589082
Si Si7 0.274630 0.247682 0.956879
O O1 0.844018 0.854603 0.820141
O O2 0.083846 0.835326 0.770590
O O3 0.102640 0.101469 0.900331
O O4 0.349594 0.874482 0.097527
O O5 0.438603 0.625984 0.250928
O O6 0.648547 0.880287 0.438942
O O7 0.329280 0.406387 0.319536
O O8 0.689332 0.242264 0.512546
O O9 0.349951 0.343699 0.105963
O O10 0.000000 0.502267 0.000000
O O11 0.000000 0.322449 0.500000
O O12 0.123765 0.339510 0.781867
O O13 0.036597 0.072165 0.630821
O O14 0.000000 0.814068 0.500000
O O15 0.500000 0.186364 0.000000
#
# Coordination Sequence:
#
# PCOD9113881 Si02
#       7
#     2   2   1   2   2   2   2
#     4  10  24  41  71  99 131 178 228 291 340 408
#     4  11  25  44  68  99 140 182 231 288 342 430
#     4  12  26  40  76  96 142 198 224 300 352 432
#     4  12  26  47  66 103 142 186 243 280 356 434
#     4  10  23  42  68 109 140 174 237 295 354 418
#     4  10  24  41  67 103 136 174 223 291 351 413
#     4  11  25  45  71 103 143 181 232 304 351 422
#
# _framework density 23.319490999999999
#
# number of rings (size 3 to 8) (size 9 to 14) (size 15 to 20)
#    0.000    1.231    3.077    1.385   17.231    0.000 
#    2.769    0.769    0.000    0.000    0.000    0.000 
#    0.000    0.000    0.000    0.000    0.000    0.000 
#
# Total GULP energy -72446.069612 kJ/mol
# GULP energy per Si atom -5572.774586 kJ/mol
# Density = 2.326641 g / cm^3
# Si number density = 23.319491 Si / 1000 Ang^3
#
#
#
# Elastic Constant Matrix: (Units=GPa)
#
#
# Indices 1 2 3 4 5 6 
#
# 1 95.4196 18.9142 27.0403 0.0000 -24.3942 0.0000
# 2 18.9142 58.3279 27.4265 0.0000 -22.4351 0.0000
# 3 27.0403 27.4265 123.0941 0.0000 -38.9475 0.0000
# 4 0.0000 0.0000 0.0000 49.7699 0.0000 -487.8706
# 5 -24.3942 -22.4351 -38.9475 0.0000 47.8326 0.0000
# 6 0.0000 0.0000 0.0000 -487.8706 0.0000 4319.6177
#
#
#
# Elastic Compliance Matrix: (Units=1/GPa)
#
#
# Indices 1 2 3 4 5 6 
#
# 1 0.012279 -0.001768 -0.000787 0.000000 0.004792 0.000000
# 2 -0.001768 0.021583 -0.002024 0.000000 0.007573 0.000000
# 3 -0.000787 -0.002024 0.011208 0.000000 0.007775 0.000000
# 4 0.000000 0.000000 0.000000 -0.187558 0.000000 -0.021183
# 5 0.004792 0.007573 0.007775 0.000000 0.033233 0.000000
# 6 0.000000 0.000000 0.000000 -0.021183 0.000000 -0.002161
#
#
# Mechanical properties :
#
#
# Convention : Reuss Voigt Hill
#
# Bulk Modulus (GPa) = 27.84796 47.06708 37.45752
# Shear Modulus (GPa) = -55.37861 897.00805 420.81472
#
# Velocity S-wave (km/s) = -4.87846 19.63403 13.44797
# Velocity P-wave (km/s) = 4.44574 23.11322 16.03834
#
# Compressibility (1/GPa) = 0.03590927
#
# Stress axis : x y z
#
# Youngs Moduli (GPa) = 81.44242 46.33371 89.22297
#
# Poissons Ratio (x) = 0.08194 0.07023
# Poissons Ratio (y) = 0.14403 0.18061
# Poissons Ratio (z) = 0.06411 0.09379
#
# Static dielectric constant tensor:
#      x y z
#    x 0.377720 0.000000 -1.811180 
#    y 0.000000 1.907490 0.000000 
#    z -1.811180 0.000000 0.040260 
# 
# From -- ./inp_files/10653.got.cif
#   From: 2010.05.17/outbox.cif.g08.bks.cpg/sg3_6_cif.got.tgz:10653.got - 2010.06.03 18:33:08.
