data_PCOD9113591
_publ_section_title
;
Structure prediction by ZEFSAII (Michael W. Deem and Ramdas Pophale) SiO2 
 PCOD9113591
Probable space group: P 2
;
_chemical_formula_sum "Si O2"
_cell_formula_units_Z 15
_cell_length_a 8.940419
_cell_length_b 8.949036
_cell_length_c 8.411873
_cell_angle_alpha 90.000000
_cell_angle_beta 87.201824
_cell_angle_gamma 90.000000
_cell_volume 672.215796
_symmetry_space_group_name_H-M "P 2"
_symmetry_group_IT_number 3
_symmetry_cell_setting 'monoclinic'
loop_
_space_group_symop_operation_xyz
x,y,z
-x,y,-z
loop_
_atom_site_type_symbol
_atom_site_label
_atom_site_fract_x
_atom_site_fract_y
_atom_site_fract_z
Si Si1 0.422362 0.682460 0.331840
Si Si2 0.249632 0.898309 0.144688
Si Si3 0.723738 0.746129 0.173398
Si Si4 0.019679 0.277689 0.334808
Si Si5 0.500000 0.131848 0.000000
Si Si6 0.665323 0.360842 0.803138
Si Si7 0.050111 0.951180 0.666063
Si Si8 0.141988 0.469237 0.910100
O O1 0.500000 0.685122 0.500000
O O2 0.303130 0.813450 0.302832
O O3 0.548811 0.738214 0.203254
O O4 0.373221 0.514310 0.287434
O O5 0.084396 0.952710 0.198270
O O6 0.239365 0.771491 0.011837
O O7 0.359672 0.020855 0.052674
O O8 0.783355 0.583448 0.214899
O O9 0.806839 0.870025 0.270847
O O10 0.197759 0.273814 0.290405
O O11 0.000000 0.368099 0.500000
O O12 0.939948 0.343262 0.185449
O O13 0.928042 0.125524 0.367181
O O14 0.526422 0.250624 0.852057
O O15 0.739285 0.411472 0.967756
O O16 0.000000 0.882746 0.500000
O O17 0.000000 0.548101 0.000000
#
# Coordination Sequence:
#
# PCOD9113591 Si02
#       8
#     2   2   2   2   1   2   2   2
#     4  12  27  46  68 102 144 185 231 289 360 422
#     4  12  24  46  70 105 134 182 237 286 350 418
#     4  12  24  42  68 100 131 181 229 290 336 411
#     4  10  24  42  65 101 139 181 228 286 352 418
#     4  12  24  42  72 100 136 184 240 290 344 416
#     4  11  24  45  67 100 139 184 233 290 346 424
#     4  11  25  45  68 102 144 178 226 288 354 417
#     4  10  22  39  66  96 127 172 229 282 333 401
#
# _framework density 22.314261999999999
#
# number of rings (size 3 to 8) (size 9 to 14) (size 15 to 20)
#    0.000    0.800    4.000    2.800    5.600    1.600 
#    0.000    0.667    0.000    0.000    0.000    0.000 
#    0.000    0.000    0.000    0.000    0.000    0.000 
#
# Total GULP energy -83583.487224 kJ/mol
# GULP energy per Si atom -5572.232482 kJ/mol
# Density = 2.226347 g / cm^3
# Si number density = 22.314262 Si / 1000 Ang^3
#
#
#
# Elastic Constant Matrix: (Units=GPa)
#
#
# Indices 1 2 3 4 5 6 
#
# 1 55.4739 13.9015 5.6311 0.0000 -1.5766 0.0000
# 2 13.9015 54.0181 -1.8610 0.0000 7.3879 0.0000
# 3 5.6311 -1.8610 84.3169 0.0000 12.3586 0.0000
# 4 0.0000 0.0000 0.0000 23.9540 0.0000 -0.6658
# 5 -1.5766 7.3879 12.3586 0.0000 39.4693 0.0000
# 6 0.0000 0.0000 0.0000 -0.6658 0.0000 11.8900
#
#
#
# Elastic Compliance Matrix: (Units=1/GPa)
#
#
# Indices 1 2 3 4 5 6 
#
# 1 0.019636 -0.005437 -0.001777 0.000000 0.002359 0.000000
# 2 -0.005437 0.020583 0.001482 0.000000 -0.004534 0.000000
# 3 -0.001777 0.001482 0.012643 0.000000 -0.004307 0.000000
# 4 0.000000 0.000000 0.000000 0.041812 0.000000 0.002341
# 5 0.002359 -0.004534 -0.004307 0.000000 0.027628 0.000000
# 6 0.000000 0.000000 0.000000 0.002341 0.000000 0.084235
#
#
# Mechanical properties :
#
#
# Convention : Reuss Voigt Hill
#
# Bulk Modulus (GPa) = 24.15626 25.46134 24.80880
# Shear Modulus (GPa) = 21.57030 26.80516 24.18773
#
# Velocity S-wave (km/s) = 3.11249 3.46968 3.29592
# Velocity P-wave (km/s) = 4.87501 5.24277 5.06223
#
# Compressibility (1/GPa) = 0.04139714
#
# Stress axis : x y z
#
# Youngs Moduli (GPa) = 50.92566 48.58448 79.09692
#
# Poissons Ratio (x) = 0.26416 0.14057
# Poissons Ratio (y) = 0.27689 -0.11722
# Poissons Ratio (z) = 0.09050 -0.07200
#
# Static dielectric constant tensor:
#      x y z
#    x 2.009190 0.000000 -0.076230 
#    y 0.000000 1.894300 0.000000 
#    z -0.076230 0.000000 1.891530 
# 
# From -- ./inp_files/5602.got.cif
#   From: 2010.05.17/outbox.cif.g08.bks.cpg/sg3_3_cif.got.tgz:5602.got - 2010.06.03 18:33:08.
