data_PCOD9113092
_publ_section_title
;
Structure prediction by ZEFSAII (Michael W. Deem and Ramdas Pophale) SiO2 
 PCOD9113092
Probable space group: P 2
;
_chemical_formula_sum "Si O2"
_cell_formula_units_Z 14
_cell_length_a 8.698590
_cell_length_b 9.186220
_cell_length_c 10.095718
_cell_angle_alpha 90.000000
_cell_angle_beta 124.981524
_cell_angle_gamma 90.000000
_cell_volume 660.975651
_symmetry_space_group_name_H-M "P 2"
_symmetry_group_IT_number 3
_symmetry_cell_setting 'monoclinic'
loop_
_space_group_symop_operation_xyz
x,y,z
-x,y,-z
loop_
_atom_site_type_symbol
_atom_site_label
_atom_site_fract_x
_atom_site_fract_y
_atom_site_fract_z
Si Si1 0.171520 0.239180 0.271928
Si Si2 0.848615 0.654428 0.237939
Si Si3 0.309752 0.954307 0.855479
Si Si4 0.246491 0.228712 0.010137
Si Si5 0.757786 0.672942 0.502000
Si Si6 0.500000 0.462896 0.500000
Si Si7 0.500000 0.448770 0.000000
Si Si8 0.198705 0.998145 0.517824
O O1 0.325421 0.362358 0.376112
O O2 0.955439 0.289987 0.142559
O O3 0.187091 0.123963 0.401582
O O4 0.225958 0.181445 0.152400
O O5 0.835784 0.824272 0.191915
O O6 0.811383 0.662736 0.375891
O O7 0.682506 0.550515 0.108385
O O8 0.065299 0.610838 0.327594
O O9 0.329706 0.008252 0.713337
O O10 0.273428 0.091218 0.928962
O O11 0.500000 0.883522 0.000000
O O12 0.420865 0.338637 0.074203
O O13 0.575274 0.575764 0.428444
O O14 0.744540 0.845371 0.521626
O O15 0.000000 0.991191 0.500000
#
# Coordination Sequence:
#
# PCOD9113092 Si02
#       8
#     2   2   2   2   2   1   1   2
#     4  11  26  45  64  99 139 178 223 277 336 398
#     4  10  20  39  67  96 125 169 228 276 322 392
#     4  11  21  40  70 101 126 163 224 285 334 389
#     4  11  24  43  64  95 142 175 223 275 331 399
#     4  10  21  43  65  95 133 170 227 279 328 393
#     4  12  26  42  60  98 142 184 214 268 342 404
#     4  12  22  36  64  98 128 190 216 264 332 404
#     4  11  21  45  75  99 122 173 235 283 334 392
#
# _framework density 21.180810999999999
#
# number of rings (size 3 to 8) (size 9 to 14) (size 15 to 20)
#    0.000    1.143    5.714    1.714    2.000    1.714 
#    5.143    0.000    0.000    5.143    0.000    0.000 
#    0.000    0.000    0.000    0.000    0.000    0.000 
#
# Total GULP energy -77967.433567 kJ/mol
# GULP energy per Si atom -5569.102398 kJ/mol
# Density = 2.113260 g / cm^3
# Si number density = 21.180811 Si / 1000 Ang^3
#
#
#
# Elastic Constant Matrix: (Units=GPa)
#
#
# Indices 1 2 3 4 5 6 
#
# 1 55.9877 51.1932 10.2638 0.0000 -3.5059 0.0000
# 2 51.1932 122.6633 40.0376 0.0000 -6.9689 0.0000
# 3 10.2638 40.0376 78.6314 0.0000 -8.0086 0.0000
# 4 0.0000 0.0000 0.0000 40.2257 0.0000 53.2481
# 5 -3.5059 -6.9689 -8.0086 0.0000 25.9228 0.0000
# 6 0.0000 0.0000 0.0000 53.2481 0.0000 162.7305
#
#
#
# Elastic Compliance Matrix: (Units=1/GPa)
#
#
# Indices 1 2 3 4 5 6 
#
# 1 0.029468 -0.013206 0.003017 0.000000 0.001367 0.000000
# 2 -0.013206 0.015727 -0.006232 0.000000 0.000517 0.000000
# 3 0.003017 -0.006232 0.015867 0.000000 0.003635 0.000000
# 4 0.000000 0.000000 0.000000 0.043856 0.000000 -0.014350
# 5 0.001367 0.000517 0.003635 0.000000 0.040023 0.000000
# 6 0.000000 0.000000 0.000000 -0.014350 0.000000 0.010841
#
#
# Mechanical properties :
#
#
# Convention : Reuss Voigt Hill
#
# Bulk Modulus (GPa) = 35.43373 51.14128 43.28751
# Shear Modulus (GPa) = 25.24875 56.16165 40.70520
#
# Velocity S-wave (km/s) = 3.45636 5.15489 4.38859
# Velocity P-wave (km/s) = 5.71787 7.72192 6.79419
#
# Compressibility (1/GPa) = 0.02822170
#
# Stress axis : x y z
#
# Youngs Moduli (GPa) = 33.93475 63.58481 63.02405
#
# Poissons Ratio (x) = 0.83967 -0.19013
# Poissons Ratio (y) = 0.44813 0.39274
# Poissons Ratio (z) = -0.10237 0.39623
#
# Static dielectric constant tensor:
#      x y z
#    x 1.414240 0.000000 0.089410 
#    y 0.000000 1.784140 0.000000 
#    z 0.089410 0.000000 1.848310 
# 
# From -- ./inp_files/5660.got.cif
#   From: 2010.05.17/outbox.cif.g08.bks.cpg/sg3_3_cif.got.tgz:5660.got - 2010.06.03 18:33:08.
