data_PCOD9113744
_publ_section_title
;
Structure prediction by ZEFSAII (Michael W. Deem and Ramdas Pophale) SiO2 
 PCOD9113744
Probable space group: P 2
;
_chemical_formula_sum "Si O2"
_cell_formula_units_Z 14
_cell_length_a 19.610873
_cell_length_b 5.323007
_cell_length_c 13.252784
_cell_angle_alpha 90.000000
_cell_angle_beta 23.048195
_cell_angle_gamma 90.000000
_cell_volume 541.625012
_symmetry_space_group_name_H-M "P 2"
_symmetry_group_IT_number 3
_symmetry_cell_setting 'monoclinic'
loop_
_space_group_symop_operation_xyz
x,y,z
-x,y,-z
loop_
_atom_site_type_symbol
_atom_site_label
_atom_site_fract_x
_atom_site_fract_y
_atom_site_fract_z
Si Si1 0.656444 0.845060 0.667032
Si Si2 0.451313 0.096380 0.798344
Si Si3 0.325555 0.261099 0.674430
Si Si4 0.234148 0.595276 0.090157
Si Si5 0.177823 0.615959 0.722602
Si Si6 0.043055 0.186786 0.754874
Si Si7 0.847452 0.543654 0.563226
O O1 0.648285 0.652727 0.585444
O O2 0.694837 0.710535 0.719533
O O3 0.520928 0.060637 0.820157
O O4 0.851865 0.933945 0.371467
O O5 0.620944 0.092626 0.495264
O O6 0.344544 0.346283 0.915415
O O7 0.330065 0.857633 0.945914
O O8 0.500000 0.282261 0.500000
O O9 0.263714 0.521970 0.710270
O O10 0.162955 0.159725 0.959660
O O11 0.194820 0.541429 0.261948
O O12 0.049488 0.629888 0.284580
O O13 0.094442 0.383226 0.771793
O O14 0.000000 0.759794 0.000000
O O15 0.131582 0.289447 0.530366
#
# Coordination Sequence:
#
# PCOD9113744 Si02
#       7
#     2   2   2   2   2   2   2
#     4  11  24  42  72 107 142 197 249 310 368 456
#     4  12  27  48  72 112 157 194 248 315 391 439
#     4  11  23  42  71 106 147 195 238 313 374 456
#     4  11  28  51  77 108 152 200 248 324 376 457
#     4   9  20  39  64  97 143 193 243 294 361 448
#     4  10  22  43  69 102 141 193 249 293 372 448
#     4  10  26  49  78 104 143 204 260 307 381 454
#
# _framework density 25.848141999999999
#
# number of rings (size 3 to 8) (size 9 to 14) (size 15 to 20)
#    0.000    1.429    1.429    1.714   10.000    1.714 
#    2.571    2.857    0.000    0.000    0.000    0.000 
#    0.000    0.000    0.000    0.000    0.000    0.000 
#
# Total GULP energy -78095.298637 kJ/mol
# GULP energy per Si atom -5578.235617 kJ/mol
# Density = 2.578931 g / cm^3
# Si number density = 25.848142 Si / 1000 Ang^3
#
#
#
# Elastic Constant Matrix: (Units=GPa)
#
#
# Indices 1 2 3 4 5 6 
#
# 1 64.4426 -23.5157 -5.2182 0.0000 -14.8923 0.0000
# 2 -23.5157 36.9464 25.4173 0.0000 0.4882 0.0000
# 3 -5.2182 25.4173 86.4391 0.0000 -19.0910 0.0000
# 4 0.0000 0.0000 0.0000 -16.1728 0.0000 61.8933
# 5 -14.8923 0.4882 -19.0910 0.0000 52.8217 0.0000
# 6 0.0000 0.0000 0.0000 61.8933 0.0000 -58.2150
#
#
#
# Elastic Compliance Matrix: (Units=1/GPa)
#
#
# Indices 1 2 3 4 5 6 
#
# 1 0.022250 0.015477 -0.002015 0.000000 0.005402 0.000000
# 2 0.015477 0.045600 -0.012610 0.000000 -0.000616 0.000000
# 3 -0.002015 -0.012610 0.016362 0.000000 0.005462 0.000000
# 4 0.000000 0.000000 0.000000 0.020149 0.000000 0.021422
# 5 0.005402 -0.000616 0.005462 0.000000 0.022434 0.000000
# 6 0.000000 0.000000 0.000000 0.021422 0.000000 0.005598
#
#
# Mechanical properties :
#
#
# Convention : Reuss Voigt Hill
#
# Bulk Modulus (GPa) = 11.63932 20.13277 15.88604
# Shear Modulus (GPa) = 31.38177 8.42976 19.90577
#
# Velocity S-wave (km/s) = 3.48815 1.80786 2.77809
# Velocity P-wave (km/s) = 4.55364 3.48763 4.05581
#
# Compressibility (1/GPa) = 0.08591567
#
# Stress axis : x y z
#
# Youngs Moduli (GPa) = 44.94285 21.92971 61.11860
#
# Poissons Ratio (x) = -0.33940 0.12312
# Poissons Ratio (y) = -0.69556 0.77073
# Poissons Ratio (z) = 0.09054 0.27654
#
# Static dielectric constant tensor:
#      x y z
#    x 3.172970 0.000000 0.360290 
#    y 0.000000 2.163410 0.000000 
#    z 0.360290 0.000000 2.177810 
# 
# From -- ./inp_files/14274.got.cif
#   From: 2010.05.17/outbox.cif.g08.bks.cpg/sg3_8_cif.got.tgz:14274.got - 2010.06.03 18:33:08.
