data_PCOD9113919
_publ_section_title
;
Structure prediction by ZEFSAII (Michael W. Deem and Ramdas Pophale) SiO2 
 PCOD9113919
Probable space group: P 2
;
_chemical_formula_sum "Si O2"
_cell_formula_units_Z 14
_cell_length_a 10.722030
_cell_length_b 9.910793
_cell_length_c 8.740498
_cell_angle_alpha 90.000000
_cell_angle_beta 138.657293
_cell_angle_gamma 90.000000
_cell_volume 613.528629
_symmetry_space_group_name_H-M "P 2"
_symmetry_group_IT_number 3
_symmetry_cell_setting 'monoclinic'
loop_
_space_group_symop_operation_xyz
x,y,z
-x,y,-z
loop_
_atom_site_type_symbol
_atom_site_label
_atom_site_fract_x
_atom_site_fract_y
_atom_site_fract_z
Si Si1 0.776425 0.530210 0.982801
Si Si2 0.000000 0.008636 0.000000
Si Si3 0.222618 0.624770 0.679356
Si Si4 0.500000 0.386208 0.500000
Si Si5 0.917544 0.096802 0.589472
Si Si6 0.314084 0.802923 0.232274
Si Si7 0.163312 0.382543 0.399084
Si Si8 0.580783 0.907404 0.226825
O O1 0.607590 0.465788 0.732528
O O2 0.806021 0.674498 0.929925
O O3 0.716264 0.562342 0.101653
O O4 0.964466 0.439370 0.151229
O O5 0.820942 0.910420 0.815316
O O6 0.020100 0.082508 0.851967
O O7 0.238490 0.511129 0.563649
O O8 0.322533 0.763506 0.725190
O O9 0.000000 0.653425 0.500000
O O10 0.317780 0.326601 0.420486
O O11 0.879341 0.255136 0.535168
O O12 0.000000 0.048390 0.500000
O O13 0.728447 0.010032 0.432184
O O14 0.500000 0.762722 0.500000
O O15 0.404083 0.873495 0.168589
O O16 0.500000 0.972199 0.000000
#
# Coordination Sequence:
#
# PCOD9113919 Si02
#       8
#     2   1   2   1   2   2   2   2
#     4  11  24  44  75 107 150 192 249 313 386 441
#     4  12  30  46  80 108 158 200 248 322 382 454
#     4  10  23  44  73 104 146 194 251 315 372 444
#     4  12  26  42  72 110 148 192 248 318 368 452
#     4  12  28  54  77 109 156 208 254 312 388 458
#     4  12  25  44  69 114 152 190 248 316 385 446
#     4  11  28  49  72 108 149 203 256 306 381 458
#     4  12  24  45  74 112 147 192 257 314 379 455
#
# _framework density 22.818822999999998
#
# number of rings (size 3 to 8) (size 9 to 14) (size 15 to 20)
#    0.000    0.571    3.571    3.857    8.000    1.143 
#    5.143    0.000    0.000    0.000    0.000    0.000 
#    0.000    0.000    0.000    0.000    0.000    0.000 
#
# Total GULP energy -78192.512211 kJ/mol
# GULP energy per Si atom -5585.179444 kJ/mol
# Density = 2.276689 g / cm^3
# Si number density = 22.818823 Si / 1000 Ang^3
#
#
#
# Elastic Constant Matrix: (Units=GPa)
#
#
# Indices 1 2 3 4 5 6 
#
# 1 119.1341 20.0979 18.9020 0.0000 9.8480 0.0000
# 2 20.0979 73.4260 25.6524 0.0000 10.0732 0.0000
# 3 18.9020 25.6524 125.0048 0.0000 -12.4472 0.0000
# 4 0.0000 0.0000 0.0000 76.5431 0.0000 8.1824
# 5 9.8480 10.0732 -12.4472 0.0000 29.4198 0.0000
# 6 0.0000 0.0000 0.0000 8.1824 0.0000 22.8737
#
#
#
# Elastic Compliance Matrix: (Units=1/GPa)
#
#
# Indices 1 2 3 4 5 6 
#
# 1 0.009135 -0.001602 -0.001360 0.000000 -0.003084 0.000000
# 2 -0.001602 0.016280 -0.003759 0.000000 -0.006628 0.000000
# 3 -0.001360 -0.003759 0.009552 0.000000 0.005784 0.000000
# 4 0.000000 0.000000 0.000000 0.013584 0.000000 -0.004859
# 5 -0.003084 -0.006628 0.005784 0.000000 0.039740 0.000000
# 6 0.000000 0.000000 0.000000 -0.004859 0.000000 0.045457
#
#
# Mechanical properties :
#
#
# Convention : Reuss Voigt Hill
#
# Bulk Modulus (GPa) = 46.45405 49.65215 48.05310
# Shear Modulus (GPa) = 32.39091 42.62814 37.50953
#
# Velocity S-wave (km/s) = 3.77169 4.32686 4.05878
# Velocity P-wave (km/s) = 6.27451 6.83877 6.56271
#
# Compressibility (1/GPa) = 0.02152665
#
# Stress axis : x y z
#
# Youngs Moduli (GPa) = 109.47046 61.42457 104.68478
#
# Poissons Ratio (x) = 0.09842 0.14233
# Poissons Ratio (y) = 0.17539 0.39347
# Poissons Ratio (z) = 0.14884 0.23087
#
# Static dielectric constant tensor:
#      x y z
#    x 1.891550 0.000000 -0.013520 
#    y 0.000000 1.799050 0.000000 
#    z -0.013520 0.000000 1.834130 
# 
# From -- ./inp_files/7598.got.cif
#   From: 2010.05.17/outbox.cif.g08.bks.cpg/sg3_4_cif.got.tgz:7598.got - 2010.06.03 18:33:08.
