data_PCOD9113014
_publ_section_title
;
Structure prediction by ZEFSAII (Michael W. Deem and Ramdas Pophale) SiO2 
 PCOD9113014
Probable space group: P 2
;
_chemical_formula_sum "Si O2"
_cell_formula_units_Z 16
_cell_length_a 8.929746
_cell_length_b 10.564338
_cell_length_c 8.616384
_cell_angle_alpha 90.000000
_cell_angle_beta 58.795674
_cell_angle_gamma 90.000000
_cell_volume 695.244687
_symmetry_space_group_name_H-M "P 2"
_symmetry_group_IT_number 3
_symmetry_cell_setting 'monoclinic'
loop_
_space_group_symop_operation_xyz
x,y,z
-x,y,-z
loop_
_atom_site_type_symbol
_atom_site_label
_atom_site_fract_x
_atom_site_fract_y
_atom_site_fract_z
Si Si1 0.180930 0.606040 0.298214
Si Si2 0.315804 0.507408 0.526891
Si Si3 0.807773 0.766611 0.279807
Si Si4 0.995544 0.398376 0.822754
Si Si5 0.120770 0.134986 0.819051
Si Si6 0.413817 0.090030 0.902067
Si Si7 0.662964 0.983331 0.527091
Si Si8 0.781031 0.830043 0.948209
O O1 0.316106 0.550542 0.350049
O O2 0.261714 0.724595 0.160647
O O3 0.000000 0.633550 0.500000
O O4 0.127756 0.492307 0.208136
O O5 0.500000 0.477934 0.500000
O O6 0.226421 0.620963 0.671783
O O7 0.179232 0.397805 0.631423
O O8 0.008906 0.808034 0.169276
O O9 0.721901 0.839630 0.470797
O O10 0.727361 0.798426 0.155217
O O11 0.984917 0.246870 0.848213
O O12 0.000000 0.443667 0.000000
O O13 0.296460 0.157795 0.830572
O O14 0.183101 0.065317 0.631918
O O15 0.000000 0.051946 0.000000
O O16 0.584497 0.031306 0.726787
O O17 0.500000 0.165304 0.000000
O O18 0.299801 0.969923 0.026901
O O19 0.500000 0.996568 0.500000
#
# Coordination Sequence:
#
# PCOD9113014 Si02
#       8
#     2   2   2   2   2   2   2   2
#     4  10  21  40  61  99 137 177 233 287 330 416
#     4  11  24  38  63  98 135 173 229 285 352 406
#     4  11  20  36  61  93 131 180 225 271 334 411
#     4  10  21  44  69  92 126 179 235 285 342 404
#     4  10  21  44  70  90 124 182 237 283 335 411
#     4  11  25  39  60 101 144 177 227 287 348 413
#     4  10  20  38  60  91 134 173 218 274 337 405
#     4  11  21  35  64  89 135 183 224 272 338 409
#
# _framework density 23.013477999999999
#
# number of rings (size 3 to 8) (size 9 to 14) (size 15 to 20)
#    0.000    1.500    5.000    1.875    1.750    1.500 
#    0.000   13.750    0.000    0.000    0.000    0.000 
#    0.000    0.000    0.000    0.000    0.000    0.000 
#
# Total GULP energy -89111.031561 kJ/mol
# GULP energy per Si atom -5569.439473 kJ/mol
# Density = 2.296110 g / cm^3
# Si number density = 23.013478 Si / 1000 Ang^3
#
#
#
# Elastic Constant Matrix: (Units=GPa)
#
#
# Indices 1 2 3 4 5 6 
#
# 1 38.5103 -19.2760 0.6143 0.0000 23.7791 0.0000
# 2 -19.2760 49.7438 3.0468 0.0000 0.0566 0.0000
# 3 0.6143 3.0468 69.1690 0.0000 -1.5142 0.0000
# 4 0.0000 0.0000 0.0000 19.9581 0.0000 0.9957
# 5 23.7791 0.0566 -1.5142 0.0000 41.0841 0.0000
# 6 0.0000 0.0000 0.0000 0.9957 0.0000 6.6078
#
#
#
# Elastic Compliance Matrix: (Units=1/GPa)
#
#
# Indices 1 2 3 4 5 6 
#
# 1 0.058314 0.022774 -0.002262 0.000000 -0.033866 0.000000
# 2 0.022774 0.029052 -0.001773 0.000000 -0.013287 0.000000
# 3 -0.002262 -0.001773 0.014596 0.000000 0.001850 0.000000
# 4 0.000000 0.000000 0.000000 0.050484 0.000000 -0.007607
# 5 -0.033866 -0.013287 0.001850 0.000000 0.044028 0.000000
# 6 0.000000 0.000000 0.000000 -0.007607 0.000000 0.152482
#
#
# Mechanical properties :
#
#
# Convention : Reuss Voigt Hill
#
# Bulk Modulus (GPa) = 7.17155 14.02148 10.59651
# Shear Modulus (GPa) = 13.96809 25.06587 19.51698
#
# Velocity S-wave (km/s) = 2.46631 3.30386 2.91532
# Velocity P-wave (km/s) = 3.35161 4.54532 3.99332
#
# Compressibility (1/GPa) = 0.13943982
#
# Stress axis : x y z
#
# Youngs Moduli (GPa) = 17.14850 34.42127 68.51180
#
# Poissons Ratio (x) = -0.78392 0.15500
# Poissons Ratio (y) = -0.39054 0.12146
# Poissons Ratio (z) = 0.03880 0.06102
#
# Static dielectric constant tensor:
#      x y z
#    x 1.925620 0.000000 -0.004300 
#    y 0.000000 1.932540 0.000000 
#    z -0.004300 0.000000 1.938590 
# 
# From -- ./inp_files/6009.got.cif
#   From: 2010.05.17/outbox.cif.g08.bks.cpg/sg3_4_cif.got.tgz:6009.got - 2010.06.03 18:33:08.
