data_PCOD9113818
_publ_section_title
;
Structure prediction by ZEFSAII (Michael W. Deem and Ramdas Pophale) SiO2 
 PCOD9113818
Probable space group: P 2
;
_chemical_formula_sum "Si O2"
_cell_formula_units_Z 13
_cell_length_a 13.919768
_cell_length_b 6.694589
_cell_length_c 8.392860
_cell_angle_alpha 90.000000
_cell_angle_beta 132.087792
_cell_angle_gamma 90.000000
_cell_volume 580.415837
_symmetry_space_group_name_H-M "P 2"
_symmetry_group_IT_number 3
_symmetry_cell_setting 'monoclinic'
loop_
_space_group_symop_operation_xyz
x,y,z
-x,y,-z
loop_
_atom_site_type_symbol
_atom_site_label
_atom_site_fract_x
_atom_site_fract_y
_atom_site_fract_z
Si Si1 0.855580 0.766610 0.856095
Si Si2 0.092430 0.408839 0.837018
Si Si3 0.500000 0.421673 0.500000
Si Si4 0.637300 0.991248 0.130363
Si Si5 0.815444 0.332629 0.404204
Si Si6 0.701489 0.091214 0.852318
Si Si7 0.655890 0.629081 0.394449
O O1 0.794894 0.679608 0.628310
O O2 0.743652 0.922414 0.777091
O O3 0.874428 0.590351 0.008057
O O4 0.000000 0.853720 0.000000
O O5 0.147666 0.442444 0.720114
O O6 0.941959 0.354311 0.652669
O O7 0.166764 0.210911 0.971034
O O8 0.605451 0.265819 0.687539
O O9 0.558071 0.563632 0.425838
O O10 0.622965 0.802032 0.231989
O O11 0.768491 0.107279 0.324198
O O12 0.500000 0.102590 0.000000
O O13 0.652510 0.978294 0.956281
O O14 0.688104 0.432409 0.331967
#
# Coordination Sequence:
#
# PCOD9113818 Si02
#       7
#     2   2   1   2   2   2   2
#     4  12  26  43  73 109 144 191 243 314 380 441
#     4  10  22  46  71 104 144 191 241 315 375 440
#     4  12  28  48  78 106 156 204 252 320 382 444
#     4  11  27  46  72 103 143 201 252 304 367 455
#     4  10  23  45  74 101 143 190 251 300 374 452
#     4  11  27  47  71 103 150 195 251 304 375 447
#     4  12  27  44  72 107 144 189 250 305 377 444
#
# _framework density 22.397736999999999
#
# number of rings (size 3 to 8) (size 9 to 14) (size 15 to 20)
#    0.000    0.923    3.077    1.846    8.615    3.692 
#    0.000    0.000    0.000    0.000    0.000    0.000 
#    0.000    0.000    0.000    0.000    0.000    0.000 
#
# Total GULP energy -72540.669132 kJ/mol
# GULP energy per Si atom -5580.051472 kJ/mol
# Density = 2.234676 g / cm^3
# Si number density = 22.397737 Si / 1000 Ang^3
#
#
#
# Elastic Constant Matrix: (Units=GPa)
#
#
# Indices 1 2 3 4 5 6 
#
# 1 118.8052 39.2607 18.7311 0.0000 0.6782 0.0000
# 2 39.2607 57.1397 39.3192 0.0000 -6.6852 0.0000
# 3 18.7311 39.3192 101.6496 0.0000 10.0735 0.0000
# 4 0.0000 0.0000 0.0000 14.0990 0.0000 5.1229
# 5 0.6782 -6.6852 10.0735 0.0000 25.7271 0.0000
# 6 0.0000 0.0000 0.0000 5.1229 0.0000 28.0275
#
#
#
# Elastic Compliance Matrix: (Units=1/GPa)
#
#
# Indices 1 2 3 4 5 6 
#
# 1 0.011268 -0.009493 0.001945 0.000000 -0.003525 0.000000
# 2 -0.009493 0.034734 -0.013114 0.000000 0.014411 0.000000
# 3 0.001945 -0.013114 0.015496 0.000000 -0.009527 0.000000
# 4 0.000000 0.000000 0.000000 0.075972 0.000000 -0.013886
# 5 -0.003525 0.014411 -0.009527 0.000000 0.046437 0.000000
# 6 0.000000 0.000000 0.000000 -0.013886 0.000000 0.038217
#
#
# Mechanical properties :
#
#
# Convention : Reuss Voigt Hill
#
# Bulk Modulus (GPa) = 49.57042 52.46850 51.01946
# Shear Modulus (GPa) = 18.50663 25.58962 22.04813
#
# Velocity S-wave (km/s) = 2.87761 3.38377 3.14090
# Velocity P-wave (km/s) = 5.76375 6.22440 5.99850
#
# Compressibility (1/GPa) = 0.02017332
#
# Stress axis : x y z
#
# Youngs Moduli (GPa) = 88.74968 28.79041 64.53216
#
# Poissons Ratio (x) = 0.27330 -0.12552
# Poissons Ratio (y) = 0.84249 0.84629
# Poissons Ratio (z) = -0.17262 0.37757
#
# Static dielectric constant tensor:
#      x y z
#    x 1.890260 0.000000 -0.032600 
#    y 0.000000 1.802140 0.000000 
#    z -0.032600 0.000000 1.860020 
# 
# From -- ./inp_files/6644.got.cif
#   From: 2010.05.17/outbox.cif.g08.bks.cpg/sg3_4_cif.got.tgz:6644.got - 2010.06.03 18:33:08.
