data_PCOD9113956
_publ_section_title
;
Structure prediction by ZEFSAII (Michael W. Deem and Ramdas Pophale) SiO2 
 PCOD9113956
Probable space group: P 2
;
_chemical_formula_sum "Si O2"
_cell_formula_units_Z 10
_cell_length_a 18.558616
_cell_length_b 5.331351
_cell_length_c 12.624827
_cell_angle_alpha 90.000000
_cell_angle_beta 161.519091
_cell_angle_gamma 90.000000
_cell_volume 395.960641
_symmetry_space_group_name_H-M "P 2"
_symmetry_group_IT_number 3
_symmetry_cell_setting 'monoclinic'
loop_
_space_group_symop_operation_xyz
x,y,z
-x,y,-z
loop_
_atom_site_type_symbol
_atom_site_label
_atom_site_fract_x
_atom_site_fract_y
_atom_site_fract_z
Si Si1 0.625010 0.063180 0.330630
Si Si2 0.649355 0.416691 0.904281
Si Si3 0.932685 0.021327 0.157955
Si Si4 0.225130 0.719098 0.266419
Si Si5 0.832424 0.798413 0.333415
O O1 0.502436 0.283277 0.219374
O O2 0.832937 0.155526 0.549787
O O3 0.725639 0.894925 0.564681
O O4 0.416371 0.906481 0.991207
O O5 0.457317 0.567432 0.571279
O O6 0.777414 0.215849 0.007319
O O7 0.792035 0.596228 0.182954
O O8 0.037685 0.790839 0.373883
O O9 0.819665 0.892020 0.898688
O O10 0.000000 0.575156 0.000000
O O11 0.000000 0.986811 0.500000
#
# Coordination Sequence:
#
# PCOD9113956 Si02
#       5
#     2   2   2   2   2
#     4  10  23  50  73 106 151 192 248 308 365 443
#     4  11  25  49  75 109 153 192 253 304 364 441
#     4  11  24  51  79 109 150 201 242 304 378 431
#     4   9  23  50  76 108 152 193 247 308 368 443
#     4  11  24  48  72 107 152 194 242 309 362 438
#
# _framework density 25.255033999999998
#
# number of rings (size 3 to 8) (size 9 to 14) (size 15 to 20)
#    0.000    1.600    2.000    0.600    2.800    3.200 
#   21.600    2.000    0.000    0.000    0.000    0.000 
#    0.000    0.000    0.000    0.000    0.000    0.000 
#
# Total GULP energy -55742.524103 kJ/mol
# GULP energy per Si atom -5574.252410 kJ/mol
# Density = 2.519755 g / cm^3
# Si number density = 25.255034 Si / 1000 Ang^3
#
#
#
# Elastic Constant Matrix: (Units=GPa)
#
#
# Indices 1 2 3 4 5 6 
#
# 1 133.6495 51.1491 77.1137 0.0000 31.0903 0.0000
# 2 51.1491 71.9870 53.6954 0.0000 16.1687 0.0000
# 3 77.1137 53.6954 177.5680 0.0000 6.6556 0.0000
# 4 0.0000 0.0000 0.0000 18.4281 0.0000 37.4372
# 5 31.0903 16.1687 6.6556 0.0000 40.5171 0.0000
# 6 0.0000 0.0000 0.0000 37.4372 0.0000 -143.4137
#
#
#
# Elastic Compliance Matrix: (Units=1/GPa)
#
#
# Indices 1 2 3 4 5 6 
#
# 1 0.013497 -0.004763 -0.004130 0.000000 -0.007778 0.000000
# 2 -0.004763 0.021376 -0.004239 0.000000 -0.004179 0.000000
# 3 -0.004130 -0.004239 0.008578 0.000000 0.003451 0.000000
# 4 0.000000 0.000000 0.000000 0.035460 0.000000 0.009257
# 5 -0.007778 -0.004179 0.003451 0.000000 0.031750 0.000000
# 6 0.000000 0.000000 0.000000 0.009257 0.000000 -0.004556
#
#
# Mechanical properties :
#
#
# Convention : Reuss Voigt Hill
#
# Bulk Modulus (GPa) = 58.18090 83.01345 70.59717
# Shear Modulus (GPa) = 36.20655 -3.47728 16.36464
#
# Velocity S-wave (km/s) = 3.79045 -1.17467 2.54830
# Velocity P-wave (km/s) = 6.49954 5.57688 6.05581
#
# Compressibility (1/GPa) = 0.01718777
#
# Stress axis : x y z
#
# Youngs Moduli (GPa) = 74.08960 46.78129 116.58326
#
# Poissons Ratio (x) = 0.22281 0.48146
# Poissons Ratio (y) = 0.35288 0.49419
# Poissons Ratio (z) = 0.30597 0.19830
#
# Static dielectric constant tensor:
#      x y z
#    x 2.224790 0.000000 0.223480 
#    y 0.000000 2.099920 0.000000 
#    z 0.223480 0.000000 3.847950 
# 
# From -- ./inp_files/12407.got.cif
#   From: 2010.05.17/outbox.cif.g08.bks.cpg/sg3_7_cif.got.tgz:12407.got - 2010.06.03 18:33:08.
