data_PCOD9113192
_publ_section_title
;
Structure prediction by ZEFSAII (Michael W. Deem and Ramdas Pophale) SiO2 
 PCOD9113192
Probable space group: P 2
;
_chemical_formula_sum "Si O2"
_cell_formula_units_Z 14
_cell_length_a 14.371742
_cell_length_b 8.653236
_cell_length_c 6.300917
_cell_angle_alpha 90.000000
_cell_angle_beta 121.619570
_cell_angle_gamma 90.000000
_cell_volume 667.268783
_symmetry_space_group_name_H-M "P 2"
_symmetry_group_IT_number 3
_symmetry_cell_setting 'monoclinic'
loop_
_space_group_symop_operation_xyz
x,y,z
-x,y,-z
loop_
_atom_site_type_symbol
_atom_site_label
_atom_site_fract_x
_atom_site_fract_y
_atom_site_fract_z
Si Si1 0.500000 0.820801 0.000000
Si Si2 0.331409 0.307300 0.311894
Si Si3 0.172171 0.212084 0.747835
Si Si4 0.791948 0.490990 0.467986
Si Si5 0.310829 0.022240 0.561341
Si Si6 0.111714 0.809021 0.269349
Si Si7 0.584149 0.525604 0.931921
Si Si8 0.000000 0.982960 0.500000
O O1 0.402243 0.920654 0.787431
O O2 0.539266 0.700130 0.863541
O O3 0.276369 0.408659 0.428906
O O4 0.407550 0.418387 0.261758
O O5 0.364681 0.146938 0.465329
O O6 0.241434 0.260686 0.031208
O O7 0.136300 0.362956 0.569942
O O8 0.247436 0.119271 0.668584
O O9 0.077185 0.101118 0.716614
O O10 0.853348 0.633455 0.647350
O O11 0.701713 0.542010 0.186105
O O12 0.218650 0.912673 0.338232
O O13 0.075996 0.877856 0.451266
O O14 0.000000 0.820275 0.000000
O O15 0.500000 0.449314 0.000000
#
# Coordination Sequence:
#
# PCOD9113192 Si02
#       8
#     1   2   2   2   2   2   2   1
#     4  10  20  44  68  92 136 174 208 290 318 380
#     4  10  21  41  64  89 125 172 209 271 326 391
#     4   9  21  41  61  89 126 167 209 265 327 398
#     4  10  21  39  61  89 127 161 217 264 317 404
#     4  10  21  43  64  94 130 165 222 265 325 389
#     4  11  22  38  63  98 127 164 217 272 316 388
#     4   9  20  41  63  87 127 171 208 269 328 388
#     4  10  22  38  62  84 126 172 204 264 332 378
#
# _framework density 20.981051000000001
#
# number of rings (size 3 to 8) (size 9 to 14) (size 15 to 20)
#    0.429    1.714    1.429    0.857    0.000    4.571 
#   16.714    2.857    0.000    0.000    0.000    0.000 
#    0.000    0.000    0.000    0.000    0.000    0.000 
#
# Total GULP energy -78030.679614 kJ/mol
# GULP energy per Si atom -5573.619972 kJ/mol
# Density = 2.093330 g / cm^3
# Si number density = 20.981051 Si / 1000 Ang^3
#
#
#
# Elastic Constant Matrix: (Units=GPa)
#
#
# Indices 1 2 3 4 5 6 
#
# 1 55.2305 47.1546 12.1162 0.0000 4.9923 0.0000
# 2 47.1546 145.3518 40.3175 0.0000 6.4924 0.0000
# 3 12.1162 40.3175 82.4111 0.0000 20.8213 0.0000
# 4 0.0000 0.0000 0.0000 15.0790 0.0000 -0.8541
# 5 4.9923 6.4924 20.8213 0.0000 32.3579 0.0000
# 6 0.0000 0.0000 0.0000 -0.8541 0.0000 21.4827
#
#
#
# Elastic Compliance Matrix: (Units=1/GPa)
#
#
# Indices 1 2 3 4 5 6 
#
# 1 0.025282 -0.008383 0.001128 0.000000 -0.002945 0.000000
# 2 -0.008383 0.010772 -0.004559 0.000000 0.002066 0.000000
# 3 0.001128 -0.004559 0.016732 0.000000 -0.010026 0.000000
# 4 0.000000 0.000000 0.000000 0.066467 0.000000 0.002643
# 5 -0.002945 0.002066 -0.010026 0.000000 0.037395 0.000000
# 6 0.000000 0.000000 0.000000 0.002643 0.000000 0.046654
#
#
# Mechanical properties :
#
#
# Convention : Reuss Voigt Hill
#
# Bulk Modulus (GPa) = 34.29677 53.57443 43.93560
# Shear Modulus (GPa) = 21.12820 26.01093 23.56956
#
# Velocity S-wave (km/s) = 3.17679 3.52481 3.35531
# Velocity P-wave (km/s) = 5.46242 6.49275 5.99974
#
# Compressibility (1/GPa) = 0.02915727
#
# Stress axis : x y z
#
# Youngs Moduli (GPa) = 39.55360 92.83360 59.76581
#
# Poissons Ratio (x) = 0.77826 -0.06744
# Poissons Ratio (y) = 0.33159 0.27249
# Poissons Ratio (z) = -0.04463 0.42326
#
# Static dielectric constant tensor:
#      x y z
#    x 1.791890 0.000000 0.025450 
#    y 0.000000 1.764670 0.000000 
#    z 0.025450 0.000000 1.741640 
# 
# From -- ./inp_files/3110.got.cif
#   From: 2010.05.17/outbox.cif.g08.bks.cpg/sg3_2_cif.got.tgz:3110.got - 2010.06.03 18:33:08.
