data_PCOD9113155
_publ_section_title
;
Structure prediction by ZEFSAII (Michael W. Deem and Ramdas Pophale) SiO2 
 PCOD9113155
Probable space group: P 2
;
_chemical_formula_sum "Si O2"
_cell_formula_units_Z 12
_cell_length_a 15.667495
_cell_length_b 5.299639
_cell_length_c 14.793918
_cell_angle_alpha 90.000000
_cell_angle_beta 28.871408
_cell_angle_gamma 90.000000
_cell_volume 593.112665
_symmetry_space_group_name_H-M "P 2"
_symmetry_group_IT_number 3
_symmetry_cell_setting 'monoclinic'
loop_
_space_group_symop_operation_xyz
x,y,z
-x,y,-z
loop_
_atom_site_type_symbol
_atom_site_label
_atom_site_fract_x
_atom_site_fract_y
_atom_site_fract_z
Si Si1 0.355473 0.318540 0.411305
Si Si2 0.350633 0.319690 0.714750
Si Si3 0.567301 0.319492 0.039551
Si Si4 0.133619 0.818546 0.655986
Si Si5 0.175894 0.819747 0.927241
Si Si6 0.238718 0.819572 0.074386
O O1 0.539631 0.319480 0.293985
O O2 0.403389 0.318964 0.261418
O O3 0.247523 0.567349 0.539183
O O4 0.248585 0.068738 0.538109
O O5 0.500000 0.319299 0.500000
O O6 0.232887 0.569310 0.822947
O O7 0.232364 0.070550 0.823512
O O8 0.500000 0.319527 0.000000
O O9 0.680755 0.569689 0.956272
O O10 0.681183 0.069628 0.955801
O O11 0.974698 0.819143 0.729515
O O12 0.025116 0.819179 0.850952
O O13 0.279143 0.819790 0.928870
#
# Coordination Sequence:
#
# PCOD9113155 Si02
#       6
#     2   2   2   2   2   2
#     4  12  20  40  58  94 114 154 208 248 286 358
#     4  12  23  39  65  91 119 158 204 248 292 356
#     4  12  23  39  65  91 119 158 204 248 292 356
#     4  10  22  36  68  82 120 166 190 244 308 350
#     4  10  20  42  61  82 122 164 193 233 318 347
#     4  10  20  42  61  82 122 164 193 233 318 347
#
# _framework density 20.232241999999999
#
# number of rings (size 3 to 8) (size 9 to 14) (size 15 to 20)
#    1.000    0.000    3.333    5.000    0.000    0.000 
#    0.000   10.000    0.000    0.000    0.000    0.000 
#    0.000    0.000    0.000    0.000    0.000    0.000 
#
# Total GULP energy -67066.549281 kJ/mol
# GULP energy per Si atom -5588.879107 kJ/mol
# Density = 2.018619 g / cm^3
# Si number density = 20.232242 Si / 1000 Ang^3
#
#
#
# Elastic Constant Matrix: (Units=GPa)
#
#
# Indices 1 2 3 4 5 6 
#
# 1 86.8399 40.1681 21.3533 0.0000 4.7520 0.0000
# 2 40.1681 227.2892 74.5724 0.0000 -16.3306 0.0000
# 3 21.3533 74.5724 121.3474 0.0000 4.0256 0.0000
# 4 0.0000 0.0000 0.0000 24.1870 0.0000 16.9659
# 5 4.7520 -16.3306 4.0256 0.0000 34.5079 0.0000
# 6 0.0000 0.0000 0.0000 16.9659 0.0000 -14.5749
#
#
#
# Elastic Compliance Matrix: (Units=1/GPa)
#
#
# Indices 1 2 3 4 5 6 
#
# 1 0.012886 -0.002202 -0.000824 0.000000 -0.002721 0.000000
# 2 -0.002202 0.006218 -0.003555 0.000000 0.003661 0.000000
# 3 -0.000824 -0.003555 0.010664 0.000000 -0.002813 0.000000
# 4 0.000000 0.000000 0.000000 0.022760 0.000000 0.026494
# 5 -0.002721 0.003661 -0.002813 0.000000 0.031414 0.000000
# 6 0.000000 0.000000 0.000000 0.026494 0.000000 -0.037771
#
#
# Mechanical properties :
#
#
# Convention : Reuss Voigt Hill
#
# Bulk Modulus (GPa) = 60.22282 78.62935 69.42608
# Shear Modulus (GPa) = 77.07725 28.78283 52.93004
#
# Velocity S-wave (km/s) = 6.17891 3.77586 5.12035
# Velocity P-wave (km/s) = 8.98530 7.61296 8.32745
#
# Compressibility (1/GPa) = 0.01660500
#
# Stress axis : x y z
#
# Youngs Moduli (GPa) = 77.60581 160.81207 93.77374
#
# Poissons Ratio (x) = 0.35418 0.07724
# Poissons Ratio (y) = 0.17092 0.33340
# Poissons Ratio (z) = 0.06392 0.57174
#
# Static dielectric constant tensor:
#      x y z
#    x 1.750170 0.000000 0.006480 
#    y 0.000000 1.686760 0.000000 
#    z 0.006480 0.000000 1.699820 
# 
# From -- ./inp_files/13828.got.cif
#   From: 2010.05.17/outbox.cif.g08.bks.cpg/sg3_7_cif.got.tgz:13828.got - 2010.06.03 18:33:08.
