data_PCOD9113907
_publ_section_title
;
Structure prediction by ZEFSAII (Michael W. Deem and Ramdas Pophale) SiO2 
 PCOD9113907
Probable space group: P 2
;
_chemical_formula_sum "Si O2"
_cell_formula_units_Z 14
_cell_length_a 5.159263
_cell_length_b 5.654055
_cell_length_c 20.535960
_cell_angle_alpha 90.000000
_cell_angle_beta 74.012851
_cell_angle_gamma 90.000000
_cell_volume 575.880353
_symmetry_space_group_name_H-M "P 2"
_symmetry_group_IT_number 3
_symmetry_cell_setting 'monoclinic'
loop_
_space_group_symop_operation_xyz
x,y,z
-x,y,-z
loop_
_atom_site_type_symbol
_atom_site_label
_atom_site_fract_x
_atom_site_fract_y
_atom_site_fract_z
Si Si1 0.671444 0.702800 0.215633
Si Si2 0.500000 0.647200 0.500000
Si Si3 0.742446 0.849046 0.353310
Si Si4 0.000000 0.332204 0.500000
Si Si5 0.487264 0.315841 0.069204
Si Si6 0.002771 0.629244 0.930481
Si Si7 0.232705 0.096836 0.355839
Si Si8 0.622122 0.202050 0.784741
O O1 0.753757 0.703571 0.285584
O O2 0.889930 0.742377 0.143447
O O3 0.549377 0.443703 0.210927
O O4 0.486731 0.936069 0.220379
O O5 0.567360 0.778567 0.428316
O O6 0.755655 0.488996 0.494507
O O7 0.553874 0.073362 0.344237
O O8 0.049588 0.865736 0.356276
O O9 0.897941 0.193696 0.569892
O O10 0.782680 0.413841 0.068853
O O11 0.333580 0.199072 0.140778
O O12 0.292697 0.534663 0.064992
O O13 0.500000 0.175691 0.000000
O O14 0.000000 0.765052 0.000000
O O15 0.177887 0.229316 0.290836
#
# Coordination Sequence:
#
# PCOD9113907 Si02
#       8
#     2   1   2   1   2   2   2   2
#     4  10  23  44  68  98 134 175 222 274 332 394
#     4  12  24  40  66  98 132 174 222 274 332 394
#     4  11  24  43  65  93 131 175 221 272 331 394
#     4  12  24  40  66  98 132 174 222 274 332 394
#     4   9  19  38  64  94 130 172 219 272 330 392
#     4   9  19  38  64  94 130 172 219 272 330 392
#     4  11  24  43  65  93 131 175 221 272 331 394
#     4  10  23  44  68  98 134 175 222 274 332 394
#
# _framework density 24.310606
#
# number of rings (size 3 to 8) (size 9 to 14) (size 15 to 20)
#    0.000    1.714    0.000    3.429    0.000   12.571 
#    0.000   12.857    0.000    0.000    0.000    0.000 
#    0.000    0.000    0.000    0.000    0.000    0.000 
#
# Total GULP energy -77965.599412 kJ/mol
# GULP energy per Si atom -5568.971387 kJ/mol
# Density = 2.425527 g / cm^3
# Si number density = 24.310606 Si / 1000 Ang^3
#
#
#
# Elastic Constant Matrix: (Units=GPa)
#
#
# Indices 1 2 3 4 5 6 
#
# 1 97.6824 24.5036 6.1950 0.0000 -5.4927 0.0000
# 2 24.5036 40.5342 9.1736 0.0000 -7.0726 0.0000
# 3 6.1950 9.1736 259.5035 0.0000 1.1610 0.0000
# 4 0.0000 0.0000 0.0000 35.3763 0.0000 0.0510
# 5 -5.4927 -7.0726 1.1610 0.0000 29.1018 0.0000
# 6 0.0000 0.0000 0.0000 0.0510 0.0000 24.6980
#
#
#
# Elastic Compliance Matrix: (Units=1/GPa)
#
#
# Indices 1 2 3 4 5 6 
#
# 1 0.012075 -0.007199 -0.000036 0.000000 0.000531 0.000000
# 2 -0.007199 0.030285 -0.000926 0.000000 0.006038 0.000000
# 3 -0.000036 -0.000926 0.003889 0.000000 -0.000387 0.000000
# 4 0.000000 0.000000 0.000000 0.028268 0.000000 -0.000058
# 5 0.000531 0.006038 -0.000387 0.000000 0.035945 0.000000
# 6 0.000000 0.000000 0.000000 -0.000058 0.000000 0.040489
#
#
# Mechanical properties :
#
#
# Convention : Reuss Voigt Hill
#
# Bulk Modulus (GPa) = 33.41355 53.05163 43.23259
# Shear Modulus (GPa) = 28.20886 41.69174 34.95030
#
# Velocity S-wave (km/s) = 3.41009 4.14570 3.79576
# Velocity P-wave (km/s) = 5.41103 6.69220 6.08543
#
# Compressibility (1/GPa) = 0.02992797
#
# Stress axis : x y z
#
# Youngs Moduli (GPa) = 82.81410 33.01912 257.14647
#
# Poissons Ratio (x) = 0.23770 0.00930
# Poissons Ratio (y) = 0.59617 0.23806
# Poissons Ratio (z) = 0.00299 0.03057
#
# Static dielectric constant tensor:
#      x y z
#    x 1.971040 0.000000 0.067610 
#    y 0.000000 2.061750 0.000000 
#    z 0.067610 0.000000 2.207390 
# 
# From -- ./inp_files/15546.got.cif
#   From: 2010.05.17/outbox.cif.g08.bks.cpg/sg3_8_cif.got.tgz:15546.got - 2010.06.03 18:33:08.
