data_PCOD9113816
_publ_section_title
;
Structure prediction by ZEFSAII (Michael W. Deem and Ramdas Pophale) SiO2 
 PCOD9113816
Probable space group: P 2
;
_chemical_formula_sum "Si O2"
_cell_formula_units_Z 13
_cell_length_a 16.615847
_cell_length_b 5.138951
_cell_length_c 9.427661
_cell_angle_alpha 90.000000
_cell_angle_beta 37.666172
_cell_angle_gamma 90.000000
_cell_volume 491.908836
_symmetry_space_group_name_H-M "P 2"
_symmetry_group_IT_number 3
_symmetry_cell_setting 'monoclinic'
loop_
_space_group_symop_operation_xyz
x,y,z
-x,y,-z
loop_
_atom_site_type_symbol
_atom_site_label
_atom_site_fract_x
_atom_site_fract_y
_atom_site_fract_z
Si Si1 0.500000 0.422621 0.000000
Si Si2 0.177668 0.803336 0.538873
Si Si3 0.153690 0.271550 0.752981
Si Si4 0.918142 0.874103 0.744644
Si Si5 0.507820 0.672772 0.696648
Si Si6 0.309764 0.047723 0.099484
Si Si7 0.294649 0.523898 0.805877
O O1 0.549769 0.581161 0.793698
O O2 0.619181 0.253507 0.898915
O O3 0.223295 0.027602 0.582009
O O4 0.261724 0.820793 0.276978
O O5 0.034625 0.922910 0.692074
O O6 0.160881 0.529064 0.641867
O O7 0.227792 0.313748 0.798797
O O8 0.000000 0.230272 0.000000
O O9 0.824201 0.096046 0.804468
O O10 0.000000 0.751860 0.500000
O O11 0.818730 0.681497 0.958730
O O12 0.404578 0.465763 0.771047
O O13 0.623174 0.693757 0.423191
O O14 0.420287 0.924746 0.845027
#
# Coordination Sequence:
#
# PCOD9113816 Si02
#       7
#     1   2   2   2   2   2   2
#     4  12  24  42  68 106 138 194 244 304 356 442
#     4  11  25  45  72 109 146 189 242 299 366 435
#     4  12  25  43  72 107 147 191 238 303 365 434
#     4   9  20  46  71 105 142 190 244 301 373 435
#     4  10  24  45  70  99 146 188 250 295 370 428
#     4  10  24  43  69 102 140 191 239 302 360 433
#     4  10  22  46  69 104 142 196 238 306 363 438
#
# _framework density 26.427658999999998
#
# number of rings (size 3 to 8) (size 9 to 14) (size 15 to 20)
#    0.000    1.538    1.538    1.846    6.462    1.231 
#    2.769    5.385    0.000    0.000    0.000    0.000 
#    0.000    0.000    0.000    0.000    0.000    0.000 
#
# Total GULP energy -72760.117702 kJ/mol
# GULP energy per Si atom -5596.932131 kJ/mol
# Density = 2.636751 g / cm^3
# Si number density = 26.427659 Si / 1000 Ang^3
#
#
#
# Elastic Constant Matrix: (Units=GPa)
#
#
# Indices 1 2 3 4 5 6 
#
# 1 169.8379 15.4001 12.8874 0.0000 13.6927 0.0000
# 2 15.4001 87.1001 30.6287 0.0000 14.5651 0.0000
# 3 12.8874 30.6287 184.9857 0.0000 8.5736 0.0000
# 4 0.0000 0.0000 0.0000 23.0854 0.0000 4.8409
# 5 13.6927 14.5651 8.5736 0.0000 44.6767 0.0000
# 6 0.0000 0.0000 0.0000 4.8409 0.0000 37.8218
#
#
#
# Elastic Compliance Matrix: (Units=1/GPa)
#
#
# Indices 1 2 3 4 5 6 
#
# 1 0.006100 -0.000732 -0.000230 0.000000 -0.001587 0.000000
# 2 -0.000732 0.012888 -0.001916 0.000000 -0.003610 0.000000
# 3 -0.000230 -0.001916 0.005758 0.000000 -0.000410 0.000000
# 4 0.000000 0.000000 0.000000 0.044512 0.000000 -0.005697
# 5 -0.001587 -0.003610 -0.000410 0.000000 0.024125 0.000000
# 6 0.000000 0.000000 0.000000 -0.005697 0.000000 0.027169
#
#
# Mechanical properties :
#
#
# Convention : Reuss Voigt Hill
#
# Bulk Modulus (GPa) = 52.66057 62.19512 57.42784
# Shear Modulus (GPa) = 37.69683 46.65060 42.17372
#
# Velocity S-wave (km/s) = 3.78089 4.20601 3.99910
# Velocity P-wave (km/s) = 6.24738 6.86823 6.56515
#
# Compressibility (1/GPa) = 0.01898954
#
# Stress axis : x y z
#
# Youngs Moduli (GPa) = 163.94131 77.59331 173.67065
#
# Poissons Ratio (x) = 0.05682 0.03998
# Poissons Ratio (y) = 0.12004 0.33268
# Poissons Ratio (z) = 0.03774 0.14863
#
# Static dielectric constant tensor:
#      x y z
#    x 2.183470 0.000000 -0.029200 
#    y 0.000000 2.076890 0.000000 
#    z -0.029200 0.000000 2.040800 
# 
# From -- ./inp_files/8810.got.cif
#   From: 2010.05.17/outbox.cif.g08.bks.cpg/sg3_5_cif.got.tgz:8810.got - 2010.06.03 18:33:08.
