data_PCOD9113691
_publ_section_title
;
Structure prediction by ZEFSAII (Michael W. Deem and Ramdas Pophale) SiO2 
 PCOD9113691
Probable space group: P 2
;
_chemical_formula_sum "Si O2"
_cell_formula_units_Z 12
_cell_length_a 12.417603
_cell_length_b 6.287800
_cell_length_c 16.798006
_cell_angle_alpha 90.000000
_cell_angle_beta 23.900202
_cell_angle_gamma 90.000000
_cell_volume 531.379141
_symmetry_space_group_name_H-M "P 2"
_symmetry_group_IT_number 3
_symmetry_cell_setting 'monoclinic'
loop_
_space_group_symop_operation_xyz
x,y,z
-x,y,-z
loop_
_atom_site_type_symbol
_atom_site_label
_atom_site_fract_x
_atom_site_fract_y
_atom_site_fract_z
Si Si1 0.809993 0.980790 0.314039
Si Si2 0.000000 0.303426 0.500000
Si Si3 0.556895 0.357710 0.076082
Si Si4 0.751419 0.249110 0.509167
Si Si5 0.500000 0.969888 0.000000
Si Si6 0.957828 0.655894 0.722801
Si Si7 0.825380 0.230032 0.049477
O O1 0.500000 0.967656 0.500000
O O2 0.914011 0.768827 0.286705
O O3 0.840095 0.157595 0.364228
O O4 0.993266 0.051100 0.115750
O O5 0.257296 0.431111 0.295938
O O6 0.103688 0.177515 0.507328
O O7 0.531165 0.121816 0.056156
O O8 0.729781 0.489202 0.899087
O O9 0.717016 0.367323 0.049887
O O10 0.811489 0.504245 0.469409
O O11 0.450569 0.168811 0.722174
O O12 0.228630 0.834701 0.191803
O O13 0.000000 0.337043 0.000000
#
# Coordination Sequence:
#
# PCOD9113691 Si02
#       7
#     2   1   2   2   1   2   2
#     4  12  25  47  76 104 145 194 247 306 368 433
#     4  10  22  42  66 108 136 188 236 286 364 442
#     4  11  23  43  70 101 150 184 238 301 368 427
#     4  11  24  46  72 103 150 189 237 304 374 432
#     4  12  22  42  76 102 142 196 234 300 364 450
#     4  12  24  43  74 111 138 194 246 296 371 437
#     4  11  23  46  74 102 143 196 241 300 366 433
#
# _framework density 22.582747000000001
#
# number of rings (size 3 to 8) (size 9 to 14) (size 15 to 20)
#    0.000    0.667    5.000    3.500    0.000    2.000 
#    6.000    8.333    0.000    0.000    0.000    0.000 
#    0.000    0.000    0.000    0.000    0.000    0.000 
#
# Total GULP energy -66912.298440 kJ/mol
# GULP energy per Si atom -5576.024870 kJ/mol
# Density = 2.253135 g / cm^3
# Si number density = 22.582747 Si / 1000 Ang^3
#
#
#
# Elastic Constant Matrix: (Units=GPa)
#
#
# Indices 1 2 3 4 5 6 
#
# 1 146.2625 27.7325 44.5646 0.0000 -27.8177 0.0000
# 2 27.7325 80.1258 44.9675 0.0000 -2.9107 0.0000
# 3 44.5646 44.9675 169.9241 0.0000 -13.3373 0.0000
# 4 0.0000 0.0000 0.0000 8.8093 0.0000 -4.4786
# 5 -27.8177 -2.9107 -13.3373 0.0000 54.3669 0.0000
# 6 0.0000 0.0000 0.0000 -4.4786 0.0000 15.9178
#
#
#
# Elastic Compliance Matrix: (Units=1/GPa)
#
#
# Indices 1 2 3 4 5 6 
#
# 1 0.008359 -0.001988 -0.001365 0.000000 0.003836 0.000000
# 2 -0.001988 0.015131 -0.003568 0.000000 -0.001082 0.000000
# 3 -0.001365 -0.003568 0.007257 0.000000 0.000891 0.000000
# 4 0.000000 0.000000 0.000000 0.132464 0.000000 0.037270
# 5 0.003836 -0.001082 0.000891 0.000000 0.020517 0.000000
# 6 0.000000 0.000000 0.000000 0.037270 0.000000 0.073309
#
#
# Mechanical properties :
#
#
# Convention : Reuss Voigt Hill
#
# Bulk Modulus (GPa) = 59.15010 70.09350 64.62180
# Shear Modulus (GPa) = 18.08221 34.42200 26.25210
#
# Velocity S-wave (km/s) = 2.83275 3.90841 3.41322
# Velocity P-wave (km/s) = 6.07855 7.17450 6.64915
#
# Compressibility (1/GPa) = 0.01690614
#
# Stress axis : x y z
#
# Youngs Moduli (GPa) = 119.62513 66.08780 137.79552
#
# Poissons Ratio (x) = 0.13137 0.18813
# Poissons Ratio (y) = 0.23779 0.49164
# Poissons Ratio (z) = 0.16332 0.23579
#
# Static dielectric constant tensor:
#      x y z
#    x 1.866860 0.000000 0.015550 
#    y 0.000000 1.873050 0.000000 
#    z 0.015550 0.000000 1.898510 
# 
# From -- ./inp_files/15977.got.cif
#   From: 2010.05.17/outbox.cif.g08.bks.cpg/sg3_8_cif.got.tgz:15977.got - 2010.06.03 18:33:08.
