data_PCOD9113874
_publ_section_title
;
Structure prediction by ZEFSAII (Michael W. Deem and Ramdas Pophale) SiO2 
 PCOD9113874
Probable space group: P 2
;
_chemical_formula_sum "Si O2"
_cell_formula_units_Z 11
_cell_length_a 16.838782
_cell_length_b 5.214788
_cell_length_c 5.153907
_cell_angle_alpha 90.000000
_cell_angle_beta 106.762748
_cell_angle_gamma 90.000000
_cell_volume 433.337192
_symmetry_space_group_name_H-M "P 2"
_symmetry_group_IT_number 3
_symmetry_cell_setting 'monoclinic'
loop_
_space_group_symop_operation_xyz
x,y,z
-x,y,-z
loop_
_atom_site_type_symbol
_atom_site_label
_atom_site_fract_x
_atom_site_fract_y
_atom_site_fract_z
Si Si1 0.369761 0.808060 0.812418
Si Si2 0.422533 0.309449 0.610384
Si Si3 0.131101 0.654505 0.768926
Si Si4 0.907229 0.158379 0.533128
Si Si5 0.711278 0.615657 0.746234
Si Si6 0.000000 0.853106 0.000000
O O1 0.429215 0.581967 0.762092
O O2 0.295274 0.767362 0.531305
O O3 0.407736 0.083575 0.797837
O O4 0.341415 0.755081 0.076337
O O5 0.500000 0.259774 0.500000
O O6 0.338472 0.353892 0.362774
O O7 0.041061 0.674099 0.822339
O O8 0.142340 0.938346 0.665816
O O9 0.199060 0.585399 0.046703
O O10 0.131405 0.434244 0.551648
O O11 0.000000 0.164337 0.500000
O O12 0.926552 0.038366 0.831100
#
# Coordination Sequence:
#
# PCOD9113874 Si02
#       6
#     2   2   2   2   2   1
#     4  10  25  44  71 100 147 183 239 289 364 420
#     4  10  24  47  73 109 141 194 236 298 353 436
#     4  11  25  42  71  99 141 185 241 294 355 425
#     4  10  23  42  64  98 131 175 237 288 353 423
#     4  10  27  47  68 110 144 192 237 300 358 429
#     4  10  24  48  70 102 138 192 234 300 360 416
#
# _framework density 25.38439
#
# number of rings (size 3 to 8) (size 9 to 14) (size 15 to 20)
#    1.091    0.727    0.000    2.182    7.636    7.273 
#    0.000    1.818    0.000    0.000    0.000    0.000 
#    0.000    0.000    0.000    0.000    0.000    0.000 
#
# Total GULP energy -61547.458804 kJ/mol
# GULP energy per Si atom -5595.223528 kJ/mol
# Density = 2.532661 g / cm^3
# Si number density = 25.384390 Si / 1000 Ang^3
#
#
#
# Elastic Constant Matrix: (Units=GPa)
#
#
# Indices 1 2 3 4 5 6 
#
# 1 61.8981 21.6888 8.1784 0.0000 -5.2249 0.0000
# 2 21.6888 150.3375 26.3998 0.0000 -4.8354 0.0000
# 3 8.1784 26.3998 101.5049 0.0000 15.9678 0.0000
# 4 0.0000 0.0000 0.0000 144.1721 0.0000 -15.7928
# 5 -5.2249 -4.8354 15.9678 0.0000 53.9698 0.0000
# 6 0.0000 0.0000 0.0000 -15.7928 0.0000 14.1689
#
#
#
# Elastic Compliance Matrix: (Units=1/GPa)
#
#
# Indices 1 2 3 4 5 6 
#
# 1 0.017235 -0.002238 -0.001088 0.000000 0.001790 0.000000
# 2 -0.002238 0.007338 -0.001885 0.000000 0.000999 0.000000
# 3 -0.001088 -0.001885 0.010984 0.000000 -0.003524 0.000000
# 4 0.000000 0.000000 0.000000 0.007901 0.000000 0.008806
# 5 0.001790 0.000999 -0.003524 0.000000 0.019834 0.000000
# 6 0.000000 0.000000 0.000000 0.008806 0.000000 0.080393
#
#
# Mechanical properties :
#
#
# Convention : Reuss Voigt Hill
#
# Bulk Modulus (GPa) = 39.78658 47.36384 43.57521
# Shear Modulus (GPa) = 30.77220 59.62705 45.19963
#
# Velocity S-wave (km/s) = 3.48551 4.85187 4.22430
# Velocity P-wave (km/s) = 5.64855 7.07719 6.40284
#
# Compressibility (1/GPa) = 0.02513410
#
# Stress axis : x y z
#
# Youngs Moduli (GPa) = 58.02299 136.28253 91.04057
#
# Poissons Ratio (x) = 0.30496 0.09907
# Poissons Ratio (y) = 0.12984 0.17163
# Poissons Ratio (z) = 0.06314 0.25692
#
# Static dielectric constant tensor:
#      x y z
#    x 1.966520 0.000000 0.052390 
#    y 0.000000 1.949460 0.000000 
#    z 0.052390 0.000000 2.039250 
# 
# From -- ./inp_files/3368.got.cif
#   From: 2010.05.17/outbox.cif.g08.bks.cpg/sg3_2_cif.got.tgz:3368.got - 2010.06.03 18:33:08.
