data_PCOD9113083
_publ_section_title
;
Structure prediction by ZEFSAII (Michael W. Deem and Ramdas Pophale) SiO2 
 PCOD9113083
Probable space group: P 2
;
_chemical_formula_sum "Si O2"
_cell_formula_units_Z 9
_cell_length_a 15.036873
_cell_length_b 5.268650
_cell_length_c 14.955618
_cell_angle_alpha 90.000000
_cell_angle_beta 16.926842
_cell_angle_gamma 90.000000
_cell_volume 344.967874
_symmetry_space_group_name_H-M "P 2"
_symmetry_group_IT_number 3
_symmetry_cell_setting 'monoclinic'
loop_
_space_group_symop_operation_xyz
x,y,z
-x,y,-z
loop_
_atom_site_type_symbol
_atom_site_label
_atom_site_fract_x
_atom_site_fract_y
_atom_site_fract_z
Si Si1 0.158757 0.689170 0.648392
Si Si2 0.718706 0.710830 0.216455
Si Si3 0.586077 0.992509 0.764626
Si Si4 0.926442 0.339817 0.728537
Si Si5 0.000000 0.687219 0.500000
O O1 0.444596 0.568441 0.428139
O O2 0.323436 0.855423 0.414038
O O3 0.943587 0.489143 0.804367
O O4 0.929546 0.837651 0.936561
O O5 0.500000 0.853706 0.500000
O O6 0.000000 0.578273 0.000000
O O7 0.751561 0.854285 0.686633
O O8 0.719842 0.276739 0.630989
O O9 0.235053 0.066125 0.113694
O O10 0.837356 0.512155 0.730997
#
# Coordination Sequence:
#
# PCOD9113083 Si02
#       5
#     2   2   2   2   1
#     4  10  20  39  64  95 132 171 220 273 330 398
#     4   9  18  35  66  96 126 172 216 267 338 399
#     4  11  24  41  65  94 131 178 225 275 330 391
#     4  11  24  41  65  94 131 178 225 275 330 391
#     4  10  26  44  64  96 136 178 230 280 328 386
#
# _framework density 26.089383999999999
#
# number of rings (size 3 to 8) (size 9 to 14) (size 15 to 20)
#    0.000    1.778    0.000    3.333    0.000   10.667 
#    0.000    0.000    0.000   74.667    0.000    0.000 
#    0.000    0.000    0.000    0.000    0.000    0.000 
#
# Total GULP energy -50159.323860 kJ/mol
# GULP energy per Si atom -5573.258207 kJ/mol
# Density = 2.603000 g / cm^3
# Si number density = 26.089384 Si / 1000 Ang^3
#
#
#
# Elastic Constant Matrix: (Units=GPa)
#
#
# Indices 1 2 3 4 5 6 
#
# 1 179.3500 39.9142 88.5263 0.0000 -10.9126 0.0000
# 2 39.9142 60.5600 32.8091 0.0000 -0.7072 0.0000
# 3 88.5263 32.8091 168.6331 0.0000 7.3870 0.0000
# 4 0.0000 0.0000 0.0000 48.0278 0.0000 -8.6772
# 5 -10.9126 -0.7072 7.3870 0.0000 44.9376 0.0000
# 6 0.0000 0.0000 0.0000 -8.6772 0.0000 -1.1026
#
#
#
# Elastic Compliance Matrix: (Units=1/GPa)
#
#
# Indices 1 2 3 4 5 6 
#
# 1 0.008401 -0.003415 -0.003860 0.000000 0.002621 0.000000
# 2 -0.003415 0.019881 -0.002068 0.000000 -0.000176 0.000000
# 3 -0.003860 -0.002068 0.008462 0.000000 -0.002361 0.000000
# 4 0.000000 0.000000 0.000000 0.008597 0.000000 -0.067660
# 5 0.002621 -0.000176 -0.002361 0.000000 0.023275 0.000000
# 6 0.000000 0.000000 0.000000 -0.067660 0.000000 -0.374492
#
#
# Mechanical properties :
#
#
# Convention : Reuss Voigt Hill
#
# Bulk Modulus (GPa) = 55.37576 81.22692 68.30134
# Shear Modulus (GPa) = -17.78281 34.85881 8.53800
#
# Velocity S-wave (km/s) = -2.61360 3.65928 1.81099
# Velocity P-wave (km/s) = 3.48764 7.00396 5.53259
#
# Compressibility (1/GPa) = 0.01805844
#
# Stress axis : x y z
#
# Youngs Moduli (GPa) = 119.03932 50.29861 118.17013
#
# Poissons Ratio (x) = 0.17175 0.45619
# Poissons Ratio (y) = 0.40648 0.24435
# Poissons Ratio (z) = 0.45955 0.10401
#
# Static dielectric constant tensor:
#      x y z
#    x 2.106660 0.000000 0.032260 
#    y 0.000000 1.982880 0.000000 
#    z 0.032260 0.000000 2.023970 
# 
# From -- ./inp_files/13810.got.cif
#   From: 2010.05.17/outbox.cif.g08.bks.cpg/sg3_7_cif.got.tgz:13810.got - 2010.06.03 18:33:08.
