data_PCOD9113043
_publ_section_title
;
Structure prediction by ZEFSAII (Michael W. Deem and Ramdas Pophale) SiO2 
 PCOD9113043
Probable space group: P 2
;
_chemical_formula_sum "Si O2"
_cell_formula_units_Z 16
_cell_length_a 10.074057
_cell_length_b 12.166166
_cell_length_c 9.356309
_cell_angle_alpha 90.000000
_cell_angle_beta 134.138141
_cell_angle_gamma 90.000000
_cell_volume 822.968441
_symmetry_space_group_name_H-M "P 2"
_symmetry_group_IT_number 3
_symmetry_cell_setting 'monoclinic'
loop_
_space_group_symop_operation_xyz
x,y,z
-x,y,-z
loop_
_atom_site_type_symbol
_atom_site_label
_atom_site_fract_x
_atom_site_fract_y
_atom_site_fract_z
Si Si1 0.646668 0.773250 0.981276
Si Si2 0.402305 0.638434 0.579882
Si Si3 0.092716 0.398920 0.912790
Si Si4 0.509834 0.398920 0.333535
Si Si5 0.597695 0.159405 0.420118
Si Si6 0.006756 0.622023 0.676322
Si Si7 0.353332 0.024589 0.018724
Si Si8 0.993244 0.175817 0.323678
O O1 0.534625 0.714462 0.771579
O O2 0.500000 0.774600 0.000000
O O3 0.824447 0.702183 0.157794
O O4 0.697385 0.898920 0.984931
O O5 0.500000 0.632543 0.500000
O O6 0.396150 0.513541 0.636761
O O7 0.189009 0.673172 0.419900
O O8 0.037295 0.507406 0.783163
O O9 0.037295 0.290434 0.783163
O O10 0.309850 0.398920 0.110940
O O11 0.000000 0.398920 0.000000
O O12 0.500000 0.398920 0.500000
O O13 0.603850 0.284299 0.363239
O O14 0.500000 0.165297 0.500000
O O15 0.810991 0.124667 0.580100
O O16 0.465375 0.083378 0.228421
O O17 0.000000 0.606375 0.500000
O O18 0.175554 0.095656 0.842206
O O19 0.500000 0.023239 0.000000
O O20 0.000000 0.191465 0.500000
#
# Coordination Sequence:
#
# PCOD9113043 Si02
#       8
#     2   2   2   2   2   2   2   2
#     4  11  25  46  69  96 132 180 230 281 335 392
#     4  11  23  43  68  99 138 173 220 281 341 396
#     4  12  23  40  70 103 142 173 215 273 337 406
#     4  10  20  38  63  96 135 172 204 263 342 394
#     4  11  23  43  68  99 138 173 220 281 341 396
#     4  12  25  43  68 103 135 178 225 272 334 403
#     4  11  25  46  69  96 132 180 230 281 335 392
#     4  12  25  43  68 103 135 178 225 272 334 403
#
# _framework density 19.441813
#
# number of rings (size 3 to 8) (size 9 to 14) (size 15 to 20)
#    0.000    0.750    5.000    4.125    0.000    2.000 
#    0.000    3.750    0.000    0.000    0.000    0.000 
#    0.000    0.000    0.000    0.000    0.000    0.000 
#
# Total GULP energy -89407.685749 kJ/mol
# GULP energy per Si atom -5587.980359 kJ/mol
# Density = 1.939756 g / cm^3
# Si number density = 19.441813 Si / 1000 Ang^3
#
#
#
# Elastic Constant Matrix: (Units=GPa)
#
#
# Indices 1 2 3 4 5 6 
#
# 1 102.1747 44.9989 59.0858 0.0000 17.3234 0.0000
# 2 44.9989 167.0064 88.3984 0.0000 -3.2358 0.0000
# 3 59.0858 88.3984 167.4197 0.0000 20.4559 0.0000
# 4 0.0000 0.0000 0.0000 10.6017 0.0000 -7.8825
# 5 17.3234 -3.2358 20.4559 0.0000 41.8041 0.0000
# 6 0.0000 0.0000 0.0000 -7.8825 0.0000 21.7513
#
#
#
# Elastic Compliance Matrix: (Units=1/GPa)
#
#
# Indices 1 2 3 4 5 6 
#
# 1 0.013141 -0.001984 -0.003091 0.000000 -0.004087 0.000000
# 2 -0.001984 0.008971 -0.004490 0.000000 0.003714 0.000000
# 3 -0.003091 -0.004490 0.009913 0.000000 -0.003918 0.000000
# 4 0.000000 0.000000 0.000000 0.129114 0.000000 0.046790
# 5 -0.004087 0.003714 -0.003918 0.000000 0.027819 0.000000
# 6 0.000000 0.000000 0.000000 0.046790 0.000000 0.062931
#
#
# Mechanical properties :
#
#
# Convention : Reuss Voigt Hill
#
# Bulk Modulus (GPa) = 77.54764 91.28523 84.41644
# Shear Modulus (GPa) = 18.16080 31.10594 24.63337
#
# Velocity S-wave (km/s) = 3.05964 4.00428 3.56340
# Velocity P-wave (km/s) = 7.24262 8.27248 7.77462
#
# Compressibility (1/GPa) = 0.01289530
#
# Stress axis : x y z
#
# Youngs Moduli (GPa) = 76.09631 111.46880 100.87276
#
# Poissons Ratio (x) = 0.22115 0.31179
# Poissons Ratio (y) = 0.15097 0.45296
# Poissons Ratio (z) = 0.23521 0.50054
#
# Static dielectric constant tensor:
#      x y z
#    x 1.692900 0.000000 0.022150 
#    y 0.000000 1.683870 0.000000 
#    z 0.022150 0.000000 1.657570 
# 
# From -- ./inp_files/6074.got.cif
#   From: 2010.05.17/outbox.cif.g08.bks.cpg/sg3_4_cif.got.tgz:6074.got - 2010.06.03 18:33:08.
