data_PCOD9113646
_publ_section_title
;
Structure prediction by ZEFSAII (Michael W. Deem and Ramdas Pophale) SiO2 
 PCOD9113646
Probable space group: P 2
;
_chemical_formula_sum "Si O2"
_cell_formula_units_Z 15
_cell_length_a 8.547800
_cell_length_b 6.062832
_cell_length_c 21.051656
_cell_angle_alpha 90.000000
_cell_angle_beta 37.251446
_cell_angle_gamma 90.000000
_cell_volume 660.384581
_symmetry_space_group_name_H-M "P 2"
_symmetry_group_IT_number 3
_symmetry_cell_setting 'monoclinic'
loop_
_space_group_symop_operation_xyz
x,y,z
-x,y,-z
loop_
_atom_site_type_symbol
_atom_site_label
_atom_site_fract_x
_atom_site_fract_y
_atom_site_fract_z
Si Si1 0.111336 0.294810 0.196891
Si Si2 0.765173 0.967547 0.950449
Si Si3 0.204921 0.676609 0.752554
Si Si4 0.090845 0.743899 0.348901
Si Si5 0.398856 0.353931 0.309239
Si Si6 0.298103 0.955566 0.613146
Si Si7 0.504318 0.075276 0.158727
Si Si8 0.000000 0.051662 0.500000
O O1 0.354549 0.256531 0.163558
O O2 0.994806 0.532850 0.224605
O O3 0.178348 0.192924 0.106378
O O4 0.898917 0.138538 0.298390
O O5 0.014854 0.819084 0.857287
O O6 0.500000 0.883274 0.000000
O O7 0.717986 0.994671 0.040324
O O8 0.393932 0.516549 0.728115
O O9 0.377805 0.830205 0.651206
O O10 0.186521 0.505518 0.341050
O O11 0.842888 0.770733 0.384566
O O12 0.320012 0.869108 0.236457
O O13 0.021886 0.895622 0.431811
O O14 0.545607 0.194755 0.212230
O O15 0.246875 0.212642 0.411191
O O16 0.500000 0.060255 0.500000
#
# Coordination Sequence:
#
# PCOD9113646 Si02
#       8
#     2   2   2   2   2   2   2   1
#     4   9  20  40  61  91 126 159 215 264 316 375
#     4   9  20  40  67  92 124 170 208 267 324 370
#     4  11  24  39  63 100 130 159 216 271 318 382
#     4  10  22  41  62  88 124 169 215 259 316 388
#     4  11  24  40  64  94 130 172 216 263 321 392
#     4  10  23  37  62  91 123 166 211 266 317 371
#     4   9  20  41  65  91 123 170 216 257 317 387
#     4  10  24  38  64  84 128 178 214 260 326 376
#
# _framework density 22.714037000000001
#
# number of rings (size 3 to 8) (size 9 to 14) (size 15 to 20)
#    0.000    2.133    0.000    2.000    5.600    6.400 
#    0.000    4.000    0.000    0.000    0.000    0.000 
#    0.000    0.000    0.000    0.000    0.000    0.000 
#
# Total GULP energy -83802.760434 kJ/mol
# GULP energy per Si atom -5586.850696 kJ/mol
# Density = 2.266234 g / cm^3
# Si number density = 22.714037 Si / 1000 Ang^3
#
#
#
# Elastic Constant Matrix: (Units=GPa)
#
#
# Indices 1 2 3 4 5 6 
#
# 1 27.2501 5.1081 24.8590 0.0000 7.7935 0.0000
# 2 5.1081 46.9197 34.6522 0.0000 8.9440 0.0000
# 3 24.8590 34.6522 186.0457 0.0000 36.1941 0.0000
# 4 0.0000 0.0000 0.0000 18.5323 0.0000 -0.6423
# 5 7.7935 8.9440 36.1941 0.0000 23.5895 0.0000
# 6 0.0000 0.0000 0.0000 -0.6423 0.0000 39.9971
#
#
#
# Elastic Compliance Matrix: (Units=1/GPa)
#
#
# Indices 1 2 3 4 5 6 
#
# 1 0.042735 -0.000090 -0.004210 0.000000 -0.007625 0.000000
# 2 -0.000090 0.024893 -0.003983 0.000000 -0.003297 0.000000
# 3 -0.004210 -0.003983 0.008717 0.000000 -0.010474 0.000000
# 4 0.000000 0.000000 0.000000 0.053990 0.000000 0.000867
# 5 -0.007625 -0.003297 -0.010474 0.000000 0.062232 0.000000
# 6 0.000000 0.000000 0.000000 0.000867 0.000000 0.025016
#
#
# Mechanical properties :
#
#
# Convention : Reuss Voigt Hill
#
# Bulk Modulus (GPa) = 16.72805 43.27268 30.00036
# Shear Modulus (GPa) = 19.67927 29.46352 24.57140
#
# Velocity S-wave (km/s) = 2.94665 3.60550 3.29260
# Velocity P-wave (km/s) = 4.35403 6.03534 5.26227
#
# Compressibility (1/GPa) = 0.05977983
#
# Stress axis : x y z
#
# Youngs Moduli (GPa) = 23.39985 40.17209 114.71803
#
# Poissons Ratio (x) = 0.00360 0.48297
# Poissons Ratio (y) = 0.00210 0.45692
# Poissons Ratio (z) = 0.09851 0.16001
#
# Static dielectric constant tensor:
#      x y z
#    x 1.912950 0.000000 -0.019760 
#    y 0.000000 1.812170 0.000000 
#    z -0.019760 0.000000 1.835920 
# 
# From -- ./inp_files/8070.got.cif
#   From: 2010.05.17/outbox.cif.g08.bks.cpg/sg3_5_cif.got.tgz:8070.got - 2010.06.03 18:33:08.
