data_PCOD9113540
_publ_section_title
;
Structure prediction by ZEFSAII (Michael W. Deem and Ramdas Pophale) SiO2 
 PCOD9113540
Probable space group: P 2
;
_chemical_formula_sum "Si O2"
_cell_formula_units_Z 10
_cell_length_a 9.876750
_cell_length_b 9.092755
_cell_length_c 5.107559
_cell_angle_alpha 90.000000
_cell_angle_beta 102.470156
_cell_angle_gamma 90.000000
_cell_volume 447.872652
_symmetry_space_group_name_H-M "P 2"
_symmetry_group_IT_number 3
_symmetry_cell_setting 'monoclinic'
loop_
_space_group_symop_operation_xyz
x,y,z
-x,y,-z
loop_
_atom_site_type_symbol
_atom_site_label
_atom_site_fract_x
_atom_site_fract_y
_atom_site_fract_z
Si Si1 0.000000 0.107510 0.000000
Si Si2 0.000000 0.607231 0.000000
Si Si3 0.650503 0.269193 0.485782
Si Si4 0.110065 0.872530 0.740603
Si Si5 0.407635 0.932401 0.702218
Si Si6 0.817216 0.343126 0.062870
O O1 0.055479 0.232253 0.819589
O O2 0.880683 0.983052 0.005639
O O3 0.964888 0.721940 0.213381
O O4 0.128226 0.495387 0.034366
O O5 0.500000 0.330109 0.500000
O O6 0.629099 0.103241 0.372056
O O7 0.737050 0.266638 0.789384
O O8 0.725437 0.356070 0.283448
O O9 0.000000 0.949433 0.500000
O O10 0.260659 0.853552 0.682939
O O11 0.500000 0.876740 0.500000
O O12 0.500000 0.924476 0.000000
#
# Coordination Sequence:
#
# PCOD9113540 Si02
#       6
#     1   1   2   2   2   2
#     4  10  22  36  66  98 126 168 230 284 336 380
#     4  10  28  42  68  90 144 174 238 274 344 386
#     4  11  22  39  69  97 137 166 222 272 349 401
#     4  11  24  43  70  98 138 185 231 285 332 410
#     4  11  24  42  70 108 142 173 221 290 352 405
#     4  11  23  42  65 101 128 176 222 288 325 400
#
# _framework density 22.327777000000001
#
# number of rings (size 3 to 8) (size 9 to 14) (size 15 to 20)
#    0.000    1.200    2.000    4.200    8.400    1.600 
#    0.000    3.000    0.000    0.000    0.000    0.000 
#    0.000    0.000    0.000    0.000    0.000    0.000 
#
# Total GULP energy -55684.864675 kJ/mol
# GULP energy per Si atom -5568.486467 kJ/mol
# Density = 2.227696 g / cm^3
# Si number density = 22.327777 Si / 1000 Ang^3
#
#
#
# Elastic Constant Matrix: (Units=GPa)
#
#
# Indices 1 2 3 4 5 6 
#
# 1 173.4109 40.4812 55.5722 0.0000 -45.6080 0.0000
# 2 40.4812 91.8685 23.9817 0.0000 -10.1762 0.0000
# 3 55.5722 23.9817 138.7893 0.0000 -10.2469 0.0000
# 4 0.0000 0.0000 0.0000 -2.0759 0.0000 -5.3778
# 5 -45.6080 -10.1762 -10.2469 0.0000 36.7208 0.0000
# 6 0.0000 0.0000 0.0000 -5.3778 0.0000 25.1437
#
#
#
# Elastic Compliance Matrix: (Units=1/GPa)
#
#
# Indices 1 2 3 4 5 6 
#
# 1 0.010201 -0.002519 -0.002824 0.000000 0.011184 0.000000
# 2 -0.002519 0.012283 -0.001116 0.000000 -0.000037 0.000000
# 3 -0.002824 -0.001116 0.008420 0.000000 -0.001467 0.000000
# 4 0.000000 0.000000 0.000000 -0.309969 0.000000 -0.066297
# 5 0.011184 -0.000037 -0.001467 0.000000 0.040704 0.000000
# 6 0.000000 0.000000 0.000000 -0.066297 0.000000 0.025592
#
#
# Mechanical properties :
#
#
# Convention : Reuss Voigt Hill
#
# Bulk Modulus (GPa) = 55.59931 71.57100 63.58515
# Shear Modulus (GPa) = -25.79222 30.89329 2.55054
#
# Velocity S-wave (km/s) = -3.40246 3.72375 1.06995
# Velocity P-wave (km/s) = 3.08543 7.11426 5.48327
#
# Compressibility (1/GPa) = 0.01798584
#
# Stress axis : x y z
#
# Youngs Moduli (GPa) = 98.02992 81.41650 118.75986
#
# Poissons Ratio (x) = 0.20510 0.33532
# Poissons Ratio (y) = 0.24695 0.13258
# Poissons Ratio (z) = 0.27679 0.09089
#
# Static dielectric constant tensor:
#      x y z
#    x 1.929500 0.000000 0.071330 
#    y 0.000000 1.827460 0.000000 
#    z 0.071330 0.000000 2.054190 
# 
# From -- ./inp_files/1049.got.cif
#   From: 2010.05.17/outbox.cif.g08.bks.cpg/sg3_1_cif.got.tgz:1049.got - 2010.06.03 18:33:08.
