data_PCOD9113336
_publ_section_title
;
Structure prediction by ZEFSAII (Michael W. Deem and Ramdas Pophale) SiO2 
 PCOD9113336
Probable space group: P 2
;
_chemical_formula_sum "Si O2"
_cell_formula_units_Z 15
_cell_length_a 9.567698
_cell_length_b 8.313847
_cell_length_c 11.074389
_cell_angle_alpha 90.000000
_cell_angle_beta 131.134281
_cell_angle_gamma 90.000000
_cell_volume 663.471449
_symmetry_space_group_name_H-M "P 2"
_symmetry_group_IT_number 3
_symmetry_cell_setting 'monoclinic'
loop_
_space_group_symop_operation_xyz
x,y,z
-x,y,-z
loop_
_atom_site_type_symbol
_atom_site_label
_atom_site_fract_x
_atom_site_fract_y
_atom_site_fract_z
Si Si1 0.911564 0.898350 0.206228
Si Si2 0.377960 0.734491 0.809862
Si Si3 0.696636 0.900077 0.597396
Si Si4 0.788009 0.396620 0.336217
Si Si5 0.070090 0.275996 0.819886
Si Si6 0.658252 0.264614 0.499845
Si Si7 0.000000 0.493683 0.000000
Si Si8 0.265955 0.774554 0.137657
O O1 0.763211 0.873085 0.228025
O O2 0.116766 0.835870 0.358326
O O3 0.923487 0.083664 0.173694
O O4 0.841604 0.805618 0.048297
O O5 0.258212 0.582521 0.703534
O O6 0.521579 0.769865 0.784739
O O7 0.500000 0.697765 0.000000
O O8 0.500000 0.809391 0.500000
O O9 0.755768 0.910535 0.772605
O O10 0.656675 0.070586 0.512282
O O11 0.784334 0.325767 0.199853
O O12 0.651736 0.317914 0.357237
O O13 0.000000 0.369246 0.500000
O O14 0.859725 0.318604 0.660643
O O15 0.091173 0.377330 0.952599
O O16 0.500000 0.326321 0.500000
O O17 0.169239 0.613216 0.134199
#
# Coordination Sequence:
#
# PCOD9113336 Si02
#       8
#     2   2   2   2   2   2   1   2
#     4  10  21  42  67  94 132 172 220 279 332 403
#     4  10  23  42  65  97 133 173 222 275 342 402
#     4  10  21  39  63  94 126 173 226 272 326 395
#     4  10  22  44  63  92 138 178 219 273 338 404
#     4  10  23  39  69  96 128 179 220 274 342 395
#     4   9  21  40  64  92 131 173 226 279 330 397
#     4  12  24  40  68 104 136 172 228 282 338 406
#     4  11  23  42  65  95 134 172 220 280 333 407
#
# _framework density 22.608357000000002
#
# number of rings (size 3 to 8) (size 9 to 14) (size 15 to 20)
#    0.000    1.867    1.333    1.600    5.600    3.200 
#    2.400    9.333    0.000    0.000    0.000    0.000 
#    0.000    0.000    0.000    0.000    0.000    0.000 
#
# Total GULP energy -83681.423343 kJ/mol
# GULP energy per Si atom -5578.761556 kJ/mol
# Density = 2.255690 g / cm^3
# Si number density = 22.608357 Si / 1000 Ang^3
#
#
#
# Elastic Constant Matrix: (Units=GPa)
#
#
# Indices 1 2 3 4 5 6 
#
# 1 186.3836 57.4586 29.6096 0.0000 -6.1873 0.0000
# 2 57.4586 81.7909 7.5876 0.0000 -15.4407 0.0000
# 3 29.6096 7.5876 18.6232 0.0000 2.1307 0.0000
# 4 0.0000 0.0000 0.0000 19.2692 0.0000 -16.0090
# 5 -6.1873 -15.4407 2.1307 0.0000 41.9785 0.0000
# 6 0.0000 0.0000 0.0000 -16.0090 0.0000 13.0778
#
#
#
# Elastic Compliance Matrix: (Units=1/GPa)
#
#
# Indices 1 2 3 4 5 6 
#
# 1 0.008840 -0.005091 -0.011985 0.000000 0.000039 0.000000
# 2 -0.005091 0.016758 0.000651 0.000000 0.005381 0.000000
# 3 -0.011985 0.000651 0.073086 0.000000 -0.005237 0.000000
# 4 0.000000 0.000000 0.000000 -3.049205 0.000000 -3.732632
# 5 0.000039 0.005381 -0.005237 0.000000 0.026072 0.000000
# 6 0.000000 0.000000 0.000000 -3.732632 0.000000 -4.492772
#
#
# Mechanical properties :
#
#
# Convention : Reuss Voigt Hill
#
# Bulk Modulus (GPa) = 15.18982 52.90104 34.04543
# Shear Modulus (GPa) = -0.67912 27.67457 13.49772
#
# Velocity S-wave (km/s) = -0.54867 3.50249 2.44606
# Velocity P-wave (km/s) = 2.51632 6.30922 4.80303
#
# Compressibility (1/GPa) = 0.06583358
#
# Stress axis : x y z
#
# Youngs Moduli (GPa) = 113.12155 59.67240 13.68254
#
# Poissons Ratio (x) = 0.30379 0.16399
# Poissons Ratio (y) = 0.57591 -0.00891
# Poissons Ratio (z) = 1.35579 -0.03885
#
# Static dielectric constant tensor:
#      x y z
#    x 1.885510 0.000000 0.031990 
#    y 0.000000 1.807640 0.000000 
#    z 0.031990 0.000000 1.901450 
# 
# From -- ./inp_files/10822.got.cif
#   From: 2010.05.17/outbox.cif.g08.bks.cpg/sg3_6_cif.got.tgz:10822.got - 2010.06.03 18:33:08.
