data_PCOD9113003
_publ_section_title
;
Structure prediction by ZEFSAII (Michael W. Deem and Ramdas Pophale) SiO2 
 PCOD9113003
Probable space group: P 2
;
_chemical_formula_sum "Si O2"
_cell_formula_units_Z 12
_cell_length_a 9.338845
_cell_length_b 7.254178
_cell_length_c 9.343195
_cell_angle_alpha 90.000000
_cell_angle_beta 131.012652
_cell_angle_gamma 90.000000
_cell_volume 477.609842
_symmetry_space_group_name_H-M "P 2"
_symmetry_group_IT_number 3
_symmetry_cell_setting 'monoclinic'
loop_
_space_group_symop_operation_xyz
x,y,z
-x,y,-z
loop_
_atom_site_type_symbol
_atom_site_label
_atom_site_fract_x
_atom_site_fract_y
_atom_site_fract_z
Si Si1 0.823722 0.325560 0.981872
Si Si2 0.667281 0.794288 0.501234
Si Si3 0.205173 0.271714 0.702324
Si Si4 0.213977 0.851765 0.710265
Si Si5 0.934807 0.721988 0.097030
Si Si6 0.447639 0.215525 0.617035
O O1 0.651366 0.195452 0.824134
O O2 0.822315 0.333210 0.153627
O O3 0.828433 0.545951 0.958007
O O4 0.000000 0.262748 0.000000
O O5 0.500000 0.745685 0.500000
O O6 0.657280 0.754067 0.324528
O O7 0.863024 0.707749 0.687216
O O8 0.338019 0.023697 0.506494
O O9 0.336866 0.340483 0.658995
O O10 0.000000 0.279534 0.500000
O O11 0.275357 0.062455 0.760634
O O12 0.199727 0.786214 0.862834
O O13 0.000000 0.848600 0.500000
O O14 0.000000 0.837479 0.000000
O O15 0.500000 0.306436 0.500000
#
# Coordination Sequence:
#
# PCOD9113003 Si02
#       6
#     2   2   2   2   2   2
#     4  11  24  41  62  95 136 178 218 269 333 397
#     4   9  19  39  66  95 124 166 220 273 322 386
#     4  10  20  37  65  99 130 170 221 275 328 391
#     4   8  17  35  61  89 120 160 211 259 312 379
#     4  10  22  41  61  91 131 172 213 266 331 394
#     4  10  21  41  67  97 129 172 225 276 324 389
#
# _framework density 25.125109999999999
#
# number of rings (size 3 to 8) (size 9 to 14) (size 15 to 20)
#    0.000    2.333    0.000    2.500    0.000    8.000 
#    0.000   15.833    0.000    0.000    0.000    0.000 
#    0.000    0.000    0.000    0.000    0.000    0.000 
#
# Total GULP energy -66806.033681 kJ/mol
# GULP energy per Si atom -5567.169473 kJ/mol
# Density = 2.506792 g / cm^3
# Si number density = 25.125110 Si / 1000 Ang^3
#
#
#
# Elastic Constant Matrix: (Units=GPa)
#
#
# Indices 1 2 3 4 5 6 
#
# 1 206.7322 5.1790 38.8214 0.0000 -62.4660 0.0000
# 2 5.1790 89.0079 1.2855 0.0000 -6.4661 0.0000
# 3 38.8214 1.2855 91.4164 0.0000 -38.7690 0.0000
# 4 0.0000 0.0000 0.0000 7.5346 0.0000 -11.9293
# 5 -62.4660 -6.4661 -38.7690 0.0000 73.3286 0.0000
# 6 0.0000 0.0000 0.0000 -11.9293 0.0000 27.0477
#
#
#
# Elastic Compliance Matrix: (Units=1/GPa)
#
#
# Indices 1 2 3 4 5 6 
#
# 1 0.006534 0.000011 -0.000534 0.000000 0.005285 0.000000
# 2 0.000011 0.011316 0.000339 0.000000 0.001187 0.000000
# 3 -0.000534 0.000339 0.014154 0.000000 0.007059 0.000000
# 4 0.000000 0.000000 0.000000 0.439900 0.000000 0.194016
# 5 0.005285 0.001187 0.007059 0.000000 0.021976 0.000000
# 6 0.000000 0.000000 0.000000 0.194016 0.000000 0.122542
#
#
# Mechanical properties :
#
#
# Convention : Reuss Voigt Hill
#
# Bulk Modulus (GPa) = 31.60704 53.08094 42.34399
# Shear Modulus (GPa) = 7.97024 44.37356 26.17190
#
# Velocity S-wave (km/s) = 1.78301 4.20706 3.23098
# Velocity P-wave (km/s) = 4.10439 6.69117 5.55057
#
# Compressibility (1/GPa) = 0.03163852
#
# Stress axis : x y z
#
# Youngs Moduli (GPa) = 153.04575 88.37343 70.64949
#
# Poissons Ratio (x) = -0.00101 0.03770
# Poissons Ratio (y) = -0.00175 -0.02398
# Poissons Ratio (z) = 0.08167 -0.03000
#
# Static dielectric constant tensor:
#      x y z
#    x 2.170300 0.000000 -0.046650 
#    y 0.000000 2.043940 0.000000 
#    z -0.046650 0.000000 2.003590 
# 
# From -- ./inp_files/5614.got.cif
#   From: 2010.05.17/outbox.cif.g08.bks.cpg/sg3_3_cif.got.tgz:5614.got - 2010.06.03 18:33:08.
