data_PCOD9113817
_publ_section_title
;
Structure prediction by ZEFSAII (Michael W. Deem and Ramdas Pophale) SiO2 
 PCOD9113817
Probable space group: P 2
;
_chemical_formula_sum "Si O2"
_cell_formula_units_Z 13
_cell_length_a 17.955266
_cell_length_b 5.427356
_cell_length_c 8.860100
_cell_angle_alpha 90.000000
_cell_angle_beta 41.930637
_cell_angle_gamma 90.000000
_cell_volume 576.959119
_symmetry_space_group_name_H-M "P 2"
_symmetry_group_IT_number 3
_symmetry_cell_setting 'monoclinic'
loop_
_space_group_symop_operation_xyz
x,y,z
-x,y,-z
loop_
_atom_site_type_symbol
_atom_site_label
_atom_site_fract_x
_atom_site_fract_y
_atom_site_fract_z
Si Si1 0.500000 0.057971 0.500000
Si Si2 0.044395 0.746770 0.105266
Si Si3 0.446996 0.377823 0.329906
Si Si4 0.702113 0.159693 0.695927
Si Si5 0.047107 0.239013 0.758386
Si Si6 0.301954 0.685990 0.768647
Si Si7 0.346690 0.654056 0.052220
O O1 0.529398 0.221923 0.311420
O O2 0.393933 0.899709 0.611550
O O3 0.986622 0.502660 0.260169
O O4 0.177113 0.729644 0.903800
O O5 0.010681 0.004210 0.231723
O O6 0.000000 0.761801 0.000000
O O7 0.393907 0.210967 0.281809
O O8 0.352705 0.470841 0.587759
O O9 0.519457 0.605012 0.158423
O O10 0.822821 0.174473 0.435892
O O11 0.698395 0.406870 0.801934
O O12 0.683616 0.903681 0.812470
O O13 0.000000 0.256486 0.000000
O O14 0.302080 0.655106 0.948649
#
# Coordination Sequence:
#
# PCOD9113817 Si02
#       7
#     1   2   2   2   2   2   2
#     4  12  24  42  76 114 150 198 258 308 380 440
#     4  10  23  41  73 106 134 182 251 317 361 420
#     4  12  26  46  75 110 153 209 256 308 371 478
#     4  12  29  47  78 104 160 195 255 316 387 456
#     4  10  22  46  69 106 132 185 259 303 368 435
#     4  12  26  46  76 108 158 195 259 314 371 459
#     4  12  27  49  67 117 151 206 240 316 395 452
#
# _framework density 22.531928000000001
#
# number of rings (size 3 to 8) (size 9 to 14) (size 15 to 20)
#    0.000    0.615    3.077    4.154    8.615    2.462 
#    0.000    4.615    0.000    0.000    0.000    0.000 
#    0.000    0.000    0.000    0.000    0.000    0.000 
#
# Total GULP energy -72672.061746 kJ/mol
# GULP energy per Si atom -5590.158596 kJ/mol
# Density = 2.248064 g / cm^3
# Si number density = 22.531928 Si / 1000 Ang^3
#
#
#
# Elastic Constant Matrix: (Units=GPa)
#
#
# Indices 1 2 3 4 5 6 
#
# 1 104.4699 18.7676 41.3884 0.0000 -8.8199 0.0000
# 2 18.7676 138.7591 14.0920 0.0000 17.9478 0.0000
# 3 41.3884 14.0920 90.7084 0.0000 5.0494 0.0000
# 4 0.0000 0.0000 0.0000 8.4032 0.0000 4.6362
# 5 -8.8199 17.9478 5.0494 0.0000 39.3466 0.0000
# 6 0.0000 0.0000 0.0000 4.6362 0.0000 25.0671
#
#
#
# Elastic Compliance Matrix: (Units=1/GPa)
#
#
# Indices 1 2 3 4 5 6 
#
# 1 0.012482 -0.001666 -0.005675 0.000000 0.004286 0.000000
# 2 -0.001666 0.007973 -0.000257 0.000000 -0.003977 0.000000
# 3 -0.005675 -0.000257 0.013817 0.000000 -0.002928 0.000000
# 4 0.000000 0.000000 0.000000 0.132525 0.000000 -0.024510
# 5 0.004286 -0.003977 -0.002928 0.000000 0.028566 0.000000
# 6 0.000000 0.000000 0.000000 -0.024510 0.000000 0.044426
#
#
# Mechanical properties :
#
#
# Convention : Reuss Voigt Hill
#
# Bulk Modulus (GPa) = 52.42526 53.60370 53.01448
# Shear Modulus (GPa) = 19.13201 31.87602 25.50402
#
# Velocity S-wave (km/s) = 2.91710 3.76534 3.36803
# Velocity P-wave (km/s) = 5.88758 6.53800 6.22130
#
# Compressibility (1/GPa) = 0.01907477
#
# Stress axis : x y z
#
# Youngs Moduli (GPa) = 80.11822 125.42921 72.37702
#
# Poissons Ratio (x) = 0.20900 0.41073
# Poissons Ratio (y) = 0.13350 0.01859
# Poissons Ratio (z) = 0.45466 0.03222
#
# Static dielectric constant tensor:
#      x y z
#    x 1.787220 0.000000 0.012340 
#    y 0.000000 1.950630 0.000000 
#    z 0.012340 0.000000 1.923750 
# 
# From -- ./inp_files/8817.got.cif
#   From: 2010.05.17/outbox.cif.g08.bks.cpg/sg3_5_cif.got.tgz:8817.got - 2010.06.03 18:33:08.
