data_PCOD9113754
_publ_section_title
;
Structure prediction by ZEFSAII (Michael W. Deem and Ramdas Pophale) SiO2 
 PCOD9113754
Probable space group: P 2
;
_chemical_formula_sum "Si O2"
_cell_formula_units_Z 15
_cell_length_a 26.541890
_cell_length_b 5.298256
_cell_length_c 21.351140
_cell_angle_alpha 90.000000
_cell_angle_beta 13.066537
_cell_angle_gamma 90.000000
_cell_volume 678.816923
_symmetry_space_group_name_H-M "P 2"
_symmetry_group_IT_number 3
_symmetry_cell_setting 'monoclinic'
loop_
_space_group_symop_operation_xyz
x,y,z
-x,y,-z
loop_
_atom_site_type_symbol
_atom_site_label
_atom_site_fract_x
_atom_site_fract_y
_atom_site_fract_z
Si Si1 0.297184 0.362430 0.785358
Si Si2 0.591043 0.486302 0.536032
Si Si3 0.512285 0.940474 0.129543
Si Si4 0.000000 0.141089 0.000000
Si Si5 0.969833 0.751163 0.141003
Si Si6 0.292238 0.157766 0.989090
Si Si7 0.003245 0.998081 0.763192
Si Si8 0.768546 0.424203 0.812704
O O1 0.500000 0.238949 0.500000
O O2 0.431157 0.547148 0.671415
O O3 0.137948 0.518327 0.932585
O O4 0.134407 0.198749 0.026906
O O5 0.784679 0.297389 0.280064
O O6 0.728077 0.703889 0.404075
O O7 0.446354 0.335305 0.761087
O O8 0.256454 0.024272 0.432312
O O9 0.595525 0.657148 0.014347
O O10 0.565659 0.977193 0.138505
O O11 0.662633 0.160676 0.915719
O O12 0.061679 0.970391 0.985608
O O13 0.962939 0.787975 0.224000
O O14 0.183059 0.345945 0.173148
O O15 0.141253 0.994719 0.125005
O O16 0.000000 0.489794 0.500000
#
# Coordination Sequence:
#
# PCOD9113754 Si02
#       8
#     2   2   2   1   2   2   2   2
#     4  11  24  40  60  90 133 177 235 292 345 405
#     4  11  23  43  59  92 128 178 224 289 343 413
#     4  10  22  43  71 104 138 179 223 283 338 416
#     4  12  24  40  62  86 132 172 234 284 352 400
#     4  12  24  38  64  88 127 176 237 288 351 401
#     4   9  23  40  67  96 138 174 227 275 343 409
#     4  11  24  41  66  99 132 179 232 282 347 410
#     4  10  22  45  77 101 141 182 222 278 353 419
#
# _framework density 22.097268
#
# number of rings (size 3 to 8) (size 9 to 14) (size 15 to 20)
#    0.800    0.533    0.000    6.400    1.867    8.000 
#    0.000    2.000    0.000    0.000    0.000    0.000 
#    0.000    0.000    0.000    0.000    0.000    0.000 
#
# Total GULP energy -83597.727361 kJ/mol
# GULP energy per Si atom -5573.181824 kJ/mol
# Density = 2.204697 g / cm^3
# Si number density = 22.097268 Si / 1000 Ang^3
#
#
#
# Elastic Constant Matrix: (Units=GPa)
#
#
# Indices 1 2 3 4 5 6 
#
# 1 65.9541 1.0512 28.0156 0.0000 -14.6406 0.0000
# 2 1.0512 57.2441 6.2600 0.0000 -0.3286 0.0000
# 3 28.0156 6.2600 111.2128 0.0000 2.5877 0.0000
# 4 0.0000 0.0000 0.0000 24.9433 0.0000 -1.5363
# 5 -14.6406 -0.3286 2.5877 0.0000 41.0328 0.0000
# 6 0.0000 0.0000 0.0000 -1.5363 0.0000 29.9996
#
#
#
# Elastic Compliance Matrix: (Units=1/GPa)
#
#
# Indices 1 2 3 4 5 6 
#
# 1 0.018804 0.000232 -0.004913 0.000000 0.007021 0.000000
# 2 0.000232 0.017582 -0.001055 0.000000 0.000290 0.000000
# 3 -0.004913 -0.001055 0.010345 0.000000 -0.002414 0.000000
# 4 0.000000 0.000000 0.000000 0.040218 0.000000 0.002060
# 5 0.007021 0.000290 -0.002414 0.000000 0.027030 0.000000
# 6 0.000000 0.000000 0.000000 0.002060 0.000000 0.033439
#
#
# Mechanical properties :
#
#
# Convention : Reuss Voigt Hill
#
# Bulk Modulus (GPa) = 28.36164 33.89606 31.12885
# Shear Modulus (GPa) = 29.30090 32.46742 30.88416
#
# Velocity S-wave (km/s) = 3.64537 3.83730 3.74257
# Velocity P-wave (km/s) = 5.53002 5.91658 5.72656
#
# Compressibility (1/GPa) = 0.03525890
#
# Stress axis : x y z
#
# Youngs Moduli (GPa) = 53.18019 56.87692 96.66462
#
# Poissons Ratio (x) = -0.01321 0.47495
# Poissons Ratio (y) = -0.01235 0.10197
# Poissons Ratio (z) = 0.26129 0.06000
#
# Static dielectric constant tensor:
#      x y z
#    x 1.836820 0.000000 -0.007620 
#    y 0.000000 1.911350 0.000000 
#    z -0.007620 0.000000 1.826060 
# 
# From -- ./inp_files/16419.got.cif
#   From: 2010.05.17/outbox.cif.g08.bks.cpg/sg3_9_cif.got.tgz:16419.got - 2010.06.03 18:33:08.
