data_PCOD9113469
_publ_section_title
;
Structure prediction by ZEFSAII (Michael W. Deem and Ramdas Pophale) SiO2 
 PCOD9113469
Probable space group: P 2
;
_chemical_formula_sum "Si O2"
_cell_formula_units_Z 14
_cell_length_a 8.805483
_cell_length_b 14.098333
_cell_length_c 5.603629
_cell_angle_alpha 90.000000
_cell_angle_beta 121.787759
_cell_angle_gamma 90.000000
_cell_volume 591.305519
_symmetry_space_group_name_H-M "P 2"
_symmetry_group_IT_number 3
_symmetry_cell_setting 'monoclinic'
loop_
_space_group_symop_operation_xyz
x,y,z
-x,y,-z
loop_
_atom_site_type_symbol
_atom_site_label
_atom_site_fract_x
_atom_site_fract_y
_atom_site_fract_z
Si Si1 0.095118 0.557880 0.829055
Si Si2 0.196997 0.038514 0.270527
Si Si3 0.440773 0.705605 0.695399
Si Si4 0.000000 0.150504 0.500000
Si Si5 0.500000 0.885505 0.500000
Si Si6 0.032224 0.765228 0.282375
Si Si7 0.331688 0.205186 0.044952
Si Si8 0.594046 0.413649 0.822007
O O1 0.000000 0.532832 0.500000
O O2 0.098850 0.673067 0.829642
O O3 0.267832 0.494930 0.994163
O O4 0.000000 0.535724 0.000000
O O5 0.140002 0.085901 0.471224
O O6 0.326825 0.949144 0.399213
O O7 0.304372 0.115487 0.198125
O O8 0.000000 0.020063 0.000000
O O9 0.500000 0.654519 0.500000
O O10 0.230840 0.723179 0.478739
O O11 0.527895 0.810981 0.739254
O O12 0.500000 0.666435 0.000000
O O13 0.135977 0.212656 0.763148
O O14 0.000000 0.822267 0.500000
O O15 0.000000 0.811237 0.000000
O O16 0.500000 0.191283 0.000000
O O17 0.347493 0.305680 0.189371
O O18 0.500000 0.444589 0.500000
O O19 0.500000 0.399348 0.000000
#
# Coordination Sequence:
#
# PCOD9113469 Si02
#       8
#     2   2   2   1   1   2   2   2
#     4  10  22  42  66  97 131 176 218 276 340 401
#     4  10  22  41  62  98 132 179 232 281 344 410
#     4  10  23  43  65 100 131 174 222 279 345 405
#     4  10  22  38  62  98 124 186 230 286 338 416
#     4  10  24  40  66  94 142 174 228 288 346 402
#     4  10  21  42  69  97 130 173 221 271 343 414
#     4  10  23  38  66  92 137 181 238 283 344 399
#     4  11  25  42  65  98 137 177 229 282 340 402
#
# _framework density 23.676424000000001
#
# number of rings (size 3 to 8) (size 9 to 14) (size 15 to 20)
#    0.429    1.429    0.000    2.571    6.000    5.143 
#    1.286   17.143    0.000    0.000    0.000    0.000 
#    0.000    0.000    0.000    0.000    0.000    0.000 
#
# Total GULP energy -78108.511600 kJ/mol
# GULP energy per Si atom -5579.179400 kJ/mol
# Density = 2.362254 g / cm^3
# Si number density = 23.676424 Si / 1000 Ang^3
#
#
#
# Elastic Constant Matrix: (Units=GPa)
#
#
# Indices 1 2 3 4 5 6 
#
# 1 112.8066 40.4179 38.4169 0.0000 -14.7591 0.0000
# 2 40.4179 127.0359 42.1459 0.0000 11.4145 0.0000
# 3 38.4169 42.1459 182.8263 0.0000 -25.6373 0.0000
# 4 0.0000 0.0000 0.0000 -3.1087 0.0000 41.1474
# 5 -14.7591 11.4145 -25.6373 0.0000 42.6140 0.0000
# 6 0.0000 0.0000 0.0000 41.1474 0.0000 -13.5926
#
#
#
# Elastic Compliance Matrix: (Units=1/GPa)
#
#
# Indices 1 2 3 4 5 6 
#
# 1 0.011008 -0.003587 -0.000892 0.000000 0.004237 0.000000
# 2 -0.003587 0.010291 -0.002380 0.000000 -0.005431 0.000000
# 3 -0.000892 -0.002380 0.006828 0.000000 0.004436 0.000000
# 4 0.000000 0.000000 0.000000 0.008234 0.000000 0.024925
# 5 0.004237 -0.005431 0.004436 0.000000 0.029057 0.000000
# 6 0.000000 0.000000 0.000000 0.024925 0.000000 0.001883
#
#
# Mechanical properties :
#
#
# Convention : Reuss Voigt Hill
#
# Bulk Modulus (GPa) = 69.40489 73.84780 71.62635
# Shear Modulus (GPa) = 58.26024 25.29508 41.77766
#
# Velocity S-wave (km/s) = 4.96591 3.27213 4.20518
# Velocity P-wave (km/s) = 7.89037 6.74788 7.34139
#
# Compressibility (1/GPa) = 0.01440821
#
# Stress axis : x y z
#
# Youngs Moduli (GPa) = 90.84253 97.17596 146.45842
#
# Poissons Ratio (x) = 0.34857 0.13066
# Poissons Ratio (y) = 0.32586 0.34857
# Poissons Ratio (z) = 0.08104 0.23128
#
# Static dielectric constant tensor:
#      x y z
#    x 1.970590 0.000000 -0.027930 
#    y 0.000000 1.849270 0.000000 
#    z -0.027930 0.000000 1.979910 
# 
# From -- ./inp_files/1471.got.cif
#   From: 2010.05.17/outbox.cif.g08.bks.cpg/sg3_1_cif.got.tgz:1471.got - 2010.06.03 18:33:08.
