data_PCOD9113481
_publ_section_title
;
Structure prediction by ZEFSAII (Michael W. Deem and Ramdas Pophale) SiO2 
 PCOD9113481
Probable space group: P 2
;
_chemical_formula_sum "Si O2"
_cell_formula_units_Z 14
_cell_length_a 17.427837
_cell_length_b 6.033917
_cell_length_c 8.752127
_cell_angle_alpha 90.000000
_cell_angle_beta 140.320439
_cell_angle_gamma 90.000000
_cell_volume 587.641940
_symmetry_space_group_name_H-M "P 2"
_symmetry_group_IT_number 3
_symmetry_cell_setting 'monoclinic'
loop_
_space_group_symop_operation_xyz
x,y,z
-x,y,-z
loop_
_atom_site_type_symbol
_atom_site_label
_atom_site_fract_x
_atom_site_fract_y
_atom_site_fract_z
Si Si1 0.038277 0.277780 0.389934
Si Si2 0.683397 0.767262 0.973393
Si Si3 0.783687 0.616890 0.432313
Si Si4 0.985722 0.875348 0.134746
Si Si5 0.809737 0.507888 0.919017
Si Si6 0.629131 0.131592 0.630822
Si Si7 0.438960 0.806136 0.747425
O O1 0.169253 0.374484 0.548824
O O2 0.000000 0.347233 0.500000
O O3 0.934131 0.381487 0.126731
O O4 0.012120 0.021005 0.322794
O O5 0.548873 0.702981 0.819755
O O6 0.677316 0.978624 0.848706
O O7 0.755371 0.773644 0.242621
O O8 0.745035 0.570097 0.977222
O O9 0.666670 0.642641 0.358713
O O10 0.901297 0.710280 0.694653
O O11 0.859615 0.747732 0.943105
O O12 0.000000 0.010763 0.000000
O O13 0.715678 0.330673 0.711678
O O14 0.500000 0.208680 0.500000
O O15 0.610335 0.983520 0.449762
O O16 0.500000 0.893751 0.000000
#
# Coordination Sequence:
#
# PCOD9113481 Si02
#       7
#     2   2   2   2   2   2   2
#     4  11  24  44  74 103 137 188 246 293 356 430
#     4  10  21  42  73 106 144 180 237 294 354 428
#     4  10  23  44  69 104 142 188 233 293 368 422
#     4  11  28  46  67  99 144 189 240 305 362 422
#     4  11  24  43  73 103 138 184 247 292 357 422
#     4  10  23  43  73 110 141 189 239 294 357 431
#     4   9  21  45  74 106 149 188 227 295 365 428
#
# _framework density 23.824034000000001
#
# number of rings (size 3 to 8) (size 9 to 14) (size 15 to 20)
#    0.000    1.714    1.429    0.857    8.000    4.000 
#    0.000    1.429    0.000    6.000    0.000    0.000 
#    0.000    0.000    0.000    0.000    0.000    0.000 
#
# Total GULP energy -77996.390329 kJ/mol
# GULP energy per Si atom -5571.170738 kJ/mol
# Density = 2.376981 g / cm^3
# Si number density = 23.824034 Si / 1000 Ang^3
#
#
#
# Elastic Constant Matrix: (Units=GPa)
#
#
# Indices 1 2 3 4 5 6 
#
# 1 154.1139 62.7691 72.8411 0.0000 15.8527 0.0000
# 2 62.7691 67.2245 43.5330 0.0000 12.3599 0.0000
# 3 72.8411 43.5330 111.5446 0.0000 12.9543 0.0000
# 4 0.0000 0.0000 0.0000 22.3067 0.0000 10.8846
# 5 15.8527 12.3599 12.9543 0.0000 41.4500 0.0000
# 6 0.0000 0.0000 0.0000 10.8846 0.0000 26.4281
#
#
#
# Elastic Compliance Matrix: (Units=1/GPa)
#
#
# Indices 1 2 3 4 5 6 
#
# 1 0.012059 -0.008136 -0.004613 0.000000 -0.000744 0.000000
# 2 -0.008136 0.025939 -0.004435 0.000000 -0.003237 0.000000
# 3 -0.004613 -0.004435 0.013853 0.000000 -0.001243 0.000000
# 4 0.000000 0.000000 0.000000 0.056105 0.000000 -0.023107
# 5 -0.000744 -0.003237 -0.001243 0.000000 0.025764 0.000000
# 6 0.000000 0.000000 0.000000 -0.023107 0.000000 0.047355
#
#
# Mechanical properties :
#
#
# Convention : Reuss Voigt Hill
#
# Bulk Modulus (GPa) = 57.19637 76.79661 66.99649
# Shear Modulus (GPa) = 22.59679 28.28628 25.44153
#
# Velocity S-wave (km/s) = 3.08309 3.44946 3.27141
# Velocity P-wave (km/s) = 6.06085 6.94046 6.51551
#
# Compressibility (1/GPa) = 0.01748363
#
# Stress axis : x y z
#
# Youngs Moduli (GPa) = 82.92287 38.55210 72.18809
#
# Poissons Ratio (x) = 0.31365 0.33304
# Poissons Ratio (y) = 0.67464 0.32012
# Poissons Ratio (z) = 0.38256 0.17096
#
# Static dielectric constant tensor:
#      x y z
#    x 1.921590 0.000000 -0.046110 
#    y 0.000000 1.983540 0.000000 
#    z -0.046110 0.000000 1.952940 
# 
# From -- ./inp_files/8975.got.cif
#   From: 2010.05.17/outbox.cif.g08.bks.cpg/sg3_5_cif.got.tgz:8975.got - 2010.06.03 18:33:08.
