data_PCOD9113984
_publ_section_title
;
Structure prediction by ZEFSAII (Michael W. Deem and Ramdas Pophale) SiO2 
 PCOD9113984
Probable space group: P 2
;
_chemical_formula_sum "Si O2"
_cell_formula_units_Z 6
_cell_length_a 10.024172
_cell_length_b 5.272804
_cell_length_c 5.044845
_cell_angle_alpha 90.000000
_cell_angle_beta 98.592098
_cell_angle_gamma 90.000000
_cell_volume 263.655186
_symmetry_space_group_name_H-M "P 2"
_symmetry_group_IT_number 3
_symmetry_cell_setting 'monoclinic'
loop_
_space_group_symop_operation_xyz
x,y,z
-x,y,-z
loop_
_atom_site_type_symbol
_atom_site_label
_atom_site_fract_x
_atom_site_fract_y
_atom_site_fract_z
Si Si1 0.128390 0.423440 0.222782
Si Si2 0.782070 0.925941 0.497587
Si Si3 0.350864 0.122481 0.059333
O O1 0.151980 0.657873 0.422915
O O2 0.122801 0.157525 0.378613
O O3 0.264241 0.376520 0.089511
O O4 0.000000 0.460629 0.000000
O O5 0.657979 0.969898 0.667192
O O6 0.732482 0.970088 0.187509
O O7 0.500000 0.170108 0.000000
#
# Coordination Sequence:
#
# PCOD9113984 Si02
#       3
#     2   2   2
#     4  10  24  45  67 101 130 177 217 278 327 398
#     4  10  24  42  69  96 134 171 223 265 336 390
#     4  10  24  46  66 101 130 177 218 277 327 399
#
# _framework density 22.756995
#
# number of rings (size 3 to 8) (size 9 to 14) (size 15 to 20)
#    2.000    0.000    0.000    2.000    4.667    2.667 
#    6.000    0.000    0.000    0.000    0.000    0.000 
#    0.000    0.000    0.000    0.000    0.000    0.000 
#
# Total GULP energy -33505.805461 kJ/mol
# GULP energy per Si atom -5584.300910 kJ/mol
# Density = 2.270520 g / cm^3
# Si number density = 22.756995 Si / 1000 Ang^3
#
#
#
# Elastic Constant Matrix: (Units=GPa)
#
#
# Indices 1 2 3 4 5 6 
#
# 1 109.0653 14.9145 -5.5018 0.0000 -5.5419 0.0000
# 2 14.9145 154.4963 34.9312 0.0000 12.3540 0.0000
# 3 -5.5018 34.9312 85.4717 0.0000 3.8488 0.0000
# 4 0.0000 0.0000 0.0000 146.7029 0.0000 -62.4402
# 5 -5.5419 12.3540 3.8488 0.0000 39.7786 0.0000
# 6 0.0000 0.0000 0.0000 -62.4402 0.0000 35.9792
#
#
#
# Elastic Compliance Matrix: (Units=1/GPa)
#
#
# Indices 1 2 3 4 5 6 
#
# 1 0.009480 -0.001285 0.001062 0.000000 0.001617 0.000000
# 2 -0.001285 0.007458 -0.003032 0.000000 -0.002202 0.000000
# 3 0.001062 -0.003032 0.013015 0.000000 -0.000170 0.000000
# 4 0.000000 0.000000 0.000000 0.026082 0.000000 0.045264
# 5 0.001617 -0.002202 -0.000170 0.000000 0.026065 0.000000
# 6 0.000000 0.000000 0.000000 0.045264 0.000000 0.106347
#
#
# Mechanical properties :
#
#
# Convention : Reuss Voigt Hill
#
# Bulk Modulus (GPa) = 42.65202 48.63569 45.64386
# Shear Modulus (GPa) = 24.65853 64.80476 44.73165
#
# Velocity S-wave (km/s) = 3.29532 5.34216 4.43834
# Velocity P-wave (km/s) = 5.76731 7.71166 6.80924
#
# Compressibility (1/GPa) = 0.02344555
#
# Stress axis : x y z
#
# Youngs Moduli (GPa) = 105.48230 134.08099 76.83568
#
# Poissons Ratio (x) = 0.17226 -0.08164
# Poissons Ratio (y) = 0.13551 0.23294
# Poissons Ratio (z) = -0.11207 0.40648
#
# Static dielectric constant tensor:
#      x y z
#    x 1.880040 0.000000 -0.070610 
#    y 0.000000 1.817140 0.000000 
#    z -0.070610 0.000000 1.794510 
# 
# From -- ./inp_files/717.got.cif
#   From: 2010.05.17/outbox.cif.g08.bks.cpg/sg3_1_cif.got.tgz:717.got - 2010.06.03 18:33:08.
