data_PCOD9113934
_publ_section_title
;
Structure prediction by ZEFSAII (Michael W. Deem and Ramdas Pophale) SiO2 
 PCOD9113934
Probable space group: P 2
;
_chemical_formula_sum "Si O2"
_cell_formula_units_Z 13
_cell_length_a 9.341202
_cell_length_b 10.663306
_cell_length_c 8.340920
_cell_angle_alpha 90.000000
_cell_angle_beta 39.666861
_cell_angle_gamma 90.000000
_cell_volume 530.333281
_symmetry_space_group_name_H-M "P 2"
_symmetry_group_IT_number 3
_symmetry_cell_setting 'monoclinic'
loop_
_space_group_symop_operation_xyz
x,y,z
-x,y,-z
loop_
_atom_site_type_symbol
_atom_site_label
_atom_site_fract_x
_atom_site_fract_y
_atom_site_fract_z
Si Si1 0.595499 0.793990 0.233151
Si Si2 0.595665 0.269385 0.088106
Si Si3 0.000000 0.936243 0.000000
Si Si4 0.500000 0.941768 0.000000
Si Si5 0.000000 0.052130 0.500000
Si Si6 0.572392 0.523543 0.623608
Si Si7 0.737808 0.142975 0.425019
Si Si8 0.954101 0.396706 0.211708
O O1 0.500000 0.805284 0.500000
O O2 0.483903 0.873339 0.187295
O O3 0.549071 0.650187 0.224323
O O4 0.849069 0.843736 0.024001
O O5 0.479539 0.400592 0.230812
O O6 0.514074 0.163039 0.286147
O O7 0.500000 0.226604 0.000000
O O8 0.845317 0.322356 0.879039
O O9 0.824803 0.028490 0.242420
O O10 0.234738 0.992273 0.225760
O O11 0.891163 0.128309 0.449463
O O12 0.500000 0.504211 0.500000
O O13 0.841666 0.512511 0.400091
O O14 0.792733 0.278899 0.305365
O O15 0.000000 0.454365 0.000000
#
# Coordination Sequence:
#
# PCOD9113934 Si02
#       8
#     2   2   1   1   1   2   2   2
#     4  11  27  49  78 111 156 214 276 331 403 481
#     4  11  25  44  73 110 151 193 254 321 412 469
#     4  12  24  50  76 112 156 208 268 322 406 482
#     4  12  28  52  78 114 158 214 276 334 402 490
#     4  12  26  50  74 110 162 208 264 328 412 480
#     4  10  23  45  72 107 146 197 261 327 384 476
#     4  11  25  42  73 108 152 202 250 325 393 494
#     4  11  22  43  72 107 145 195 250 320 406 468
#
# _framework density 24.512889000000001
#
# number of rings (size 3 to 8) (size 9 to 14) (size 15 to 20)
#    0.000    0.923    3.846    1.846    4.308    5.538 
#    2.769    0.000    0.000    0.000    0.000    0.000 
#    0.000    0.000    0.000    0.000    0.000    0.000 
#
# Total GULP energy -72367.565196 kJ/mol
# GULP energy per Si atom -5566.735784 kJ/mol
# Density = 2.445710 g / cm^3
# Si number density = 24.512889 Si / 1000 Ang^3
#
#
#
# Elastic Constant Matrix: (Units=GPa)
#
#
# Indices 1 2 3 4 5 6 
#
# 1 92.7028 15.9553 31.7903 0.0000 -30.6455 0.0000
# 2 15.9553 110.9117 68.7266 0.0000 -18.6437 0.0000
# 3 31.7903 68.7266 104.8372 0.0000 -10.6773 0.0000
# 4 0.0000 0.0000 0.0000 42.0073 0.0000 14.3439
# 5 -30.6455 -18.6437 -10.6773 0.0000 40.5088 0.0000
# 6 0.0000 0.0000 0.0000 14.3439 0.0000 36.7655
#
#
#
# Elastic Compliance Matrix: (Units=1/GPa)
#
#
# Indices 1 2 3 4 5 6 
#
# 1 0.016311 0.003392 -0.005913 0.000000 0.012342 0.000000
# 2 0.003392 0.016726 -0.011250 0.000000 0.007299 0.000000
# 3 -0.005913 -0.011250 0.018213 0.000000 -0.004850 0.000000
# 4 0.000000 0.000000 0.000000 0.027464 0.000000 -0.010715
# 5 0.012342 0.007299 -0.004850 0.000000 0.036104 0.000000
# 6 0.000000 0.000000 0.000000 -0.010715 0.000000 0.031380
#
#
# Mechanical properties :
#
#
# Convention : Reuss Voigt Hill
#
# Bulk Modulus (GPa) = 42.17947 60.15513 51.16730
# Shear Modulus (GPa) = 27.52656 36.65496 32.09076
#
# Velocity S-wave (km/s) = 3.35467 3.87115 3.62213
# Velocity P-wave (km/s) = 5.67886 6.67642 6.19774
#
# Compressibility (1/GPa) = 0.02370821
#
# Stress axis : x y z
#
# Youngs Moduli (GPa) = 61.30811 59.78577 54.90656
#
# Poissons Ratio (x) = -0.20280 0.32465
# Poissons Ratio (y) = -0.20796 0.61772
# Poissons Ratio (z) = 0.36250 0.67261
#
# Static dielectric constant tensor:
#      x y z
#    x 1.941580 0.000000 -0.086210 
#    y 0.000000 1.904070 0.000000 
#    z -0.086210 0.000000 2.331490 
# 
# From -- ./inp_files/5913.got.cif
#   From: 2010.05.17/outbox.cif.g08.bks.cpg/sg3_3_cif.got.tgz:5913.got - 2010.06.03 18:33:08.
