data_PCOD9113885
_publ_section_title
;
Structure prediction by ZEFSAII (Michael W. Deem and Ramdas Pophale) SiO2 
 PCOD9113885
Probable space group: P 2
;
_chemical_formula_sum "Si O2"
_cell_formula_units_Z 16
_cell_length_a 7.147928
_cell_length_b 5.439602
_cell_length_c 19.921178
_cell_angle_alpha 90.000000
_cell_angle_beta 100.106141
_cell_angle_gamma 90.000000
_cell_volume 762.554941
_symmetry_space_group_name_H-M "P 2"
_symmetry_group_IT_number 3
_symmetry_cell_setting 'monoclinic'
loop_
_space_group_symop_operation_xyz
x,y,z
-x,y,-z
loop_
_atom_site_type_symbol
_atom_site_label
_atom_site_fract_x
_atom_site_fract_y
_atom_site_fract_z
Si Si1 0.045113 0.113340 0.308605
Si Si2 0.597204 0.579296 0.432668
Si Si3 0.164871 0.078800 0.564612
Si Si4 0.062140 0.682315 0.936966
Si Si5 0.615270 0.344060 0.068191
Si Si6 0.723097 0.414505 0.851421
Si Si7 0.721093 0.610857 0.701750
Si Si8 0.049567 0.070555 0.836573
O O1 0.153735 0.373948 0.313130
O O2 0.934381 0.081315 0.369763
O O3 0.901713 0.114536 0.236818
O O4 0.176426 0.873215 0.303851
O O5 0.500000 0.582815 0.500000
O O6 0.700301 0.316234 0.432773
O O7 0.457466 0.605012 0.359836
O O8 0.731511 0.818605 0.439144
O O9 0.000000 0.105159 0.500000
O O10 0.275124 0.580284 0.955385
O O11 0.879233 0.506144 0.916232
O O12 0.056341 0.796445 0.862499
O O13 0.000000 0.831540 0.000000
O O14 0.471190 0.386584 0.120180
O O15 0.795078 0.195735 0.106635
O O16 0.500000 0.223493 0.000000
O O17 0.688845 0.566550 0.779951
O O18 0.835860 0.170905 0.834059
#
# Coordination Sequence:
#
# PCOD9113885 Si02
#       8
#     2   2   2   2   2   2   2   2
#     4  11  23  45  68  97 133 176 221 273 339 394
#     4  12  25  43  69 104 137 177 225 271 327 396
#     4  12  25  43  70 101 138 180 221 272 328 395
#     4  11  22  40  62  90 124 170 217 278 340 402
#     4  11  24  40  61  92 125 169 221 282 330 411
#     4  10  23  43  61  89 130 169 217 272 345 393
#     4  11  23  44  69  95 135 175 218 279 334 395
#     4  10  25  40  65  89 128 171 218 274 340 402
#
# _framework density 20.982092000000002
#
# number of rings (size 3 to 8) (size 9 to 14) (size 15 to 20)
#    0.000    1.000    2.500    3.750    3.500    2.500 
#    0.000    0.000    0.000    0.000    0.000    0.000 
#    0.000    0.000    0.000    0.000    0.000    0.000 
#
# Total GULP energy -89201.920211 kJ/mol
# GULP energy per Si atom -5575.120013 kJ/mol
# Density = 2.093434 g / cm^3
# Si number density = 20.982092 Si / 1000 Ang^3
#
#
#
# Elastic Constant Matrix: (Units=GPa)
#
#
# Indices 1 2 3 4 5 6 
#
# 1 85.4057 6.3930 44.3616 0.0000 -11.6510 0.0000
# 2 6.3930 55.9901 -2.0047 0.0000 -5.0272 0.0000
# 3 44.3616 -2.0047 138.1959 0.0000 -9.6480 0.0000
# 4 0.0000 0.0000 0.0000 26.5542 0.0000 5.2554
# 5 -11.6510 -5.0272 -9.6480 0.0000 53.2974 0.0000
# 6 0.0000 0.0000 0.0000 5.2554 0.0000 9.4388
#
#
#
# Elastic Compliance Matrix: (Units=1/GPa)
#
#
# Indices 1 2 3 4 5 6 
#
# 1 0.014475 -0.001618 -0.004517 0.000000 0.002194 0.000000
# 2 -0.001618 0.018214 0.000890 0.000000 0.001525 0.000000
# 3 -0.004517 0.000890 0.008746 0.000000 0.000680 0.000000
# 4 0.000000 0.000000 0.000000 0.042323 0.000000 -0.023565
# 5 0.002194 0.001525 0.000680 0.000000 0.019509 0.000000
# 6 0.000000 0.000000 0.000000 -0.023565 0.000000 0.119066
#
#
# Mechanical properties :
#
#
# Convention : Reuss Voigt Hill
#
# Bulk Modulus (GPa) = 32.31375 41.89906 37.10640
# Shear Modulus (GPa) = 20.56443 33.24752 26.90598
#
# Velocity S-wave (km/s) = 3.13404 3.98498 3.58485
# Velocity P-wave (km/s) = 5.34138 6.41761 5.90407
#
# Compressibility (1/GPa) = 0.03094658
#
# Stress axis : x y z
#
# Youngs Moduli (GPa) = 69.08258 54.90337 114.33214
#
# Poissons Ratio (x) = 0.08881 0.51644
# Poissons Ratio (y) = 0.11174 -0.10175
# Poissons Ratio (z) = 0.31204 -0.04886
#
# Static dielectric constant tensor:
#      x y z
#    x 1.719960 0.000000 0.007730 
#    y 0.000000 1.852800 0.000000 
#    z 0.007730 0.000000 1.770900 
# 
# From -- ./inp_files/3908.got.cif
#   From: 2010.05.17/outbox.cif.g08.bks.cpg/sg3_2_cif.got.tgz:3908.got - 2010.06.03 18:33:08.
