data_PCOD9113330
_publ_section_title
;
Structure prediction by ZEFSAII (Michael W. Deem and Ramdas Pophale) SiO2 
 PCOD9113330
Probable space group: P 2
;
_chemical_formula_sum "Si O2"
_cell_formula_units_Z 16
_cell_length_a 16.652478
_cell_length_b 6.774616
_cell_length_c 7.137304
_cell_angle_alpha 90.000000
_cell_angle_beta 108.240659
_cell_angle_gamma 90.000000
_cell_volume 764.728237
_symmetry_space_group_name_H-M "P 2"
_symmetry_group_IT_number 3
_symmetry_cell_setting 'monoclinic'
loop_
_space_group_symop_operation_xyz
x,y,z
-x,y,-z
loop_
_atom_site_type_symbol
_atom_site_label
_atom_site_fract_x
_atom_site_fract_y
_atom_site_fract_z
Si Si1 0.197962 0.685830 0.978264
Si Si2 0.663099 0.670795 0.365188
Si Si3 0.906643 0.417784 0.861895
Si Si4 0.304093 0.117012 0.583738
Si Si5 0.536550 0.383891 0.341631
Si Si6 0.179158 0.452224 0.569894
Si Si7 0.644303 0.454427 0.955705
Si Si8 0.240828 0.123320 0.110840
O O1 0.173205 0.573039 0.761945
O O2 0.125829 0.622034 0.070588
O O3 0.288958 0.593947 0.105711
O O4 0.211925 0.920047 0.993114
O O5 0.585587 0.587950 0.429084
O O6 0.751102 0.577426 0.495745
O O7 0.677519 0.897458 0.338693
O O8 0.645559 0.564548 0.154655
O O9 0.898181 0.428183 0.629581
O O10 0.840755 0.258421 0.899951
O O11 0.000000 0.373771 0.000000
O O12 0.390076 0.239959 0.676236
O O13 0.225581 0.238565 0.616356
O O14 0.283619 0.096280 0.346753
O O15 0.500000 0.285013 0.500000
O O16 0.453131 0.431081 0.165325
O O17 0.690738 0.244093 0.961996
#
# Coordination Sequence:
#
# PCOD9113330 Si02
#       8
#     2   2   2   2   2   2   2   2
#     4  10  22  38  66  92 122 164 208 252 308 373
#     4  10  22  37  61  85 120 162 209 251 308 356
#     4  10  22  41  66  95 129 160 196 252 313 374
#     4  10  21  39  63  89 119 169 211 256 308 366
#     4  11  22  37  58  85 127 161 207 257 309 353
#     4   9  21  41  62  92 127 159 203 260 306 366
#     4  10  22  40  56  89 123 159 203 266 301 357
#     4  10  21  40  66  92 121 160 211 250 305 372
#
# _framework density 20.922466
#
# number of rings (size 3 to 8) (size 9 to 14) (size 15 to 20)
#    0.000    2.000    1.250    1.125    3.500   10.500 
#    0.000    3.750    0.000    4.500    0.000    0.000 
#    0.000    0.000    0.000    0.000    0.000    0.000 
#
# Total GULP energy -89139.489818 kJ/mol
# GULP energy per Si atom -5571.218114 kJ/mol
# Density = 2.087485 g / cm^3
# Si number density = 20.922466 Si / 1000 Ang^3
#
#
#
# Elastic Constant Matrix: (Units=GPa)
#
#
# Indices 1 2 3 4 5 6 
#
# 1 57.0245 18.0357 32.3329 0.0000 20.4050 0.0000
# 2 18.0357 158.3326 34.0571 0.0000 6.2262 0.0000
# 3 32.3329 34.0571 141.0299 0.0000 18.5122 0.0000
# 4 0.0000 0.0000 0.0000 14.6410 0.0000 -7.8984
# 5 20.4050 6.2262 18.5122 0.0000 38.4023 0.0000
# 6 0.0000 0.0000 0.0000 -7.8984 0.0000 14.4968
#
#
#
# Elastic Compliance Matrix: (Units=1/GPa)
#
#
# Indices 1 2 3 4 5 6 
#
# 1 0.023948 -0.001507 -0.003724 0.000000 -0.010685 0.000000
# 2 -0.001507 0.006760 -0.001333 0.000000 0.000347 0.000000
# 3 -0.003724 -0.001333 0.008517 0.000000 -0.001911 0.000000
# 4 0.000000 0.000000 0.000000 0.096733 0.000000 0.052704
# 5 -0.010685 0.000347 -0.001911 0.000000 0.032583 0.000000
# 6 0.000000 0.000000 0.000000 0.052704 0.000000 0.097696
#
#
# Mechanical properties :
#
#
# Convention : Reuss Voigt Hill
#
# Bulk Modulus (GPa) = 38.31598 58.35985 48.33792
# Shear Modulus (GPa) = 17.35731 31.63877 24.49804
#
# Velocity S-wave (km/s) = 2.88341 3.89291 3.42555
# Velocity P-wave (km/s) = 5.42572 6.93976 6.22891
#
# Compressibility (1/GPa) = 0.02609877
#
# Stress axis : x y z
#
# Youngs Moduli (GPa) = 41.75752 147.91884 117.41061
#
# Poissons Ratio (x) = 0.22287 0.43723
# Poissons Ratio (y) = 0.06292 0.15647
# Poissons Ratio (z) = 0.15550 0.19713
#
# Static dielectric constant tensor:
#      x y z
#    x 1.871710 0.000000 -0.076140 
#    y 0.000000 1.776320 0.000000 
#    z -0.076140 0.000000 1.874510 
# 
# From -- ./inp_files/8917.got.cif
#   From: 2010.05.17/outbox.cif.g08.bks.cpg/sg3_5_cif.got.tgz:8917.got - 2010.06.03 18:33:08.
