data_PCOD9113623
_publ_section_title
;
Structure prediction by ZEFSAII (Michael W. Deem and Ramdas Pophale) SiO2 
 PCOD9113623
Probable space group: P 2
;
_chemical_formula_sum "Si O2"
_cell_formula_units_Z 14
_cell_length_a 13.292056
_cell_length_b 6.782032
_cell_length_c 10.725745
_cell_angle_alpha 90.000000
_cell_angle_beta 135.255243
_cell_angle_gamma 90.000000
_cell_volume 680.645713
_symmetry_space_group_name_H-M "P 2"
_symmetry_group_IT_number 3
_symmetry_cell_setting 'monoclinic'
loop_
_space_group_symop_operation_xyz
x,y,z
-x,y,-z
loop_
_atom_site_type_symbol
_atom_site_label
_atom_site_fract_x
_atom_site_fract_y
_atom_site_fract_z
Si Si1 0.341749 0.744310 0.805362
Si Si2 0.092408 0.349423 0.308557
Si Si3 0.343974 0.642298 0.518670
Si Si4 0.445952 0.312002 0.290810
Si Si5 0.782641 0.427556 0.114607
Si Si6 0.154390 0.122490 0.615990
Si Si7 0.304437 0.084071 0.397915
O O1 0.346855 0.648684 0.672555
O O2 0.254736 0.618264 0.833259
O O3 0.269052 0.951849 0.710347
O O4 0.500000 0.766076 0.000000
O O5 0.203388 0.515629 0.362721
O O6 0.129697 0.273309 0.480659
O O7 0.141773 0.155861 0.274499
O O8 0.931674 0.431128 0.168732
O O9 0.487489 0.522955 0.613370
O O10 0.328915 0.853241 0.439020
O O11 0.359606 0.186242 0.318836
O O12 0.590874 0.183017 0.404842
O O13 0.346187 0.360839 0.087444
O O14 0.805723 0.252764 0.231742
O O15 0.000000 0.022606 0.500000
#
# Coordination Sequence:
#
# PCOD9113623 Si02
#       7
#     2   2   2   2   2   2   2
#     4  12  24  36  64 101 135 165 210 268 330 392
#     4  10  22  40  65  94 128 176 213 263 322 403
#     4  11  22  41  67  96 129 170 223 257 335 390
#     4  10  24  43  65  93 129 168 226 275 321 376
#     4  11  24  40  63  99 136 167 209 271 333 383
#     4  10  23  38  60  94 136 171 209 258 327 404
#     4  10  23  43  67  90 125 179 220 272 315 385
#
# _framework density 20.568704
#
# number of rings (size 3 to 8) (size 9 to 14) (size 15 to 20)
#    0.000    1.429    4.286    0.000    4.000    5.714 
#    0.000    0.000    0.000    5.143    0.000    0.000 
#    0.000    0.000    0.000    0.000    0.000    0.000 
#
# Total GULP energy -78020.488372 kJ/mol
# GULP energy per Si atom -5572.892027 kJ/mol
# Density = 2.052189 g / cm^3
# Si number density = 20.568704 Si / 1000 Ang^3
#
#
#
# Elastic Constant Matrix: (Units=GPa)
#
#
# Indices 1 2 3 4 5 6 
#
# 1 72.5428 24.4911 8.7598 0.0000 9.4252 0.0000
# 2 24.4911 114.0207 27.2915 0.0000 4.8410 0.0000
# 3 8.7598 27.2915 17.4601 0.0000 18.7277 0.0000
# 4 0.0000 0.0000 0.0000 -70.9384 0.0000 18.1424
# 5 9.4252 4.8410 18.7277 0.0000 26.2352 0.0000
# 6 0.0000 0.0000 0.0000 18.1424 0.0000 30.1875
#
#
#
# Elastic Compliance Matrix: (Units=1/GPa)
#
#
# Indices 1 2 3 4 5 6 
#
# 1 0.013740 0.005829 -0.040781 0.000000 0.023099 0.000000
# 2 0.005829 -0.036390 0.209103 0.000000 -0.144645 0.000000
# 3 -0.040781 0.209103 -0.953500 0.000000 0.656712 0.000000
# 4 0.000000 0.000000 0.000000 -0.012219 0.000000 0.007343
# 5 0.023099 -0.144645 0.656712 0.000000 -0.412278 0.000000
# 6 0.000000 0.000000 0.000000 0.007343 0.000000 0.028713
#
#
# Mechanical properties :
#
#
# Convention : Reuss Voigt Hill
#
# Bulk Modulus (GPa) = -1.59274 36.12314 17.26520
# Shear Modulus (GPa) = -2.59132 6.66229 2.03548
#
# Velocity S-wave (km/s) = -1.12364 1.80169 0.99587
# Velocity P-wave (km/s) = 1.56827 4.68278 3.12001
#
# Compressibility (1/GPa) = -0.62784728
#
# Stress axis : x y z
#
# Youngs Moduli (GPa) = 72.77875 -27.47974 -1.04877
#
# Poissons Ratio (x) = 0.16018 -0.04277
# Poissons Ratio (y) = -0.42423 0.21930
# Poissons Ratio (z) = 2.96797 5.74609
#
# Static dielectric constant tensor:
#      x y z
#    x 1.862840 0.000000 -0.005530 
#    y 0.000000 1.734770 0.000000 
#    z -0.005530 0.000000 1.712980 
# 
# From -- ./inp_files/12030.got.cif
#   From: 2010.05.17/outbox.cif.g08.bks.cpg/sg3_7_cif.got.tgz:12030.got - 2010.06.03 18:33:08.
