data_PCOD9113694
_publ_section_title
;
Structure prediction by ZEFSAII (Michael W. Deem and Ramdas Pophale) SiO2 
 PCOD9113694
Probable space group: P 2
;
_chemical_formula_sum "Si O2"
_cell_formula_units_Z 16
_cell_length_a 18.785163
_cell_length_b 9.095114
_cell_length_c 6.386087
_cell_angle_alpha 90.000000
_cell_angle_beta 47.163369
_cell_angle_gamma 90.000000
_cell_volume 800.086353
_symmetry_space_group_name_H-M "P 2"
_symmetry_group_IT_number 3
_symmetry_cell_setting 'monoclinic'
loop_
_space_group_symop_operation_xyz
x,y,z
-x,y,-z
loop_
_atom_site_type_symbol
_atom_site_label
_atom_site_fract_x
_atom_site_fract_y
_atom_site_fract_z
Si Si1 0.252764 0.875000 0.744468
Si Si2 0.894981 0.742445 0.298108
Si Si3 0.391273 0.095923 0.209632
Si Si4 0.264575 0.218740 0.113545
Si Si5 0.735426 0.531260 0.671848
Si Si6 0.105019 0.007554 0.378028
Si Si7 0.660178 0.375001 0.429648
Si Si8 0.391273 0.654079 0.725269
O O1 0.180818 0.793548 0.728009
O O2 0.319634 0.762370 0.742180
O O3 0.319633 0.987632 0.479278
O O4 0.180817 0.956451 0.048711
O O5 0.837642 0.607599 0.513444
O O6 0.907649 0.874999 0.434704
O O7 0.000000 0.703219 0.000000
O O8 0.347405 0.121530 0.063810
O O9 0.395418 0.257315 0.313479
O O10 0.500000 0.035382 0.000000
O O11 0.266874 0.374999 0.216252
O O12 0.162360 0.142398 0.364004
O O13 0.281267 0.264627 0.839874
O O14 0.718734 0.485375 0.464945
O O15 0.652597 0.628471 0.953434
O O16 0.000000 0.046783 0.500000
O O17 0.604582 0.492687 0.395159
O O18 0.500000 0.714619 0.500000
#
# Coordination Sequence:
#
# PCOD9113694 Si02
#       8
#     2   2   2   2   2   2   2   2
#     4  12  24  44  64  96 134 170 216 278 328 388
#     4  12  24  44  69  93 125 173 221 272 338 397
#     4  11  25  40  66  97 132 178 219 264 330 396
#     4  10  23  44  64  96 134 168 217 277 325 394
#     4  10  23  44  64  96 134 168 217 277 325 394
#     4  12  24  44  69  93 125 173 221 272 338 397
#     4  10  22  42  66  90 138 172 218 268 328 386
#     4  11  25  40  66  97 132 178 219 264 330 396
#
# _framework density 19.997841999999999
#
# number of rings (size 3 to 8) (size 9 to 14) (size 15 to 20)
#    0.000    1.000    6.250    0.000    5.250    2.000 
#    2.250    0.000    0.000    0.000    0.000    0.000 
#    0.000    0.000    0.000    0.000    0.000    0.000 
#
# Total GULP energy -89249.314265 kJ/mol
# GULP energy per Si atom -5578.082142 kJ/mol
# Density = 1.995233 g / cm^3
# Si number density = 19.997842 Si / 1000 Ang^3
#
#
#
# Elastic Constant Matrix: (Units=GPa)
#
#
# Indices 1 2 3 4 5 6 
#
# 1 107.3710 19.2160 44.2087 0.0000 -23.3291 0.0000
# 2 19.2160 40.4642 16.7910 0.0000 -8.4591 0.0000
# 3 44.2087 16.7910 95.0084 0.0000 -19.7867 0.0000
# 4 0.0000 0.0000 0.0000 27.6777 0.0000 -7.4787
# 5 -23.3291 -8.4591 -19.7867 0.0000 40.5898 0.0000
# 6 0.0000 0.0000 0.0000 -7.4787 0.0000 29.8205
#
#
#
# Elastic Compliance Matrix: (Units=1/GPa)
#
#
# Indices 1 2 3 4 5 6 
#
# 1 0.012676 -0.003264 -0.004392 0.000000 0.004464 0.000000
# 2 -0.003264 0.027998 -0.002899 0.000000 0.002546 0.000000
# 3 -0.004392 -0.002899 0.013834 0.000000 0.003616 0.000000
# 4 0.000000 0.000000 0.000000 0.038756 0.000000 0.009720
# 5 0.004464 0.002546 0.003616 0.000000 0.029496 0.000000
# 6 0.000000 0.000000 0.000000 0.009720 0.000000 0.035972
#
#
# Mechanical properties :
#
#
# Convention : Reuss Voigt Hill
#
# Bulk Modulus (GPa) = 29.94120 44.80835 37.37477
# Shear Modulus (GPa) = 26.18142 30.45948 28.32045
#
# Velocity S-wave (km/s) = 3.62223 3.90697 3.76729
# Velocity P-wave (km/s) = 5.70077 6.54277 6.13623
#
# Compressibility (1/GPa) = 0.03339880
#
# Stress axis : x y z
#
# Youngs Moduli (GPa) = 78.89004 35.71624 72.28430
#
# Poissons Ratio (x) = 0.11658 0.31745
# Poissons Ratio (y) = 0.25750 0.20957
# Poissons Ratio (z) = 0.34646 0.10355
#
# Static dielectric constant tensor:
#      x y z
#    x 1.726860 0.000000 0.073300 
#    y 0.000000 1.841740 0.000000 
#    z 0.073300 0.000000 1.747870 
# 
# From -- ./inp_files/3680.got.cif
#   From: 2010.05.17/outbox.cif.g08.bks.cpg/sg3_2_cif.got.tgz:3680.got - 2010.06.03 18:33:08.
