data_PCOD9113574
_publ_section_title
;
Structure prediction by ZEFSAII (Michael W. Deem and Ramdas Pophale) SiO2 
 PCOD9113574
Probable space group: P 2
;
_chemical_formula_sum "Si O2"
_cell_formula_units_Z 15
_cell_length_a 24.143036
_cell_length_b 5.117451
_cell_length_c 7.524360
_cell_angle_alpha 90.000000
_cell_angle_beta 37.248701
_cell_angle_gamma 90.000000
_cell_volume 562.689165
_symmetry_space_group_name_H-M "P 2"
_symmetry_group_IT_number 3
_symmetry_cell_setting 'monoclinic'
loop_
_space_group_symop_operation_xyz
x,y,z
-x,y,-z
loop_
_atom_site_type_symbol
_atom_site_label
_atom_site_fract_x
_atom_site_fract_y
_atom_site_fract_z
Si Si1 0.468210 0.679900 0.374458
Si Si2 0.765428 0.024399 0.392651
Si Si3 0.366782 0.181195 0.698607
Si Si4 0.807128 0.851321 0.941360
Si Si5 0.181311 0.635168 0.461573
Si Si6 0.000000 0.310465 0.000000
Si Si7 0.632159 0.343449 0.909418
Si Si8 0.939264 0.186792 0.788207
O O1 0.500000 0.679362 0.500000
O O2 0.386333 0.468808 0.575621
O O3 0.431204 0.968255 0.437475
O O4 0.554261 0.548625 0.057026
O O5 0.665662 0.135776 0.680378
O O6 0.808629 0.913521 0.463735
O O7 0.768408 0.796678 0.237387
O O8 0.835922 0.235072 0.126679
O O9 0.264464 0.072306 0.943773
O O10 0.391869 0.196055 0.844688
O O11 0.907214 0.961369 0.733324
O O12 0.814970 0.655868 0.760197
O O13 0.273928 0.491710 0.283311
O O14 0.088634 0.494474 0.754455
O O15 0.991608 0.148490 0.839386
O O16 0.000000 0.362788 0.500000
#
# Coordination Sequence:
#
# PCOD9113574 Si02
#       8
#     2   2   2   2   2   1   2   2
#     4  10  22  38  75 109 151 195 263 309 390 466
#     4  10  25  45  70 107 143 200 251 315 396 462
#     4  11  22  43  72 114 143 207 252 321 385 476
#     4  10  24  45  74 102 151 189 256 316 396 453
#     4  12  25  43  76 107 145 207 254 327 384 478
#     4  12  28  46  72 110 152 198 274 310 410 464
#     4  11  23  45  74 108 157 198 257 324 388 469
#     4  10  26  46  72 102 151 197 249 329 389 471
#
# _framework density 26.657699000000001
#
# number of rings (size 3 to 8) (size 9 to 14) (size 15 to 20)
#    0.800    0.533    2.667    2.800    7.467    1.067 
#    7.200    0.667    0.000    0.000    0.000    0.000 
#    0.000    0.000    0.000    0.000    0.000    0.000 
#
# Total GULP energy -83791.047965 kJ/mol
# GULP energy per Si atom -5586.069864 kJ/mol
# Density = 2.659703 g / cm^3
# Si number density = 26.657699 Si / 1000 Ang^3
#
#
#
# Elastic Constant Matrix: (Units=GPa)
#
#
# Indices 1 2 3 4 5 6 
#
# 1 123.5279 25.8279 45.0911 0.0000 1.9047 0.0000
# 2 25.8279 88.8279 43.2648 0.0000 -3.6005 0.0000
# 3 45.0911 43.2648 166.7193 0.0000 5.5790 0.0000
# 4 0.0000 0.0000 0.0000 22.3081 0.0000 -14.6232
# 5 1.9047 -3.6005 5.5790 0.0000 48.8935 0.0000
# 6 0.0000 0.0000 0.0000 -14.6232 0.0000 26.9567
#
#
#
# Elastic Compliance Matrix: (Units=1/GPa)
#
#
# Indices 1 2 3 4 5 6 
#
# 1 0.009197 -0.001691 -0.002040 0.000000 -0.000250 0.000000
# 2 -0.001691 0.013285 -0.003037 0.000000 0.001391 0.000000
# 3 -0.002040 -0.003037 0.007371 0.000000 -0.000985 0.000000
# 4 0.000000 0.000000 0.000000 0.069563 0.000000 0.037736
# 5 -0.000250 0.001391 -0.000985 0.000000 0.020677 0.000000
# 6 0.000000 0.000000 0.000000 0.037736 0.000000 0.057567
#
#
# Mechanical properties :
#
#
# Convention : Reuss Voigt Hill
#
# Bulk Modulus (GPa) = 61.28363 67.49361 64.38862
# Shear Modulus (GPa) = 25.42772 37.29107 31.35939
#
# Velocity S-wave (km/s) = 3.09181 3.74423 3.43355
# Velocity P-wave (km/s) = 5.98203 6.63821 6.31865
#
# Compressibility (1/GPa) = 0.01631757
#
# Stress axis : x y z
#
# Youngs Moduli (GPa) = 108.72521 75.27420 135.66653
#
# Poissons Ratio (x) = 0.12726 0.27683
# Poissons Ratio (y) = 0.18381 0.41199
# Poissons Ratio (z) = 0.22185 0.22859
#
# Static dielectric constant tensor:
#      x y z
#    x 2.097030 0.000000 -0.000710 
#    y 0.000000 2.116530 0.000000 
#    z -0.000710 0.000000 2.188490 
# 
# From -- ./inp_files/9609.got.cif
#   From: 2010.05.17/outbox.cif.g08.bks.cpg/sg3_5_cif.got.tgz:9609.got - 2010.06.03 18:33:08.
