data_PCOD9113008
_publ_section_title
;
Structure prediction by ZEFSAII (Michael W. Deem and Ramdas Pophale) SiO2 
 PCOD9113008
Probable space group: P 2
;
_chemical_formula_sum "Si O2"
_cell_formula_units_Z 15
_cell_length_a 13.241172
_cell_length_b 8.098815
_cell_length_c 7.332548
_cell_angle_alpha 90.000000
_cell_angle_beta 110.475740
_cell_angle_gamma 90.000000
_cell_volume 736.646542
_symmetry_space_group_name_H-M "P 2"
_symmetry_group_IT_number 3
_symmetry_cell_setting 'monoclinic'
loop_
_space_group_symop_operation_xyz
x,y,z
-x,y,-z
loop_
_atom_site_type_symbol
_atom_site_label
_atom_site_fract_x
_atom_site_fract_y
_atom_site_fract_z
Si Si1 0.875474 0.834170 0.457715
Si Si2 0.561775 0.219562 0.706740
Si Si3 0.244258 0.990345 0.271100
Si Si4 0.705822 0.808484 0.042205
Si Si5 0.123746 0.435430 0.524348
Si Si6 0.277574 0.437342 0.948403
Si Si7 0.876366 0.309022 0.875489
Si Si8 0.500000 0.029285 0.000000
O O1 0.806115 0.857564 0.231539
O O2 0.873313 0.635408 0.491589
O O3 0.000000 0.882917 0.500000
O O4 0.814626 0.930400 0.582655
O O5 0.500000 0.305893 0.500000
O O6 0.640896 0.087446 0.655483
O O7 0.634769 0.328606 0.889867
O O8 0.483991 0.132920 0.804469
O O9 0.169344 0.125774 0.123265
O O10 0.263672 0.838037 0.148245
O O11 0.678242 0.618511 0.060622
O O12 0.605019 0.921235 0.028712
O O13 0.214505 0.379241 0.727186
O O14 0.147056 0.352805 0.347040
O O15 0.000000 0.392725 0.500000
O O16 0.181124 0.442179 0.033548
O O17 0.000000 0.312735 0.000000
#
# Coordination Sequence:
#
# PCOD9113008 Si02
#       8
#     2   2   2   2   2   2   2   1
#     4  10  22  37  60  90 122 164 201 246 303 364
#     4  10  22  41  65  88 122 159 205 257 312 360
#     4  10  23  38  57  90 122 159 201 252 301 365
#     4  10  22  42  63  88 123 156 210 253 306 360
#     4  10  20  38  58  84 121 163 201 244 293 356
#     4  10  22  40  62  92 119 159 207 251 297 365
#     4  11  22  35  58  85 124 165 200 241 298 358
#     4  10  22  42  66  88 120 162 198 266 312 362
#
# _framework density 20.362545999999998
#
# number of rings (size 3 to 8) (size 9 to 14) (size 15 to 20)
#    0.000    1.867    1.333    1.600    1.867    6.400 
#    0.000    6.667    0.000    0.000    0.000    0.000 
#    0.000    0.000    0.000    0.000    0.000    0.000 
#
# Total GULP energy -83667.203119 kJ/mol
# GULP energy per Si atom -5577.813541 kJ/mol
# Density = 2.031620 g / cm^3
# Si number density = 20.362546 Si / 1000 Ang^3
#
#
#
# Elastic Constant Matrix: (Units=GPa)
#
#
# Indices 1 2 3 4 5 6 
#
# 1 45.6782 0.4691 27.6908 0.0000 -9.0963 0.0000
# 2 0.4691 22.3104 20.9160 0.0000 5.9512 0.0000
# 3 27.6908 20.9160 142.2755 0.0000 10.9443 0.0000
# 4 0.0000 0.0000 0.0000 14.8357 0.0000 8.2959
# 5 -9.0963 5.9512 10.9443 0.0000 33.0272 0.0000
# 6 0.0000 0.0000 0.0000 8.2959 0.0000 27.8323
#
#
#
# Elastic Compliance Matrix: (Units=1/GPa)
#
#
# Indices 1 2 3 4 5 6 
#
# 1 0.027671 0.003097 -0.006551 0.000000 0.009234 0.000000
# 2 0.003097 0.053967 -0.008059 0.000000 -0.006201 0.000000
# 3 -0.006551 -0.008059 0.009764 0.000000 -0.003588 0.000000
# 4 0.000000 0.000000 0.000000 0.080886 0.000000 -0.024109
# 5 0.009234 -0.006201 -0.003588 0.000000 0.035127 0.000000
# 6 0.000000 0.000000 0.000000 -0.024109 0.000000 0.043116
#
#
# Mechanical properties :
#
#
# Convention : Reuss Voigt Hill
#
# Bulk Modulus (GPa) = 14.62540 34.26844 24.44692
# Shear Modulus (GPa) = 16.87195 25.88494 21.37845
#
# Velocity S-wave (km/s) = 2.88163 3.56926 3.24372
# Velocity P-wave (km/s) = 4.27432 5.81824 5.10498
#
# Compressibility (1/GPa) = 0.06837421
#
# Stress axis : x y z
#
# Youngs Moduli (GPa) = 36.13942 18.52999 102.41268
#
# Poissons Ratio (x) = -0.05738 0.67091
# Poissons Ratio (y) = -0.11191 0.82538
# Poissons Ratio (z) = 0.23675 0.14934
#
# Static dielectric constant tensor:
#      x y z
#    x 1.711650 0.000000 -0.006350 
#    y 0.000000 1.738530 0.000000 
#    z -0.006350 0.000000 1.697190 
# 
# From -- ./inp_files/3206.got.cif
#   From: 2010.05.17/outbox.cif.g08.bks.cpg/sg3_2_cif.got.tgz:3206.got - 2010.06.03 18:33:08.
