data_PCOD9113057
_publ_section_title
;
Structure prediction by ZEFSAII (Michael W. Deem and Ramdas Pophale) SiO2 
 PCOD9113057
Probable space group: P 2
;
_chemical_formula_sum "Si O2"
_cell_formula_units_Z 15
_cell_length_a 7.521743
_cell_length_b 7.139068
_cell_length_c 16.882174
_cell_angle_alpha 90.000000
_cell_angle_beta 129.098097
_cell_angle_gamma 90.000000
_cell_volume 703.538382
_symmetry_space_group_name_H-M "P 2"
_symmetry_group_IT_number 3
_symmetry_cell_setting 'monoclinic'
loop_
_space_group_symop_operation_xyz
x,y,z
-x,y,-z
loop_
_atom_site_type_symbol
_atom_site_label
_atom_site_fract_x
_atom_site_fract_y
_atom_site_fract_z
Si Si1 0.437903 0.872060 0.072993
Si Si2 0.435230 0.701815 0.232526
Si Si3 0.053136 0.833405 0.602803
Si Si4 0.875180 0.427226 0.594183
Si Si5 0.000000 0.081944 0.000000
Si Si6 0.205063 0.078700 0.208750
Si Si7 0.509097 0.360987 0.632686
Si Si8 0.143607 0.128240 0.751059
O O1 0.433834 0.702766 0.135865
O O2 0.614509 0.030526 0.158172
O O3 0.500000 0.825022 0.000000
O O4 0.185638 0.959597 0.004906
O O5 0.679580 0.790047 0.320991
O O6 0.435279 0.514954 0.284350
O O7 0.247322 0.858074 0.205421
O O8 0.000000 0.896648 0.500000
O O9 0.927555 0.642578 0.591309
O O10 0.006823 0.985894 0.655937
O O11 0.690350 0.400936 0.612756
O O12 0.742236 0.361910 0.477151
O O13 0.104330 0.320959 0.690784
O O14 0.852164 0.178553 0.890726
O O15 0.430827 0.163011 0.311831
O O16 0.997871 0.131135 0.207848
#
# Coordination Sequence:
#
# PCOD9113057 Si02
#       8
#     2   2   2   2   1   2   2   2
#     4  10  20  40  68  95 124 160 213 263 317 376
#     4  10  22  37  60  90 119 163 199 255 310 367
#     4  11  22  36  55  86 125 163 203 251 306 370
#     4  10  22  38  60  88 128 168 201 257 309 372
#     4  10  20  38  66  92 120 162 200 268 318 360
#     4  10  21  39  64  89 120 160 209 259 314 369
#     4  10  21  39  60  90 126 162 209 254 307 375
#     4  10  22  39  65  90 120 164 209 253 315 380
#
# _framework density 21.320796000000001
#
# number of rings (size 3 to 8) (size 9 to 14) (size 15 to 20)
#    0.000    1.867    2.667    0.800    1.867    3.733 
#    0.000    2.667    5.867    1.600    0.000    0.000 
#    0.000    0.000    0.000    0.000    0.000    0.000 
#
# Total GULP energy -83607.788867 kJ/mol
# GULP energy per Si atom -5573.852591 kJ/mol
# Density = 2.127227 g / cm^3
# Si number density = 21.320796 Si / 1000 Ang^3
#
#
#
# Elastic Constant Matrix: (Units=GPa)
#
#
# Indices 1 2 3 4 5 6 
#
# 1 54.7184 17.4747 35.8670 0.0000 -11.7394 0.0000
# 2 17.4747 48.7666 22.2162 0.0000 -20.7030 0.0000
# 3 35.8670 22.2162 127.4984 0.0000 -29.0738 0.0000
# 4 0.0000 0.0000 0.0000 18.7573 0.0000 6.0105
# 5 -11.7394 -20.7030 -29.0738 0.0000 35.2274 0.0000
# 6 0.0000 0.0000 0.0000 6.0105 0.0000 6.9381
#
#
#
# Elastic Compliance Matrix: (Units=1/GPa)
#
#
# Indices 1 2 3 4 5 6 
#
# 1 0.023914 -0.006105 -0.005746 0.000000 -0.000361 0.000000
# 2 -0.006105 0.029072 0.000103 0.000000 0.015136 0.000000
# 3 -0.005746 0.000103 0.011110 0.000000 0.007315 0.000000
# 4 0.000000 0.000000 0.000000 0.073798 0.000000 -0.063931
# 5 -0.000361 0.015136 0.007315 0.000000 0.043200 0.000000
# 6 0.000000 0.000000 0.000000 -0.063931 0.000000 0.199514
#
#
# Mechanical properties :
#
#
# Convention : Reuss Voigt Hill
#
# Bulk Modulus (GPa) = 24.62981 42.45546 33.54263
# Shear Modulus (GPa) = 11.97215 22.54626 17.25921
#
# Velocity S-wave (km/s) = 2.37222 3.25542 2.84826
# Velocity P-wave (km/s) = 4.36810 5.83834 5.15590
#
# Compressibility (1/GPa) = 0.04060121
#
# Stress axis : x y z
#
# Youngs Moduli (GPa) = 41.81675 34.39707 90.01173
#
# Poissons Ratio (x) = 0.20998 0.51719
# Poissons Ratio (y) = 0.25528 -0.00929
# Poissons Ratio (z) = 0.24027 -0.00355
#
# Static dielectric constant tensor:
#      x y z
#    x 1.792760 0.000000 -0.008420 
#    y 0.000000 1.790770 0.000000 
#    z -0.008420 0.000000 1.832900 
# 
# From -- ./inp_files/14877.got.cif
#   From: 2010.05.17/outbox.cif.g08.bks.cpg/sg3_8_cif.got.tgz:14877.got - 2010.06.03 18:33:08.
