data_PCOD9113018
_publ_section_title
;
Structure prediction by ZEFSAII (Michael W. Deem and Ramdas Pophale) SiO2 
 PCOD9113018
Probable space group: P 2
;
_chemical_formula_sum "Si O2"
_cell_formula_units_Z 16
_cell_length_a 9.139626
_cell_length_b 19.335177
_cell_length_c 8.005817
_cell_angle_alpha 90.000000
_cell_angle_beta 34.056944
_cell_angle_gamma 90.000000
_cell_volume 792.288069
_symmetry_space_group_name_H-M "P 2"
_symmetry_group_IT_number 3
_symmetry_cell_setting 'monoclinic'
loop_
_space_group_symop_operation_xyz
x,y,z
-x,y,-z
loop_
_atom_site_type_symbol
_atom_site_label
_atom_site_fract_x
_atom_site_fract_y
_atom_site_fract_z
Si Si1 0.969274 0.197540 0.327607
Si Si2 0.767251 0.058921 0.344861
Si Si3 0.733620 0.940816 0.648644
Si Si4 0.233891 0.663025 0.650613
Si Si5 0.402092 0.435961 0.902501
Si Si6 0.266136 0.782253 0.351624
Si Si7 0.468988 0.279643 0.827127
Si Si8 0.107097 0.512310 0.709142
O O1 0.871309 0.125901 0.345282
O O2 0.749011 0.255002 0.497747
O O3 0.000000 0.191162 0.500000
O O4 0.245251 0.224212 0.997357
O O5 0.500000 0.074664 0.500000
O O6 0.715880 0.996550 0.520436
O O7 0.000000 0.038560 0.000000
O O8 0.724069 0.861546 0.594493
O O9 0.000000 0.949931 0.500000
O O10 0.500000 0.950304 0.000000
O O11 0.500000 0.647339 0.500000
O O12 0.280224 0.726712 0.484407
O O13 0.148646 0.593435 0.634138
O O14 0.000000 0.679308 0.000000
O O15 0.385663 0.356701 0.856754
O O16 0.618902 0.475177 0.586938
O O17 0.500000 0.434503 0.000000
O O18 0.124978 0.474209 0.167930
O O19 0.000000 0.773638 0.500000
O O20 0.500000 0.772607 0.000000
O O21 0.500000 0.279756 0.000000
O O22 0.000000 0.508628 0.000000
#
# Coordination Sequence:
#
# PCOD9113018 Si02
#       8
#     2   2   2   2   2   2   2   2
#     4  10  20  38  61  82 112 158 198 235 292 360
#     4  12  25  39  59  91 126 154 194 250 293 338
#     4  10  22  42  65  89 121 161 199 235 289 358
#     4  11  23  40  61  85 121 164 199 236 291 360
#     4  11  22  39  63  89 114 149 201 255 295 343
#     4  10  22  40  64  94 122 150 197 253 291 336
#     4   9  19  36  60  86 111 146 198 247 292 350
#     4  11  23  40  57  84 123 160 196 237 295 361
#
# _framework density 20.194675
#
# number of rings (size 3 to 8) (size 9 to 14) (size 15 to 20)
#    0.000    1.500    0.000    5.625    0.000    6.000 
#    0.000    6.250    0.000    0.000    0.000    0.000 
#    0.000    0.000    0.000    0.000    0.000    0.000 
#
# Total GULP energy -89461.599985 kJ/mol
# GULP energy per Si atom -5591.349999 kJ/mol
# Density = 2.014871 g / cm^3
# Si number density = 20.194675 Si / 1000 Ang^3
#
#
#
# Elastic Constant Matrix: (Units=GPa)
#
#
# Indices 1 2 3 4 5 6 
#
# 1 61.8068 64.6759 29.8198 0.0000 -19.4950 0.0000
# 2 64.6759 156.1033 42.3073 0.0000 -5.7890 0.0000
# 3 29.8198 42.3073 109.5616 0.0000 -28.4509 0.0000
# 4 0.0000 0.0000 0.0000 33.0114 0.0000 -8.6404
# 5 -19.4950 -5.7890 -28.4509 0.0000 30.0066 0.0000
# 6 0.0000 0.0000 0.0000 -8.6404 0.0000 18.4421
#
#
#
# Elastic Compliance Matrix: (Units=1/GPa)
#
#
# Indices 1 2 3 4 5 6 
#
# 1 0.039894 -0.016082 0.001694 0.000000 0.024422 0.000000
# 2 -0.016082 0.013699 -0.003900 0.000000 -0.011503 0.000000
# 3 0.001694 -0.003900 0.013615 0.000000 0.013257 0.000000
# 4 0.000000 0.000000 0.000000 0.034527 0.000000 0.016176
# 5 0.024422 -0.011503 0.013257 0.000000 0.059543 0.000000
# 6 0.000000 0.000000 0.000000 0.016176 0.000000 0.061803
#
#
# Mechanical properties :
#
#
# Convention : Reuss Voigt Hill
#
# Bulk Modulus (GPa) = 32.64571 66.78644 49.71607
# Shear Modulus (GPa) = 18.52757 29.00328 23.76543
#
# Velocity S-wave (km/s) = 3.03223 3.79381 3.43420
# Velocity P-wave (km/s) = 5.33477 7.23421 6.35585
#
# Compressibility (1/GPa) = 0.03063190
#
# Stress axis : x y z
#
# Youngs Moduli (GPa) = 25.06636 72.99541 73.44915
#
# Poissons Ratio (x) = 1.17392 -0.12442
# Poissons Ratio (y) = 0.40312 0.28646
# Poissons Ratio (z) = -0.04246 0.28469
#
# Static dielectric constant tensor:
#      x y z
#    x 1.712790 0.000000 0.001370 
#    y 0.000000 1.699590 0.000000 
#    z 0.001370 0.000000 1.680800 
# 
# From -- ./inp_files/6200.got.cif
#   From: 2010.05.17/outbox.cif.g08.bks.cpg/sg3_4_cif.got.tgz:6200.got - 2010.06.03 18:33:08.
