data_PCOD9113283
_publ_section_title
;
Structure prediction by ZEFSAII (Michael W. Deem and Ramdas Pophale) SiO2 
 PCOD9113283
Probable space group: P 2
;
_chemical_formula_sum "Si O2"
_cell_formula_units_Z 14
_cell_length_a 5.001201
_cell_length_b 7.583015
_cell_length_c 17.368722
_cell_angle_alpha 90.000000
_cell_angle_beta 113.769456
_cell_angle_gamma 90.000000
_cell_volume 602.820590
_symmetry_space_group_name_H-M "P 2"
_symmetry_group_IT_number 3
_symmetry_cell_setting 'monoclinic'
loop_
_space_group_symop_operation_xyz
x,y,z
-x,y,-z
loop_
_atom_site_type_symbol
_atom_site_label
_atom_site_fract_x
_atom_site_fract_y
_atom_site_fract_z
Si Si1 0.932384 0.526920 0.668106
Si Si2 0.797180 0.031463 0.404342
Si Si3 0.688045 0.640447 0.422025
Si Si4 0.678366 0.231776 0.728197
Si Si5 0.316925 0.011350 0.914065
Si Si6 0.193949 0.253389 0.087804
Si Si7 0.000749 0.889592 0.262289
O O1 0.617089 0.552621 0.589540
O O2 0.913548 0.338426 0.705351
O O3 0.217654 0.569644 0.651473
O O4 0.914775 0.686920 0.726593
O O5 0.637369 0.852644 0.416342
O O6 0.946494 0.956589 0.343476
O O7 0.000000 0.083147 0.500000
O O8 0.611566 0.200200 0.356006
O O9 0.000000 0.613139 0.500000
O O10 0.700017 0.317307 0.815352
O O11 0.766009 0.026255 0.744230
O O12 0.512916 0.181246 0.916341
O O13 0.021418 0.088919 0.916372
O O14 0.264744 0.914548 0.827674
O O15 0.500000 0.909019 0.000000
O O16 0.000000 0.354165 0.000000
#
# Coordination Sequence:
#
# PCOD9113283 Si02
#       7
#     2   2   2   2   2   2   2
#     4  11  24  37  63  88 118 159 204 245 312 357
#     4  10  21  38  63  85 122 166 207 248 307 359
#     4  10  22  43  60  84 121 165 203 255 300 358
#     4  11  22  38  61  88 122 159 203 254 304 359
#     4   9  17  31  59  87 112 154 201 241 298 364
#     4   9  18  33  58  88 115 153 199 243 299 362
#     4  10  21  40  58  86 126 158 199 256 306 357
#
# _framework density 23.224156000000001
#
# number of rings (size 3 to 8) (size 9 to 14) (size 15 to 20)
#    0.000    2.000    2.857    0.429    2.000    1.143 
#    2.571    0.000    0.000   17.143    0.000    0.000 
#    0.000    0.000    0.000    0.000    0.000    0.000 
#
# Total GULP energy -77960.061856 kJ/mol
# GULP energy per Si atom -5568.575847 kJ/mol
# Density = 2.317130 g / cm^3
# Si number density = 23.224156 Si / 1000 Ang^3
#
#
#
# Elastic Constant Matrix: (Units=GPa)
#
#
# Indices 1 2 3 4 5 6 
#
# 1 79.4274 10.1186 15.1970 0.0000 -6.8470 0.0000
# 2 10.1186 65.7621 6.7159 0.0000 3.2278 0.0000
# 3 15.1970 6.7159 182.7780 0.0000 7.5898 0.0000
# 4 0.0000 0.0000 0.0000 1.3812 0.0000 2.0454
# 5 -6.8470 3.2278 7.5898 0.0000 27.7686 0.0000
# 6 0.0000 0.0000 0.0000 2.0454 0.0000 22.7882
#
#
#
# Elastic Compliance Matrix: (Units=1/GPa)
#
#
# Indices 1 2 3 4 5 6 
#
# 1 0.013426 -0.002134 -0.001199 0.000000 0.003886 0.000000
# 2 -0.002134 0.015677 -0.000305 0.000000 -0.002265 0.000000
# 3 -0.001199 -0.000305 0.005657 0.000000 -0.001807 0.000000
# 4 0.000000 0.000000 0.000000 0.834972 0.000000 -0.074944
# 5 0.003886 -0.002265 -0.001807 0.000000 0.037727 0.000000
# 6 0.000000 0.000000 0.000000 -0.074944 0.000000 0.050609
#
#
# Mechanical properties :
#
#
# Convention : Reuss Voigt Hill
#
# Bulk Modulus (GPa) = 36.38410 43.55895 39.97152
# Shear Modulus (GPa) = 5.13080 30.11668 17.62374
#
# Velocity S-wave (km/s) = 1.48797 3.60499 2.75772
# Velocity P-wave (km/s) = 4.31886 6.01037 5.23341
#
# Compressibility (1/GPa) = 0.02748453
#
# Stress axis : x y z
#
# Youngs Moduli (GPa) = 74.47960 63.78775 176.77092
#
# Poissons Ratio (x) = 0.13613 0.21200
# Poissons Ratio (y) = 0.15895 0.05383
# Poissons Ratio (z) = 0.08932 0.01942
#
# Static dielectric constant tensor:
#      x y z
#    x 1.917100 0.000000 0.064910 
#    y 0.000000 1.837420 0.000000 
#    z 0.064910 0.000000 2.095760 
# 
# From -- ./inp_files/14669.got.cif
#   From: 2010.05.17/outbox.cif.g08.bks.cpg/sg3_8_cif.got.tgz:14669.got - 2010.06.03 18:33:08.
