data_PCOD9113704
_publ_section_title
;
Structure prediction by ZEFSAII (Michael W. Deem and Ramdas Pophale) SiO2 
 PCOD9113704
Probable space group: P 2
;
_chemical_formula_sum "Si O2"
_cell_formula_units_Z 12
_cell_length_a 5.473325
_cell_length_b 10.167219
_cell_length_c 9.448757
_cell_angle_alpha 90.000000
_cell_angle_beta 101.551948
_cell_angle_gamma 90.000000
_cell_volume 515.158067
_symmetry_space_group_name_H-M "P 2"
_symmetry_group_IT_number 3
_symmetry_cell_setting 'monoclinic'
loop_
_space_group_symop_operation_xyz
x,y,z
-x,y,-z
loop_
_atom_site_type_symbol
_atom_site_label
_atom_site_fract_x
_atom_site_fract_y
_atom_site_fract_z
Si Si1 0.309790 0.860620 0.857852
Si Si2 0.585708 0.231760 0.668455
Si Si3 0.907954 0.360502 0.325510
Si Si4 0.103330 0.987372 0.360626
Si Si5 0.041228 0.588853 0.855189
Si Si6 0.380544 0.726739 0.351861
O O1 0.443370 0.807033 0.732677
O O2 0.180519 0.726881 0.899818
O O3 0.500000 0.907815 0.000000
O O4 0.107847 0.966088 0.782300
O O5 0.500000 0.267294 0.500000
O O6 0.332649 0.266211 0.721241
O O7 0.677851 0.081056 0.670418
O O8 0.843622 0.309053 0.726486
O O9 0.000000 0.372419 0.500000
O O10 0.830447 0.498730 0.247241
O O11 0.000000 0.039532 0.500000
O O12 0.205971 0.840888 0.397595
O O13 0.778937 0.627980 0.757637
O O14 0.000000 0.520467 0.000000
O O15 0.500000 0.657390 0.500000
#
# Coordination Sequence:
#
# PCOD9113704 Si02
#       6
#     2   2   2   2   2   2
#     4  11  24  42  65 103 145 186 227 285 369 432
#     4  10  22  42  68 103 138 178 234 298 353 401
#     4  10  24  41  69 102 135 183 240 295 346 411
#     4  11  22  38  70 106 137 182 236 294 356 428
#     4  11  25  42  66  99 140 190 230 290 363 431
#     4  11  23  38  67 105 139 177 235 291 354 429
#
# _framework density 23.29382
#
# number of rings (size 3 to 8) (size 9 to 14) (size 15 to 20)
#    0.000    1.333    3.333    2.000    7.000    0.667 
#    0.000    0.000    3.667    1.000    0.000    0.000 
#    0.000    0.000    0.000    0.000    0.000    0.000 
#
# Total GULP energy -67064.286649 kJ/mol
# GULP energy per Si atom -5588.690554 kJ/mol
# Density = 2.324080 g / cm^3
# Si number density = 23.293820 Si / 1000 Ang^3
#
#
#
# Elastic Constant Matrix: (Units=GPa)
#
#
# Indices 1 2 3 4 5 6 
#
# 1 136.0822 37.9966 48.0156 0.0000 13.3086 0.0000
# 2 37.9966 80.0227 21.1713 0.0000 4.1344 0.0000
# 3 48.0156 21.1713 117.6842 0.0000 18.7737 0.0000
# 4 0.0000 0.0000 0.0000 7.3435 0.0000 16.2504
# 5 13.3086 4.1344 18.7737 0.0000 35.8905 0.0000
# 6 0.0000 0.0000 0.0000 16.2504 0.0000 -19.7010
#
#
#
# Elastic Compliance Matrix: (Units=1/GPa)
#
#
# Indices 1 2 3 4 5 6 
#
# 1 0.009587 -0.003677 -0.003001 0.000000 -0.001562 0.000000
# 2 -0.003677 0.014535 -0.001162 0.000000 0.000297 0.000000
# 3 -0.003001 -0.001162 0.010618 0.000000 -0.004307 0.000000
# 4 0.000000 0.000000 0.000000 0.048198 0.000000 0.039756
# 5 -0.001562 0.000297 -0.004307 0.000000 0.030660 0.000000
# 6 0.000000 0.000000 0.000000 0.039756 0.000000 -0.017966
#
#
# Mechanical properties :
#
#
# Convention : Reuss Voigt Hill
#
# Bulk Modulus (GPa) = 52.46784 60.90624 56.68704
# Shear Modulus (GPa) = 42.49356 19.81366 31.15361
#
# Velocity S-wave (km/s) = 4.27575 2.91966 3.66104
# Velocity P-wave (km/s) = 6.85195 6.12941 6.50073
#
# Compressibility (1/GPa) = 0.01905929
#
# Stress axis : x y z
#
# Youngs Moduli (GPa) = 104.30965 68.80133 94.18154
#
# Poissons Ratio (x) = 0.25301 0.28262
# Poissons Ratio (y) = 0.38359 0.10941
# Poissons Ratio (z) = 0.31301 0.07993
#
# Static dielectric constant tensor:
#      x y z
#    x 1.984820 0.000000 -0.001220 
#    y 0.000000 1.914090 0.000000 
#    z -0.001220 0.000000 1.887790 
# 
# From -- ./inp_files/4337.got.cif
#   From: 2010.05.17/outbox.cif.g08.bks.cpg/sg3_3_cif.got.tgz:4337.got - 2010.06.03 18:33:08.
