data_PCOD9113637
_publ_section_title
;
Structure prediction by ZEFSAII (Michael W. Deem and Ramdas Pophale) SiO2 
 PCOD9113637
Probable space group: P 2
;
_chemical_formula_sum "Si O2"
_cell_formula_units_Z 13
_cell_length_a 18.710055
_cell_length_b 6.088366
_cell_length_c 14.090207
_cell_angle_alpha 90.000000
_cell_angle_beta 20.847117
_cell_angle_gamma 90.000000
_cell_volume 571.204202
_symmetry_space_group_name_H-M "P 2"
_symmetry_group_IT_number 3
_symmetry_cell_setting 'monoclinic'
loop_
_space_group_symop_operation_xyz
x,y,z
-x,y,-z
loop_
_atom_site_type_symbol
_atom_site_label
_atom_site_fract_x
_atom_site_fract_y
_atom_site_fract_z
Si Si1 0.752731 0.670800 0.351543
Si Si2 0.461156 0.638006 0.876572
Si Si3 0.000000 0.265833 0.000000
Si Si4 0.781904 0.282032 0.546951
Si Si5 0.500000 0.573345 0.500000
Si Si6 0.500000 0.978313 0.000000
Si Si7 0.189147 0.569686 0.047348
Si Si8 0.043742 0.955759 0.105586
O O1 0.583818 0.733816 0.635625
O O2 0.655090 0.711827 0.370716
O O3 0.944663 0.779133 0.159426
O O4 0.825058 0.418430 0.259445
O O5 0.596526 0.432944 0.742949
O O6 0.263767 0.566153 0.063669
O O7 0.451777 0.815666 0.971736
O O8 0.884607 0.131668 0.061554
O O9 0.864408 0.090668 0.377302
O O10 0.976446 0.442059 0.311726
O O11 0.689221 0.140098 0.748057
O O12 0.355609 0.472139 0.764025
O O13 0.156664 0.818085 0.046850
#
# Coordination Sequence:
#
# PCOD9113637 Si02
#       8
#     2   2   1   2   1   1   2   2
#     4  11  21  42  66 101 153 194 235 301 355 443
#     4  11  25  50  76 106 154 194 250 318 374 448
#     4  12  22  36  74 104 146 206 238 284 376 440
#     4  12  24  49  78 108 147 195 256 314 381 441
#     4  10  22  40  68 108 154 202 228 286 376 440
#     4  12  26  50  82 106 142 204 254 322 392 432
#     4  11  25  47  74 112 160 191 248 313 367 458
#     4  12  22  42  73 104 148 199 246 299 368 443
#
# _framework density 22.758934
#
# number of rings (size 3 to 8) (size 9 to 14) (size 15 to 20)
#    0.000    0.615    4.615    3.692    0.000    1.231 
#    0.000   18.462    0.000    0.000    0.000    0.000 
#    0.000    0.000    0.000    0.000    0.000    0.000 
#
# Total GULP energy -72371.879287 kJ/mol
# GULP energy per Si atom -5567.067637 kJ/mol
# Density = 2.270713 g / cm^3
# Si number density = 22.758934 Si / 1000 Ang^3
#
#
#
# Elastic Constant Matrix: (Units=GPa)
#
#
# Indices 1 2 3 4 5 6 
#
# 1 166.8860 58.8250 59.0323 0.0000 -12.5645 0.0000
# 2 58.8250 102.8291 55.6911 0.0000 -7.9932 0.0000
# 3 59.0323 55.6911 91.0480 0.0000 6.5574 0.0000
# 4 0.0000 0.0000 0.0000 33.4055 0.0000 11.9051
# 5 -12.5645 -7.9932 6.5574 0.0000 42.1263 0.0000
# 6 0.0000 0.0000 0.0000 11.9051 0.0000 11.9600
#
#
#
# Elastic Compliance Matrix: (Units=1/GPa)
#
#
# Indices 1 2 3 4 5 6 
#
# 1 0.008552 -0.002340 -0.004313 0.000000 0.002778 0.000000
# 2 -0.002340 0.015953 -0.008504 0.000000 0.003653 0.000000
# 3 -0.004313 -0.008504 0.019408 0.000000 -0.005921 0.000000
# 4 0.000000 0.000000 0.000000 0.046393 0.000000 -0.046180
# 5 0.002778 0.003653 -0.005921 0.000000 0.026181 0.000000
# 6 0.000000 0.000000 0.000000 -0.046180 0.000000 0.129580
#
#
# Mechanical properties :
#
#
# Convention : Reuss Voigt Hill
#
# Bulk Modulus (GPa) = 73.53991 78.65111 76.09551
# Shear Modulus (GPa) = 17.79899 29.97931 23.88915
#
# Velocity S-wave (km/s) = 2.79958 3.63334 3.24336
# Velocity P-wave (km/s) = 6.54468 7.22737 6.89448
#
# Compressibility (1/GPa) = 0.01359806
#
# Stress axis : x y z
#
# Youngs Moduli (GPa) = 116.93236 62.68374 51.52571
#
# Poissons Ratio (x) = 0.14669 0.22225
# Poissons Ratio (y) = 0.27365 0.43816
# Poissons Ratio (z) = 0.50438 0.53305
#
# Static dielectric constant tensor:
#      x y z
#    x 1.882270 0.000000 -0.004960 
#    y 0.000000 1.901410 0.000000 
#    z -0.004960 0.000000 2.043380 
# 
# From -- ./inp_files/14233.got.cif
#   From: 2010.05.17/outbox.cif.g08.bks.cpg/sg3_8_cif.got.tgz:14233.got - 2010.06.03 18:33:08.
