data_PCOD9113509
_publ_section_title
;
Structure prediction by ZEFSAII (Michael W. Deem and Ramdas Pophale) SiO2 
 PCOD9113509
Probable space group: P 2
;
_chemical_formula_sum "Si O2"
_cell_formula_units_Z 13
_cell_length_a 5.678976
_cell_length_b 12.635241
_cell_length_c 8.533789
_cell_angle_alpha 90.000000
_cell_angle_beta 55.779484
_cell_angle_gamma 90.000000
_cell_volume 506.334547
_symmetry_space_group_name_H-M "P 2"
_symmetry_group_IT_number 3
_symmetry_cell_setting 'monoclinic'
loop_
_space_group_symop_operation_xyz
x,y,z
-x,y,-z
loop_
_atom_site_type_symbol
_atom_site_label
_atom_site_fract_x
_atom_site_fract_y
_atom_site_fract_z
Si Si1 0.338150 0.216920 0.394340
Si Si2 0.686809 0.389717 0.134148
Si Si3 0.500000 0.571477 0.000000
Si Si4 0.000000 0.837663 0.000000
Si Si5 0.797524 0.044003 0.955603
Si Si6 0.766248 0.986093 0.478563
Si Si7 0.005719 0.697401 0.318211
Si Si8 0.500000 0.527933 0.500000
O O1 0.500000 0.242632 0.500000
O O2 0.480570 0.288518 0.207526
O O3 0.363108 0.088969 0.384889
O O4 0.000000 0.237721 0.500000
O O5 0.562186 0.452005 0.330524
O O6 0.702976 0.487213 0.006757
O O7 0.000000 0.344938 0.000000
O O8 0.683111 0.646063 0.821533
O O9 0.755326 0.925229 0.048369
O O10 0.039208 0.769543 0.824439
O O11 0.500000 0.081552 0.000000
O O12 0.025697 0.028635 0.733028
O O13 0.000000 0.106246 0.000000
O O14 0.500000 0.926911 0.500000
O O15 0.000000 0.934115 0.500000
O O16 0.000000 0.735633 0.500000
O O17 0.771577 0.604650 0.405560
#
# Coordination Sequence:
#
# PCOD9113509 Si02
#       8
#     2   2   1   1   2   2   2   1
#     4  10  24  43  69 102 149 186 246 313 363 445
#     4  12  25  42  69  99 147 200 255 311 369 437
#     4  12  26  42  70 100 144 200 262 300 380 452
#     4  10  28  46  70 114 156 180 270 308 386 470
#     4  10  23  45  76 104 144 190 237 313 379 457
#     4  10  21  44  74 104 141 190 238 304 378 452
#     4  12  26  45  71 104 149 204 244 325 380 449
#     4  12  24  44  66 100 142 196 256 298 376 446
#
# _framework density 25.674721999999999
#
# number of rings (size 3 to 8) (size 9 to 14) (size 15 to 20)
#    0.462    0.615    3.846    1.846    5.385    0.615 
#    1.385    9.231    0.000    0.000    0.000    0.000 
#    0.000    0.000    0.000    0.000    0.000    0.000 
#
# Total GULP energy -72484.990808 kJ/mol
# GULP energy per Si atom -5575.768524 kJ/mol
# Density = 2.561629 g / cm^3
# Si number density = 25.674722 Si / 1000 Ang^3
#
#
#
# Elastic Constant Matrix: (Units=GPa)
#
#
# Indices 1 2 3 4 5 6 
#
# 1 194.0555 39.5924 53.7149 0.0000 -17.3558 0.0000
# 2 39.5924 161.4635 56.3118 0.0000 2.1978 0.0000
# 3 53.7149 56.3118 129.8010 0.0000 0.9968 0.0000
# 4 0.0000 0.0000 0.0000 -262.0695 0.0000 184.2810
# 5 -17.3558 2.1978 0.9968 0.0000 63.5985 0.0000
# 6 0.0000 0.0000 0.0000 184.2810 0.0000 -119.3681
#
#
#
# Elastic Compliance Matrix: (Units=1/GPa)
#
#
# Indices 1 2 3 4 5 6 
#
# 1 0.006068 -0.000743 -0.002202 0.000000 0.001716 0.000000
# 2 -0.000743 0.007391 -0.002896 0.000000 -0.000413 0.000000
# 3 -0.002202 -0.002896 0.009876 0.000000 -0.000656 0.000000
# 4 0.000000 0.000000 0.000000 0.044595 0.000000 0.068845
# 5 0.001716 -0.000413 -0.000656 0.000000 0.016216 0.000000
# 6 0.000000 0.000000 0.000000 0.068845 0.000000 0.097906
#
#
# Mechanical properties :
#
#
# Convention : Reuss Voigt Hill
#
# Bulk Modulus (GPa) = 85.80838 87.17314 86.49076
# Shear Modulus (GPa) = 25.30126 -41.18778 -7.94326
#
# Velocity S-wave (km/s) = 3.14260 -4.00961 -1.76083
# Velocity P-wave (km/s) = 6.83095 3.54833 5.44300
#
# Compressibility (1/GPa) = 0.01165387
#
# Stress axis : x y z
#
# Youngs Moduli (GPa) = 164.80609 135.29666 101.25047
#
# Poissons Ratio (x) = 0.10058 0.22292
# Poissons Ratio (y) = 0.12251 0.29319
# Poissons Ratio (z) = 0.36285 0.39178
#
# Static dielectric constant tensor:
#      x y z
#    x 3.163210 0.000000 0.052950 
#    y 0.000000 1.961650 0.000000 
#    z 0.052950 0.000000 2.083220 
# 
# From -- ./inp_files/4481.got.cif
#   From: 2010.05.17/outbox.cif.g08.bks.cpg/sg3_3_cif.got.tgz:4481.got - 2010.06.03 18:33:08.
