data_PCOD9113419
_publ_section_title
;
Structure prediction by ZEFSAII (Michael W. Deem and Ramdas Pophale) SiO2 
 PCOD9113419
Probable space group: P 2
;
_chemical_formula_sum "Si O2"
_cell_formula_units_Z 16
_cell_length_a 8.514729
_cell_length_b 6.747858
_cell_length_c 16.649094
_cell_angle_alpha 90.000000
_cell_angle_beta 54.536833
_cell_angle_gamma 90.000000
_cell_volume 779.134458
_symmetry_space_group_name_H-M "P 2"
_symmetry_group_IT_number 3
_symmetry_cell_setting 'monoclinic'
loop_
_space_group_symop_operation_xyz
x,y,z
-x,y,-z
loop_
_atom_site_type_symbol
_atom_site_label
_atom_site_fract_x
_atom_site_fract_y
_atom_site_fract_z
Si Si1 0.486210 0.257040 0.096117
Si Si2 0.845036 0.574108 0.769254
Si Si3 0.697915 0.076036 0.397467
Si Si4 0.198665 0.420488 0.751308
Si Si5 0.785313 0.526652 0.081434
Si Si6 0.466575 0.856528 0.194443
Si Si7 0.090164 0.769750 0.560438
Si Si8 0.521621 0.735398 0.631672
O O1 0.295965 0.384491 0.177904
O O2 0.668290 0.403623 0.050717
O O3 0.499695 0.075621 0.153577
O O4 0.500000 0.186449 0.000000
O O5 0.697257 0.757950 0.813285
O O6 0.012717 0.553509 0.784910
O O7 0.964348 0.618578 0.651403
O O8 0.500000 0.150509 0.500000
O O9 0.793412 0.238304 0.311928
O O10 0.856187 0.973889 0.408837
O O11 0.614854 0.897795 0.368273
O O12 0.198137 0.382922 0.845966
O O13 0.394236 0.543164 0.682149
O O14 0.656334 0.720258 0.134774
O O15 0.000000 0.588800 0.000000
O O16 0.405945 0.829260 0.305580
O O17 0.301656 0.684163 0.478461
O O18 0.000000 0.806349 0.500000
#
# Coordination Sequence:
#
# PCOD9113419 Si02
#       8
#     2   2   2   2   2   2   2   2
#     4  11  25  44  68  97 131 168 218 275 325 395
#     4  11  24  40  65  94 133 172 219 265 329 390
#     4  10  23  38  62  94 126 170 220 265 317 384
#     4  11  23  39  66  94 129 172 214 269 322 384
#     4  10  23  45  67  97 130 165 214 267 329 390
#     4  10  23  43  67  95 131 170 214 267 330 386
#     4  11  22  42  64  92 132 177 217 272 325 388
#     4  10  21  41  63  91 134 168 216 269 317 386
#
# _framework density 20.535608
#
# number of rings (size 3 to 8) (size 9 to 14) (size 15 to 20)
#    0.000    1.500    2.500    1.500    3.500    3.500 
#    0.000    3.125    0.000    0.000    0.000    0.000 
#    0.000    0.000    0.000    0.000    0.000    0.000 
#
# Total GULP energy -89235.288913 kJ/mol
# GULP energy per Si atom -5577.205557 kJ/mol
# Density = 2.048887 g / cm^3
# Si number density = 20.535608 Si / 1000 Ang^3
#
#
#
# Elastic Constant Matrix: (Units=GPa)
#
#
# Indices 1 2 3 4 5 6 
#
# 1 77.2342 9.5223 19.2846 0.0000 6.5405 0.0000
# 2 9.5223 40.5408 26.4011 0.0000 -1.9279 0.0000
# 3 19.2846 26.4011 87.2160 0.0000 -14.2120 0.0000
# 4 0.0000 0.0000 0.0000 12.4398 0.0000 14.1330
# 5 6.5405 -1.9279 -14.2120 0.0000 33.3253 0.0000
# 6 0.0000 0.0000 0.0000 14.1330 0.0000 18.8929
#
#
#
# Elastic Compliance Matrix: (Units=1/GPa)
#
#
# Indices 1 2 3 4 5 6 
#
# 1 0.014352 -0.001305 -0.003492 0.000000 -0.004381 0.000000
# 2 -0.001305 0.031014 -0.009420 0.000000 -0.001967 0.000000
# 3 -0.003492 -0.009420 0.016241 0.000000 0.007067 0.000000
# 4 0.000000 0.000000 0.000000 0.535486 0.000000 -0.400574
# 5 -0.004381 -0.001967 0.007067 0.000000 0.033767 0.000000
# 6 0.000000 0.000000 0.000000 -0.400574 0.000000 0.352582
#
#
# Mechanical properties :
#
#
# Convention : Reuss Voigt Hill
#
# Bulk Modulus (GPa) = 30.14616 35.04524 32.59570
# Shear Modulus (GPa) = 4.88790 22.91713 13.90251
#
# Velocity S-wave (km/s) = 1.54447 3.34424 2.60474
# Velocity P-wave (km/s) = 4.22993 5.65814 4.99534
#
# Compressibility (1/GPa) = 0.03317172
#
# Stress axis : x y z
#
# Youngs Moduli (GPa) = 69.67893 32.24330 61.57222
#
# Poissons Ratio (x) = 0.04208 0.21502
# Poissons Ratio (y) = 0.09094 0.58003
# Poissons Ratio (z) = 0.24333 0.30374
#
# Static dielectric constant tensor:
#      x y z
#    x 1.748030 0.000000 0.010370 
#    y 0.000000 1.688680 0.000000 
#    z 0.010370 0.000000 1.763770 
# 
# From -- ./inp_files/14854.got.cif
#   From: 2010.05.17/outbox.cif.g08.bks.cpg/sg3_8_cif.got.tgz:14854.got - 2010.06.03 18:33:08.
