data_PCOD9113329
_publ_section_title
;
Structure prediction by ZEFSAII (Michael W. Deem and Ramdas Pophale) SiO2 
 PCOD9113329
Probable space group: P 2
;
_chemical_formula_sum "Si O2"
_cell_formula_units_Z 13
_cell_length_a 11.129472
_cell_length_b 5.350683
_cell_length_c 12.666025
_cell_angle_alpha 90.000000
_cell_angle_beta 138.761553
_cell_angle_gamma 90.000000
_cell_volume 497.207308
_symmetry_space_group_name_H-M "P 2"
_symmetry_group_IT_number 3
_symmetry_cell_setting 'monoclinic'
loop_
_space_group_symop_operation_xyz
x,y,z
-x,y,-z
loop_
_atom_site_type_symbol
_atom_site_label
_atom_site_fract_x
_atom_site_fract_y
_atom_site_fract_z
Si Si1 0.891520 0.832220 0.526380
Si Si2 0.289456 0.415209 0.374087
Si Si3 0.917772 0.933399 0.784728
Si Si4 0.500000 0.854508 0.000000
Si Si5 0.806956 0.452396 0.244662
Si Si6 0.285856 0.171583 0.025788
Si Si7 0.621931 0.440578 0.330715
O O1 0.931641 0.946933 0.665821
O O2 0.684014 0.735524 0.375827
O O3 0.000000 0.952479 0.500000
O O4 0.999453 0.568573 0.606475
O O5 0.500000 0.490312 0.500000
O O6 0.165224 0.653481 0.257258
O O7 0.303365 0.349835 0.508294
O O8 0.217697 0.159927 0.273396
O O9 0.120490 0.001782 0.961785
O O10 0.333130 0.680966 0.859290
O O11 0.425021 0.006473 0.049197
O O12 0.804131 0.329865 0.128712
O O13 0.722404 0.327516 0.293418
O O14 0.410723 0.358460 0.178017
#
# Coordination Sequence:
#
# PCOD9113329 Si02
#       7
#     2   2   2   1   2   2   2
#     4   9  20  36  62  92 140 184 229 270 334 426
#     4  11  26  50  73  95 129 177 241 307 355 403
#     4  11  24  43  70  97 131 181 226 287 364 412
#     4  12  20  32  60  92 148 192 216 260 332 416
#     4  11  20  38  53  91 145 184 220 269 333 422
#     4  12  22  36  63  98 143 182 220 274 342 428
#     4  10  21  39  62  97 129 184 228 280 337 411
#
# _framework density 26.146035000000001
#
# number of rings (size 3 to 8) (size 9 to 14) (size 15 to 20)
#    0.000    1.231    4.615    2.308    0.000    4.923 
#    0.000    1.538    0.000    3.692    0.000    0.000 
#    0.000    0.000    0.000    0.000    0.000    0.000 
#
# Total GULP energy -72528.291710 kJ/mol
# GULP energy per Si atom -5579.099362 kJ/mol
# Density = 2.608653 g / cm^3
# Si number density = 26.146035 Si / 1000 Ang^3
#
#
#
# Elastic Constant Matrix: (Units=GPa)
#
#
# Indices 1 2 3 4 5 6 
#
# 1 41.7009 6.3198 15.9946 0.0000 24.2773 0.0000
# 2 6.3198 111.5073 66.4206 0.0000 21.6821 0.0000
# 3 15.9946 66.4206 133.6362 0.0000 27.3154 0.0000
# 4 0.0000 0.0000 0.0000 127.7095 0.0000 30.1273
# 5 24.2773 21.6821 27.3154 0.0000 42.3883 0.0000
# 6 0.0000 0.0000 0.0000 30.1273 0.0000 24.2809
#
#
#
# Elastic Compliance Matrix: (Units=1/GPa)
#
#
# Indices 1 2 3 4 5 6 
#
# 1 0.036650 0.002989 -0.001462 0.000000 -0.021578 0.000000
# 2 0.002989 0.013280 -0.006012 0.000000 -0.004631 0.000000
# 3 -0.001462 -0.006012 0.011340 0.000000 -0.003395 0.000000
# 4 0.000000 0.000000 0.000000 0.011071 0.000000 -0.013736
# 5 -0.021578 -0.004631 -0.003395 0.000000 0.040507 0.000000
# 6 0.000000 0.000000 0.000000 -0.013736 0.000000 0.058229
#
#
# Mechanical properties :
#
#
# Convention : Reuss Voigt Hill
#
# Bulk Modulus (GPa) = 19.11981 51.59049 35.35515
# Shear Modulus (GPa) = 25.31922 52.08302 38.70112
#
# Velocity S-wave (km/s) = 3.11525 4.46803 3.85150
# Velocity P-wave (km/s) = 4.50203 6.81118 5.77324
#
# Compressibility (1/GPa) = 0.05230176
#
# Stress axis : x y z
#
# Youngs Moduli (GPa) = 27.28497 75.30112 88.18398
#
# Poissons Ratio (x) = -0.22510 0.12890
# Poissons Ratio (y) = -0.08156 0.53014
# Poissons Ratio (z) = 0.03988 0.45269
#
# Static dielectric constant tensor:
#      x y z
#    x 2.051740 0.000000 -0.139620 
#    y 0.000000 2.093310 0.000000 
#    z -0.139620 0.000000 1.987010 
# 
# From -- ./inp_files/13685.got.cif
#   From: 2010.05.17/outbox.cif.g08.bks.cpg/sg3_7_cif.got.tgz:13685.got - 2010.06.03 18:33:08.
