data_PCOD9113605
_publ_section_title
;
Structure prediction by ZEFSAII (Michael W. Deem and Ramdas Pophale) SiO2 
 PCOD9113605
Probable space group: P 2
;
_chemical_formula_sum "Si O2"
_cell_formula_units_Z 11
_cell_length_a 15.465544
_cell_length_b 5.194007
_cell_length_c 5.510533
_cell_angle_alpha 90.000000
_cell_angle_beta 71.767025
_cell_angle_gamma 90.000000
_cell_volume 420.426333
_symmetry_space_group_name_H-M "P 2"
_symmetry_group_IT_number 3
_symmetry_cell_setting 'monoclinic'
loop_
_space_group_symop_operation_xyz
x,y,z
-x,y,-z
loop_
_atom_site_type_symbol
_atom_site_label
_atom_site_fract_x
_atom_site_fract_y
_atom_site_fract_z
Si Si1 0.412775 0.151640 0.406130
Si Si2 0.729993 0.976615 0.105415
Si Si3 0.000000 0.137212 0.500000
Si Si4 0.645695 0.638928 0.803748
Si Si5 0.179234 0.361907 0.332865
Si Si6 0.090741 0.746052 0.045298
O O1 0.500000 0.171821 0.500000
O O2 0.408455 0.379988 0.213473
O O3 0.326899 0.153242 0.665594
O O4 0.403432 0.874614 0.285884
O O5 0.667145 0.743263 0.057050
O O6 0.822948 0.884802 0.151700
O O7 0.762568 0.127939 0.833368
O O8 0.085349 0.286760 0.546976
O O9 0.050193 0.955991 0.265837
O O10 0.747311 0.557684 0.621353
O O11 0.136837 0.511763 0.142143
O O12 0.000000 0.654028 0.000000
#
# Coordination Sequence:
#
# PCOD9113605 Si02
#       6
#     2   2   1   2   2   2
#     4  12  28  49  77 112 144 192 254 303 379 452
#     4  10  25  47  70 107 150 192 248 300 374 444
#     4  10  22  40  62 100 144 184 250 284 356 438
#     4  11  25  49  73 107 148 192 238 312 371 434
#     4  10  22  45  66 100 146 194 237 295 372 427
#     4  10  23  39  65 104 141 190 242 297 357 432
#
# _framework density 26.163919
#
# number of rings (size 3 to 8) (size 9 to 14) (size 15 to 20)
#    0.000    1.455    1.818    1.091    7.636    5.091 
#    3.273    0.000    0.000    0.000    0.000    0.000 
#    0.000    0.000    0.000    0.000    0.000    0.000 
#
# Total GULP energy -61500.606589 kJ/mol
# GULP energy per Si atom -5590.964235 kJ/mol
# Density = 2.610437 g / cm^3
# Si number density = 26.163919 Si / 1000 Ang^3
#
#
#
# Elastic Constant Matrix: (Units=GPa)
#
#
# Indices 1 2 3 4 5 6 
#
# 1 170.9544 48.8764 16.5623 0.0000 9.6817 0.0000
# 2 48.8764 145.5906 18.1808 0.0000 2.6492 0.0000
# 3 16.5623 18.1808 66.3879 0.0000 -24.2265 0.0000
# 4 0.0000 0.0000 0.0000 86.9597 0.0000 15.2593
# 5 9.6817 2.6492 -24.2265 0.0000 30.2381 0.0000
# 6 0.0000 0.0000 0.0000 15.2593 0.0000 39.9110
#
#
#
# Elastic Compliance Matrix: (Units=1/GPa)
#
#
# Indices 1 2 3 4 5 6 
#
# 1 0.006898 -0.001895 -0.002752 0.000000 -0.004248 0.000000
# 2 -0.001895 0.007842 -0.002408 0.000000 -0.002010 0.000000
# 3 -0.002752 -0.002408 0.023752 0.000000 0.020122 0.000000
# 4 0.000000 0.000000 0.000000 0.012327 0.000000 -0.004713
# 5 -0.004248 -0.002010 0.020122 0.000000 0.050729 0.000000
# 6 0.000000 0.000000 0.000000 -0.004713 0.000000 0.026858
#
#
# Mechanical properties :
#
#
# Convention : Reuss Voigt Hill
#
# Bulk Modulus (GPa) = 41.01405 61.13024 51.07214
# Shear Modulus (GPa) = 33.19088 51.37598 42.28343
#
# Velocity S-wave (km/s) = 3.56557 4.43608 4.02443
# Velocity P-wave (km/s) = 5.71497 7.04652 6.41539
#
# Compressibility (1/GPa) = 0.02438189
#
# Stress axis : x y z
#
# Youngs Moduli (GPa) = 144.95950 127.51798 42.10138
#
# Poissons Ratio (x) = 0.24164 0.11587
# Poissons Ratio (y) = 0.27469 0.10139
# Poissons Ratio (z) = 0.39896 0.30710
#
# Static dielectric constant tensor:
#      x y z
#    x 2.333940 0.000000 0.000210 
#    y 0.000000 2.108090 0.000000 
#    z 0.000210 0.000000 2.071360 
# 
# From -- ./inp_files/2690.got.cif
#   From: 2010.05.17/outbox.cif.g08.bks.cpg/sg3_2_cif.got.tgz:2690.got - 2010.06.03 18:33:08.
