data_PCOD9113289
_publ_section_title
;
Structure prediction by ZEFSAII (Michael W. Deem and Ramdas Pophale) SiO2 
 PCOD9113289
Probable space group: P 2
;
_chemical_formula_sum "Si O2"
_cell_formula_units_Z 14
_cell_length_a 8.241126
_cell_length_b 16.408734
_cell_length_c 7.757614
_cell_angle_alpha 90.000000
_cell_angle_beta 35.665911
_cell_angle_gamma 90.000000
_cell_volume 611.647935
_symmetry_space_group_name_H-M "P 2"
_symmetry_group_IT_number 3
_symmetry_cell_setting 'monoclinic'
loop_
_space_group_symop_operation_xyz
x,y,z
-x,y,-z
loop_
_atom_site_type_symbol
_atom_site_label
_atom_site_fract_x
_atom_site_fract_y
_atom_site_fract_z
Si Si1 0.201121 0.369770 0.168478
Si Si2 0.530790 0.054711 0.264449
Si Si3 0.283681 0.224504 0.838352
Si Si4 0.658828 0.801364 0.528920
Si Si5 0.795621 0.550636 0.834870
Si Si6 0.759557 0.721925 0.905223
Si Si7 0.025164 0.954153 0.668477
O O1 0.124547 0.460963 0.167014
O O2 0.000000 0.349223 0.500000
O O3 0.500000 0.370682 0.000000
O O4 0.206836 0.302451 0.016723
O O5 0.500000 0.052132 0.500000
O O6 0.597141 0.147745 0.160607
O O7 0.234546 0.028040 0.449680
O O8 0.760779 0.992166 0.992078
O O9 0.500000 0.245930 0.500000
O O10 0.000000 0.191765 0.000000
O O11 0.500000 0.765396 0.500000
O O12 0.796884 0.888454 0.375562
O O13 0.915725 0.748648 0.384805
O O14 0.390337 0.801271 0.883612
O O15 0.786011 0.630561 0.963394
O O16 0.000000 0.573391 0.500000
O O17 0.500000 0.537821 0.000000
O O18 0.500000 0.703462 0.000000
O O19 0.000000 0.913831 0.500000
#
# Coordination Sequence:
#
# PCOD9113289 Si02
#       7
#     2   2   2   2   2   2   2
#     4  10  21  38  63  94 126 163 211 262 311 370
#     4  11  24  43  65  90 125 169 211 259 322 387
#     4  11  23  41  62  90 127 167 207 252 318 387
#     4  12  26  42  62  92 130 165 204 259 328 387
#     4   9  18  35  61  92 122 159 207 259 314 370
#     4  11  21  40  66  91 121 165 214 260 310 376
#     4  12  25  43  66  95 125 162 215 269 318 377
#
# _framework density 22.888985999999999
#
# number of rings (size 3 to 8) (size 9 to 14) (size 15 to 20)
#    0.000    1.143    0.000    8.143    0.000    2.857 
#    0.000    2.143    0.000    0.000    0.000    0.000 
#    0.000    0.000    0.000    0.000    0.000    0.000 
#
# Total GULP energy -77975.773009 kJ/mol
# GULP energy per Si atom -5569.698072 kJ/mol
# Density = 2.283689 g / cm^3
# Si number density = 22.888986 Si / 1000 Ang^3
#
#
#
# Elastic Constant Matrix: (Units=GPa)
#
#
# Indices 1 2 3 4 5 6 
#
# 1 57.7866 15.7022 21.3136 0.0000 -17.5043 0.0000
# 2 15.7022 140.5796 29.3125 0.0000 13.1771 0.0000
# 3 21.3136 29.3125 169.1493 0.0000 -13.6286 0.0000
# 4 0.0000 0.0000 0.0000 24.9775 0.0000 7.3717
# 5 -17.5043 13.1771 -13.6286 0.0000 30.0976 0.0000
# 6 0.0000 0.0000 0.0000 7.3717 0.0000 -5.2994
#
#
#
# Elastic Compliance Matrix: (Units=1/GPa)
#
#
# Indices 1 2 3 4 5 6 
#
# 1 0.023141 -0.003725 -0.001095 0.000000 0.014594 0.000000
# 2 -0.003725 0.008463 -0.001526 0.000000 -0.006562 0.000000
# 3 -0.001095 -0.001526 0.006556 0.000000 0.003000 0.000000
# 4 0.000000 0.000000 0.000000 0.028383 0.000000 0.039483
# 5 0.014594 -0.006562 0.003000 0.000000 0.045944 0.000000
# 6 0.000000 0.000000 0.000000 0.039483 0.000000 -0.133778
#
#
# Mechanical properties :
#
#
# Convention : Reuss Voigt Hill
#
# Bulk Modulus (GPa) = 39.26191 55.57470 47.41831
# Shear Modulus (GPa) = -45457.55881 30.03427 -22713.76227
#
# Velocity S-wave (km/s) = -141.07845 3.62632 -99.72457
# Velocity P-wave (km/s) = 162.85059 6.47043 115.06183
#
# Compressibility (1/GPa) = 0.02546998
#
# Stress axis : x y z
#
# Youngs Moduli (GPa) = 43.21241 118.16558 152.53132
#
# Poissons Ratio (x) = 0.44011 0.16697
# Poissons Ratio (y) = 0.16094 0.23276
# Poissons Ratio (z) = 0.04730 0.18031
#
# Static dielectric constant tensor:
#      x y z
#    x 1.951280 0.000000 0.048930 
#    y 0.000000 1.920680 0.000000 
#    z 0.048930 0.000000 1.885680 
# 
# From -- ./inp_files/6168.got.cif
#   From: 2010.05.17/outbox.cif.g08.bks.cpg/sg3_4_cif.got.tgz:6168.got - 2010.06.03 18:33:08.
