data_PCOD9113906
_publ_section_title
;
Structure prediction by ZEFSAII (Michael W. Deem and Ramdas Pophale) SiO2 
 PCOD9113906
Probable space group: P 2
;
_chemical_formula_sum "Si O2"
_cell_formula_units_Z 14
_cell_length_a 9.089649
_cell_length_b 5.392104
_cell_length_c 19.794014
_cell_angle_alpha 90.000000
_cell_angle_beta 36.639292
_cell_angle_gamma 90.000000
_cell_volume 578.962022
_symmetry_space_group_name_H-M "P 2"
_symmetry_group_IT_number 3
_symmetry_cell_setting 'monoclinic'
loop_
_space_group_symop_operation_xyz
x,y,z
-x,y,-z
loop_
_atom_site_type_symbol
_atom_site_label
_atom_site_fract_x
_atom_site_fract_y
_atom_site_fract_z
Si Si1 0.001375 0.173450 0.185200
Si Si2 0.706279 0.926570 0.114443
Si Si3 0.335498 0.415344 0.786506
Si Si4 0.566989 0.926378 0.406345
Si Si5 0.221430 0.578343 0.469093
Si Si6 0.608904 0.816579 0.898687
Si Si7 0.061089 0.529535 0.671115
O O1 0.932795 0.363666 0.150556
O O2 0.972989 0.302530 0.267498
O O3 0.756140 0.005066 0.278063
O O4 0.245315 0.014474 0.107122
O O5 0.661851 0.669879 0.171643
O O6 0.584774 0.907487 0.085418
O O7 0.612958 0.175597 0.186045
O O8 0.000000 0.953680 0.000000
O O9 0.545956 0.446524 0.651719
O O10 0.500000 0.076929 0.500000
O O11 0.321242 0.840470 0.459944
O O12 0.713328 0.691863 0.383867
O O13 0.000000 0.608724 0.500000
O O14 0.112425 0.452817 0.576141
O O15 0.817200 0.690483 0.775292
O O16 0.500000 0.645493 0.000000
#
# Coordination Sequence:
#
# PCOD9113906 Si02
#       7
#     2   2   2   2   2   2   2
#     4  11  24  42  74 106 148 199 268 314 387 460
#     4  12  29  53  79 115 159 205 262 329 400 470
#     4  12  27  49  79 112 159 210 258 321 405 471
#     4   9  20  39  65 100 142 201 246 312 370 457
#     4  11  23  42  72 107 154 196 249 309 397 466
#     4  11  27  48  79 108 150 205 271 329 391 465
#     4  10  23  44  68 106 147 192 256 315 376 462
#
# _framework density 24.181207000000001
#
# number of rings (size 3 to 8) (size 9 to 14) (size 15 to 20)
#    0.000    1.143    1.429    3.000   10.000    0.571 
#    2.571    2.857    0.000    0.000    0.000    0.000 
#    0.000    0.000    0.000    0.000    0.000    0.000 
#
# Total GULP energy -78207.713109 kJ/mol
# GULP energy per Si atom -5586.265222 kJ/mol
# Density = 2.412617 g / cm^3
# Si number density = 24.181207 Si / 1000 Ang^3
#
#
#
# Elastic Constant Matrix: (Units=GPa)
#
#
# Indices 1 2 3 4 5 6 
#
# 1 175.4448 38.4048 57.5866 0.0000 10.6666 0.0000
# 2 38.4048 80.9860 36.1712 0.0000 22.0742 0.0000
# 3 57.5866 36.1712 110.4758 0.0000 16.7928 0.0000
# 4 0.0000 0.0000 0.0000 -556.7414 0.0000 -3.2906
# 5 10.6666 22.0742 16.7928 0.0000 50.8428 0.0000
# 6 0.0000 0.0000 0.0000 -3.2906 0.0000 23.5358
#
#
#
# Elastic Compliance Matrix: (Units=1/GPa)
#
#
# Indices 1 2 3 4 5 6 
#
# 1 0.007157 -0.002131 -0.003101 0.000000 0.000448 0.000000
# 2 -0.002131 0.016394 -0.003414 0.000000 -0.005543 0.000000
# 3 -0.003101 -0.003414 0.012068 0.000000 -0.001853 0.000000
# 4 0.000000 0.000000 0.000000 -0.001795 0.000000 -0.000251
# 5 0.000448 -0.005543 -0.001853 0.000000 0.022593 0.000000
# 6 0.000000 0.000000 0.000000 -0.000251 0.000000 0.042453
#
#
# Mechanical properties :
#
#
# Convention : Reuss Voigt Hill
#
# Bulk Modulus (GPa) = 54.56662 70.13686 62.35174
# Shear Modulus (GPa) = 40.89254 -80.82295 -19.96521
#
# Velocity S-wave (km/s) = 4.11674 -5.78761 -2.87653
# Velocity P-wave (km/s) = 6.72395 3.94895 3.84820
#
# Compressibility (1/GPa) = 0.01832622
#
# Stress axis : x y z
#
# Youngs Moduli (GPa) = 139.72585 60.99731 82.86587
#
# Poissons Ratio (x) = 0.12998 0.25696
# Poissons Ratio (y) = 0.29776 0.28293
# Poissons Ratio (z) = 0.43328 0.20826
#
# Static dielectric constant tensor:
#      x y z
#    x 6.035720 0.000000 -9.868160 
#    y 0.000000 2.064120 0.000000 
#    z -9.868160 0.000000 25.756620 
# 
# From -- ./inp_files/15652.got.cif
#   From: 2010.05.17/outbox.cif.g08.bks.cpg/sg3_8_cif.got.tgz:15652.got - 2010.06.03 18:33:08.
