data_PCOD9113188
_publ_section_title
;
Structure prediction by ZEFSAII (Michael W. Deem and Ramdas Pophale) SiO2 
 PCOD9113188
Probable space group: P 2
;
_chemical_formula_sum "Si O2"
_cell_formula_units_Z 10
_cell_length_a 5.317586
_cell_length_b 4.864885
_cell_length_c 14.963383
_cell_angle_alpha 90.000000
_cell_angle_beta 83.629615
_cell_angle_gamma 90.000000
_cell_volume 384.704252
_symmetry_space_group_name_H-M "P 2"
_symmetry_group_IT_number 3
_symmetry_cell_setting 'monoclinic'
loop_
_space_group_symop_operation_xyz
x,y,z
-x,y,-z
loop_
_atom_site_type_symbol
_atom_site_label
_atom_site_fract_x
_atom_site_fract_y
_atom_site_fract_z
Si Si1 0.698568 0.274200 0.757941
Si Si2 0.309172 0.906126 0.676114
Si Si3 0.453286 0.613849 0.905954
Si Si4 0.964934 0.724292 0.847830
Si Si5 0.907966 0.411683 0.405015
O O1 0.299427 0.617695 0.627173
O O2 0.894061 0.405082 0.826752
O O3 0.844466 0.405475 0.667874
O O4 0.557510 0.011387 0.717854
O O5 0.461672 0.428836 0.815933
O O6 0.080588 0.882434 0.758278
O O7 0.221006 0.118180 0.604293
O O8 0.178529 0.743681 0.913058
O O9 0.685857 0.828942 0.885028
O O10 0.500000 0.477441 0.000000
O O11 0.000000 0.473035 0.500000
#
# Coordination Sequence:
#
# PCOD9113188 Si02
#       5
#     2   2   2   2   2
#     4   9  22  39  73 101 151 197 251 308 386 442
#     4  11  23  45  72 106 151 201 256 314 388 459
#     4  10  20  43  73 111 151 202 254 319 378 459
#     4   9  22  39  72 109 149 197 254 306 385 445
#     4  11  25  45  72 112 150 203 257 320 387 466
#
# _framework density 25.993994000000001
#
# number of rings (size 3 to 8) (size 9 to 14) (size 15 to 20)
#    1.200    0.800    0.000    3.600    2.800    2.400 
#    0.000    5.000    4.400    0.000    0.000    0.000 
#    0.000    0.000    0.000    0.000    0.000    0.000 
#
# Total GULP energy -55690.896922 kJ/mol
# GULP energy per Si atom -5569.089692 kJ/mol
# Density = 2.593483 g / cm^3
# Si number density = 25.993994 Si / 1000 Ang^3
#
#
#
# Elastic Constant Matrix: (Units=GPa)
#
#
# Indices 1 2 3 4 5 6 
#
# 1 180.3615 18.4381 36.9438 0.0000 42.8901 0.0000
# 2 18.4381 75.4875 -1.5425 0.0000 15.3061 0.0000
# 3 36.9438 -1.5425 130.6845 0.0000 26.7845 0.0000
# 4 0.0000 0.0000 0.0000 17.3626 0.0000 0.9567
# 5 42.8901 15.3061 26.7845 0.0000 38.0405 0.0000
# 6 0.0000 0.0000 0.0000 0.9567 0.0000 33.9645
#
#
#
# Elastic Compliance Matrix: (Units=1/GPa)
#
#
# Indices 1 2 3 4 5 6 
#
# 1 0.007602 -0.000215 -0.000482 0.000000 -0.008145 0.000000
# 2 -0.000215 0.014718 0.001634 0.000000 -0.006830 0.000000
# 3 -0.000482 0.001634 0.009152 0.000000 -0.006558 0.000000
# 4 0.000000 0.000000 0.000000 0.057685 0.000000 -0.001625
# 5 -0.008145 -0.006830 -0.006558 0.000000 0.042837 0.000000
# 6 0.000000 0.000000 0.000000 -0.001625 0.000000 0.029488
#
#
# Mechanical properties :
#
#
# Convention : Reuss Voigt Hill
#
# Bulk Modulus (GPa) = 29.98853 54.91246 42.45050
# Shear Modulus (GPa) = 29.28721 40.05311 34.67016
#
# Velocity S-wave (km/s) = 3.36026 3.92964 3.65605
# Velocity P-wave (km/s) = 5.15916 6.46222 5.84710
#
# Compressibility (1/GPa) = 0.03334608
#
# Stress axis : x y z
#
# Youngs Moduli (GPa) = 131.54220 67.94346 109.26975
#
# Poissons Ratio (x) = 0.01462 0.05269
# Poissons Ratio (y) = 0.02830 -0.17860
# Poissons Ratio (z) = 0.06343 -0.11105
#
# Static dielectric constant tensor:
#      x y z
#    x 2.180340 0.000000 0.009650 
#    y 0.000000 2.251830 0.000000 
#    z 0.009650 0.000000 2.039370 
# 
# From -- ./inp_files/12800.got.cif
#   From: 2010.05.17/outbox.cif.g08.bks.cpg/sg3_7_cif.got.tgz:12800.got - 2010.06.03 18:33:08.
