data_PCOD9113445
_publ_section_title
;
Structure prediction by ZEFSAII (Michael W. Deem and Ramdas Pophale) SiO2 
 PCOD9113445
Probable space group: P 2
;
_chemical_formula_sum "Si O2"
_cell_formula_units_Z 14
_cell_length_a 8.512154
_cell_length_b 7.484046
_cell_length_c 17.218399
_cell_angle_alpha 90.000000
_cell_angle_beta 140.549527
_cell_angle_gamma 90.000000
_cell_volume 696.984958
_symmetry_space_group_name_H-M "P 2"
_symmetry_group_IT_number 3
_symmetry_cell_setting 'monoclinic'
loop_
_space_group_symop_operation_xyz
x,y,z
-x,y,-z
loop_
_atom_site_type_symbol
_atom_site_label
_atom_site_fract_x
_atom_site_fract_y
_atom_site_fract_z
Si Si1 0.798670 0.775250 0.759701
Si Si2 0.564218 0.429171 0.644634
Si Si3 0.023890 0.275498 0.421009
Si Si4 0.299368 0.954718 0.119745
Si Si5 0.667587 0.649015 0.987340
Si Si6 0.231069 0.088673 0.364319
Si Si7 0.519323 0.359151 0.806873
O O1 0.637429 0.629737 0.652908
O O2 0.660201 0.857134 0.782030
O O3 0.863867 0.942138 0.730875
O O4 0.047470 0.675165 0.880456
O O5 0.278646 0.386498 0.516980
O O6 0.723268 0.277209 0.662366
O O7 0.603527 0.411981 0.752376
O O8 0.056100 0.121372 0.370376
O O9 0.000000 0.207237 0.500000
O O10 0.777384 0.382396 0.306295
O O11 0.416950 0.150108 0.159968
O O12 0.391760 0.824474 0.086987
O O13 0.000000 0.972634 0.000000
O O14 0.635703 0.480057 0.918202
O O15 0.500000 0.633872 0.000000
O O16 0.500000 0.035544 0.500000
#
# Coordination Sequence:
#
# PCOD9113445 Si02
#       7
#     2   2   2   2   2   2   2
#     4  11  23  42  69  95 127 166 220 273 311 378
#     4  10  21  41  69  95 127 162 218 266 315 386
#     4   9  22  42  67  97 129 167 210 261 327 388
#     4  10  23  41  67  92 122 171 221 264 320 378
#     4  11  27  42  59  99 132 167 220 262 322 386
#     4  10  22  41  66  98 126 165 216 262 320 384
#     4  11  22  42  69  88 132 174 205 269 329 374
#
# _framework density 20.086514999999999
#
# number of rings (size 3 to 8) (size 9 to 14) (size 15 to 20)
#    0.000    1.714    2.857    0.000    6.000    2.286 
#    0.000    0.000    0.000    0.000    0.000    0.000 
#    0.000    0.000    0.000    0.000    0.000    0.000 
#
# Total GULP energy -78204.343522 kJ/mol
# GULP energy per Si atom -5586.024537 kJ/mol
# Density = 2.004080 g / cm^3
# Si number density = 20.086515 Si / 1000 Ang^3
#
#
#
# Elastic Constant Matrix: (Units=GPa)
#
#
# Indices 1 2 3 4 5 6 
#
# 1 97.0795 44.3298 40.7514 0.0000 -17.3042 0.0000
# 2 44.3298 126.7222 43.2861 0.0000 -6.8830 0.0000
# 3 40.7514 43.2861 65.6935 0.0000 -19.5893 0.0000
# 4 0.0000 0.0000 0.0000 19.5831 0.0000 -11.2366
# 5 -17.3042 -6.8830 -19.5893 0.0000 21.4788 0.0000
# 6 0.0000 0.0000 0.0000 -11.2366 0.0000 19.9173
#
#
#
# Elastic Compliance Matrix: (Units=1/GPa)
#
#
# Indices 1 2 3 4 5 6 
#
# 1 0.015117 -0.003069 -0.005518 0.000000 0.006163 0.000000
# 2 -0.003069 0.011053 -0.006950 0.000000 -0.005269 0.000000
# 3 -0.005518 -0.006950 0.029167 0.000000 0.019929 0.000000
# 4 0.000000 0.000000 0.000000 0.075507 0.000000 0.042598
# 5 0.006163 -0.005269 0.019929 0.000000 0.068010 0.000000
# 6 0.000000 0.000000 0.000000 0.042598 0.000000 0.074240
#
#
# Mechanical properties :
#
#
# Convention : Reuss Voigt Hill
#
# Bulk Modulus (GPa) = 41.21436 60.69219 50.95327
# Shear Modulus (GPa) = 16.01260 22.93772 19.47516
#
# Velocity S-wave (km/s) = 2.82650 3.38294 3.11716
# Velocity P-wave (km/s) = 5.58705 6.74833 6.19496
#
# Compressibility (1/GPa) = 0.02426339
#
# Stress axis : x y z
#
# Youngs Moduli (GPa) = 66.15165 90.47559 34.28506
#
# Poissons Ratio (x) = 0.27764 0.18917
# Poissons Ratio (y) = 0.20300 0.23830
# Poissons Ratio (z) = 0.36499 0.62885
#
# Static dielectric constant tensor:
#      x y z
#    x 1.723440 0.000000 -0.003260 
#    y 0.000000 1.687980 0.000000 
#    z -0.003260 0.000000 1.722370 
# 
# From -- ./inp_files/8802.got.cif
#   From: 2010.05.17/outbox.cif.g08.bks.cpg/sg3_5_cif.got.tgz:8802.got - 2010.06.03 18:33:08.
