data_PCOD9113839
_publ_section_title
;
Structure prediction by ZEFSAII (Michael W. Deem and Ramdas Pophale) SiO2 
 PCOD9113839
Probable space group: P 2
;
_chemical_formula_sum "Si O2"
_cell_formula_units_Z 10
_cell_length_a 13.332647
_cell_length_b 5.103142
_cell_length_c 8.378633
_cell_angle_alpha 90.000000
_cell_angle_beta 41.190849
_cell_angle_gamma 90.000000
_cell_volume 375.429738
_symmetry_space_group_name_H-M "P 2"
_symmetry_group_IT_number 3
_symmetry_cell_setting 'monoclinic'
loop_
_space_group_symop_operation_xyz
x,y,z
-x,y,-z
loop_
_atom_site_type_symbol
_atom_site_label
_atom_site_fract_x
_atom_site_fract_y
_atom_site_fract_z
Si Si1 0.613915 0.322970 0.239593
Si Si2 0.307023 0.242212 0.426766
Si Si3 0.887348 0.718340 0.284929
Si Si4 0.000000 0.787844 0.500000
Si Si5 0.500000 0.569712 0.000000
Si Si6 0.702852 0.830100 0.012549
O O1 0.500000 0.454276 0.500000
O O2 0.481019 0.235659 0.277276
O O3 0.730611 0.541046 0.048855
O O4 0.686347 0.038506 0.175887
O O5 0.211574 0.461336 0.636591
O O6 0.349527 0.392556 0.211594
O O7 0.219010 0.971838 0.551780
O O8 0.958837 0.660953 0.376552
O O9 0.000000 0.768185 0.000000
O O10 0.157107 0.930643 0.262153
O O11 0.442049 0.757178 0.926653
#
# Coordination Sequence:
#
# PCOD9113839 Si02
#       6
#     2   2   2   1   1   2
#     4  11  26  44  75 104 147 188 249 305 362 430
#     4  11  25  46  75 104 144 195 246 305 362 431
#     4  12  29  49  74 106 152 194 244 300 369 440
#     4  12  30  48  78 108 152 194 246 298 374 434
#     4  10  22  48  74 102 142 190 254 294 368 430
#     4  11  26  44  74 105 143 192 244 301 362 439
#
# _framework density 26.636140000000001
#
# number of rings (size 3 to 8) (size 9 to 14) (size 15 to 20)
#    0.000    0.800    2.000    3.600   11.200    4.800 
#    0.000    0.000    0.000    0.000    0.000    0.000 
#    0.000    0.000    0.000    0.000    0.000    0.000 
#
# Total GULP energy -55687.401257 kJ/mol
# GULP energy per Si atom -5568.740126 kJ/mol
# Density = 2.657551 g / cm^3
# Si number density = 26.636140 Si / 1000 Ang^3
#
#
#
# Elastic Constant Matrix: (Units=GPa)
#
#
# Indices 1 2 3 4 5 6 
#
# 1 60.5578 2.2285 9.9592 0.0000 2.0380 0.0000
# 2 2.2285 153.3788 28.6023 0.0000 -33.3369 0.0000
# 3 9.9592 28.6023 153.9971 0.0000 -22.6078 0.0000
# 4 0.0000 0.0000 0.0000 19.6819 0.0000 11.4459
# 5 2.0380 -33.3369 -22.6078 0.0000 38.9882 0.0000
# 6 0.0000 0.0000 0.0000 11.4459 0.0000 -11.9300
#
#
#
# Elastic Compliance Matrix: (Units=1/GPa)
#
#
# Indices 1 2 3 4 5 6 
#
# 1 0.016811 -0.000438 -0.001301 0.000000 -0.002007 0.000000
# 2 -0.000438 0.008059 -0.000496 0.000000 0.006626 0.000000
# 3 -0.001301 -0.000496 0.007233 0.000000 0.003838 0.000000
# 4 0.000000 0.000000 0.000000 0.032612 0.000000 0.031289
# 5 -0.002007 0.006626 0.003838 0.000000 0.033645 0.000000
# 6 0.000000 0.000000 0.000000 0.031289 0.000000 -0.053803
#
#
# Mechanical properties :
#
#
# Convention : Reuss Voigt Hill
#
# Bulk Modulus (GPa) = 36.18686 49.94598 43.06642
# Shear Modulus (GPa) = 85.85609 31.15761 58.50685
#
# Velocity S-wave (km/s) = 5.68356 3.42387 4.69179
# Velocity P-wave (km/s) = 7.52899 5.86706 6.74937
#
# Compressibility (1/GPa) = 0.02763434
#
# Stress axis : x y z
#
# Youngs Moduli (GPa) = 59.48595 124.08787 138.24916
#
# Poissons Ratio (x) = 0.05435 0.17980
# Poissons Ratio (y) = 0.02606 0.06853
# Poissons Ratio (z) = 0.07736 0.06151
#
# Static dielectric constant tensor:
#      x y z
#    x 2.333930 0.000000 0.161980 
#    y 0.000000 2.121980 0.000000 
#    z 0.161980 0.000000 2.156470 
# 
# From -- ./inp_files/7917.got.cif
#   From: 2010.05.17/outbox.cif.g08.bks.cpg/sg3_4_cif.got.tgz:7917.got - 2010.06.03 18:33:08.
