data_PCOD9113478
_publ_section_title
;
Structure prediction by ZEFSAII (Michael W. Deem and Ramdas Pophale) SiO2 
 PCOD9113478
Probable space group: P 2
;
_chemical_formula_sum "Si O2"
_cell_formula_units_Z 13
_cell_length_a 18.382400
_cell_length_b 5.265023
_cell_length_c 5.514654
_cell_angle_alpha 90.000000
_cell_angle_beta 108.455241
_cell_angle_gamma 90.000000
_cell_volume 506.279926
_symmetry_space_group_name_H-M "P 2"
_symmetry_group_IT_number 3
_symmetry_cell_setting 'monoclinic'
loop_
_space_group_symop_operation_xyz
x,y,z
-x,y,-z
loop_
_atom_site_type_symbol
_atom_site_label
_atom_site_fract_x
_atom_site_fract_y
_atom_site_fract_z
Si Si1 0.157228 0.455740 0.651522
Si Si2 0.221830 0.829741 0.100960
Si Si3 0.273083 0.321199 0.406825
Si Si4 0.588798 0.169254 0.669099
Si Si5 0.070536 0.816412 0.196874
Si Si6 0.548684 0.667209 0.805464
Si Si7 0.000000 0.206974 0.500000
O O1 0.210161 0.651778 0.855296
O O2 0.215530 0.269212 0.568908
O O3 0.115798 0.623654 0.407785
O O4 0.078795 0.340733 0.682723
O O5 0.261114 0.617340 0.321530
O O6 0.133245 0.892471 0.070066
O O7 0.254466 0.114129 0.174008
O O8 0.362509 0.250604 0.515513
O O9 0.500000 0.143970 0.500000
O O10 0.593943 0.403689 0.858632
O O11 0.604605 0.903430 0.817798
O O12 0.034623 0.037319 0.320368
O O13 0.000000 0.678497 0.000000
O O14 0.500000 0.647788 0.500000
O O15 0.500000 0.702780 0.000000
#
# Coordination Sequence:
#
# PCOD9113478 Si02
#       7
#     2   2   2   2   2   2   1
#     4  11  26  45  70 103 148 199 250 310 387 449
#     4  11  25  45  70 103 147 195 243 311 378 454
#     4  11  25  48  70 106 149 194 252 309 382 461
#     4  10  22  45  74 107 145 189 249 312 375 451
#     4  11  24  41  68  99 142 185 250 309 365 453
#     4  10  21  42  72 106 147 188 241 306 378 452
#     4  12  22  40  70 102 138 196 254 308 378 448
#
# _framework density 25.677496000000001
#
# number of rings (size 3 to 8) (size 9 to 14) (size 15 to 20)
#    0.000    1.231    1.538    3.692    4.308    0.615 
#   16.615    0.000    0.000    0.000    0.000    0.000 
#    0.000    0.000    0.000    0.000    0.000    0.000 
#
# Total GULP energy -72483.149510 kJ/mol
# GULP energy per Si atom -5575.626885 kJ/mol
# Density = 2.561905 g / cm^3
# Si number density = 25.677496 Si / 1000 Ang^3
#
#
#
# Elastic Constant Matrix: (Units=GPa)
#
#
# Indices 1 2 3 4 5 6 
#
# 1 104.7514 19.2426 7.6161 0.0000 -13.2058 0.0000
# 2 19.2426 158.0301 8.0157 0.0000 -17.2005 0.0000
# 3 7.6161 8.0157 67.6818 0.0000 -14.1448 0.0000
# 4 0.0000 0.0000 0.0000 48.3845 0.0000 -39.5779
# 5 -13.2058 -17.2005 -14.1448 0.0000 26.6927 0.0000
# 6 0.0000 0.0000 0.0000 -39.5779 0.0000 81.8226
#
#
#
# Elastic Compliance Matrix: (Units=1/GPa)
#
#
# Indices 1 2 3 4 5 6 
#
# 1 0.010264 -0.000751 -0.000119 0.000000 0.004531 0.000000
# 2 -0.000751 0.006861 0.000133 0.000000 0.004120 0.000000
# 3 -0.000119 0.000133 0.016619 0.000000 0.008833 0.000000
# 4 0.000000 0.000000 0.000000 0.034199 0.000000 0.016542
# 5 0.004531 0.004120 0.008833 0.000000 0.047041 0.000000
# 6 0.000000 0.000000 0.000000 0.016542 0.000000 0.020223
#
#
# Mechanical properties :
#
#
# Convention : Reuss Voigt Hill
#
# Bulk Modulus (GPa) = 30.98805 44.46804 37.72804
# Shear Modulus (GPa) = 33.91268 51.08589 42.49928
#
# Velocity S-wave (km/s) = 3.63811 4.46524 4.07273
# Velocity P-wave (km/s) = 5.45364 6.62873 6.06969
#
# Compressibility (1/GPa) = 0.03227050
#
# Stress axis : x y z
#
# Youngs Moduli (GPa) = 97.42602 145.75080 60.17311
#
# Poissons Ratio (x) = 0.10940 0.00717
# Poissons Ratio (y) = 0.07313 -0.00800
# Poissons Ratio (z) = 0.01161 -0.01938
#
# Static dielectric constant tensor:
#      x y z
#    x 2.412470 0.000000 -0.022970 
#    y 0.000000 2.124470 0.000000 
#    z -0.022970 0.000000 2.059890 
# 
# From -- ./inp_files/3430.got.cif
#   From: 2010.05.17/outbox.cif.g08.bks.cpg/sg3_2_cif.got.tgz:3430.got - 2010.06.03 18:33:08.
