data_PCOD9113784
_publ_section_title
;
Structure prediction by ZEFSAII (Michael W. Deem and Ramdas Pophale) SiO2 
 PCOD9113784
Probable space group: P 2
;
_chemical_formula_sum "Si O2"
_cell_formula_units_Z 12
_cell_length_a 9.821437
_cell_length_b 7.379566
_cell_length_c 14.348461
_cell_angle_alpha 90.000000
_cell_angle_beta 144.424345
_cell_angle_gamma 90.000000
_cell_volume 605.017654
_symmetry_space_group_name_H-M "P 2"
_symmetry_group_IT_number 3
_symmetry_cell_setting 'monoclinic'
loop_
_space_group_symop_operation_xyz
x,y,z
-x,y,-z
loop_
_atom_site_type_symbol
_atom_site_label
_atom_site_fract_x
_atom_site_fract_y
_atom_site_fract_z
Si Si1 0.336925 0.625000 0.324976
Si Si2 0.000000 0.291365 0.500000
Si Si3 0.735536 0.756129 0.184058
Si Si4 0.500000 0.979734 0.500000
Si Si5 0.861546 0.439836 0.119579
Si Si6 0.960976 0.101219 0.673984
Si Si7 0.441213 0.549992 0.751359
O O1 0.500000 0.549858 0.500000
O O2 0.447661 0.594616 0.286047
O O3 0.085884 0.531941 0.195406
O O4 0.347055 0.840938 0.351419
O O5 0.010339 0.176122 0.599239
O O6 0.771396 0.414385 0.380754
O O7 0.810404 0.562622 0.182431
O O8 0.666396 0.721876 0.252600
O O9 0.500000 0.814674 0.000000
O O10 0.933560 0.899736 0.270088
O O11 0.686184 0.091985 0.544774
O O12 0.917822 0.237250 0.184704
O O13 0.639225 0.463575 0.928671
#
# Coordination Sequence:
#
# PCOD9113784 Si02
#       7
#     2   1   2   1   2   2   2
#     4  10  22  44  71  95 137 176 225 273 332 397
#     4  12  28  38  70 104 136 174 228 278 340 406
#     4  10  23  43  71  98 134 175 221 286 335 400
#     4  10  26  42  70  98 136 178 230 274 336 398
#     4  11  23  47  71  96 137 181 227 275 336 400
#     4  12  26  44  69 100 136 178 227 279 340 397
#     4  11  25  44  71 103 134 180 225 276 342 401
#
# _framework density 19.834132
#
# number of rings (size 3 to 8) (size 9 to 14) (size 15 to 20)
#    0.500    0.667    3.333    1.500   10.500    0.000 
#    0.000    0.000    0.000    0.000    0.000    0.000 
#    0.000    0.000    0.000    0.000    0.000    0.000 
#
# Total GULP energy -67029.318938 kJ/mol
# GULP energy per Si atom -5585.776578 kJ/mol
# Density = 1.978899 g / cm^3
# Si number density = 19.834132 Si / 1000 Ang^3
#
#
#
# Elastic Constant Matrix: (Units=GPa)
#
#
# Indices 1 2 3 4 5 6 
#
# 1 148.2176 10.2682 13.5630 0.0000 -1.7475 0.0000
# 2 10.2682 41.4709 14.0915 0.0000 -7.5158 0.0000
# 3 13.5630 14.0915 44.2191 0.0000 9.5531 0.0000
# 4 0.0000 0.0000 0.0000 4.5570 0.0000 -27.9796
# 5 -1.7475 -7.5158 9.5531 0.0000 34.9254 0.0000
# 6 0.0000 0.0000 0.0000 -27.9796 0.0000 -83.8926
#
#
#
# Elastic Compliance Matrix: (Units=1/GPa)
#
#
# Indices 1 2 3 4 5 6 
#
# 1 0.007003 -0.000926 -0.002004 0.000000 0.000699 0.000000
# 2 -0.000926 0.029896 -0.011290 0.000000 0.009475 0.000000
# 3 -0.002004 -0.011290 0.029093 0.000000 -0.010488 0.000000
# 4 0.000000 0.000000 0.000000 0.072001 0.000000 -0.024014
# 5 0.000699 0.009475 -0.010488 0.000000 0.033575 0.000000
# 6 0.000000 0.000000 0.000000 -0.024014 0.000000 -0.003911
#
#
# Mechanical properties :
#
#
# Convention : Reuss Voigt Hill
#
# Bulk Modulus (GPa) = 26.63014 34.41700 30.52357
# Shear Modulus (GPa) = 23.96771 4.18363 14.07567
#
# Velocity S-wave (km/s) = 3.47999 1.45392 2.66685
# Velocity P-wave (km/s) = 5.44083 4.49540 4.99055
#
# Compressibility (1/GPa) = 0.03755144
#
# Stress axis : x y z
#
# Youngs Moduli (GPa) = 142.80397 33.44908 34.37275
#
# Poissons Ratio (x) = 0.03098 0.06887
# Poissons Ratio (y) = 0.13228 0.38807
# Poissons Ratio (z) = 0.28614 0.37764
#
# Static dielectric constant tensor:
#      x y z
#    x 1.684670 0.000000 0.000870 
#    y 0.000000 1.705010 0.000000 
#    z 0.000870 0.000000 1.700940 
# 
# From -- ./inp_files/8438.got.cif
#   From: 2010.05.17/outbox.cif.g08.bks.cpg/sg3_5_cif.got.tgz:8438.got - 2010.06.03 18:33:08.
