data_PCOD9113001
_publ_section_title
;
Structure prediction by ZEFSAII (Michael W. Deem and Ramdas Pophale) SiO2 
 PCOD9113001
Probable space group: P 2
;
_chemical_formula_sum "Si O2"
_cell_formula_units_Z 15
_cell_length_a 12.002879
_cell_length_b 6.222450
_cell_length_c 11.241491
_cell_angle_alpha 90.000000
_cell_angle_beta 57.449504
_cell_angle_gamma 90.000000
_cell_volume 707.710884
_symmetry_space_group_name_H-M "P 2"
_symmetry_group_IT_number 3
_symmetry_cell_setting 'monoclinic'
loop_
_space_group_symop_operation_xyz
x,y,z
-x,y,-z
loop_
_atom_site_type_symbol
_atom_site_label
_atom_site_fract_x
_atom_site_fract_y
_atom_site_fract_z
Si Si1 0.883318 0.548350 0.873490
Si Si2 0.805765 0.895257 0.716054
Si Si3 0.695277 0.267381 0.129790
Si Si4 0.000000 0.208626 0.500000
Si Si5 0.766487 0.527213 0.573712
Si Si6 0.812608 0.527140 0.287821
Si Si7 0.423165 0.249158 0.165722
Si Si8 0.864776 0.887672 0.092758
O O1 0.836901 0.710475 0.795685
O O2 0.033355 0.459946 0.776231
O O3 0.773322 0.372834 0.972269
O O4 0.888853 0.696775 0.986748
O O5 0.802867 0.766702 0.592925
O O6 0.671774 0.039751 0.799902
O O7 0.927601 0.060393 0.638857
O O8 0.742293 0.396357 0.221411
O O9 0.541134 0.241321 0.194048
O O10 0.747174 0.028972 0.115741
O O11 0.111636 0.365046 0.484478
O O12 0.730192 0.516546 0.456397
O O13 0.665075 0.439474 0.729945
O O14 0.830492 0.775040 0.235930
O O15 0.500000 0.295840 0.000000
O O16 0.000000 0.022443 0.000000
#
# Coordination Sequence:
#
# PCOD9113001 Si02
#       8
#     2   2   2   1   2   2   2   2
#     4  10  20  37  64  97 126 163 214 269 329 382
#     4  11  23  40  65  93 127 168 216 275 333 394
#     4  11  22  40  63  91 130 172 214 264 320 386
#     4  10  22  40  64  98 126 162 216 274 336 392
#     4  11  24  42  63  91 129 169 213 270 335 393
#     4  10  22  38  62  95 126 163 211 267 333 395
#     4  11  26  43  62  91 123 171 227 268 322 393
#     4   9  19  35  59  92 124 160 209 266 327 384
#
# _framework density 21.195095999999999
#
# number of rings (size 3 to 8) (size 9 to 14) (size 15 to 20)
#    0.000    1.600    0.000    5.600    0.000   11.733 
#    0.000    0.000    0.000    0.000    0.000    0.000 
#    0.000    0.000    0.000    0.000    0.000    0.000 
#
# Total GULP energy -83647.564250 kJ/mol
# GULP energy per Si atom -5576.504283 kJ/mol
# Density = 2.114686 g / cm^3
# Si number density = 21.195096 Si / 1000 Ang^3
#
#
#
# Elastic Constant Matrix: (Units=GPa)
#
#
# Indices 1 2 3 4 5 6 
#
# 1 111.9724 24.5475 34.5008 0.0000 -12.9310 0.0000
# 2 24.5475 51.4860 35.2865 0.0000 -9.4606 0.0000
# 3 34.5008 35.2865 119.8976 0.0000 8.4033 0.0000
# 4 0.0000 0.0000 0.0000 -45.9567 0.0000 22.7867
# 5 -12.9310 -9.4606 8.4033 0.0000 32.1860 0.0000
# 6 0.0000 0.0000 0.0000 22.7867 0.0000 28.8885
#
#
#
# Elastic Compliance Matrix: (Units=1/GPa)
#
#
# Indices 1 2 3 4 5 6 
#
# 1 0.010803 -0.002538 -0.002662 0.000000 0.004289 0.000000
# 2 -0.002538 0.027923 -0.008140 0.000000 0.009313 0.000000
# 3 -0.002662 -0.008140 0.011964 0.000000 -0.006586 0.000000
# 4 0.000000 0.000000 0.000000 -0.015642 0.000000 0.012338
# 5 0.004289 0.009313 -0.006586 0.000000 0.037250 0.000000
# 6 0.000000 0.000000 0.000000 0.012338 0.000000 0.024884
#
#
# Mechanical properties :
#
#
# Convention : Reuss Voigt Hill
#
# Bulk Modulus (GPa) = 41.65123 52.44728 47.04926
# Shear Modulus (GPa) = 37.91750 15.62499 26.77124
#
# Velocity S-wave (km/s) = 4.23422 2.71808 3.55785
# Velocity P-wave (km/s) = 6.60294 5.88637 6.25492
#
# Compressibility (1/GPa) = 0.02400890
#
# Stress axis : x y z
#
# Youngs Moduli (GPa) = 92.56904 35.81249 83.58483
#
# Poissons Ratio (x) = 0.09088 0.22252
# Poissons Ratio (y) = 0.23492 0.68042
# Poissons Ratio (z) = 0.24644 0.29153
#
# Static dielectric constant tensor:
#      x y z
#    x 1.968770 0.000000 -0.072410 
#    y 0.000000 1.757670 0.000000 
#    z -0.072410 0.000000 1.840950 
# 
# From -- ./inp_files/11271.got.cif
#   From: 2010.05.17/outbox.cif.g08.bks.cpg/sg3_6_cif.got.tgz:11271.got - 2010.06.03 18:33:08.
