data_PCOD9113735
_publ_section_title
;
Structure prediction by ZEFSAII (Michael W. Deem and Ramdas Pophale) SiO2 
 PCOD9113735
Probable space group: P 2
;
_chemical_formula_sum "Si O2"
_cell_formula_units_Z 15
_cell_length_a 18.255157
_cell_length_b 6.960747
_cell_length_c 8.169062
_cell_angle_alpha 90.000000
_cell_angle_beta 143.608861
_cell_angle_gamma 90.000000
_cell_volume 615.862644
_symmetry_space_group_name_H-M "P 2"
_symmetry_group_IT_number 3
_symmetry_cell_setting 'monoclinic'
loop_
_space_group_symop_operation_xyz
x,y,z
-x,y,-z
loop_
_atom_site_type_symbol
_atom_site_label
_atom_site_fract_x
_atom_site_fract_y
_atom_site_fract_z
Si Si1 0.850014 0.294810 0.729067
Si Si2 0.226529 0.856871 0.468356
Si Si3 0.866098 0.564340 0.461867
Si Si4 0.363129 0.789487 0.411448
Si Si5 0.142016 0.421858 0.895882
Si Si6 0.710436 0.121597 0.957988
Si Si7 0.500000 0.437477 0.500000
Si Si8 0.432597 0.004261 0.017613
O O1 0.810867 0.422713 0.502115
O O2 0.805817 0.076498 0.629446
O O3 0.807576 0.375944 0.829860
O O4 0.000000 0.295861 0.000000
O O5 0.138624 0.763071 0.445468
O O6 0.248306 0.765897 0.328823
O O7 0.363226 0.837095 0.794230
O O8 0.809855 0.550339 0.175569
O O9 0.006342 0.500192 0.685505
O O10 0.434846 0.592512 0.503859
O O11 0.315381 0.919888 0.175789
O O12 0.465894 0.930494 0.675434
O O13 0.157291 0.210000 0.843641
O O14 0.611364 0.288198 0.733877
O O15 0.680079 0.095296 0.091215
O O16 0.500000 0.128375 0.000000
#
# Coordination Sequence:
#
# PCOD9113735 Si02
#       8
#     2   2   2   2   2   2   1   2
#     4  10  22  44  69  98 140 186 234 292 362 428
#     4  11  24  43  70  98 143 184 231 300 366 420
#     4  10  24  46  65 110 139 177 250 306 345 446
#     4  11  23  43  65 102 139 178 242 286 359 448
#     4  10  23  44  73  97 143 185 239 298 365 426
#     4  12  22  44  71  97 138 191 233 296 365 439
#     4  12  24  38  68  96 136 176 236 292 348 438
#     4  10  22  43  64  96 143 178 233 297 351 437
#
# _framework density 24.356079999999999
#
# number of rings (size 3 to 8) (size 9 to 14) (size 15 to 20)
#    0.000    1.333    4.000    0.800    3.733    1.600 
#    2.400   10.667    0.000    0.000    0.000    0.000 
#    0.000    0.000    0.000    0.000    0.000    0.000 
#
# Total GULP energy -83542.290527 kJ/mol
# GULP energy per Si atom -5569.486035 kJ/mol
# Density = 2.430064 g / cm^3
# Si number density = 24.356080 Si / 1000 Ang^3
#
#
#
# Elastic Constant Matrix: (Units=GPa)
#
#
# Indices 1 2 3 4 5 6 
#
# 1 185.9246 48.7688 34.2106 0.0000 -41.7667 0.0000
# 2 48.7688 120.4726 47.0795 0.0000 -25.7372 0.0000
# 3 34.2106 47.0795 61.0762 0.0000 -10.9048 0.0000
# 4 0.0000 0.0000 0.0000 20.1814 0.0000 12.0922
# 5 -41.7667 -25.7372 -10.9048 0.0000 42.7394 0.0000
# 6 0.0000 0.0000 0.0000 12.0922 0.0000 42.0949
#
#
#
# Elastic Compliance Matrix: (Units=1/GPa)
#
#
# Indices 1 2 3 4 5 6 
#
# 1 0.007412 -0.000699 -0.002509 0.000000 0.006182 0.000000
# 2 -0.000699 0.013084 -0.008810 0.000000 0.004947 0.000000
# 3 -0.002509 -0.008810 0.024291 0.000000 -0.001560 0.000000
# 4 0.000000 0.000000 0.000000 0.059852 0.000000 -0.017193
# 5 0.006182 0.004947 -0.001560 0.000000 0.032021 0.000000
# 6 0.000000 0.000000 0.000000 -0.017193 0.000000 0.028695
#
#
# Mechanical properties :
#
#
# Convention : Reuss Voigt Hill
#
# Bulk Modulus (GPa) = 48.19264 69.73236 58.96250
# Shear Modulus (GPa) = 25.47006 36.83077 31.15041
#
# Velocity S-wave (km/s) = 3.23729 3.89289 3.58013
# Velocity P-wave (km/s) = 5.81404 6.99276 6.43047
#
# Compressibility (1/GPa) = 0.02075006
#
# Stress axis : x y z
#
# Youngs Moduli (GPa) = 134.90750 76.43115 41.16735
#
# Poissons Ratio (x) = 0.05345 0.10329
# Poissons Ratio (y) = 0.09435 0.36269
# Poissons Ratio (z) = 0.33848 0.67338
#
# Static dielectric constant tensor:
#      x y z
#    x 2.053230 0.000000 -0.010800 
#    y 0.000000 1.995870 0.000000 
#    z -0.010800 0.000000 2.026500 
# 
# From -- ./inp_files/9389.got.cif
#   From: 2010.05.17/outbox.cif.g08.bks.cpg/sg3_5_cif.got.tgz:9389.got - 2010.06.03 18:33:08.
